MODEL 1
REMARK VINA RESULT:     -12.1      0.000      0.000
REMARK SMILES CS(=O)(=O)c1ccc(-c2cc(Cl)cnc2-c2ccc(C(=O)OCCOC(=O)c3ccc(-c4c5nc(c(-c6ccc(S(=O)(=O)[O-])cc6)c6ccc([nH]6)c(-c6ccc(S(=O)(=O)[O-])cc6)c6nc(c(-c7ccc(S(=O)(=O)[O-])cc7)c7ccc4[nH]7)C=C6)C=C5)cc3)nc2)cc1
REMARK SMILES IDX 23 1 22 2 20 3 21 4 19 5 16 6 17 7 89 8 18 9 88 10 15 11
REMARK SMILES IDX 9 12 10 13 11 14 14 15 12 16 13 17 8 18 5 19 6 20 91 21 7 22
REMARK SMILES IDX 90 23 2 24 1 25 3 26 4 27 24 28 25 29 26 30 27 31 28 32
REMARK SMILES IDX 29 33 87 34 30 35 86 36 31 37 32 38 33 39 80 40 34 41 85 42
REMARK SMILES IDX 79 43 81 44 35 45 84 46 78 47 77 48 36 50 66 51 47 52 65 53
REMARK SMILES IDX 48 54 51 55 64 56 82 57 49 58 50 59 63 61 83 62 52 63 37 64
REMARK SMILES IDX 38 65 46 66 39 67 45 68 40 69 41 70 42 71 43 72 44 73 67 74
REMARK SMILES IDX 68 75 76 76 69 77 75 78 70 79 71 80 72 81 73 82 74 83 53 84
REMARK SMILES IDX 54 85 62 86 55 87 61 88 56 89 57 90 58 91 59 92 60 93
REMARK H PARENT 81 49 51 60
REMARK Flexibility Score: inf
ROOT
ATOM      1  C   UNL A   1      40.018  21.704  26.513  1.00  0.00     0.275 C 
ENDROOT
BRANCH   1   2
ATOM      2  O   UNL A   1      38.783  22.358  26.162  1.00  0.00    -0.457 OA
BRANCH   2   3
ATOM      3  C   UNL A   1      37.967  21.635  25.349  1.00  0.00     0.357 C 
ATOM      4  O   UNL A   1      38.114  20.453  25.074  1.00  0.00    -0.244 OA
BRANCH   3   5
ATOM      5  C   UNL A   1      36.789  22.445  24.907  1.00  0.00     0.148 A 
ATOM      6  C   UNL A   1      34.566  23.972  24.321  1.00  0.00     0.019 A 
ATOM      7  C   UNL A   1      35.291  23.365  23.287  1.00  0.00     0.014 A 
ATOM      8  C   UNL A   1      35.049  23.803  25.611  1.00  0.00     0.122 A 
ATOM      9  C   UNL A   1      36.429  22.603  23.577  1.00  0.00     0.037 A 
ATOM     10  N   UNL A   1      36.098  23.020  25.924  1.00  0.00    -0.249 NA
BRANCH   6  11
ATOM     11  C   UNL A   1      33.270  24.622  24.123  1.00  0.00     0.080 A 
ATOM     12  C   UNL A   1      32.083  23.866  23.978  1.00  0.00     0.010 A 
ATOM     13  C   UNL A   1      30.880  24.574  23.856  1.00  0.00     0.033 A 
ATOM     14  C   UNL A   1      30.889  25.965  23.911  1.00  0.00     0.060 A 
ATOM     15  N   UNL A   1      33.291  25.977  24.171  1.00  0.00    -0.254 NA
ATOM     16  Cl  UNL A   1      29.424  26.849  23.775  1.00  0.00    -0.083 Cl
ATOM     17  C   UNL A   1      32.100  26.616  24.075  1.00  0.00     0.132 A 
BRANCH  12  18
ATOM     18  C   UNL A   1      32.102  22.394  23.961  1.00  0.00    -0.016 A 
ATOM     19  C   UNL A   1      32.502  19.614  23.907  1.00  0.00     0.067 A 
ATOM     20  C   UNL A   1      32.456  20.286  25.130  1.00  0.00     0.021 A 
ATOM     21  C   UNL A   1      32.297  20.309  22.712  1.00  0.00     0.021 A 
ATOM     22  C   UNL A   1      32.239  21.663  25.154  1.00  0.00     0.010 A 
ATOM     23  C   UNL A   1      32.099  21.694  22.745  1.00  0.00     0.010 A 
BRANCH  19  24
ATOM     24  S   UNL A   1      32.863  17.876  23.948  1.00  0.00     0.175 S 
ATOM     25  C   UNL A   1      34.559  17.700  24.409  1.00  0.00     0.163 C 
ATOM     26  O   UNL A   1      32.744  17.394  22.586  1.00  0.00    -0.224 OA
ATOM     27  O   UNL A   1      32.071  17.317  25.026  1.00  0.00    -0.224 OA
ENDBRANCH  19  24
ENDBRANCH  12  18
ENDBRANCH   6  11
ENDBRANCH   3   5
ENDBRANCH   2   3
ENDBRANCH   1   2
BRANCH   1  28
ATOM     28  C   UNL A   1      41.189  22.692  26.559  1.00  0.00     0.275 C 
BRANCH  28  29
ATOM     29  O   UNL A   1      40.767  24.054  26.345  1.00  0.00    -0.458 OA
BRANCH  29  30
ATOM     30  C   UNL A   1      41.770  24.961  26.271  1.00  0.00     0.338 C 
ATOM     31  O   UNL A   1      42.528  25.138  25.331  1.00  0.00    -0.246 OA
BRANCH  30  32
ATOM     32  C   UNL A   1      41.774  25.820  27.468  1.00  0.00     0.060 A 
ATOM     33  C   UNL A   1      40.727  25.663  28.369  1.00  0.00     0.016 A 
ATOM     34  C   UNL A   1      42.695  26.849  27.649  1.00  0.00     0.016 A 
ATOM     35  C   UNL A   1      40.552  26.547  29.426  1.00  0.00     0.010 A 
ATOM     36  C   UNL A   1      42.551  27.717  28.745  1.00  0.00     0.010 A 
ATOM     37  C   UNL A   1      41.465  27.586  29.633  1.00  0.00    -0.014 A 
BRANCH  37  38
ATOM     38  C   UNL A   1      41.238  28.530  30.760  1.00  0.00     0.031 A 
ATOM     39  C   UNL A   1      42.143  28.513  31.964  1.00  0.00     0.074 A 
ATOM     40  C   UNL A   1      40.256  29.451  30.675  1.00  0.00     0.049 A 
ATOM     41  N   UNL A   1      42.075  29.229  33.058  1.00  0.00    -0.248 NA
ATOM     42  C   UNL A   1      43.271  27.567  31.936  1.00  0.00     0.031 C 
ATOM     43  C   UNL A   1      39.346  29.616  29.540  1.00  0.00     0.029 A 
ATOM     44  N   UNL A   1      39.873  30.438  31.551  1.00  0.00    -0.354 N 
ATOM     45  C   UNL A   1      43.125  28.797  33.862  1.00  0.00     0.074 A 
ATOM     46  C   UNL A   1      43.810  27.751  33.134  1.00  0.00     0.031 C 
ATOM     47  C   UNL A   1      38.535  30.660  29.773  1.00  0.00     0.029 A 
ATOM     48  C   UNL A   1      38.821  31.200  31.098  1.00  0.00     0.049 A 
ATOM     49  H   UNL A   1      40.311  30.587  32.421  1.00  0.00     0.167 HD
ATOM     50  C   UNL A   1      43.484  29.233  35.094  1.00  0.00     0.031 A 
ATOM     51  C   UNL A   1      38.142  32.202  31.689  1.00  0.00     0.031 A 
ATOM     52  C   UNL A   1      42.817  30.290  35.808  1.00  0.00     0.049 A 
ATOM     53  C   UNL A   1      38.531  32.631  33.076  1.00  0.00     0.074 A 
ATOM     54  C   UNL A   1      43.116  30.810  37.057  1.00  0.00     0.029 A 
ATOM     55  N   UNL A   1      41.721  30.998  35.337  1.00  0.00    -0.354 N 
ATOM     56  N   UNL A   1      39.511  32.194  33.830  1.00  0.00    -0.248 NA
ATOM     57  C   UNL A   1      37.715  33.685  33.697  1.00  0.00     0.031 C 
ATOM     58  C   UNL A   1      42.173  31.798  37.359  1.00  0.00     0.029 A 
ATOM     59  C   UNL A   1      41.319  31.932  36.278  1.00  0.00     0.049 A 
ATOM     60  H   UNL A   1      41.293  30.857  34.461  1.00  0.00     0.167 HD
ATOM     61  C   UNL A   1      39.437  32.928  35.009  1.00  0.00     0.074 A 
ATOM     62  C   UNL A   1      38.332  33.853  34.857  1.00  0.00     0.031 C 
ATOM     63  C   UNL A   1      40.213  32.841  36.118  1.00  0.00     0.031 A 
BRANCH  50  64
ATOM     64  C   UNL A   1      44.630  28.531  35.775  1.00  0.00    -0.014 A 
ATOM     65  C   UNL A   1      44.427  27.376  36.552  1.00  0.00     0.010 A 
ATOM     66  C   UNL A   1      45.940  29.013  35.594  1.00  0.00     0.010 A 
ATOM     67  C   UNL A   1      45.511  26.738  37.164  1.00  0.00     0.020 A 
ATOM     68  C   UNL A   1      47.028  28.364  36.184  1.00  0.00     0.020 A 
ATOM     69  C   UNL A   1      46.805  27.239  36.980  1.00  0.00     0.054 A 
BRANCH  69  70
ATOM     70  S   UNL A   1      48.196  26.379  37.766  1.00  0.00     0.124 S 
ATOM     71  O   UNL A   1      48.295  27.075  39.046  1.00  0.00    -0.237 OA
ATOM     72  O   UNL A   1      47.723  24.999  37.837  1.00  0.00    -0.237 OA
ATOM     73  O   UNL A   1      49.308  26.606  36.846  1.00  0.00    -0.744 OA
ENDBRANCH  69  70
ENDBRANCH  50  64
BRANCH  51  74
ATOM     74  C   UNL A   1      36.997  32.843  30.987  1.00  0.00    -0.014 A 
ATOM     75  C   UNL A   1      35.673  32.473  31.283  1.00  0.00     0.010 A 
ATOM     76  C   UNL A   1      37.229  33.830  30.010  1.00  0.00     0.010 A 
ATOM     77  C   UNL A   1      34.604  33.064  30.602  1.00  0.00     0.020 A 
ATOM     78  C   UNL A   1      36.161  34.444  29.349  1.00  0.00     0.020 A 
ATOM     79  C   UNL A   1      34.856  34.045  29.639  1.00  0.00     0.054 A 
BRANCH  79  80
ATOM     80  S   UNL A   1      33.454  34.831  28.796  1.00  0.00     0.124 S 
ATOM     81  O   UNL A   1      34.072  36.025  28.229  1.00  0.00    -0.237 OA
ATOM     82  O   UNL A   1      33.046  33.810  27.833  1.00  0.00    -0.237 OA
ATOM     83  O   UNL A   1      32.499  35.073  29.876  1.00  0.00    -0.744 OA
ENDBRANCH  79  80
ENDBRANCH  51  74
BRANCH  63  84
ATOM     84  C   UNL A   1      39.906  33.789  37.244  1.00  0.00    -0.014 A 
ATOM     85  C   UNL A   1      40.604  35.003  37.383  1.00  0.00     0.010 A 
ATOM     86  C   UNL A   1      38.888  33.476  38.161  1.00  0.00     0.010 A 
ATOM     87  C   UNL A   1      40.315  35.868  38.441  1.00  0.00     0.020 A 
ATOM     88  C   UNL A   1      38.578  34.350  39.206  1.00  0.00     0.020 A 
ATOM     89  C   UNL A   1      39.306  35.533  39.349  1.00  0.00     0.054 A 
BRANCH  89  90
ATOM     90  S   UNL A   1      38.928  36.681  40.702  1.00  0.00     0.124 S 
ATOM     91  O   UNL A   1      38.045  35.878  41.545  1.00  0.00    -0.237 OA
ATOM     92  O   UNL A   1      40.246  36.965  41.264  1.00  0.00    -0.237 OA
ATOM     93  O   UNL A   1      38.289  37.810  40.028  1.00  0.00    -0.744 OA
ENDBRANCH  89  90
ENDBRANCH  63  84
ENDBRANCH  37  38
ENDBRANCH  30  32
ENDBRANCH  29  30
ENDBRANCH  28  29
ENDBRANCH   1  28
TORSDOF 17
ENDMDL
MODEL 2
REMARK VINA RESULT:     -11.4      0.762      8.018
REMARK SMILES CS(=O)(=O)c1ccc(-c2cc(Cl)cnc2-c2ccc(C(=O)OCCOC(=O)c3ccc(-c4c5nc(c(-c6ccc(S(=O)(=O)[O-])cc6)c6ccc([nH]6)c(-c6ccc(S(=O)(=O)[O-])cc6)c6nc(c(-c7ccc(S(=O)(=O)[O-])cc7)c7ccc4[nH]7)C=C6)C=C5)cc3)nc2)cc1
REMARK SMILES IDX 23 1 22 2 20 3 21 4 19 5 16 6 17 7 89 8 18 9 88 10 15 11
REMARK SMILES IDX 9 12 10 13 11 14 14 15 12 16 13 17 8 18 5 19 6 20 91 21 7 22
REMARK SMILES IDX 90 23 2 24 1 25 3 26 4 27 24 28 25 29 26 30 27 31 28 32
REMARK SMILES IDX 29 33 87 34 30 35 86 36 31 37 32 38 33 39 80 40 34 41 85 42
REMARK SMILES IDX 79 43 81 44 35 45 84 46 78 47 77 48 36 50 66 51 47 52 65 53
REMARK SMILES IDX 48 54 51 55 64 56 82 57 49 58 50 59 63 61 83 62 52 63 37 64
REMARK SMILES IDX 38 65 46 66 39 67 45 68 40 69 41 70 42 71 43 72 44 73 67 74
REMARK SMILES IDX 68 75 76 76 69 77 75 78 70 79 71 80 72 81 73 82 74 83 53 84
REMARK SMILES IDX 54 85 62 86 55 87 61 88 56 89 57 90 58 91 59 92 60 93
REMARK H PARENT 81 49 51 60
REMARK Flexibility Score: inf
ROOT
ATOM      1  C   UNL A   1      40.766  22.561  26.472  1.00  0.00     0.275 C 
ENDROOT
BRANCH   1   2
ATOM      2  O   UNL A   1      39.385  22.968  26.392  1.00  0.00    -0.457 OA
BRANCH   2   3
ATOM      3  C   UNL A   1      38.581  22.118  25.699  1.00  0.00     0.357 C 
ATOM      4  O   UNL A   1      38.849  20.957  25.427  1.00  0.00    -0.244 OA
BRANCH   3   5
ATOM      5  C   UNL A   1      37.260  22.753  25.395  1.00  0.00     0.148 A 
ATOM      6  C   UNL A   1      34.880  23.905  24.607  1.00  0.00     0.019 A 
ATOM      7  C   UNL A   1      35.201  23.825  25.968  1.00  0.00     0.014 A 
ATOM      8  C   UNL A   1      35.781  23.343  23.713  1.00  0.00     0.122 A 
ATOM      9  C   UNL A   1      36.400  23.227  26.375  1.00  0.00     0.037 A 
ATOM     10  N   UNL A   1      36.970  22.826  24.071  1.00  0.00    -0.249 NA
BRANCH   6  11
ATOM     11  C   UNL A   1      33.747  24.675  24.090  1.00  0.00     0.080 A 
ATOM     12  C   UNL A   1      32.548  24.040  23.692  1.00  0.00     0.010 A 
ATOM     13  C   UNL A   1      31.494  24.862  23.270  1.00  0.00     0.033 A 
ATOM     14  C   UNL A   1      31.649  26.245  23.284  1.00  0.00     0.060 A 
ATOM     15  N   UNL A   1      33.912  26.022  24.101  1.00  0.00    -0.254 NA
ATOM     16  Cl  UNL A   1      30.366  27.268  22.781  1.00  0.00    -0.083 Cl
ATOM     17  C   UNL A   1      32.857  26.775  23.709  1.00  0.00     0.132 A 
BRANCH  12  18
ATOM     18  C   UNL A   1      32.401  22.576  23.724  1.00  0.00    -0.016 A 
ATOM     19  C   UNL A   1      32.486  19.768  23.752  1.00  0.00     0.067 A 
ATOM     20  C   UNL A   1      32.557  20.477  24.952  1.00  0.00     0.021 A 
ATOM     21  C   UNL A   1      32.319  20.445  22.541  1.00  0.00     0.021 A 
ATOM     22  C   UNL A   1      32.496  21.870  24.937  1.00  0.00     0.010 A 
ATOM     23  C   UNL A   1      32.279  21.845  22.533  1.00  0.00     0.010 A 
BRANCH  19  24
ATOM     24  S   UNL A   1      32.651  18.003  23.840  1.00  0.00     0.175 S 
ATOM     25  C   UNL A   1      34.346  17.648  24.194  1.00  0.00     0.163 C 
ATOM     26  O   UNL A   1      32.382  17.492  22.511  1.00  0.00    -0.224 OA
ATOM     27  O   UNL A   1      31.880  17.574  24.992  1.00  0.00    -0.224 OA
ENDBRANCH  19  24
ENDBRANCH  12  18
ENDBRANCH   6  11
ENDBRANCH   3   5
ENDBRANCH   2   3
ENDBRANCH   1   2
BRANCH   1  28
ATOM     28  C   UNL A   1      41.542  23.389  27.502  1.00  0.00     0.275 C 
BRANCH  28  29
ATOM     29  O   UNL A   1      42.401  24.368  26.884  1.00  0.00    -0.458 OA
BRANCH  29  30
ATOM     30  C   UNL A   1      41.765  25.447  26.369  1.00  0.00     0.338 C 
ATOM     31  O   UNL A   1      41.460  25.629  25.201  1.00  0.00    -0.246 OA
BRANCH  30  32
ATOM     32  C   UNL A   1      41.371  26.373  27.446  1.00  0.00     0.060 A 
ATOM     33  C   UNL A   1      42.199  27.464  27.682  1.00  0.00     0.016 A 
ATOM     34  C   UNL A   1      40.300  26.118  28.299  1.00  0.00     0.016 A 
ATOM     35  C   UNL A   1      42.007  28.284  28.787  1.00  0.00     0.010 A 
ATOM     36  C   UNL A   1      40.072  26.973  29.391  1.00  0.00     0.010 A 
ATOM     37  C   UNL A   1      40.936  28.053  29.657  1.00  0.00    -0.014 A 
BRANCH  37  38
ATOM     38  C   UNL A   1      40.769  28.934  30.844  1.00  0.00     0.031 A 
ATOM     39  C   UNL A   1      39.671  29.963  30.882  1.00  0.00     0.074 A 
ATOM     40  C   UNL A   1      41.566  28.766  31.920  1.00  0.00     0.049 A 
ATOM     41  N   UNL A   1      39.399  30.845  31.810  1.00  0.00    -0.248 NA
ATOM     42  C   UNL A   1      38.759  30.008  29.727  1.00  0.00     0.031 C 
ATOM     43  C   UNL A   1      42.631  27.767  32.038  1.00  0.00     0.029 A 
ATOM     44  N   UNL A   1      41.591  29.418  33.129  1.00  0.00    -0.354 N 
ATOM     45  C   UNL A   1      38.311  31.573  31.338  1.00  0.00     0.074 A 
ATOM     46  C   UNL A   1      37.978  31.034  30.036  1.00  0.00     0.031 C 
ATOM     47  C   UNL A   1      43.180  27.850  33.259  1.00  0.00     0.029 A 
ATOM     48  C   UNL A   1      42.554  28.947  33.991  1.00  0.00     0.049 A 
ATOM     49  H   UNL A   1      40.976  30.153  33.358  1.00  0.00     0.167 HD
ATOM     50  C   UNL A   1      37.651  32.596  31.933  1.00  0.00     0.031 A 
ATOM     51  C   UNL A   1      42.915  29.364  35.220  1.00  0.00     0.031 A 
ATOM     52  C   UNL A   1      37.968  33.115  33.239  1.00  0.00     0.049 A 
ATOM     53  C   UNL A   1      42.199  30.533  35.835  1.00  0.00     0.074 A 
ATOM     54  C   UNL A   1      37.348  34.143  33.931  1.00  0.00     0.029 A 
ATOM     55  N   UNL A   1      38.986  32.646  34.055  1.00  0.00    -0.354 N 
ATOM     56  N   UNL A   1      41.189  31.223  35.362  1.00  0.00    -0.248 NA
ATOM     57  C   UNL A   1      42.677  30.986  37.150  1.00  0.00     0.031 C 
ATOM     58  C   UNL A   1      38.021  34.324  35.143  1.00  0.00     0.029 A 
ATOM     59  C   UNL A   1      39.027  33.376  35.231  1.00  0.00     0.049 A 
ATOM     60  H   UNL A   1      39.592  31.903  33.830  1.00  0.00     0.167 HD
ATOM     61  C   UNL A   1      40.903  32.184  36.326  1.00  0.00     0.074 A 
ATOM     62  C   UNL A   1      41.831  31.969  37.419  1.00  0.00     0.031 C 
ATOM     63  C   UNL A   1      39.959  33.158  36.307  1.00  0.00     0.031 A 
BRANCH  50  64
ATOM     64  C   UNL A   1      36.543  33.258  31.157  1.00  0.00    -0.014 A 
ATOM     65  C   UNL A   1      35.201  33.159  31.563  1.00  0.00     0.010 A 
ATOM     66  C   UNL A   1      36.862  34.033  30.026  1.00  0.00     0.010 A 
ATOM     67  C   UNL A   1      34.193  33.794  30.829  1.00  0.00     0.020 A 
ATOM     68  C   UNL A   1      35.860  34.688  29.304  1.00  0.00     0.020 A 
ATOM     69  C   UNL A   1      34.529  34.551  29.701  1.00  0.00     0.054 A 
BRANCH  69  70
ATOM     70  S   UNL A   1      33.205  35.383  28.781  1.00  0.00     0.124 S 
ATOM     71  O   UNL A   1      33.962  36.281  27.911  1.00  0.00    -0.237 OA
ATOM     72  O   UNL A   1      32.536  34.274  28.105  1.00  0.00    -0.237 OA
ATOM     73  O   UNL A   1      32.419  36.040  29.821  1.00  0.00    -0.744 OA
ENDBRANCH  69  70
ENDBRANCH  50  64
BRANCH  51  74
ATOM     74  C   UNL A   1      44.038  28.697  35.934  1.00  0.00    -0.014 A 
ATOM     75  C   UNL A   1      45.362  29.137  35.764  1.00  0.00     0.010 A 
ATOM     76  C   UNL A   1      43.784  27.608  36.789  1.00  0.00     0.010 A 
ATOM     77  C   UNL A   1      46.413  28.491  36.422  1.00  0.00     0.020 A 
ATOM     78  C   UNL A   1      44.829  26.978  37.471  1.00  0.00     0.020 A 
ATOM     79  C   UNL A   1      46.139  27.414  37.271  1.00  0.00     0.054 A 
BRANCH  79  80
ATOM     80  S   UNL A   1      47.511  26.614  38.148  1.00  0.00     0.124 S 
ATOM     81  O   UNL A   1      47.650  25.360  37.413  1.00  0.00    -0.237 OA
ATOM     82  O   UNL A   1      48.601  27.572  37.978  1.00  0.00    -0.237 OA
ATOM     83  O   UNL A   1      47.014  26.486  39.515  1.00  0.00    -0.744 OA
ENDBRANCH  79  80
ENDBRANCH  51  74
BRANCH  63  84
ATOM     84  C   UNL A   1      39.869  34.048  37.516  1.00  0.00    -0.014 A 
ATOM     85  C   UNL A   1      40.652  35.213  37.621  1.00  0.00     0.010 A 
ATOM     86  C   UNL A   1      38.970  33.731  38.549  1.00  0.00     0.010 A 
ATOM     87  C   UNL A   1      40.564  36.023  38.756  1.00  0.00     0.020 A 
ATOM     88  C   UNL A   1      38.861  34.552  39.674  1.00  0.00     0.020 A 
ATOM     89  C   UNL A   1      39.672  35.684  39.778  1.00  0.00     0.054 A 
BRANCH  89  90
ATOM     90  S   UNL A   1      39.554  36.763  41.232  1.00  0.00     0.124 S 
ATOM     91  O   UNL A   1      38.906  37.949  40.678  1.00  0.00    -0.237 OA
ATOM     92  O   UNL A   1      38.739  35.976  42.154  1.00  0.00    -0.237 OA
ATOM     93  O   UNL A   1      40.945  36.946  41.640  1.00  0.00    -0.744 OA
ENDBRANCH  89  90
ENDBRANCH  63  84
ENDBRANCH  37  38
ENDBRANCH  30  32
ENDBRANCH  29  30
ENDBRANCH  28  29
ENDBRANCH   1  28
TORSDOF 17
ENDMDL
MODEL 3
REMARK VINA RESULT:     -11.1      5.637      7.825
REMARK SMILES CS(=O)(=O)c1ccc(-c2cc(Cl)cnc2-c2ccc(C(=O)OCCOC(=O)c3ccc(-c4c5nc(c(-c6ccc(S(=O)(=O)[O-])cc6)c6ccc([nH]6)c(-c6ccc(S(=O)(=O)[O-])cc6)c6nc(c(-c7ccc(S(=O)(=O)[O-])cc7)c7ccc4[nH]7)C=C6)C=C5)cc3)nc2)cc1
REMARK SMILES IDX 23 1 22 2 20 3 21 4 19 5 16 6 17 7 89 8 18 9 88 10 15 11
REMARK SMILES IDX 9 12 10 13 11 14 14 15 12 16 13 17 8 18 5 19 6 20 91 21 7 22
REMARK SMILES IDX 90 23 2 24 1 25 3 26 4 27 24 28 25 29 26 30 27 31 28 32
REMARK SMILES IDX 29 33 87 34 30 35 86 36 31 37 32 38 33 39 80 40 34 41 85 42
REMARK SMILES IDX 79 43 81 44 35 45 84 46 78 47 77 48 36 50 66 51 47 52 65 53
REMARK SMILES IDX 48 54 51 55 64 56 82 57 49 58 50 59 63 61 83 62 52 63 37 64
REMARK SMILES IDX 38 65 46 66 39 67 45 68 40 69 41 70 42 71 43 72 44 73 67 74
REMARK SMILES IDX 68 75 76 76 69 77 75 78 70 79 71 80 72 81 73 82 74 83 53 84
REMARK SMILES IDX 54 85 62 86 55 87 61 88 56 89 57 90 58 91 59 92 60 93
REMARK H PARENT 81 49 51 60
REMARK Flexibility Score: inf
ROOT
ATOM      1  C   UNL A   1      38.575  20.520  25.332  1.00  0.00     0.275 C 
ENDROOT
BRANCH   1   2
ATOM      2  O   UNL A   1      37.395  21.268  25.690  1.00  0.00    -0.457 OA
BRANCH   2   3
ATOM      3  C   UNL A   1      37.543  22.619  25.645  1.00  0.00     0.357 C 
ATOM      4  O   UNL A   1      38.568  23.226  25.917  1.00  0.00    -0.244 OA
BRANCH   3   5
ATOM      5  C   UNL A   1      36.310  23.279  25.113  1.00  0.00     0.148 A 
ATOM      6  C   UNL A   1      33.984  24.556  24.354  1.00  0.00     0.019 A 
ATOM      7  C   UNL A   1      34.740  23.856  23.404  1.00  0.00     0.014 A 
ATOM      8  C   UNL A   1      34.488  24.607  25.646  1.00  0.00     0.122 A 
ATOM      9  C   UNL A   1      35.929  23.220  23.780  1.00  0.00     0.037 A 
ATOM     10  N   UNL A   1      35.589  23.947  26.049  1.00  0.00    -0.249 NA
BRANCH   6  11
ATOM     11  C   UNL A   1      32.646  25.085  24.088  1.00  0.00     0.080 A 
ATOM     12  C   UNL A   1      31.541  24.224  23.890  1.00  0.00     0.010 A 
ATOM     13  C   UNL A   1      30.286  24.819  23.705  1.00  0.00     0.033 A 
ATOM     14  C   UNL A   1      30.166  26.205  23.749  1.00  0.00     0.060 A 
ATOM     15  N   UNL A   1      32.541  26.437  24.126  1.00  0.00    -0.254 NA
ATOM     16  Cl  UNL A   1      28.635  26.951  23.535  1.00  0.00    -0.083 Cl
ATOM     17  C   UNL A   1      31.304  26.964  23.967  1.00  0.00     0.132 A 
BRANCH  12  18
ATOM     18  C   UNL A   1      31.695  22.760  23.886  1.00  0.00    -0.016 A 
ATOM     19  C   UNL A   1      32.348  20.028  23.877  1.00  0.00     0.067 A 
ATOM     20  C   UNL A   1      32.167  20.695  25.090  1.00  0.00     0.021 A 
ATOM     21  C   UNL A   1      32.154  20.698  22.667  1.00  0.00     0.021 A 
ATOM     22  C   UNL A   1      31.824  22.047  25.091  1.00  0.00     0.010 A 
ATOM     23  C   UNL A   1      31.830  22.060  22.678  1.00  0.00     0.010 A 
BRANCH  19  24
ATOM     24  S   UNL A   1      32.861  18.330  23.954  1.00  0.00     0.175 S 
ATOM     25  C   UNL A   1      34.571  18.315  24.400  1.00  0.00     0.163 C 
ATOM     26  O   UNL A   1      32.773  17.808  22.604  1.00  0.00    -0.224 OA
ATOM     27  O   UNL A   1      32.132  17.728  25.053  1.00  0.00    -0.224 OA
ENDBRANCH  19  24
ENDBRANCH  12  18
ENDBRANCH   6  11
ENDBRANCH   3   5
ENDBRANCH   2   3
ENDBRANCH   1   2
BRANCH   1  28
ATOM     28  C   UNL A   1      39.748  20.832  26.269  1.00  0.00     0.275 C 
BRANCH  28  29
ATOM     29  O   UNL A   1      40.461  19.645  26.669  1.00  0.00    -0.458 OA
BRANCH  29  30
ATOM     30  C   UNL A   1      41.735  19.560  26.215  1.00  0.00     0.338 C 
ATOM     31  O   UNL A   1      42.255  18.599  25.671  1.00  0.00    -0.246 OA
BRANCH  30  32
ATOM     32  C   UNL A   1      42.421  20.855  26.367  1.00  0.00     0.060 A 
ATOM     33  C   UNL A   1      42.613  21.326  27.661  1.00  0.00     0.016 A 
ATOM     34  C   UNL A   1      42.749  21.661  25.280  1.00  0.00     0.016 A 
ATOM     35  C   UNL A   1      43.084  22.612  27.892  1.00  0.00     0.010 A 
ATOM     36  C   UNL A   1      43.272  22.945  25.509  1.00  0.00     0.010 A 
ATOM     37  C   UNL A   1      43.426  23.440  26.818  1.00  0.00    -0.014 A 
BRANCH  37  38
ATOM     38  C   UNL A   1      43.906  24.820  27.098  1.00  0.00     0.031 A 
ATOM     39  C   UNL A   1      45.336  25.202  26.818  1.00  0.00     0.074 A 
ATOM     40  C   UNL A   1      43.040  25.754  27.543  1.00  0.00     0.049 A 
ATOM     41  N   UNL A   1      45.944  26.340  27.036  1.00  0.00    -0.248 NA
ATOM     42  C   UNL A   1      46.195  24.170  26.215  1.00  0.00     0.031 C 
ATOM     43  C   UNL A   1      41.615  25.533  27.799  1.00  0.00     0.029 A 
ATOM     44  N   UNL A   1      43.227  27.083  27.839  1.00  0.00    -0.354 N 
ATOM     45  C   UNL A   1      47.262  26.153  26.634  1.00  0.00     0.074 A 
ATOM     46  C   UNL A   1      47.368  24.787  26.164  1.00  0.00     0.031 C 
ATOM     47  C   UNL A   1      41.051  26.690  28.180  1.00  0.00     0.029 A 
ATOM     48  C   UNL A   1      42.082  27.720  28.258  1.00  0.00     0.049 A 
ATOM     49  H   UNL A   1      44.097  27.536  27.757  1.00  0.00     0.167 HD
ATOM     50  C   UNL A   1      48.289  27.036  26.653  1.00  0.00     0.031 A 
ATOM     51  C   UNL A   1      41.884  28.983  28.685  1.00  0.00     0.031 A 
ATOM     52  C   UNL A   1      48.178  28.401  27.097  1.00  0.00     0.049 A 
ATOM     53  C   UNL A   1      43.052  29.927  28.743  1.00  0.00     0.074 A 
ATOM     54  C   UNL A   1      49.161  29.376  27.142  1.00  0.00     0.029 A 
ATOM     55  N   UNL A   1      47.013  28.991  27.566  1.00  0.00    -0.354 N 
ATOM     56  N   UNL A   1      44.296  29.723  28.380  1.00  0.00    -0.248 NA
ATOM     57  C   UNL A   1      42.791  31.272  29.276  1.00  0.00     0.031 C 
ATOM     58  C   UNL A   1      48.603  30.539  27.682  1.00  0.00     0.029 A 
ATOM     59  C   UNL A   1      47.258  30.307  27.923  1.00  0.00     0.049 A 
ATOM     60  H   UNL A   1      46.141  28.540  27.634  1.00  0.00     0.167 HD
ATOM     61  C   UNL A   1      44.963  30.917  28.631  1.00  0.00     0.074 A 
ATOM     62  C   UNL A   1      43.979  31.845  29.152  1.00  0.00     0.031 C 
ATOM     63  C   UNL A   1      46.273  31.217  28.448  1.00  0.00     0.031 A 
BRANCH  50  64
ATOM     64  C   UNL A   1      49.645  26.539  26.222  1.00  0.00    -0.014 A 
ATOM     65  C   UNL A   1      50.134  26.772  24.925  1.00  0.00     0.010 A 
ATOM     66  C   UNL A   1      50.461  25.868  27.152  1.00  0.00     0.010 A 
ATOM     67  C   UNL A   1      51.402  26.310  24.554  1.00  0.00     0.020 A 
ATOM     68  C   UNL A   1      51.737  25.426  26.793  1.00  0.00     0.020 A 
ATOM     69  C   UNL A   1      52.194  25.635  25.491  1.00  0.00     0.054 A 
BRANCH  69  70
ATOM     70  S   UNL A   1      53.843  25.066  24.993  1.00  0.00     0.124 S 
ATOM     71  O   UNL A   1      53.665  23.617  24.962  1.00  0.00    -0.237 OA
ATOM     72  O   UNL A   1      54.024  25.704  23.691  1.00  0.00    -0.237 OA
ATOM     73  O   UNL A   1      54.717  25.564  26.052  1.00  0.00    -0.744 OA
ENDBRANCH  69  70
ENDBRANCH  50  64
BRANCH  51  74
ATOM     74  C   UNL A   1      40.531  29.417  29.130  1.00  0.00    -0.014 A 
ATOM     75  C   UNL A   1      39.523  29.705  28.193  1.00  0.00     0.010 A 
ATOM     76  C   UNL A   1      40.246  29.546  30.502  1.00  0.00     0.010 A 
ATOM     77  C   UNL A   1      38.262  30.132  28.619  1.00  0.00     0.020 A 
ATOM     78  C   UNL A   1      38.978  29.945  30.933  1.00  0.00     0.020 A 
ATOM     79  C   UNL A   1      37.998  30.250  29.987  1.00  0.00     0.054 A 
BRANCH  79  80
ATOM     80  S   UNL A   1      36.343  30.767  30.522  1.00  0.00     0.124 S 
ATOM     81  O   UNL A   1      36.035  29.778  31.551  1.00  0.00    -0.237 OA
ATOM     82  O   UNL A   1      36.572  32.128  31.000  1.00  0.00    -0.237 OA
ATOM     83  O   UNL A   1      35.545  30.670  29.302  1.00  0.00    -0.744 OA
ENDBRANCH  79  80
ENDBRANCH  51  74
BRANCH  63  84
ATOM     84  C   UNL A   1      46.710  32.614  28.792  1.00  0.00    -0.014 A 
ATOM     85  C   UNL A   1      46.577  33.666  27.867  1.00  0.00     0.010 A 
ATOM     86  C   UNL A   1      47.238  32.885  30.067  1.00  0.00     0.010 A 
ATOM     87  C   UNL A   1      46.998  34.956  28.199  1.00  0.00     0.020 A 
ATOM     88  C   UNL A   1      47.636  34.178  30.412  1.00  0.00     0.020 A 
ATOM     89  C   UNL A   1      47.530  35.203  29.469  1.00  0.00     0.054 A 
BRANCH  89  90
ATOM     90  S   UNL A   1      48.047  36.890  29.889  1.00  0.00     0.124 S 
ATOM     91  O   UNL A   1      46.938  37.350  30.721  1.00  0.00    -0.237 OA
ATOM     92  O   UNL A   1      49.311  36.677  30.591  1.00  0.00    -0.237 OA
ATOM     93  O   UNL A   1      48.167  37.549  28.590  1.00  0.00    -0.744 OA
ENDBRANCH  89  90
ENDBRANCH  63  84
ENDBRANCH  37  38
ENDBRANCH  30  32
ENDBRANCH  29  30
ENDBRANCH  28  29
ENDBRANCH   1  28
TORSDOF 17
ENDMDL
