MODEL 1
REMARK VINA RESULT:     -12.0      0.000      0.000
REMARK SMILES NS(=O)(=O)c1ccc(-n2nc(C(=O)NCCCC(=O)OCCOC(=O)c3ccc(-c4c5nc(c(-c6ccc(S(=O)(=O)[O-])cc6)c6ccc([nH]6)c(-c6ccc(S(=O)(=O)[O-])cc6)c6nc(c(-c7ccc(S(=O)(=O)[O-])cc7)c7ccc4[nH]7)C=C6)C=C5)cc3)cc2-c2ccccc2)cc1
REMARK SMILES IDX 18 1 19 2 17 3 16 4 15 5 14 6 12 7 13 8 11 10 9 11 10 12
REMARK SMILES IDX 87 13 86 14 8 15 5 16 6 17 95 18 7 19 94 20 2 21 3 22 4 23
REMARK SMILES IDX 1 24 88 27 89 28 93 29 90 30 92 31 91 32 20 33 21 34 22 35
REMARK SMILES IDX 23 36 24 37 25 38 26 39 27 40 85 41 28 42 84 43 29 44 30 45
REMARK SMILES IDX 31 46 78 47 32 48 83 49 77 50 79 51 33 52 82 53 76 54 75 55
REMARK SMILES IDX 34 57 64 58 45 59 63 60 46 61 49 62 62 63 80 64 47 65 48 66
REMARK SMILES IDX 61 68 81 69 50 70 35 71 36 72 44 73 37 74 43 75 38 76 39 77
REMARK SMILES IDX 40 78 41 79 42 80 65 81 66 82 74 83 67 84 73 85 68 86 69 87
REMARK SMILES IDX 70 88 71 89 72 90 51 91 52 92 60 93 53 94 59 95 54 96 55 97
REMARK SMILES IDX 56 98 57 99 58 100
REMARK H PARENT 14 9 1 25 1 26 79 56 49 67
REMARK Flexibility Score: inf
ROOT
ATOM      1  C   UNL A   1      38.337  22.435  25.923  1.00  0.00     0.305 C 
ATOM      2  O   UNL A   1      37.920  23.579  26.056  1.00  0.00    -0.252 OA
ENDROOT
BRANCH   1   3
ATOM      3  C   UNL A   1      37.683  21.419  25.015  1.00  0.00     0.124 C 
BRANCH   3   4
ATOM      4  C   UNL A   1      36.269  20.958  25.360  1.00  0.00     0.033 C 
BRANCH   4   5
ATOM      5  C   UNL A   1      35.130  21.954  25.155  1.00  0.00     0.117 C 
BRANCH   5   6
ATOM      6  N   UNL A   1      34.246  21.572  24.067  1.00  0.00    -0.351 N 
ATOM      7  C   UNL A   1      33.113  22.176  23.566  1.00  0.00     0.271 C 
ATOM      8  O   UNL A   1      32.460  21.529  22.743  1.00  0.00    -0.267 OA
ATOM      9  H   UNL A   1      34.499  20.738  23.609  1.00  0.00     0.163 HD
BRANCH   7  10
ATOM     10  C   UNL A   1      32.733  23.545  23.979  1.00  0.00     0.151 A 
ATOM     11  N   UNL A   1      31.639  25.388  24.005  1.00  0.00    -0.232 N 
ATOM     12  N   UNL A   1      31.574  24.108  23.569  1.00  0.00    -0.162 NA
ATOM     13  C   UNL A   1      32.659  25.573  24.925  1.00  0.00     0.075 A 
ATOM     14  C   UNL A   1      33.461  24.464  24.779  1.00  0.00     0.065 A 
BRANCH  11  15
ATOM     15  C   UNL A   1      30.738  26.379  23.539  1.00  0.00     0.065 A 
ATOM     16  C   UNL A   1      29.084  28.530  22.939  1.00  0.00     0.082 A 
ATOM     17  C   UNL A   1      30.410  28.542  22.501  1.00  0.00     0.024 A 
ATOM     18  C   UNL A   1      28.567  27.426  23.630  1.00  0.00     0.024 A 
ATOM     19  C   UNL A   1      31.238  27.466  22.803  1.00  0.00     0.030 A 
ATOM     20  C   UNL A   1      29.390  26.328  23.907  1.00  0.00     0.030 A 
BRANCH  16  21
ATOM     21  S   UNL A   1      28.115  29.973  22.629  1.00  0.00     0.238 S 
ATOM     22  O   UNL A   1      28.905  31.132  22.933  1.00  0.00    -0.207 OA
ATOM     23  O   UNL A   1      26.788  29.762  23.180  1.00  0.00    -0.207 OA
BRANCH  21  24
ATOM     24  N   UNL A   1      27.890  29.990  20.964  1.00  0.00    -0.225 NA
ATOM     25  H   UNL A   1      26.893  29.928  20.755  1.00  0.00     0.137 HD
ATOM     26  H   UNL A   1      28.373  29.194  20.547  1.00  0.00     0.137 HD
ENDBRANCH  21  24
ENDBRANCH  16  21
ENDBRANCH  11  15
BRANCH  13  27
ATOM     27  C   UNL A   1      32.777  26.695  25.861  1.00  0.00     0.000 A 
ATOM     28  C   UNL A   1      31.730  27.012  26.742  1.00  0.00     0.010 A 
ATOM     29  C   UNL A   1      33.955  27.447  25.916  1.00  0.00     0.010 A 
ATOM     30  C   UNL A   1      31.843  28.082  27.629  1.00  0.00     0.001 A 
ATOM     31  C   UNL A   1      34.072  28.511  26.813  1.00  0.00     0.001 A 
ATOM     32  C   UNL A   1      33.015  28.831  27.663  1.00  0.00     0.000 A 
ENDBRANCH  13  27
ENDBRANCH   7  10
ENDBRANCH   5   6
ENDBRANCH   4   5
ENDBRANCH   3   4
ENDBRANCH   1   3
BRANCH   1  33
ATOM     33  O   UNL A   1      39.364  21.899  26.633  1.00  0.00    -0.462 OA
BRANCH  33  34
ATOM     34  C   UNL A   1      39.854  20.621  26.188  1.00  0.00     0.274 C 
BRANCH  34  35
ATOM     35  C   UNL A   1      41.345  20.463  26.455  1.00  0.00     0.275 C 
BRANCH  35  36
ATOM     36  O   UNL A   1      42.136  21.014  25.402  1.00  0.00    -0.458 OA
BRANCH  36  37
ATOM     37  C   UNL A   1      43.185  21.759  25.820  1.00  0.00     0.338 C 
ATOM     38  O   UNL A   1      44.363  21.453  25.760  1.00  0.00    -0.246 OA
BRANCH  37  39
ATOM     39  C   UNL A   1      42.702  22.910  26.589  1.00  0.00     0.060 A 
ATOM     40  C   UNL A   1      42.077  23.950  25.895  1.00  0.00     0.016 A 
ATOM     41  C   UNL A   1      43.108  23.055  27.922  1.00  0.00     0.016 A 
ATOM     42  C   UNL A   1      41.979  25.187  26.503  1.00  0.00     0.010 A 
ATOM     43  C   UNL A   1      43.029  24.292  28.518  1.00  0.00     0.010 A 
ATOM     44  C   UNL A   1      42.519  25.361  27.784  1.00  0.00    -0.014 A 
BRANCH  44  45
ATOM     45  C   UNL A   1      42.363  26.648  28.437  1.00  0.00     0.031 A 
ATOM     46  C   UNL A   1      43.485  27.563  28.129  1.00  0.00     0.074 A 
ATOM     47  C   UNL A   1      41.256  27.020  29.109  1.00  0.00     0.049 A 
ATOM     48  N   UNL A   1      44.415  27.955  28.935  1.00  0.00    -0.248 NA
ATOM     49  C   UNL A   1      43.721  27.918  26.718  1.00  0.00     0.031 C 
ATOM     50  C   UNL A   1      39.996  26.285  29.235  1.00  0.00     0.029 A 
ATOM     51  N   UNL A   1      40.981  28.201  29.729  1.00  0.00    -0.354 N 
ATOM     52  C   UNL A   1      45.196  28.825  28.188  1.00  0.00     0.074 A 
ATOM     53  C   UNL A   1      44.876  28.577  26.805  1.00  0.00     0.031 C 
ATOM     54  C   UNL A   1      39.030  27.125  29.675  1.00  0.00     0.029 A 
ATOM     55  C   UNL A   1      39.628  28.415  29.982  1.00  0.00     0.049 A 
ATOM     56  H   UNL A   1      41.679  28.850  29.978  1.00  0.00     0.167 HD
ATOM     57  C   UNL A   1      45.780  29.910  28.767  1.00  0.00     0.031 A 
ATOM     58  C   UNL A   1      39.039  29.585  30.351  1.00  0.00     0.031 A 
ATOM     59  C   UNL A   1      45.834  29.784  30.202  1.00  0.00     0.049 A 
ATOM     60  C   UNL A   1      40.101  30.447  30.923  1.00  0.00     0.074 A 
ATOM     61  C   UNL A   1      46.358  28.853  31.077  1.00  0.00     0.029 A 
ATOM     62  N   UNL A   1      44.917  30.511  30.922  1.00  0.00    -0.354 N 
ATOM     63  N   UNL A   1      40.717  30.176  32.038  1.00  0.00    -0.248 NA
ATOM     64  C   UNL A   1      40.796  31.366  30.036  1.00  0.00     0.031 C 
ATOM     65  C   UNL A   1      45.409  28.765  32.138  1.00  0.00     0.029 A 
ATOM     66  C   UNL A   1      44.401  29.701  31.900  1.00  0.00     0.049 A 
ATOM     67  H   UNL A   1      44.674  31.452  30.764  1.00  0.00     0.167 HD
ATOM     68  C   UNL A   1      42.044  30.495  31.790  1.00  0.00     0.074 A 
ATOM     69  C   UNL A   1      42.012  31.326  30.587  1.00  0.00     0.031 C 
ATOM     70  C   UNL A   1      43.053  29.820  32.417  1.00  0.00     0.031 A 
BRANCH  57  71
ATOM     71  C   UNL A   1      45.848  31.246  28.070  1.00  0.00    -0.014 A 
ATOM     72  C   UNL A   1      46.981  32.059  28.258  1.00  0.00     0.010 A 
ATOM     73  C   UNL A   1      44.722  31.848  27.464  1.00  0.00     0.010 A 
ATOM     74  C   UNL A   1      46.968  33.413  27.895  1.00  0.00     0.020 A 
ATOM     75  C   UNL A   1      44.715  33.180  27.054  1.00  0.00     0.020 A 
ATOM     76  C   UNL A   1      45.832  33.962  27.296  1.00  0.00     0.054 A 
BRANCH  76  77
ATOM     77  S   UNL A   1      45.807  35.721  26.877  1.00  0.00     0.124 S 
ATOM     78  O   UNL A   1      44.377  36.007  26.871  1.00  0.00    -0.237 OA
ATOM     79  O   UNL A   1      46.568  36.307  27.977  1.00  0.00    -0.237 OA
ATOM     80  O   UNL A   1      46.466  35.770  25.574  1.00  0.00    -0.744 OA
ENDBRANCH  76  77
ENDBRANCH  57  71
BRANCH  58  81
ATOM     81  C   UNL A   1      37.715  30.128  29.947  1.00  0.00    -0.014 A 
ATOM     82  C   UNL A   1      36.892  30.802  30.873  1.00  0.00     0.010 A 
ATOM     83  C   UNL A   1      37.393  30.256  28.581  1.00  0.00     0.010 A 
ATOM     84  C   UNL A   1      35.842  31.635  30.445  1.00  0.00     0.020 A 
ATOM     85  C   UNL A   1      36.344  31.076  28.146  1.00  0.00     0.020 A 
ATOM     86  C   UNL A   1      35.591  31.785  29.079  1.00  0.00     0.054 A 
BRANCH  86  87
ATOM     87  S   UNL A   1      34.375  33.016  28.517  1.00  0.00     0.124 S 
ATOM     88  O   UNL A   1      33.386  32.189  27.832  1.00  0.00    -0.237 OA
ATOM     89  O   UNL A   1      33.934  33.625  29.769  1.00  0.00    -0.237 OA
ATOM     90  O   UNL A   1      35.155  33.896  27.647  1.00  0.00    -0.744 OA
ENDBRANCH  86  87
ENDBRANCH  58  81
BRANCH  70  91
ATOM     91  C   UNL A   1      42.706  28.980  33.628  1.00  0.00    -0.014 A 
ATOM     92  C   UNL A   1      42.683  29.456  34.956  1.00  0.00     0.010 A 
ATOM     93  C   UNL A   1      42.302  27.655  33.392  1.00  0.00     0.010 A 
ATOM     94  C   UNL A   1      42.327  28.608  36.017  1.00  0.00     0.020 A 
ATOM     95  C   UNL A   1      41.923  26.813  34.439  1.00  0.00     0.020 A 
ATOM     96  C   UNL A   1      41.959  27.286  35.750  1.00  0.00     0.054 A 
BRANCH  96  97
ATOM     97  S   UNL A   1      41.522  26.181  37.122  1.00  0.00     0.124 S 
ATOM     98  O   UNL A   1      41.353  24.895  36.453  1.00  0.00    -0.237 OA
ATOM     99  O   UNL A   1      42.682  26.285  38.005  1.00  0.00    -0.237 OA
ATOM    100  O   UNL A   1      40.293  26.764  37.660  1.00  0.00    -0.744 OA
ENDBRANCH  96  97
ENDBRANCH  70  91
ENDBRANCH  44  45
ENDBRANCH  37  39
ENDBRANCH  36  37
ENDBRANCH  35  36
ENDBRANCH  34  35
ENDBRANCH  33  34
ENDBRANCH   1  33
TORSDOF 22
ENDMDL
MODEL 2
REMARK VINA RESULT:     -11.5      3.025      9.585
REMARK SMILES NS(=O)(=O)c1ccc(-n2nc(C(=O)NCCCC(=O)OCCOC(=O)c3ccc(-c4c5nc(c(-c6ccc(S(=O)(=O)[O-])cc6)c6ccc([nH]6)c(-c6ccc(S(=O)(=O)[O-])cc6)c6nc(c(-c7ccc(S(=O)(=O)[O-])cc7)c7ccc4[nH]7)C=C6)C=C5)cc3)cc2-c2ccccc2)cc1
REMARK SMILES IDX 18 1 19 2 17 3 16 4 15 5 14 6 12 7 13 8 11 10 9 11 10 12
REMARK SMILES IDX 87 13 86 14 8 15 5 16 6 17 95 18 7 19 94 20 2 21 3 22 4 23
REMARK SMILES IDX 1 24 88 27 89 28 93 29 90 30 92 31 91 32 20 33 21 34 22 35
REMARK SMILES IDX 23 36 24 37 25 38 26 39 27 40 85 41 28 42 84 43 29 44 30 45
REMARK SMILES IDX 31 46 78 47 32 48 83 49 77 50 79 51 33 52 82 53 76 54 75 55
REMARK SMILES IDX 34 57 64 58 45 59 63 60 46 61 49 62 62 63 80 64 47 65 48 66
REMARK SMILES IDX 61 68 81 69 50 70 35 71 36 72 44 73 37 74 43 75 38 76 39 77
REMARK SMILES IDX 40 78 41 79 42 80 65 81 66 82 74 83 67 84 73 85 68 86 69 87
REMARK SMILES IDX 70 88 71 89 72 90 51 91 52 92 60 93 53 94 59 95 54 96 55 97
REMARK SMILES IDX 56 98 57 99 58 100
REMARK H PARENT 14 9 1 25 1 26 79 56 49 67
REMARK Flexibility Score: inf
ROOT
ATOM      1  C   UNL A   1      32.760  29.118  25.094  1.00  0.00     0.305 C 
ATOM      2  O   UNL A   1      33.012  29.360  23.919  1.00  0.00    -0.252 OA
ENDROOT
BRANCH   1   3
ATOM      3  C   UNL A   1      32.477  27.725  25.607  1.00  0.00     0.124 C 
BRANCH   3   4
ATOM      4  C   UNL A   1      31.299  27.540  26.560  1.00  0.00     0.033 C 
BRANCH   4   5
ATOM      5  C   UNL A   1      30.556  26.206  26.517  1.00  0.00     0.117 C 
BRANCH   5   6
ATOM      6  N   UNL A   1      29.881  25.987  25.249  1.00  0.00    -0.351 N 
ATOM      7  C   UNL A   1      30.219  25.202  24.167  1.00  0.00     0.271 C 
ATOM      8  O   UNL A   1      29.540  25.347  23.147  1.00  0.00    -0.267 OA
ATOM      9  H   UNL A   1      29.038  26.484  25.144  1.00  0.00     0.163 HD
BRANCH   7  10
ATOM     10  C   UNL A   1      31.320  24.218  24.253  1.00  0.00     0.151 A 
ATOM     11  N   UNL A   1      32.291  22.307  24.252  1.00  0.00    -0.232 N 
ATOM     12  N   UNL A   1      31.139  22.926  23.900  1.00  0.00    -0.162 NA
ATOM     13  C   UNL A   1      33.300  23.212  24.542  1.00  0.00     0.075 A 
ATOM     14  C   UNL A   1      32.647  24.412  24.718  1.00  0.00     0.065 A 
BRANCH  11  15
ATOM     15  C   UNL A   1      32.393  20.893  24.297  1.00  0.00     0.065 A 
ATOM     16  C   UNL A   1      32.979  18.178  24.360  1.00  0.00     0.082 A 
ATOM     17  C   UNL A   1      32.989  18.909  25.549  1.00  0.00     0.024 A 
ATOM     18  C   UNL A   1      32.627  18.786  23.147  1.00  0.00     0.024 A 
ATOM     19  C   UNL A   1      32.696  20.268  25.518  1.00  0.00     0.030 A 
ATOM     20  C   UNL A   1      32.301  20.147  23.118  1.00  0.00     0.030 A 
BRANCH  16  21
ATOM     21  S   UNL A   1      33.472  16.485  24.444  1.00  0.00     0.238 S 
ATOM     22  O   UNL A   1      33.984  16.090  23.163  1.00  0.00    -0.207 OA
ATOM     23  O   UNL A   1      32.437  15.740  25.139  1.00  0.00    -0.207 OA
BRANCH  21  24
ATOM     24  N   UNL A   1      34.786  16.471  25.492  1.00  0.00    -0.225 NA
ATOM     25  H   UNL A   1      35.016  17.428  25.761  1.00  0.00     0.137 HD
ATOM     26  H   UNL A   1      35.588  16.047  25.026  1.00  0.00     0.137 HD
ENDBRANCH  21  24
ENDBRANCH  16  21
ENDBRANCH  11  15
BRANCH  13  27
ATOM     27  C   UNL A   1      34.734  22.914  24.586  1.00  0.00     0.000 A 
ATOM     28  C   UNL A   1      35.393  22.720  25.812  1.00  0.00     0.010 A 
ATOM     29  C   UNL A   1      35.463  22.780  23.400  1.00  0.00     0.010 A 
ATOM     30  C   UNL A   1      36.758  22.439  25.852  1.00  0.00     0.001 A 
ATOM     31  C   UNL A   1      36.828  22.488  23.441  1.00  0.00     0.001 A 
ATOM     32  C   UNL A   1      37.475  22.324  24.665  1.00  0.00     0.000 A 
ENDBRANCH  13  27
ENDBRANCH   7  10
ENDBRANCH   5   6
ENDBRANCH   4   5
ENDBRANCH   3   4
ENDBRANCH   1   3
BRANCH   1  33
ATOM     33  O   UNL A   1      32.605  30.060  26.061  1.00  0.00    -0.462 OA
BRANCH  33  34
ATOM     34  C   UNL A   1      33.725  30.267  26.941  1.00  0.00     0.274 C 
BRANCH  34  35
ATOM     35  C   UNL A   1      33.683  31.641  27.595  1.00  0.00     0.275 C 
BRANCH  35  36
ATOM     36  O   UNL A   1      34.954  32.018  28.125  1.00  0.00    -0.458 OA
BRANCH  36  37
ATOM     37  C   UNL A   1      35.045  31.939  29.472  1.00  0.00     0.338 C 
ATOM     38  O   UNL A   1      34.313  32.480  30.283  1.00  0.00    -0.246 OA
BRANCH  37  39
ATOM     39  C   UNL A   1      36.307  31.295  29.848  1.00  0.00     0.060 A 
ATOM     40  C   UNL A   1      37.361  32.110  30.273  1.00  0.00     0.016 A 
ATOM     41  C   UNL A   1      36.504  29.947  29.524  1.00  0.00     0.016 A 
ATOM     42  C   UNL A   1      38.644  31.598  30.245  1.00  0.00     0.010 A 
ATOM     43  C   UNL A   1      37.785  29.447  29.476  1.00  0.00     0.010 A 
ATOM     44  C   UNL A   1      38.849  30.293  29.781  1.00  0.00    -0.014 A 
BRANCH  44  45
ATOM     45  C   UNL A   1      40.193  29.746  29.807  1.00  0.00     0.031 A 
ATOM     46  C   UNL A   1      40.672  29.525  31.190  1.00  0.00     0.074 A 
ATOM     47  C   UNL A   1      40.859  29.339  28.709  1.00  0.00     0.049 A 
ATOM     48  N   UNL A   1      41.589  30.188  31.812  1.00  0.00    -0.248 NA
ATOM     49  C   UNL A   1      39.908  28.602  32.048  1.00  0.00     0.031 C 
ATOM     50  C   UNL A   1      40.361  29.269  27.333  1.00  0.00     0.029 A 
ATOM     51  N   UNL A   1      42.099  28.783  28.610  1.00  0.00    -0.354 N 
ATOM     52  C   UNL A   1      41.696  29.577  33.053  1.00  0.00     0.074 A 
ATOM     53  C   UNL A   1      40.501  28.791  33.226  1.00  0.00     0.031 C 
ATOM     54  C   UNL A   1      41.190  28.494  26.597  1.00  0.00     0.029 A 
ATOM     55  C   UNL A   1      42.337  28.119  27.409  1.00  0.00     0.049 A 
ATOM     56  H   UNL A   1      42.772  28.846  29.327  1.00  0.00     0.167 HD
ATOM     57  C   UNL A   1      42.899  29.486  33.684  1.00  0.00     0.031 A 
ATOM     58  C   UNL A   1      43.366  27.273  27.131  1.00  0.00     0.031 A 
ATOM     59  C   UNL A   1      43.858  30.416  33.141  1.00  0.00     0.049 A 
ATOM     60  C   UNL A   1      44.444  27.560  28.108  1.00  0.00     0.074 A 
ATOM     61  C   UNL A   1      43.891  31.785  32.962  1.00  0.00     0.029 A 
ATOM     62  N   UNL A   1      44.816  29.898  32.303  1.00  0.00    -0.354 N 
ATOM     63  N   UNL A   1      45.109  28.679  28.128  1.00  0.00    -0.248 NA
ATOM     64  C   UNL A   1      44.477  26.795  29.343  1.00  0.00     0.031 C 
ATOM     65  C   UNL A   1      44.536  31.979  31.705  1.00  0.00     0.029 A 
ATOM     66  C   UNL A   1      44.935  30.733  31.222  1.00  0.00     0.049 A 
ATOM     67  H   UNL A   1      45.328  29.071  32.453  1.00  0.00     0.167 HD
ATOM     68  C   UNL A   1      45.238  28.984  29.475  1.00  0.00     0.074 A 
ATOM     69  C   UNL A   1      44.932  27.737  30.174  1.00  0.00     0.031 C 
ATOM     70  C   UNL A   1      45.300  30.284  29.894  1.00  0.00     0.031 A 
BRANCH  57  71
ATOM     71  C   UNL A   1      43.313  28.246  34.437  1.00  0.00    -0.014 A 
ATOM     72  C   UNL A   1      43.934  28.383  35.692  1.00  0.00     0.010 A 
ATOM     73  C   UNL A   1      43.364  26.969  33.834  1.00  0.00     0.010 A 
ATOM     74  C   UNL A   1      44.606  27.307  36.288  1.00  0.00     0.020 A 
ATOM     75  C   UNL A   1      43.988  25.879  34.439  1.00  0.00     0.020 A 
ATOM     76  C   UNL A   1      44.628  26.063  35.654  1.00  0.00     0.054 A 
BRANCH  76  77
ATOM     77  S   UNL A   1      45.540  24.694  36.405  1.00  0.00     0.124 S 
ATOM     78  O   UNL A   1      44.784  24.469  37.632  1.00  0.00    -0.237 OA
ATOM     79  O   UNL A   1      45.423  23.654  35.387  1.00  0.00    -0.237 OA
ATOM     80  O   UNL A   1      46.884  25.237  36.583  1.00  0.00    -0.744 OA
ENDBRANCH  76  77
ENDBRANCH  57  71
BRANCH  58  81
ATOM     81  C   UNL A   1      43.354  26.032  26.312  1.00  0.00    -0.014 A 
ATOM     82  C   UNL A   1      44.379  25.766  25.381  1.00  0.00     0.010 A 
ATOM     83  C   UNL A   1      42.503  24.964  26.663  1.00  0.00     0.010 A 
ATOM     84  C   UNL A   1      44.594  24.466  24.885  1.00  0.00     0.020 A 
ATOM     85  C   UNL A   1      42.706  23.670  26.168  1.00  0.00     0.020 A 
ATOM     86  C   UNL A   1      43.768  23.420  25.303  1.00  0.00     0.054 A 
BRANCH  86  87
ATOM     87  S   UNL A   1      44.171  21.711  24.828  1.00  0.00     0.124 S 
ATOM     88  O   UNL A   1      42.999  20.974  25.291  1.00  0.00    -0.237 OA
ATOM     89  O   UNL A   1      44.326  21.809  23.380  1.00  0.00    -0.237 OA
ATOM     90  O   UNL A   1      45.406  21.433  25.561  1.00  0.00    -0.744 OA
ENDBRANCH  86  87
ENDBRANCH  58  81
BRANCH  70  91
ATOM     91  C   UNL A   1      45.580  31.355  28.860  1.00  0.00    -0.014 A 
ATOM     92  C   UNL A   1      46.863  31.695  28.384  1.00  0.00     0.010 A 
ATOM     93  C   UNL A   1      44.468  31.992  28.284  1.00  0.00     0.010 A 
ATOM     94  C   UNL A   1      47.026  32.689  27.406  1.00  0.00     0.020 A 
ATOM     95  C   UNL A   1      44.621  32.965  27.294  1.00  0.00     0.020 A 
ATOM     96  C   UNL A   1      45.900  33.326  26.875  1.00  0.00     0.054 A 
BRANCH  96  97
ATOM     97  S   UNL A   1      46.110  34.628  25.628  1.00  0.00     0.124 S 
ATOM     98  O   UNL A   1      45.167  34.227  24.588  1.00  0.00    -0.237 OA
ATOM     99  O   UNL A   1      45.758  35.841  26.364  1.00  0.00    -0.237 OA
ATOM    100  O   UNL A   1      47.520  34.528  25.254  1.00  0.00    -0.744 OA
ENDBRANCH  96  97
ENDBRANCH  70  91
ENDBRANCH  44  45
ENDBRANCH  37  39
ENDBRANCH  36  37
ENDBRANCH  35  36
ENDBRANCH  34  35
ENDBRANCH  33  34
ENDBRANCH   1  33
TORSDOF 22
ENDMDL
MODEL 3
REMARK VINA RESULT:     -10.1      2.145      6.485
REMARK SMILES NS(=O)(=O)c1ccc(-n2nc(C(=O)NCCCC(=O)OCCOC(=O)c3ccc(-c4c5nc(c(-c6ccc(S(=O)(=O)[O-])cc6)c6ccc([nH]6)c(-c6ccc(S(=O)(=O)[O-])cc6)c6nc(c(-c7ccc(S(=O)(=O)[O-])cc7)c7ccc4[nH]7)C=C6)C=C5)cc3)cc2-c2ccccc2)cc1
REMARK SMILES IDX 18 1 19 2 17 3 16 4 15 5 14 6 12 7 13 8 11 10 9 11 10 12
REMARK SMILES IDX 87 13 86 14 8 15 5 16 6 17 95 18 7 19 94 20 2 21 3 22 4 23
REMARK SMILES IDX 1 24 88 27 89 28 93 29 90 30 92 31 91 32 20 33 21 34 22 35
REMARK SMILES IDX 23 36 24 37 25 38 26 39 27 40 85 41 28 42 84 43 29 44 30 45
REMARK SMILES IDX 31 46 78 47 32 48 83 49 77 50 79 51 33 52 82 53 76 54 75 55
REMARK SMILES IDX 34 57 64 58 45 59 63 60 46 61 49 62 62 63 80 64 47 65 48 66
REMARK SMILES IDX 61 68 81 69 50 70 35 71 36 72 44 73 37 74 43 75 38 76 39 77
REMARK SMILES IDX 40 78 41 79 42 80 65 81 66 82 74 83 67 84 73 85 68 86 69 87
REMARK SMILES IDX 70 88 71 89 72 90 51 91 52 92 60 93 53 94 59 95 54 96 55 97
REMARK SMILES IDX 56 98 57 99 58 100
REMARK H PARENT 14 9 1 25 1 26 79 56 49 67
REMARK Flexibility Score: inf
ROOT
ATOM      1  C   UNL A   1      38.073  22.776  25.756  1.00  0.00     0.305 C 
ATOM      2  O   UNL A   1      37.686  23.936  25.837  1.00  0.00    -0.252 OA
ENDROOT
BRANCH   1   3
ATOM      3  C   UNL A   1      37.399  21.741  24.884  1.00  0.00     0.124 C 
BRANCH   3   4
ATOM      4  C   UNL A   1      36.161  21.039  25.436  1.00  0.00     0.033 C 
BRANCH   4   5
ATOM      5  C   UNL A   1      34.845  21.814  25.428  1.00  0.00     0.117 C 
BRANCH   5   6
ATOM      6  N   UNL A   1      33.985  21.437  24.319  1.00  0.00    -0.351 N 
ATOM      7  C   UNL A   1      32.903  22.078  23.754  1.00  0.00     0.271 C 
ATOM      8  O   UNL A   1      32.251  21.436  22.928  1.00  0.00    -0.267 OA
ATOM      9  H   UNL A   1      34.214  20.577  23.899  1.00  0.00     0.163 HD
BRANCH   7  10
ATOM     10  C   UNL A   1      32.575  23.476  24.108  1.00  0.00     0.151 A 
ATOM     11  N   UNL A   1      31.576  25.372  24.029  1.00  0.00    -0.232 N 
ATOM     12  N   UNL A   1      31.465  24.082  23.630  1.00  0.00    -0.162 NA
ATOM     13  C   UNL A   1      32.563  25.536  24.988  1.00  0.00     0.075 A 
ATOM     14  C   UNL A   1      33.314  24.384  24.912  1.00  0.00     0.065 A 
BRANCH  11  15
ATOM     15  C   UNL A   1      30.747  26.390  23.493  1.00  0.00     0.065 A 
ATOM     16  C   UNL A   1      29.249  28.606  22.743  1.00  0.00     0.082 A 
ATOM     17  C   UNL A   1      30.574  28.498  22.315  1.00  0.00     0.024 A 
ATOM     18  C   UNL A   1      28.654  27.588  23.500  1.00  0.00     0.024 A 
ATOM     19  C   UNL A   1      31.324  27.390  22.692  1.00  0.00     0.030 A 
ATOM     20  C   UNL A   1      29.398  26.456  23.853  1.00  0.00     0.030 A 
BRANCH  16  21
ATOM     21  S   UNL A   1      28.383  30.090  22.332  1.00  0.00     0.238 S 
ATOM     22  O   UNL A   1      28.092  30.078  20.927  1.00  0.00    -0.207 OA
ATOM     23  O   UNL A   1      29.047  31.204  22.986  1.00  0.00    -0.207 OA
BRANCH  21  24
ATOM     24  N   UNL A   1      26.902  29.954  23.114  1.00  0.00    -0.225 NA
ATOM     25  H   UNL A   1      26.812  29.018  23.510  1.00  0.00     0.137 HD
ATOM     26  H   UNL A   1      26.148  30.114  22.445  1.00  0.00     0.137 HD
ENDBRANCH  21  24
ENDBRANCH  16  21
ENDBRANCH  11  15
BRANCH  13  27
ATOM     27  C   UNL A   1      32.698  26.681  25.893  1.00  0.00     0.000 A 
ATOM     28  C   UNL A   1      33.857  27.474  25.883  1.00  0.00     0.010 A 
ATOM     29  C   UNL A   1      31.654  27.023  26.758  1.00  0.00     0.010 A 
ATOM     30  C   UNL A   1      33.985  28.562  26.748  1.00  0.00     0.001 A 
ATOM     31  C   UNL A   1      31.778  28.119  27.615  1.00  0.00     0.001 A 
ATOM     32  C   UNL A   1      32.945  28.882  27.614  1.00  0.00     0.000 A 
ENDBRANCH  13  27
ENDBRANCH   7  10
ENDBRANCH   5   6
ENDBRANCH   4   5
ENDBRANCH   3   4
ENDBRANCH   1   3
BRANCH   1  33
ATOM     33  O   UNL A   1      39.078  22.243  26.497  1.00  0.00    -0.462 OA
BRANCH  33  34
ATOM     34  C   UNL A   1      39.688  21.043  25.985  1.00  0.00     0.274 C 
BRANCH  34  35
ATOM     35  C   UNL A   1      41.204  21.077  26.122  1.00  0.00     0.275 C 
BRANCH  35  36
ATOM     36  O   UNL A   1      41.759  22.284  25.600  1.00  0.00    -0.458 OA
BRANCH  36  37
ATOM     37  C   UNL A   1      42.910  22.674  26.194  1.00  0.00     0.338 C 
ATOM     38  O   UNL A   1      43.851  21.959  26.493  1.00  0.00    -0.246 OA
BRANCH  37  39
ATOM     39  C   UNL A   1      42.785  24.059  26.658  1.00  0.00     0.060 A 
ATOM     40  C   UNL A   1      43.867  24.921  26.453  1.00  0.00     0.016 A 
ATOM     41  C   UNL A   1      41.726  24.397  27.509  1.00  0.00     0.016 A 
ATOM     42  C   UNL A   1      43.946  26.074  27.211  1.00  0.00     0.010 A 
ATOM     43  C   UNL A   1      41.818  25.534  28.278  1.00  0.00     0.010 A 
ATOM     44  C   UNL A   1      42.953  26.333  28.165  1.00  0.00    -0.014 A 
BRANCH  44  45
ATOM     45  C   UNL A   1      43.016  27.572  28.917  1.00  0.00     0.031 A 
ATOM     46  C   UNL A   1      43.306  27.335  30.349  1.00  0.00     0.074 A 
ATOM     47  C   UNL A   1      42.976  28.796  28.354  1.00  0.00     0.049 A 
ATOM     48  N   UNL A   1      42.496  27.487  31.343  1.00  0.00    -0.248 NA
ATOM     49  C   UNL A   1      44.567  26.656  30.697  1.00  0.00     0.031 C 
ATOM     50  C   UNL A   1      42.962  29.124  26.926  1.00  0.00     0.029 A 
ATOM     51  N   UNL A   1      43.059  30.020  28.945  1.00  0.00    -0.354 N 
ATOM     52  C   UNL A   1      43.247  27.178  32.469  1.00  0.00     0.074 A 
ATOM     53  C   UNL A   1      44.404  26.456  32.004  1.00  0.00     0.031 C 
ATOM     54  C   UNL A   1      43.273  30.432  26.766  1.00  0.00     0.029 A 
ATOM     55  C   UNL A   1      43.381  31.058  28.074  1.00  0.00     0.049 A 
ATOM     56  H   UNL A   1      42.903  30.160  29.908  1.00  0.00     0.167 HD
ATOM     57  C   UNL A   1      43.041  27.832  33.645  1.00  0.00     0.031 A 
ATOM     58  C   UNL A   1      43.772  32.317  28.410  1.00  0.00     0.031 A 
ATOM     59  C   UNL A   1      41.765  28.501  33.668  1.00  0.00     0.049 A 
ATOM     60  C   UNL A   1      43.320  32.558  29.801  1.00  0.00     0.074 A 
ATOM     61  C   UNL A   1      40.454  28.101  33.494  1.00  0.00     0.029 A 
ATOM     62  N   UNL A   1      41.776  29.863  33.482  1.00  0.00    -0.354 N 
ATOM     63  N   UNL A   1      42.066  32.645  30.139  1.00  0.00    -0.248 NA
ATOM     64  C   UNL A   1      44.237  32.253  30.887  1.00  0.00     0.031 C 
ATOM     65  C   UNL A   1      39.836  29.161  32.767  1.00  0.00     0.029 A 
ATOM     66  C   UNL A   1      40.771  30.184  32.606  1.00  0.00     0.049 A 
ATOM     67  H   UNL A   1      42.397  30.498  33.906  1.00  0.00     0.167 HD
ATOM     68  C   UNL A   1      41.979  31.955  31.339  1.00  0.00     0.074 A 
ATOM     69  C   UNL A   1      43.360  31.835  31.805  1.00  0.00     0.031 C 
ATOM     70  C   UNL A   1      40.830  31.303  31.689  1.00  0.00     0.031 A 
BRANCH  57  71
ATOM     71  C   UNL A   1      44.185  28.244  34.539  1.00  0.00    -0.014 A 
ATOM     72  C   UNL A   1      44.960  29.364  34.186  1.00  0.00     0.010 A 
ATOM     73  C   UNL A   1      44.693  27.410  35.559  1.00  0.00     0.010 A 
ATOM     74  C   UNL A   1      46.198  29.608  34.796  1.00  0.00     0.020 A 
ATOM     75  C   UNL A   1      45.900  27.669  36.207  1.00  0.00     0.020 A 
ATOM     76  C   UNL A   1      46.658  28.756  35.802  1.00  0.00     0.054 A 
BRANCH  76  77
ATOM     77  S   UNL A   1      48.280  29.049  36.548  1.00  0.00     0.124 S 
ATOM     78  O   UNL A   1      47.973  30.079  37.534  1.00  0.00    -0.237 OA
ATOM     79  O   UNL A   1      48.611  27.732  37.085  1.00  0.00    -0.237 OA
ATOM     80  O   UNL A   1      49.100  29.481  35.419  1.00  0.00    -0.744 OA
ENDBRANCH  76  77
ENDBRANCH  57  71
BRANCH  58  81
ATOM     81  C   UNL A   1      44.781  33.186  27.747  1.00  0.00    -0.014 A 
ATOM     82  C   UNL A   1      44.385  34.277  26.945  1.00  0.00     0.010 A 
ATOM     83  C   UNL A   1      46.131  33.132  28.147  1.00  0.00     0.010 A 
ATOM     84  C   UNL A   1      45.283  35.312  26.628  1.00  0.00     0.020 A 
ATOM     85  C   UNL A   1      47.033  34.154  27.829  1.00  0.00     0.020 A 
ATOM     86  C   UNL A   1      46.599  35.255  27.094  1.00  0.00     0.054 A 
BRANCH  86  87
ATOM     87  S   UNL A   1      47.699  36.685  26.862  1.00  0.00     0.124 S 
ATOM     88  O   UNL A   1      47.007  37.736  27.601  1.00  0.00    -0.237 OA
ATOM     89  O   UNL A   1      48.954  36.221  27.447  1.00  0.00    -0.237 OA
ATOM     90  O   UNL A   1      47.727  36.863  25.411  1.00  0.00    -0.744 OA
ENDBRANCH  86  87
ENDBRANCH  58  81
BRANCH  70  91
ATOM     91  C   UNL A   1      39.561  31.637  30.931  1.00  0.00    -0.014 A 
ATOM     92  C   UNL A   1      39.127  30.978  29.762  1.00  0.00     0.010 A 
ATOM     93  C   UNL A   1      38.726  32.621  31.488  1.00  0.00     0.010 A 
ATOM     94  C   UNL A   1      37.923  31.342  29.138  1.00  0.00     0.020 A 
ATOM     95  C   UNL A   1      37.516  32.970  30.886  1.00  0.00     0.020 A 
ATOM     96  C   UNL A   1      37.129  32.346  29.700  1.00  0.00     0.054 A 
BRANCH  96  97
ATOM     97  S   UNL A   1      35.585  32.834  28.882  1.00  0.00     0.124 S 
ATOM     98  O   UNL A   1      34.879  31.562  28.753  1.00  0.00    -0.237 OA
ATOM     99  O   UNL A   1      35.003  33.784  29.827  1.00  0.00    -0.237 OA
ATOM    100  O   UNL A   1      36.031  33.423  27.620  1.00  0.00    -0.744 OA
ENDBRANCH  96  97
ENDBRANCH  70  91
ENDBRANCH  44  45
ENDBRANCH  37  39
ENDBRANCH  36  37
ENDBRANCH  35  36
ENDBRANCH  34  35
ENDBRANCH  33  34
ENDBRANCH   1  33
TORSDOF 22
ENDMDL
