MODEL 1
REMARK VINA RESULT:     -11.8      0.000      0.000
REMARK SMILES O=C(OCCOC(=O)[C@H]1CC[C@H]2CCCC[C@@H]2[N@H+]1C[C@@H]1CCCCO1)c1ccc(-c2c3nc(c(-c4ccc(S(=O)(=O)[O-])cc4)c4ccc([nH]4)c(-c4ccc(S(=O)(=O)[O-])cc4)c4nc(c(-c5ccc(S(=O)(=O)[O-])cc5)c5ccc2[nH]5)C=C4)C=C3)cc1
REMARK SMILES IDX 4 1 3 2 2 3 1 4 26 5 27 6 85 7 28 8 84 9 29 10 30 11 31 12
REMARK SMILES IDX 78 13 32 14 83 15 77 16 79 17 33 18 82 19 76 20 75 21 34 23
REMARK SMILES IDX 64 24 45 25 63 26 46 27 49 28 62 29 80 30 47 31 48 32 61 34
REMARK SMILES IDX 81 35 50 36 35 37 36 38 44 39 37 40 43 41 38 42 39 43 40 44
REMARK SMILES IDX 41 45 42 46 65 47 66 48 74 49 67 50 73 51 68 52 69 53 70 54
REMARK SMILES IDX 71 55 72 56 51 57 52 58 60 59 53 60 59 61 54 62 55 63 56 64
REMARK SMILES IDX 57 65 58 66 5 67 6 68 7 69 8 70 9 71 10 72 18 73 11 74 17 75
REMARK SMILES IDX 12 77 16 78 13 79 15 80 14 81 19 82 20 83 21 84 25 85 22 86
REMARK SMILES IDX 24 87 23 88
REMARK H PARENT 79 22 49 33 18 76
REMARK Flexibility Score: inf
ROOT
ATOM      1  C   UNL A   1      37.003  23.500  24.838  1.00  0.00     0.275 C 
ENDROOT
BRANCH   1   2
ATOM      2  O   UNL A   1      37.717  22.765  25.831  1.00  0.00    -0.458 OA
BRANCH   2   3
ATOM      3  C   UNL A   1      39.017  22.898  26.184  1.00  0.00     0.338 C 
ATOM      4  O   UNL A   1      39.733  21.901  26.086  1.00  0.00    -0.246 OA
BRANCH   3   5
ATOM      5  C   UNL A   1      39.611  24.160  26.770  1.00  0.00     0.060 A 
ATOM      6  C   UNL A   1      40.416  25.135  26.152  1.00  0.00     0.016 A 
ATOM      7  C   UNL A   1      39.221  24.429  28.075  1.00  0.00     0.016 A 
ATOM      8  C   UNL A   1      40.662  26.397  26.723  1.00  0.00     0.010 A 
ATOM      9  C   UNL A   1      39.510  25.663  28.656  1.00  0.00     0.010 A 
ATOM     10  C   UNL A   1      40.168  26.698  27.977  1.00  0.00    -0.014 A 
BRANCH  10  11
ATOM     11  C   UNL A   1      40.480  27.980  28.673  1.00  0.00     0.031 A 
ATOM     12  C   UNL A   1      41.835  28.077  29.315  1.00  0.00     0.074 A 
ATOM     13  C   UNL A   1      39.613  29.017  28.781  1.00  0.00     0.049 A 
ATOM     14  N   UNL A   1      42.343  29.034  30.041  1.00  0.00    -0.248 NA
ATOM     15  C   UNL A   1      42.729  26.914  29.150  1.00  0.00     0.031 C 
ATOM     16  C   UNL A   1      38.266  29.079  28.215  1.00  0.00     0.029 A 
ATOM     17  N   UNL A   1      39.737  30.233  29.421  1.00  0.00    -0.354 N 
ATOM     18  C   UNL A   1      43.594  28.569  30.415  1.00  0.00     0.074 A 
ATOM     19  C   UNL A   1      43.692  27.192  30.007  1.00  0.00     0.031 C 
ATOM     20  C   UNL A   1      37.680  30.243  28.554  1.00  0.00     0.029 A 
ATOM     21  C   UNL A   1      38.617  31.039  29.339  1.00  0.00     0.049 A 
ATOM     22  H   UNL A   1      40.555  30.505  29.898  1.00  0.00     0.167 HD
ATOM     23  C   UNL A   1      44.629  29.248  30.950  1.00  0.00     0.031 A 
ATOM     24  C   UNL A   1      38.386  32.285  29.813  1.00  0.00     0.031 A 
ATOM     25  C   UNL A   1      44.556  30.628  31.309  1.00  0.00     0.049 A 
ATOM     26  C   UNL A   1      39.525  33.016  30.487  1.00  0.00     0.074 A 
ATOM     27  C   UNL A   1      45.552  31.433  31.821  1.00  0.00     0.029 A 
ATOM     28  N   UNL A   1      43.413  31.404  31.196  1.00  0.00    -0.354 N 
ATOM     29  N   UNL A   1      40.743  32.591  30.731  1.00  0.00    -0.248 NA
ATOM     30  C   UNL A   1      39.280  34.405  30.906  1.00  0.00     0.031 C 
ATOM     31  C   UNL A   1      44.987  32.679  32.098  1.00  0.00     0.029 A 
ATOM     32  C   UNL A   1      43.666  32.674  31.671  1.00  0.00     0.049 A 
ATOM     33  H   UNL A   1      42.552  31.096  30.831  1.00  0.00     0.167 HD
ATOM     34  C   UNL A   1      41.422  33.673  31.285  1.00  0.00     0.074 A 
ATOM     35  C   UNL A   1      40.480  34.772  31.336  1.00  0.00     0.031 C 
ATOM     36  C   UNL A   1      42.710  33.753  31.703  1.00  0.00     0.031 A 
BRANCH  23  37
ATOM     37  C   UNL A   1      45.901  28.476  31.153  1.00  0.00    -0.014 A 
ATOM     38  C   UNL A   1      47.016  28.669  30.311  1.00  0.00     0.010 A 
ATOM     39  C   UNL A   1      45.951  27.488  32.147  1.00  0.00     0.010 A 
ATOM     40  C   UNL A   1      48.129  27.836  30.414  1.00  0.00     0.020 A 
ATOM     41  C   UNL A   1      47.084  26.684  32.283  1.00  0.00     0.020 A 
ATOM     42  C   UNL A   1      48.155  26.848  31.401  1.00  0.00     0.054 A 
BRANCH  42  43
ATOM     43  S   UNL A   1      49.618  25.787  31.523  1.00  0.00     0.124 S 
ATOM     44  O   UNL A   1      50.685  26.766  31.712  1.00  0.00    -0.237 OA
ATOM     45  O   UNL A   1      49.311  24.959  32.686  1.00  0.00    -0.237 OA
ATOM     46  O   UNL A   1      49.640  25.080  30.244  1.00  0.00    -0.744 OA
ENDBRANCH  42  43
ENDBRANCH  23  37
BRANCH  24  47
ATOM     47  C   UNL A   1      37.056  32.955  29.632  1.00  0.00    -0.014 A 
ATOM     48  C   UNL A   1      36.782  33.747  28.499  1.00  0.00     0.010 A 
ATOM     49  C   UNL A   1      36.057  32.831  30.617  1.00  0.00     0.010 A 
ATOM     50  C   UNL A   1      35.554  34.412  28.365  1.00  0.00     0.020 A 
ATOM     51  C   UNL A   1      34.819  33.473  30.475  1.00  0.00     0.020 A 
ATOM     52  C   UNL A   1      34.576  34.265  29.351  1.00  0.00     0.054 A 
BRANCH  52  53
ATOM     53  S   UNL A   1      32.971  35.089  29.128  1.00  0.00     0.124 S 
ATOM     54  O   UNL A   1      32.400  35.024  30.469  1.00  0.00    -0.237 OA
ATOM     55  O   UNL A   1      33.367  36.420  28.672  1.00  0.00    -0.237 OA
ATOM     56  O   UNL A   1      32.302  34.268  28.121  1.00  0.00    -0.744 OA
ENDBRANCH  52  53
ENDBRANCH  24  47
BRANCH  36  57
ATOM     57  C   UNL A   1      43.205  35.077  32.216  1.00  0.00    -0.014 A 
ATOM     58  C   UNL A   1      43.848  35.996  31.370  1.00  0.00     0.010 A 
ATOM     59  C   UNL A   1      42.909  35.450  33.541  1.00  0.00     0.010 A 
ATOM     60  C   UNL A   1      44.206  37.258  31.848  1.00  0.00     0.020 A 
ATOM     61  C   UNL A   1      43.229  36.723  34.010  1.00  0.00     0.020 A 
ATOM     62  C   UNL A   1      43.887  37.616  33.162  1.00  0.00     0.054 A 
BRANCH  62  63
ATOM     63  S   UNL A   1      44.299  39.285  33.733  1.00  0.00     0.124 S 
ATOM     64  O   UNL A   1      45.033  39.012  34.965  1.00  0.00    -0.237 OA
ATOM     65  O   UNL A   1      45.097  39.812  32.628  1.00  0.00    -0.237 OA
ATOM     66  O   UNL A   1      42.996  39.923  33.913  1.00  0.00    -0.744 OA
ENDBRANCH  62  63
ENDBRANCH  36  57
ENDBRANCH  10  11
ENDBRANCH   3   5
ENDBRANCH   2   3
ENDBRANCH   1   2
BRANCH   1  67
ATOM     67  C   UNL A   1      36.663  22.657  23.599  1.00  0.00     0.274 C 
BRANCH  67  68
ATOM     68  O   UNL A   1      35.248  22.558  23.317  1.00  0.00    -0.458 OA
BRANCH  68  69
ATOM     69  C   UNL A   1      34.463  21.819  24.169  1.00  0.00     0.365 C 
ATOM     70  O   UNL A   1      34.828  20.776  24.694  1.00  0.00    -0.245 OA
BRANCH  69  71
ATOM     71  C   UNL A   1      33.039  22.450  24.272  1.00  0.00     0.295 C 
ATOM     72  C   UNL A   1      32.244  21.579  25.844  1.00  0.00     0.078 C 
ATOM     73  N   UNL A   1      33.078  24.303  24.075  1.00  0.00    -0.318 N 
ATOM     74  C   UNL A   1      30.939  22.878  26.712  1.00  0.00     0.016 C 
ATOM     75  C   UNL A   1      31.736  25.064  24.206  1.00  0.00     0.187 C 
ATOM     76  H   UNL A   1      33.595  24.285  23.196  1.00  0.00     0.349 HD
ATOM     77  C   UNL A   1      30.623  24.583  25.400  1.00  0.00     0.048 C 
ATOM     78  C   UNL A   1      31.169  25.672  22.911  1.00  0.00     0.065 C 
ATOM     79  C   UNL A   1      29.509  25.945  25.403  1.00  0.00     0.010 C 
ATOM     80  C   UNL A   1      30.212  26.839  23.140  1.00  0.00     0.006 C 
ATOM     81  C   UNL A   1      29.054  26.386  23.985  1.00  0.00     0.001 C 
BRANCH  73  82
ATOM     82  C   UNL A   1      33.597  25.181  25.405  1.00  0.00     0.295 C 
BRANCH  82  83
ATOM     83  C   UNL A   1      34.104  26.715  24.887  1.00  0.00     0.173 C 
ATOM     84  C   UNL A   1      33.631  27.054  26.277  1.00  0.00     0.038 C 
ATOM     85  O   UNL A   1      33.762  27.866  23.827  1.00  0.00    -0.372 OA
ATOM     86  C   UNL A   1      31.854  28.138  26.785  1.00  0.00     0.005 C 
ATOM     87  C   UNL A   1      33.062  29.474  24.128  1.00  0.00     0.161 C 
ATOM     88  C   UNL A   1      31.676  29.679  25.491  1.00  0.00     0.029 C 
ENDBRANCH  82  83
ENDBRANCH  73  82
ENDBRANCH  69  71
ENDBRANCH  68  69
ENDBRANCH  67  68
ENDBRANCH   1  67
TORSDOF 16
ENDMDL
MODEL 2
REMARK VINA RESULT:     -11.7      1.042      2.563
REMARK SMILES O=C(OCCOC(=O)[C@H]1CC[C@H]2CCCC[C@@H]2[N@H+]1C[C@@H]1CCCCO1)c1ccc(-c2c3nc(c(-c4ccc(S(=O)(=O)[O-])cc4)c4ccc([nH]4)c(-c4ccc(S(=O)(=O)[O-])cc4)c4nc(c(-c5ccc(S(=O)(=O)[O-])cc5)c5ccc2[nH]5)C=C4)C=C3)cc1
REMARK SMILES IDX 4 1 3 2 2 3 1 4 26 5 27 6 85 7 28 8 84 9 29 10 30 11 31 12
REMARK SMILES IDX 78 13 32 14 83 15 77 16 79 17 33 18 82 19 76 20 75 21 34 23
REMARK SMILES IDX 64 24 45 25 63 26 46 27 49 28 62 29 80 30 47 31 48 32 61 34
REMARK SMILES IDX 81 35 50 36 35 37 36 38 44 39 37 40 43 41 38 42 39 43 40 44
REMARK SMILES IDX 41 45 42 46 65 47 66 48 74 49 67 50 73 51 68 52 69 53 70 54
REMARK SMILES IDX 71 55 72 56 51 57 52 58 60 59 53 60 59 61 54 62 55 63 56 64
REMARK SMILES IDX 57 65 58 66 5 67 6 68 7 69 8 70 9 71 10 72 18 73 11 74 17 75
REMARK SMILES IDX 12 77 16 78 13 79 15 80 14 81 19 82 20 83 21 84 25 85 22 86
REMARK SMILES IDX 24 87 23 88
REMARK H PARENT 79 22 49 33 18 76
REMARK Flexibility Score: inf
ROOT
ATOM      1  C   UNL A   1      36.533  23.431  24.853  1.00  0.00     0.275 C 
ENDROOT
BRANCH   1   2
ATOM      2  O   UNL A   1      37.281  22.622  25.760  1.00  0.00    -0.458 OA
BRANCH   2   3
ATOM      3  C   UNL A   1      38.600  22.712  26.053  1.00  0.00     0.338 C 
ATOM      4  O   UNL A   1      39.282  21.700  25.897  1.00  0.00    -0.246 OA
BRANCH   3   5
ATOM      5  C   UNL A   1      39.256  23.943  26.638  1.00  0.00     0.060 A 
ATOM      6  C   UNL A   1      40.100  24.883  26.018  1.00  0.00     0.016 A 
ATOM      7  C   UNL A   1      38.888  24.225  27.948  1.00  0.00     0.016 A 
ATOM      8  C   UNL A   1      40.408  26.129  26.592  1.00  0.00     0.010 A 
ATOM      9  C   UNL A   1      39.237  25.443  28.531  1.00  0.00     0.010 A 
ATOM     10  C   UNL A   1      39.938  26.449  27.850  1.00  0.00    -0.014 A 
BRANCH  10  11
ATOM     11  C   UNL A   1      40.313  27.712  28.548  1.00  0.00     0.031 A 
ATOM     12  C   UNL A   1      41.685  27.752  29.161  1.00  0.00     0.074 A 
ATOM     13  C   UNL A   1      39.490  28.780  28.683  1.00  0.00     0.049 A 
ATOM     14  N   UNL A   1      42.244  28.684  29.883  1.00  0.00    -0.248 NA
ATOM     15  C   UNL A   1      42.530  26.557  28.969  1.00  0.00     0.031 C 
ATOM     16  C   UNL A   1      38.134  28.898  28.147  1.00  0.00     0.029 A 
ATOM     17  N   UNL A   1      39.673  29.986  29.329  1.00  0.00    -0.354 N 
ATOM     18  C   UNL A   1      43.484  28.168  30.226  1.00  0.00     0.074 A 
ATOM     19  C   UNL A   1      43.521  26.792  29.806  1.00  0.00     0.031 C 
ATOM     20  C   UNL A   1      37.600  30.082  28.507  1.00  0.00     0.029 A 
ATOM     21  C   UNL A   1      38.584  30.835  29.277  1.00  0.00     0.049 A 
ATOM     22  H   UNL A   1      40.511  30.222  29.790  1.00  0.00     0.167 HD
ATOM     23  C   UNL A   1      44.556  28.802  30.743  1.00  0.00     0.031 A 
ATOM     24  C   UNL A   1      38.411  32.085  29.765  1.00  0.00     0.031 A 
ATOM     25  C   UNL A   1      44.544  30.182  31.113  1.00  0.00     0.049 A 
ATOM     26  C   UNL A   1      39.592  32.766  30.419  1.00  0.00     0.074 A 
ATOM     27  C   UNL A   1      45.581  30.944  31.610  1.00  0.00     0.029 A 
ATOM     28  N   UNL A   1      43.429  31.002  31.031  1.00  0.00    -0.354 N 
ATOM     29  N   UNL A   1      40.798  32.294  30.633  1.00  0.00    -0.248 NA
ATOM     30  C   UNL A   1      39.409  34.161  30.853  1.00  0.00     0.031 C 
ATOM     31  C   UNL A   1      45.070  32.209  31.907  1.00  0.00     0.029 A 
ATOM     32  C   UNL A   1      43.741  32.258  31.510  1.00  0.00     0.049 A 
ATOM     33  H   UNL A   1      42.550  30.730  30.683  1.00  0.00     0.167 HD
ATOM     34  C   UNL A   1      41.529  33.344  31.180  1.00  0.00     0.074 A 
ATOM     35  C   UNL A   1      40.632  34.478  31.259  1.00  0.00     0.031 C 
ATOM     36  C   UNL A   1      42.828  33.371  31.570  1.00  0.00     0.031 A 
BRANCH  23  37
ATOM     37  C   UNL A   1      45.801  27.981  30.913  1.00  0.00    -0.014 A 
ATOM     38  C   UNL A   1      46.038  27.248  32.095  1.00  0.00     0.010 A 
ATOM     39  C   UNL A   1      46.783  28.009  29.913  1.00  0.00     0.010 A 
ATOM     40  C   UNL A   1      47.265  26.620  32.302  1.00  0.00     0.020 A 
ATOM     41  C   UNL A   1      47.996  27.341  30.097  1.00  0.00     0.020 A 
ATOM     42  C   UNL A   1      48.237  26.672  31.299  1.00  0.00     0.054 A 
BRANCH  42  43
ATOM     43  S   UNL A   1      49.818  25.837  31.586  1.00  0.00     0.124 S 
ATOM     44  O   UNL A   1      49.945  25.012  30.388  1.00  0.00    -0.237 OA
ATOM     45  O   UNL A   1      50.752  26.956  31.680  1.00  0.00    -0.237 OA
ATOM     46  O   UNL A   1      49.600  25.102  32.830  1.00  0.00    -0.744 OA
ENDBRANCH  42  43
ENDBRANCH  23  37
BRANCH  24  47
ATOM     47  C   UNL A   1      37.104  32.806  29.618  1.00  0.00    -0.014 A 
ATOM     48  C   UNL A   1      36.688  33.324  28.375  1.00  0.00     0.010 A 
ATOM     49  C   UNL A   1      36.275  33.011  30.737  1.00  0.00     0.010 A 
ATOM     50  C   UNL A   1      35.490  34.043  28.258  1.00  0.00     0.020 A 
ATOM     51  C   UNL A   1      35.063  33.707  30.620  1.00  0.00     0.020 A 
ATOM     52  C   UNL A   1      34.680  34.224  29.382  1.00  0.00     0.054 A 
BRANCH  52  53
ATOM     53  S   UNL A   1      33.103  35.109  29.195  1.00  0.00     0.124 S 
ATOM     54  O   UNL A   1      32.525  34.999  30.531  1.00  0.00    -0.237 OA
ATOM     55  O   UNL A   1      33.542  36.447  28.804  1.00  0.00    -0.237 OA
ATOM     56  O   UNL A   1      32.411  34.359  28.150  1.00  0.00    -0.744 OA
ENDBRANCH  52  53
ENDBRANCH  24  47
BRANCH  36  57
ATOM     57  C   UNL A   1      43.384  34.672  32.081  1.00  0.00    -0.014 A 
ATOM     58  C   UNL A   1      43.865  35.658  31.204  1.00  0.00     0.010 A 
ATOM     59  C   UNL A   1      43.310  34.951  33.459  1.00  0.00     0.010 A 
ATOM     60  C   UNL A   1      44.281  36.895  31.700  1.00  0.00     0.020 A 
ATOM     61  C   UNL A   1      43.687  36.200  33.953  1.00  0.00     0.020 A 
ATOM     62  C   UNL A   1      44.181  37.161  33.070  1.00  0.00     0.054 A 
BRANCH  62  63
ATOM     63  S   UNL A   1      44.661  38.799  33.675  1.00  0.00     0.124 S 
ATOM     64  O   UNL A   1      44.394  39.642  32.513  1.00  0.00    -0.237 OA
ATOM     65  O   UNL A   1      43.766  38.994  34.813  1.00  0.00    -0.237 OA
ATOM     66  O   UNL A   1      46.073  38.643  34.019  1.00  0.00    -0.744 OA
ENDBRANCH  62  63
ENDBRANCH  36  57
ENDBRANCH  10  11
ENDBRANCH   3   5
ENDBRANCH   2   3
ENDBRANCH   1   2
BRANCH   1  67
ATOM     67  C   UNL A   1      35.653  22.604  23.901  1.00  0.00     0.274 C 
BRANCH  67  68
ATOM     68  O   UNL A   1      35.269  23.299  22.692  1.00  0.00    -0.458 OA
BRANCH  68  69
ATOM     69  C   UNL A   1      33.938  23.577  22.494  1.00  0.00     0.365 C 
ATOM     70  O   UNL A   1      33.149  22.790  21.991  1.00  0.00    -0.245 OA
BRANCH  69  71
ATOM     71  C   UNL A   1      33.629  25.051  22.904  1.00  0.00     0.295 C 
ATOM     72  C   UNL A   1      32.600  25.762  21.389  1.00  0.00     0.078 C 
ATOM     73  N   UNL A   1      33.025  25.176  24.664  1.00  0.00    -0.318 N 
ATOM     74  C   UNL A   1      31.312  27.174  22.089  1.00  0.00     0.016 C 
ATOM     75  C   UNL A   1      32.634  26.580  25.186  1.00  0.00     0.187 C 
ATOM     76  H   UNL A   1      33.811  24.662  25.061  1.00  0.00     0.349 HD
ATOM     77  C   UNL A   1      31.793  27.643  24.157  1.00  0.00     0.048 C 
ATOM     78  C   UNL A   1      33.571  27.201  26.237  1.00  0.00     0.065 C 
ATOM     79  C   UNL A   1      31.255  28.872  25.295  1.00  0.00     0.010 C 
ATOM     80  C   UNL A   1      32.904  28.257  27.116  1.00  0.00     0.006 C 
ATOM     81  C   UNL A   1      32.370  29.367  26.256  1.00  0.00     0.001 C 
BRANCH  73  82
ATOM     82  C   UNL A   1      31.432  24.733  24.936  1.00  0.00     0.295 C 
BRANCH  82  83
ATOM     83  C   UNL A   1      31.345  23.044  25.066  1.00  0.00     0.173 C 
ATOM     84  C   UNL A   1      31.558  23.405  26.513  1.00  0.00     0.038 C 
ATOM     85  O   UNL A   1      32.118  21.705  24.650  1.00  0.00    -0.372 OA
ATOM     86  C   UNL A   1      33.351  23.106  27.647  1.00  0.00     0.005 C 
ATOM     87  C   UNL A   1      33.024  20.581  25.691  1.00  0.00     0.161 C 
ATOM     88  C   UNL A   1      34.092  21.288  27.168  1.00  0.00     0.029 C 
ENDBRANCH  82  83
ENDBRANCH  73  82
ENDBRANCH  69  71
ENDBRANCH  68  69
ENDBRANCH  67  68
ENDBRANCH   1  67
TORSDOF 16
ENDMDL
MODEL 3
REMARK VINA RESULT:     -11.7      4.083      5.737
REMARK SMILES O=C(OCCOC(=O)[C@H]1CC[C@H]2CCCC[C@@H]2[N@H+]1C[C@@H]1CCCCO1)c1ccc(-c2c3nc(c(-c4ccc(S(=O)(=O)[O-])cc4)c4ccc([nH]4)c(-c4ccc(S(=O)(=O)[O-])cc4)c4nc(c(-c5ccc(S(=O)(=O)[O-])cc5)c5ccc2[nH]5)C=C4)C=C3)cc1
REMARK SMILES IDX 4 1 3 2 2 3 1 4 26 5 27 6 85 7 28 8 84 9 29 10 30 11 31 12
REMARK SMILES IDX 78 13 32 14 83 15 77 16 79 17 33 18 82 19 76 20 75 21 34 23
REMARK SMILES IDX 64 24 45 25 63 26 46 27 49 28 62 29 80 30 47 31 48 32 61 34
REMARK SMILES IDX 81 35 50 36 35 37 36 38 44 39 37 40 43 41 38 42 39 43 40 44
REMARK SMILES IDX 41 45 42 46 65 47 66 48 74 49 67 50 73 51 68 52 69 53 70 54
REMARK SMILES IDX 71 55 72 56 51 57 52 58 60 59 53 60 59 61 54 62 55 63 56 64
REMARK SMILES IDX 57 65 58 66 5 67 6 68 7 69 8 70 9 71 10 72 18 73 11 74 17 75
REMARK SMILES IDX 12 77 16 78 13 79 15 80 14 81 19 82 20 83 21 84 25 85 22 86
REMARK SMILES IDX 24 87 23 88
REMARK H PARENT 79 22 49 33 18 76
REMARK Flexibility Score: inf
ROOT
ATOM      1  C   UNL A   1      40.318  23.440  26.763  1.00  0.00     0.275 C 
ENDROOT
BRANCH   1   2
ATOM      2  O   UNL A   1      39.806  24.715  26.376  1.00  0.00    -0.458 OA
BRANCH   2   3
ATOM      3  C   UNL A   1      40.335  25.934  26.639  1.00  0.00     0.338 C 
ATOM      4  O   UNL A   1      41.185  26.359  25.857  1.00  0.00    -0.246 OA
BRANCH   3   5
ATOM      5  C   UNL A   1      40.011  26.749  27.871  1.00  0.00     0.060 A 
ATOM      6  C   UNL A   1      39.203  26.416  28.973  1.00  0.00     0.016 A 
ATOM      7  C   UNL A   1      40.690  27.958  27.957  1.00  0.00     0.016 A 
ATOM      8  C   UNL A   1      39.214  27.142  30.177  1.00  0.00     0.010 A 
ATOM      9  C   UNL A   1      40.660  28.701  29.137  1.00  0.00     0.010 A 
ATOM     10  C   UNL A   1      39.986  28.281  30.293  1.00  0.00    -0.014 A 
BRANCH  10  11
ATOM     11  C   UNL A   1      39.962  29.144  31.509  1.00  0.00     0.031 A 
ATOM     12  C   UNL A   1      41.010  28.859  32.548  1.00  0.00     0.074 A 
ATOM     13  C   UNL A   1      39.048  30.120  31.731  1.00  0.00     0.049 A 
ATOM     14  N   UNL A   1      41.180  29.398  33.724  1.00  0.00    -0.248 NA
ATOM     15  C   UNL A   1      41.977  27.789  32.237  1.00  0.00     0.031 C 
ATOM     16  C   UNL A   1      37.973  30.519  30.822  1.00  0.00     0.029 A 
ATOM     17  N   UNL A   1      38.871  30.963  32.809  1.00  0.00    -0.354 N 
ATOM     18  C   UNL A   1      42.255  28.717  34.273  1.00  0.00     0.074 A 
ATOM     19  C   UNL A   1      42.571  27.617  33.400  1.00  0.00     0.031 C 
ATOM     20  C   UNL A   1      37.235  31.495  31.387  1.00  0.00     0.029 A 
ATOM     21  C   UNL A   1      37.799  31.826  32.691  1.00  0.00     0.049 A 
ATOM     22  H   UNL A   1      39.459  30.949  33.599  1.00  0.00     0.167 HD
ATOM     23  C   UNL A   1      43.002  29.033  35.350  1.00  0.00     0.031 A 
ATOM     24  C   UNL A   1      37.343  32.792  33.522  1.00  0.00     0.031 A 
ATOM     25  C   UNL A   1      42.726  30.154  36.190  1.00  0.00     0.049 A 
ATOM     26  C   UNL A   1      38.138  33.092  34.773  1.00  0.00     0.074 A 
ATOM     27  C   UNL A   1      43.437  30.599  37.286  1.00  0.00     0.029 A 
ATOM     28  N   UNL A   1      41.644  31.005  36.026  1.00  0.00    -0.354 N 
ATOM     29  N   UNL A   1      39.224  32.503  35.216  1.00  0.00    -0.248 NA
ATOM     30  C   UNL A   1      37.679  34.211  35.610  1.00  0.00     0.031 C 
ATOM     31  C   UNL A   1      42.735  31.672  37.837  1.00  0.00     0.029 A 
ATOM     32  C   UNL A   1      41.641  31.952  37.030  1.00  0.00     0.049 A 
ATOM     33  H   UNL A   1      40.979  30.944  35.302  1.00  0.00     0.167 HD
ATOM     34  C   UNL A   1      39.605  33.208  36.354  1.00  0.00     0.074 A 
ATOM     35  C   UNL A   1      38.637  34.271  36.527  1.00  0.00     0.031 C 
ATOM     36  C   UNL A   1      40.666  33.004  37.173  1.00  0.00     0.031 A 
BRANCH  23  37
ATOM     37  C   UNL A   1      44.174  28.139  35.636  1.00  0.00    -0.014 A 
ATOM     38  C   UNL A   1      45.429  28.363  35.033  1.00  0.00     0.010 A 
ATOM     39  C   UNL A   1      43.994  27.015  36.454  1.00  0.00     0.010 A 
ATOM     40  C   UNL A   1      46.460  27.437  35.186  1.00  0.00     0.020 A 
ATOM     41  C   UNL A   1      45.039  26.109  36.647  1.00  0.00     0.020 A 
ATOM     42  C   UNL A   1      46.256  26.315  35.992  1.00  0.00     0.054 A 
BRANCH  42  43
ATOM     43  S   UNL A   1      47.615  25.133  36.185  1.00  0.00     0.124 S 
ATOM     44  O   UNL A   1      47.518  24.358  34.951  1.00  0.00    -0.237 OA
ATOM     45  O   UNL A   1      48.780  26.006  36.289  1.00  0.00    -0.237 OA
ATOM     46  O   UNL A   1      47.271  24.406  37.406  1.00  0.00    -0.744 OA
ENDBRANCH  42  43
ENDBRANCH  23  37
BRANCH  24  47
ATOM     47  C   UNL A   1      36.116  33.589  33.193  1.00  0.00    -0.014 A 
ATOM     48  C   UNL A   1      34.833  33.153  33.580  1.00  0.00     0.010 A 
ATOM     49  C   UNL A   1      36.220  34.783  32.455  1.00  0.00     0.010 A 
ATOM     50  C   UNL A   1      33.687  33.878  33.221  1.00  0.00     0.020 A 
ATOM     51  C   UNL A   1      35.079  35.525  32.116  1.00  0.00     0.020 A 
ATOM     52  C   UNL A   1      33.818  35.065  32.497  1.00  0.00     0.054 A 
BRANCH  52  53
ATOM     53  S   UNL A   1      32.323  36.018  32.093  1.00  0.00     0.124 S 
ATOM     54  O   UNL A   1      31.257  35.099  32.478  1.00  0.00    -0.237 OA
ATOM     55  O   UNL A   1      32.473  37.202  32.937  1.00  0.00    -0.237 OA
ATOM     56  O   UNL A   1      32.451  36.265  30.659  1.00  0.00    -0.744 OA
ENDBRANCH  52  53
ENDBRANCH  24  47
BRANCH  36  57
ATOM     57  C   UNL A   1      40.875  33.964  38.312  1.00  0.00    -0.014 A 
ATOM     58  C   UNL A   1      41.609  35.150  38.145  1.00  0.00     0.010 A 
ATOM     59  C   UNL A   1      40.219  33.725  39.534  1.00  0.00     0.010 A 
ATOM     60  C   UNL A   1      41.700  36.071  39.190  1.00  0.00     0.020 A 
ATOM     61  C   UNL A   1      40.275  34.661  40.567  1.00  0.00     0.020 A 
ATOM     62  C   UNL A   1      41.026  35.825  40.391  1.00  0.00     0.054 A 
BRANCH  62  63
ATOM     63  S   UNL A   1      41.103  37.071  41.704  1.00  0.00     0.124 S 
ATOM     64  O   UNL A   1      39.754  37.012  42.258  1.00  0.00    -0.237 OA
ATOM     65  O   UNL A   1      42.162  36.557  42.569  1.00  0.00    -0.237 OA
ATOM     66  O   UNL A   1      41.430  38.305  40.993  1.00  0.00    -0.744 OA
ENDBRANCH  62  63
ENDBRANCH  36  57
ENDBRANCH  10  11
ENDBRANCH   3   5
ENDBRANCH   2   3
ENDBRANCH   1   2
BRANCH   1  67
ATOM     67  C   UNL A   1      39.250  22.335  26.741  1.00  0.00     0.274 C 
BRANCH  67  68
ATOM     68  O   UNL A   1      39.247  21.534  25.537  1.00  0.00    -0.458 OA
BRANCH  68  69
ATOM     69  C   UNL A   1      38.065  20.958  25.140  1.00  0.00     0.365 C 
ATOM     70  O   UNL A   1      37.990  19.852  24.623  1.00  0.00    -0.245 OA
BRANCH  69  71
ATOM     71  C   UNL A   1      36.883  21.956  25.349  1.00  0.00     0.295 C 
ATOM     72  C   UNL A   1      36.875  23.037  23.708  1.00  0.00     0.078 C 
ATOM     73  N   UNL A   1      35.353  21.103  25.988  1.00  0.00    -0.318 N 
ATOM     74  C   UNL A   1      34.962  23.623  23.331  1.00  0.00     0.016 C 
ATOM     75  C   UNL A   1      34.086  21.970  26.193  1.00  0.00     0.187 C 
ATOM     76  H   UNL A   1      35.824  20.658  26.774  1.00  0.00     0.349 HD
ATOM     77  C   UNL A   1      33.706  23.168  25.046  1.00  0.00     0.048 C 
ATOM     78  C   UNL A   1      33.664  22.223  27.651  1.00  0.00     0.065 C 
ATOM     79  C   UNL A   1      32.052  23.565  25.496  1.00  0.00     0.010 C 
ATOM     80  C   UNL A   1      32.185  22.564  27.819  1.00  0.00     0.006 C 
ATOM     81  C   UNL A   1      31.855  23.793  27.020  1.00  0.00     0.001 C 
BRANCH  73  82
ATOM     82  C   UNL A   1      34.462  20.236  24.864  1.00  0.00     0.295 C 
BRANCH  82  83
ATOM     83  C   UNL A   1      35.248  18.764  24.558  1.00  0.00     0.173 C 
ATOM     84  C   UNL A   1      33.894  18.462  23.969  1.00  0.00     0.038 C 
ATOM     85  O   UNL A   1      35.889  17.498  25.300  1.00  0.00    -0.372 OA
ATOM     86  C   UNL A   1      32.410  17.159  24.799  1.00  0.00     0.005 C 
ATOM     87  C   UNL A   1      35.276  15.828  25.366  1.00  0.00     0.161 C 
ATOM     88  C   UNL A   1      33.351  15.515  25.503  1.00  0.00     0.029 C 
ENDBRANCH  82  83
ENDBRANCH  73  82
ENDBRANCH  69  71
ENDBRANCH  68  69
ENDBRANCH  67  68
ENDBRANCH   1  67
TORSDOF 16
ENDMDL
