MODEL 1
REMARK VINA RESULT:     -10.3      0.000      0.000
REMARK SMILES C[C@@H](C(=O)OCCOC(=O)c1ccc(-c2c3nc(c(-c4ccc(S(=O)(=O)[O-])cc4)c4ccc([nH]4)c(-c4ccc(S(=O)(=O)[O-])cc4)c4nc(c(-c5ccc(S(=O)(=O)[O-])cc5)c5ccc2[nH]5)C=C4)C=C3)cc1)[C@H](C)[N@@H+]1C[C@H]2C[NH2+]C[C@@H]2[C@@H]1C
REMARK SMILES IDX 7 1 6 2 5 3 3 4 4 5 2 6 1 7 71 8 72 9 73 10 74 11 80 12
REMARK SMILES IDX 75 14 79 15 81 16 76 17 78 18 77 19 8 22 9 23 10 24 11 25
REMARK SMILES IDX 12 26 70 27 13 28 69 29 14 30 15 31 16 32 63 33 17 34 68 35
REMARK SMILES IDX 62 36 64 37 18 38 67 39 61 40 60 41 19 43 49 44 30 45 48 46
REMARK SMILES IDX 31 47 34 48 47 49 65 50 32 51 33 52 46 54 66 55 35 56 20 57
REMARK SMILES IDX 21 58 29 59 22 60 28 61 23 62 24 63 25 64 26 65 27 66 50 67
REMARK SMILES IDX 51 68 59 69 52 70 58 71 53 72 54 73 55 74 56 75 57 76 36 77
REMARK SMILES IDX 37 78 45 79 38 80 44 81 39 82 40 83 41 84 42 85 43 86
REMARK H PARENT 73 13 77 20 77 21 64 42 34 53
REMARK Flexibility Score: inf
ROOT
ATOM      1  C   UNL A   1      32.475  30.481  26.873  1.00  0.00     0.275 C 
ENDROOT
BRANCH   1   2
ATOM      2  C   UNL A   1      32.406  29.751  25.533  1.00  0.00     0.274 C 
BRANCH   2   3
ATOM      3  O   UNL A   1      31.632  28.539  25.668  1.00  0.00    -0.462 OA
BRANCH   3   4
ATOM      4  C   UNL A   1      31.175  27.965  24.520  1.00  0.00     0.314 C 
ATOM      5  O   UNL A   1      30.247  28.420  23.860  1.00  0.00    -0.252 OA
BRANCH   4   6
ATOM      6  C   UNL A   1      31.921  26.667  24.156  1.00  0.00     0.154 C 
ATOM      7  C   UNL A   1      31.972  26.464  22.640  1.00  0.00     0.026 C 
BRANCH   6   8
ATOM      8  C   UNL A   1      31.333  25.495  25.051  1.00  0.00     0.195 C 
ATOM      9  C   UNL A   1      29.939  25.982  25.531  1.00  0.00     0.076 C 
BRANCH   8  10
ATOM     10  N   UNL A   1      32.169  24.989  26.172  1.00  0.00    -0.329 N 
ATOM     11  C   UNL A   1      33.637  25.075  25.889  1.00  0.00     0.272 C 
ATOM     12  C   UNL A   1      31.911  23.598  26.738  1.00  0.00     0.190 C 
ATOM     13  H   UNL A   1      31.855  25.639  26.894  1.00  0.00     0.348 HD
ATOM     14  C   UNL A   1      34.118  23.660  25.941  1.00  0.00     0.114 C 
ATOM     15  C   UNL A   1      33.314  23.109  27.080  1.00  0.00     0.116 C 
ATOM     16  C   UNL A   1      31.127  22.566  25.929  1.00  0.00     0.076 C 
ATOM     17  C   UNL A   1      35.509  23.261  26.352  1.00  0.00     0.270 C 
ATOM     18  C   UNL A   1      33.844  21.692  27.094  1.00  0.00     0.271 C 
ATOM     19  N   UNL A   1      35.299  21.873  26.830  1.00  0.00    -0.345 N 
ATOM     20  H   UNL A   1      35.828  21.719  27.689  1.00  0.00     0.346 HD
ATOM     21  H   UNL A   1      35.618  21.205  26.129  1.00  0.00     0.346 HD
ENDBRANCH   8  10
ENDBRANCH   6   8
ENDBRANCH   4   6
ENDBRANCH   3   4
ENDBRANCH   2   3
ENDBRANCH   1   2
BRANCH   1  22
ATOM     22  O   UNL A   1      33.542  29.915  27.647  1.00  0.00    -0.458 OA
BRANCH  22  23
ATOM     23  C   UNL A   1      34.367  30.789  28.272  1.00  0.00     0.338 C 
ATOM     24  O   UNL A   1      34.070  31.886  28.711  1.00  0.00    -0.246 OA
BRANCH  23  25
ATOM     25  C   UNL A   1      35.720  30.194  28.376  1.00  0.00     0.060 A 
ATOM     26  C   UNL A   1      36.182  29.706  29.595  1.00  0.00     0.016 A 
ATOM     27  C   UNL A   1      36.573  30.192  27.271  1.00  0.00     0.016 A 
ATOM     28  C   UNL A   1      37.513  29.317  29.733  1.00  0.00     0.010 A 
ATOM     29  C   UNL A   1      37.886  29.710  27.397  1.00  0.00     0.010 A 
ATOM     30  C   UNL A   1      38.396  29.309  28.644  1.00  0.00    -0.014 A 
BRANCH  30  31
ATOM     31  C   UNL A   1      39.842  28.950  28.824  1.00  0.00     0.031 A 
ATOM     32  C   UNL A   1      40.804  29.947  29.438  1.00  0.00     0.074 A 
ATOM     33  C   UNL A   1      40.322  27.732  28.489  1.00  0.00     0.049 A 
ATOM     34  N   UNL A   1      42.115  29.933  29.450  1.00  0.00    -0.248 NA
ATOM     35  C   UNL A   1      40.216  31.120  30.102  1.00  0.00     0.031 C 
ATOM     36  C   UNL A   1      39.539  26.616  27.954  1.00  0.00     0.029 A 
ATOM     37  N   UNL A   1      41.597  27.219  28.572  1.00  0.00    -0.354 N 
ATOM     38  C   UNL A   1      42.504  31.133  30.037  1.00  0.00     0.074 A 
ATOM     39  C   UNL A   1      41.291  31.843  30.382  1.00  0.00     0.031 C 
ATOM     40  C   UNL A   1      40.324  25.536  27.837  1.00  0.00     0.029 A 
ATOM     41  C   UNL A   1      41.697  25.909  28.163  1.00  0.00     0.049 A 
ATOM     42  H   UNL A   1      42.367  27.741  28.895  1.00  0.00     0.167 HD
ATOM     43  C   UNL A   1      43.754  31.607  30.261  1.00  0.00     0.031 A 
ATOM     44  C   UNL A   1      42.765  25.103  28.005  1.00  0.00     0.031 A 
ATOM     45  C   UNL A   1      44.963  30.868  30.008  1.00  0.00     0.049 A 
ATOM     46  C   UNL A   1      44.145  25.648  28.241  1.00  0.00     0.074 A 
ATOM     47  C   UNL A   1      46.275  31.268  30.204  1.00  0.00     0.029 A 
ATOM     48  N   UNL A   1      45.010  29.564  29.545  1.00  0.00    -0.354 N 
ATOM     49  N   UNL A   1      44.500  26.835  28.669  1.00  0.00    -0.248 NA
ATOM     50  C   UNL A   1      45.272  24.754  27.934  1.00  0.00     0.031 C 
ATOM     51  C   UNL A   1      47.116  30.213  29.831  1.00  0.00     0.029 A 
ATOM     52  C   UNL A   1      46.327  29.144  29.442  1.00  0.00     0.049 A 
ATOM     53  H   UNL A   1      44.224  29.016  29.321  1.00  0.00     0.167 HD
ATOM     54  C   UNL A   1      45.889  26.833  28.678  1.00  0.00     0.074 A 
ATOM     55  C   UNL A   1      46.312  25.518  28.241  1.00  0.00     0.031 C 
ATOM     56  C   UNL A   1      46.738  27.836  29.006  1.00  0.00     0.031 A 
BRANCH  43  57
ATOM     57  C   UNL A   1      43.884  33.023  30.757  1.00  0.00    -0.014 A 
ATOM     58  C   UNL A   1      44.043  34.108  29.878  1.00  0.00     0.010 A 
ATOM     59  C   UNL A   1      43.806  33.270  32.142  1.00  0.00     0.010 A 
ATOM     60  C   UNL A   1      44.162  35.410  30.378  1.00  0.00     0.020 A 
ATOM     61  C   UNL A   1      43.900  34.570  32.643  1.00  0.00     0.020 A 
ATOM     62  C   UNL A   1      44.097  35.631  31.758  1.00  0.00     0.054 A 
BRANCH  62  63
ATOM     63  S   UNL A   1      44.241  37.328  32.384  1.00  0.00     0.124 S 
ATOM     64  O   UNL A   1      45.664  37.410  32.707  1.00  0.00    -0.237 OA
ATOM     65  O   UNL A   1      43.809  38.133  31.245  1.00  0.00    -0.237 OA
ATOM     66  O   UNL A   1      43.340  37.351  33.534  1.00  0.00    -0.744 OA
ENDBRANCH  62  63
ENDBRANCH  43  57
BRANCH  44  67
ATOM     67  C   UNL A   1      42.578  23.707  27.525  1.00  0.00    -0.014 A 
ATOM     68  C   UNL A   1      42.663  23.405  26.155  1.00  0.00     0.010 A 
ATOM     69  C   UNL A   1      42.328  22.666  28.441  1.00  0.00     0.010 A 
ATOM     70  C   UNL A   1      42.503  22.089  25.708  1.00  0.00     0.020 A 
ATOM     71  C   UNL A   1      42.198  21.347  28.002  1.00  0.00     0.020 A 
ATOM     72  C   UNL A   1      42.277  21.068  26.636  1.00  0.00     0.054 A 
BRANCH  72  73
ATOM     73  S   UNL A   1      42.149  19.354  26.053  1.00  0.00     0.124 S 
ATOM     74  O   UNL A   1      43.045  19.359  24.902  1.00  0.00    -0.237 OA
ATOM     75  O   UNL A   1      42.607  18.587  27.209  1.00  0.00    -0.237 OA
ATOM     76  O   UNL A   1      40.728  19.207  25.745  1.00  0.00    -0.744 OA
ENDBRANCH  72  73
ENDBRANCH  44  67
BRANCH  56  77
ATOM     77  C   UNL A   1      48.211  27.547  28.925  1.00  0.00    -0.014 A 
ATOM     78  C   UNL A   1      48.902  27.652  27.705  1.00  0.00     0.010 A 
ATOM     79  C   UNL A   1      48.918  27.203  30.090  1.00  0.00     0.010 A 
ATOM     80  C   UNL A   1      50.274  27.391  27.647  1.00  0.00     0.020 A 
ATOM     81  C   UNL A   1      50.294  26.960  30.040  1.00  0.00     0.020 A 
ATOM     82  C   UNL A   1      50.961  27.043  28.814  1.00  0.00     0.054 A 
BRANCH  82  83
ATOM     83  S   UNL A   1      52.749  26.745  28.725  1.00  0.00     0.124 S 
ATOM     84  O   UNL A   1      52.869  25.995  27.478  1.00  0.00    -0.237 OA
ATOM     85  O   UNL A   1      53.302  28.097  28.701  1.00  0.00    -0.237 OA
ATOM     86  O   UNL A   1      53.032  25.985  29.940  1.00  0.00    -0.744 OA
ENDBRANCH  82  83
ENDBRANCH  56  77
ENDBRANCH  30  31
ENDBRANCH  23  25
ENDBRANCH  22  23
ENDBRANCH   1  22
TORSDOF 16
ENDMDL
MODEL 2
REMARK VINA RESULT:     -10.1      2.733      9.217
REMARK SMILES C[C@@H](C(=O)OCCOC(=O)c1ccc(-c2c3nc(c(-c4ccc(S(=O)(=O)[O-])cc4)c4ccc([nH]4)c(-c4ccc(S(=O)(=O)[O-])cc4)c4nc(c(-c5ccc(S(=O)(=O)[O-])cc5)c5ccc2[nH]5)C=C4)C=C3)cc1)[C@H](C)[N@@H+]1C[C@H]2C[NH2+]C[C@@H]2[C@@H]1C
REMARK SMILES IDX 7 1 6 2 5 3 3 4 4 5 2 6 1 7 71 8 72 9 73 10 74 11 80 12
REMARK SMILES IDX 75 14 79 15 81 16 76 17 78 18 77 19 8 22 9 23 10 24 11 25
REMARK SMILES IDX 12 26 70 27 13 28 69 29 14 30 15 31 16 32 63 33 17 34 68 35
REMARK SMILES IDX 62 36 64 37 18 38 67 39 61 40 60 41 19 43 49 44 30 45 48 46
REMARK SMILES IDX 31 47 34 48 47 49 65 50 32 51 33 52 46 54 66 55 35 56 20 57
REMARK SMILES IDX 21 58 29 59 22 60 28 61 23 62 24 63 25 64 26 65 27 66 50 67
REMARK SMILES IDX 51 68 59 69 52 70 58 71 53 72 54 73 55 74 56 75 57 76 36 77
REMARK SMILES IDX 37 78 45 79 38 80 44 81 39 82 40 83 41 84 42 85 43 86
REMARK H PARENT 73 13 77 20 77 21 64 42 34 53
REMARK Flexibility Score: inf
ROOT
ATOM      1  C   UNL A   1      37.679  21.043  25.022  1.00  0.00     0.275 C 
ENDROOT
BRANCH   1   2
ATOM      2  C   UNL A   1      36.930  21.802  23.928  1.00  0.00     0.274 C 
BRANCH   2   3
ATOM      3  O   UNL A   1      35.570  22.055  24.343  1.00  0.00    -0.462 OA
BRANCH   3   4
ATOM      4  C   UNL A   1      34.970  23.174  23.849  1.00  0.00     0.314 C 
ATOM      5  O   UNL A   1      34.935  23.451  22.655  1.00  0.00    -0.252 OA
BRANCH   4   6
ATOM      6  C   UNL A   1      34.373  24.074  24.948  1.00  0.00     0.154 C 
ATOM      7  C   UNL A   1      34.646  23.502  26.341  1.00  0.00     0.026 C 
BRANCH   6   8
ATOM      8  C   UNL A   1      32.870  24.402  24.553  1.00  0.00     0.195 C 
ATOM      9  C   UNL A   1      32.137  23.035  24.492  1.00  0.00     0.076 C 
BRANCH   8  10
ATOM     10  N   UNL A   1      32.635  25.221  23.334  1.00  0.00    -0.329 N 
ATOM     11  C   UNL A   1      33.495  26.446  23.281  1.00  0.00     0.272 C 
ATOM     12  C   UNL A   1      31.219  25.662  22.984  1.00  0.00     0.190 C 
ATOM     13  H   UNL A   1      32.883  24.520  22.635  1.00  0.00     0.348 HD
ATOM     14  C   UNL A   1      32.530  27.589  23.271  1.00  0.00     0.114 C 
ATOM     15  C   UNL A   1      31.436  27.053  22.397  1.00  0.00     0.116 C 
ATOM     16  C   UNL A   1      30.121  25.655  24.045  1.00  0.00     0.076 C 
ATOM     17  C   UNL A   1      32.803  28.913  22.610  1.00  0.00     0.270 C 
ATOM     18  C   UNL A   1      30.501  28.242  22.413  1.00  0.00     0.271 C 
ATOM     19  N   UNL A   1      31.431  29.403  22.334  1.00  0.00    -0.345 N 
ATOM     20  H   UNL A   1      31.392  29.815  21.401  1.00  0.00     0.346 HD
ATOM     21  H   UNL A   1      31.167  30.116  23.014  1.00  0.00     0.346 HD
ENDBRANCH   8  10
ENDBRANCH   6   8
ENDBRANCH   4   6
ENDBRANCH   3   4
ENDBRANCH   2   3
ENDBRANCH   1   2
BRANCH   1  22
ATOM     22  O   UNL A   1      38.095  21.981  26.025  1.00  0.00    -0.458 OA
BRANCH  22  23
ATOM     23  C   UNL A   1      39.389  21.909  26.422  1.00  0.00     0.338 C 
ATOM     24  O   UNL A   1      40.123  20.941  26.343  1.00  0.00    -0.246 OA
BRANCH  23  25
ATOM     25  C   UNL A   1      39.808  23.225  26.959  1.00  0.00     0.060 A 
ATOM     26  C   UNL A   1      39.221  24.396  26.486  1.00  0.00     0.016 A 
ATOM     27  C   UNL A   1      40.851  23.307  27.882  1.00  0.00     0.016 A 
ATOM     28  C   UNL A   1      39.741  25.636  26.854  1.00  0.00     0.010 A 
ATOM     29  C   UNL A   1      41.306  24.562  28.319  1.00  0.00     0.010 A 
ATOM     30  C   UNL A   1      40.792  25.752  27.775  1.00  0.00    -0.014 A 
BRANCH  30  31
ATOM     31  C   UNL A   1      41.382  27.090  28.110  1.00  0.00     0.031 A 
ATOM     32  C   UNL A   1      42.848  27.365  27.844  1.00  0.00     0.074 A 
ATOM     33  C   UNL A   1      40.631  28.095  28.615  1.00  0.00     0.049 A 
ATOM     34  N   UNL A   1      43.599  28.345  28.283  1.00  0.00    -0.248 NA
ATOM     35  C   UNL A   1      43.564  26.401  26.994  1.00  0.00     0.031 C 
ATOM     36  C   UNL A   1      39.191  28.048  28.870  1.00  0.00     0.029 A 
ATOM     37  N   UNL A   1      40.982  29.374  28.985  1.00  0.00    -0.354 N 
ATOM     38  C   UNL A   1      44.888  28.064  27.841  1.00  0.00     0.074 A 
ATOM     39  C   UNL A   1      44.814  26.832  27.086  1.00  0.00     0.031 C 
ATOM     40  C   UNL A   1      38.770  29.255  29.273  1.00  0.00     0.029 A 
ATOM     41  C   UNL A   1      39.924  30.133  29.431  1.00  0.00     0.049 A 
ATOM     42  H   UNL A   1      41.904  29.715  28.936  1.00  0.00     0.167 HD
ATOM     43  C   UNL A   1      46.033  28.761  28.050  1.00  0.00     0.031 A 
ATOM     44  C   UNL A   1      39.876  31.370  29.962  1.00  0.00     0.031 A 
ATOM     45  C   UNL A   1      46.101  30.034  28.718  1.00  0.00     0.049 A 
ATOM     46  C   UNL A   1      41.153  32.122  30.203  1.00  0.00     0.074 A 
ATOM     47  C   UNL A   1      47.216  30.814  28.977  1.00  0.00     0.029 A 
ATOM     48  N   UNL A   1      45.006  30.736  29.196  1.00  0.00    -0.354 N 
ATOM     49  N   UNL A   1      42.381  31.780  29.899  1.00  0.00    -0.248 NA
ATOM     50  C   UNL A   1      41.041  33.415  30.897  1.00  0.00     0.031 C 
ATOM     51  C   UNL A   1      46.798  31.974  29.637  1.00  0.00     0.029 A 
ATOM     52  C   UNL A   1      45.418  31.935  29.754  1.00  0.00     0.049 A 
ATOM     53  H   UNL A   1      44.073  30.426  29.147  1.00  0.00     0.167 HD
ATOM     54  C   UNL A   1      43.188  32.810  30.369  1.00  0.00     0.074 A 
ATOM     55  C   UNL A   1      42.308  33.803  30.951  1.00  0.00     0.031 C 
ATOM     56  C   UNL A   1      44.538  32.915  30.332  1.00  0.00     0.031 A 
BRANCH  43  57
ATOM     57  C   UNL A   1      47.325  28.131  27.600  1.00  0.00    -0.014 A 
ATOM     58  C   UNL A   1      47.905  28.428  26.356  1.00  0.00     0.010 A 
ATOM     59  C   UNL A   1      47.990  27.246  28.472  1.00  0.00     0.010 A 
ATOM     60  C   UNL A   1      49.106  27.820  25.974  1.00  0.00     0.020 A 
ATOM     61  C   UNL A   1      49.202  26.656  28.104  1.00  0.00     0.020 A 
ATOM     62  C   UNL A   1      49.743  26.932  26.848  1.00  0.00     0.054 A 
BRANCH  62  63
ATOM     63  S   UNL A   1      51.306  26.166  26.338  1.00  0.00     0.124 S 
ATOM     64  O   UNL A   1      51.244  26.295  24.884  1.00  0.00    -0.237 OA
ATOM     65  O   UNL A   1      52.307  26.998  26.999  1.00  0.00    -0.237 OA
ATOM     66  O   UNL A   1      51.204  24.799  26.846  1.00  0.00    -0.744 OA
ENDBRANCH  62  63
ENDBRANCH  43  57
BRANCH  44  67
ATOM     67  C   UNL A   1      38.569  31.950  30.378  1.00  0.00    -0.014 A 
ATOM     68  C   UNL A   1      38.017  31.639  31.631  1.00  0.00     0.010 A 
ATOM     69  C   UNL A   1      37.878  32.831  29.524  1.00  0.00     0.010 A 
ATOM     70  C   UNL A   1      36.797  32.199  32.026  1.00  0.00     0.020 A 
ATOM     71  C   UNL A   1      36.675  33.415  29.926  1.00  0.00     0.020 A 
ATOM     72  C   UNL A   1      36.137  33.087  31.172  1.00  0.00     0.054 A 
BRANCH  72  73
ATOM     73  S   UNL A   1      34.594  33.868  31.726  1.00  0.00     0.124 S 
ATOM     74  O   UNL A   1      35.079  35.116  32.305  1.00  0.00    -0.237 OA
ATOM     75  O   UNL A   1      33.837  33.998  30.483  1.00  0.00    -0.237 OA
ATOM     76  O   UNL A   1      34.049  32.902  32.677  1.00  0.00    -0.744 OA
ENDBRANCH  72  73
ENDBRANCH  44  67
BRANCH  56  77
ATOM     77  C   UNL A   1      45.148  34.157  30.919  1.00  0.00    -0.014 A 
ATOM     78  C   UNL A   1      45.552  34.196  32.265  1.00  0.00     0.010 A 
ATOM     79  C   UNL A   1      45.354  35.285  30.105  1.00  0.00     0.010 A 
ATOM     80  C   UNL A   1      46.128  35.354  32.795  1.00  0.00     0.020 A 
ATOM     81  C   UNL A   1      45.947  36.437  30.627  1.00  0.00     0.020 A 
ATOM     82  C   UNL A   1      46.319  36.469  31.974  1.00  0.00     0.054 A 
BRANCH  82  83
ATOM     83  S   UNL A   1      47.104  37.949  32.671  1.00  0.00     0.124 S 
ATOM     84  O   UNL A   1      46.249  38.232  33.821  1.00  0.00    -0.237 OA
ATOM     85  O   UNL A   1      48.451  37.483  32.988  1.00  0.00    -0.237 OA
ATOM     86  O   UNL A   1      47.028  38.923  31.584  1.00  0.00    -0.744 OA
ENDBRANCH  82  83
ENDBRANCH  56  77
ENDBRANCH  30  31
ENDBRANCH  23  25
ENDBRANCH  22  23
ENDBRANCH   1  22
TORSDOF 16
ENDMDL
MODEL 3
REMARK VINA RESULT:     -10.0      3.906     10.070
REMARK SMILES C[C@@H](C(=O)OCCOC(=O)c1ccc(-c2c3nc(c(-c4ccc(S(=O)(=O)[O-])cc4)c4ccc([nH]4)c(-c4ccc(S(=O)(=O)[O-])cc4)c4nc(c(-c5ccc(S(=O)(=O)[O-])cc5)c5ccc2[nH]5)C=C4)C=C3)cc1)[C@H](C)[N@@H+]1C[C@H]2C[NH2+]C[C@@H]2[C@@H]1C
REMARK SMILES IDX 7 1 6 2 5 3 3 4 4 5 2 6 1 7 71 8 72 9 73 10 74 11 80 12
REMARK SMILES IDX 75 14 79 15 81 16 76 17 78 18 77 19 8 22 9 23 10 24 11 25
REMARK SMILES IDX 12 26 70 27 13 28 69 29 14 30 15 31 16 32 63 33 17 34 68 35
REMARK SMILES IDX 62 36 64 37 18 38 67 39 61 40 60 41 19 43 49 44 30 45 48 46
REMARK SMILES IDX 31 47 34 48 47 49 65 50 32 51 33 52 46 54 66 55 35 56 20 57
REMARK SMILES IDX 21 58 29 59 22 60 28 61 23 62 24 63 25 64 26 65 27 66 50 67
REMARK SMILES IDX 51 68 59 69 52 70 58 71 53 72 54 73 55 74 56 75 57 76 36 77
REMARK SMILES IDX 37 78 45 79 38 80 44 81 39 82 40 83 41 84 42 85 43 86
REMARK H PARENT 73 13 77 20 77 21 64 42 34 53
REMARK Flexibility Score: inf
ROOT
ATOM      1  C   UNL A   1      37.874  21.576  25.634  1.00  0.00     0.275 C 
ENDROOT
BRANCH   1   2
ATOM      2  C   UNL A   1      37.035  21.292  24.389  1.00  0.00     0.274 C 
BRANCH   2   3
ATOM      3  O   UNL A   1      35.724  21.881  24.529  1.00  0.00    -0.462 OA
BRANCH   3   4
ATOM      4  C   UNL A   1      35.461  22.992  23.785  1.00  0.00     0.314 C 
ATOM      5  O   UNL A   1      35.975  23.211  22.694  1.00  0.00    -0.252 OA
BRANCH   4   6
ATOM      6  C   UNL A   1      34.481  23.962  24.472  1.00  0.00     0.154 C 
ATOM      7  C   UNL A   1      34.514  23.796  25.994  1.00  0.00     0.026 C 
BRANCH   6   8
ATOM      8  C   UNL A   1      33.079  23.848  23.735  1.00  0.00     0.195 C 
ATOM      9  C   UNL A   1      32.994  22.393  23.202  1.00  0.00     0.076 C 
BRANCH   8  10
ATOM     10  N   UNL A   1      32.763  24.851  22.684  1.00  0.00    -0.329 N 
ATOM     11  C   UNL A   1      33.681  26.034  22.712  1.00  0.00     0.272 C 
ATOM     12  C   UNL A   1      31.346  25.398  22.565  1.00  0.00     0.190 C 
ATOM     13  H   UNL A   1      32.894  24.254  21.867  1.00  0.00     0.348 HD
ATOM     14  C   UNL A   1      32.788  27.203  22.979  1.00  0.00     0.114 C 
ATOM     15  C   UNL A   1      31.579  26.851  22.166  1.00  0.00     0.116 C 
ATOM     16  C   UNL A   1      30.368  25.275  23.733  1.00  0.00     0.076 C 
ATOM     17  C   UNL A   1      33.065  28.600  22.491  1.00  0.00     0.270 C 
ATOM     18  C   UNL A   1      30.721  28.062  22.462  1.00  0.00     0.271 C 
ATOM     19  N   UNL A   1      31.702  29.182  22.448  1.00  0.00    -0.345 N 
ATOM     20  H   UNL A   1      31.588  29.732  21.595  1.00  0.00     0.346 HD
ATOM     21  H   UNL A   1      31.553  29.795  23.250  1.00  0.00     0.346 HD
ENDBRANCH   8  10
ENDBRANCH   6   8
ENDBRANCH   4   6
ENDBRANCH   3   4
ENDBRANCH   2   3
ENDBRANCH   1   2
BRANCH   1  22
ATOM     22  O   UNL A   1      38.576  22.812  25.439  1.00  0.00    -0.458 OA
BRANCH  22  23
ATOM     23  C   UNL A   1      39.793  22.916  26.025  1.00  0.00     0.338 C 
ATOM     24  O   UNL A   1      40.717  22.128  25.932  1.00  0.00    -0.246 OA
BRANCH  23  25
ATOM     25  C   UNL A   1      39.855  24.178  26.800  1.00  0.00     0.060 A 
ATOM     26  C   UNL A   1      40.691  25.213  26.391  1.00  0.00     0.016 A 
ATOM     27  C   UNL A   1      39.137  24.307  27.990  1.00  0.00     0.016 A 
ATOM     28  C   UNL A   1      40.887  26.320  27.215  1.00  0.00     0.010 A 
ATOM     29  C   UNL A   1      39.270  25.468  28.768  1.00  0.00     0.010 A 
ATOM     30  C   UNL A   1      40.186  26.477  28.419  1.00  0.00    -0.014 A 
BRANCH  30  31
ATOM     31  C   UNL A   1      40.457  27.641  29.326  1.00  0.00     0.031 A 
ATOM     32  C   UNL A   1      41.740  27.701  30.128  1.00  0.00     0.074 A 
ATOM     33  C   UNL A   1      39.599  28.682  29.426  1.00  0.00     0.049 A 
ATOM     34  N   UNL A   1      42.049  28.475  31.139  1.00  0.00    -0.248 NA
ATOM     35  C   UNL A   1      42.802  26.752  29.759  1.00  0.00     0.031 C 
ATOM     36  C   UNL A   1      38.349  28.842  28.680  1.00  0.00     0.029 A 
ATOM     37  N   UNL A   1      39.665  29.824  30.192  1.00  0.00    -0.354 N 
ATOM     38  C   UNL A   1      43.296  28.044  31.582  1.00  0.00     0.074 A 
ATOM     39  C   UNL A   1      43.693  26.953  30.719  1.00  0.00     0.031 C 
ATOM     40  C   UNL A   1      37.814  30.038  28.960  1.00  0.00     0.029 A 
ATOM     41  C   UNL A   1      38.606  30.683  30.001  1.00  0.00     0.049 A 
ATOM     42  H   UNL A   1      40.401  30.010  30.819  1.00  0.00     0.167 HD
ATOM     43  C   UNL A   1      44.041  28.507  32.617  1.00  0.00     0.031 A 
ATOM     44  C   UNL A   1      38.266  31.830  30.621  1.00  0.00     0.031 A 
ATOM     45  C   UNL A   1      43.698  29.652  33.419  1.00  0.00     0.049 A 
ATOM     46  C   UNL A   1      39.091  32.320  31.776  1.00  0.00     0.074 A 
ATOM     47  C   UNL A   1      44.391  30.193  34.490  1.00  0.00     0.029 A 
ATOM     48  N   UNL A   1      42.589  30.456  33.216  1.00  0.00    -0.354 N 
ATOM     49  N   UNL A   1      40.199  31.820  32.268  1.00  0.00    -0.248 NA
ATOM     50  C   UNL A   1      38.597  33.509  32.487  1.00  0.00     0.031 C 
ATOM     51  C   UNL A   1      43.685  31.310  34.951  1.00  0.00     0.029 A 
ATOM     52  C   UNL A   1      42.574  31.486  34.143  1.00  0.00     0.049 A 
ATOM     53  H   UNL A   1      41.911  30.316  32.516  1.00  0.00     0.167 HD
ATOM     54  C   UNL A   1      40.530  32.631  33.348  1.00  0.00     0.074 A 
ATOM     55  C   UNL A   1      39.524  33.670  33.421  1.00  0.00     0.031 C 
ATOM     56  C   UNL A   1      41.569  32.514  34.209  1.00  0.00     0.031 A 
BRANCH  43  57
ATOM     57  C   UNL A   1      45.281  27.736  32.982  1.00  0.00    -0.014 A 
ATOM     58  C   UNL A   1      46.544  28.065  32.461  1.00  0.00     0.010 A 
ATOM     59  C   UNL A   1      45.177  26.676  33.905  1.00  0.00     0.010 A 
ATOM     60  C   UNL A   1      47.673  27.322  32.825  1.00  0.00     0.020 A 
ATOM     61  C   UNL A   1      46.306  25.948  34.289  1.00  0.00     0.020 A 
ATOM     62  C   UNL A   1      47.545  26.263  33.731  1.00  0.00     0.054 A 
BRANCH  62  63
ATOM     63  S   UNL A   1      49.024  25.323  34.199  1.00  0.00     0.124 S 
ATOM     64  O   UNL A   1      49.594  24.992  32.895  1.00  0.00    -0.237 OA
ATOM     65  O   UNL A   1      49.785  26.285  34.990  1.00  0.00    -0.237 OA
ATOM     66  O   UNL A   1      48.490  24.189  34.950  1.00  0.00    -0.744 OA
ENDBRANCH  62  63
ENDBRANCH  43  57
BRANCH  44  67
ATOM     67  C   UNL A   1      37.035  32.559  30.210  1.00  0.00    -0.014 A 
ATOM     68  C   UNL A   1      35.813  32.322  30.862  1.00  0.00     0.010 A 
ATOM     69  C   UNL A   1      37.084  33.508  29.171  1.00  0.00     0.010 A 
ATOM     70  C   UNL A   1      34.662  33.021  30.485  1.00  0.00     0.020 A 
ATOM     71  C   UNL A   1      35.944  34.230  28.812  1.00  0.00     0.020 A 
ATOM     72  C   UNL A   1      34.736  33.974  29.465  1.00  0.00     0.054 A 
BRANCH  72  73
ATOM     73  S   UNL A   1      33.255  34.931  29.037  1.00  0.00     0.124 S 
ATOM     74  O   UNL A   1      32.589  35.052  30.329  1.00  0.00    -0.237 OA
ATOM     75  O   UNL A   1      33.816  36.166  28.495  1.00  0.00    -0.237 OA
ATOM     76  O   UNL A   1      32.577  34.085  28.057  1.00  0.00    -0.744 OA
ENDBRANCH  72  73
ENDBRANCH  44  67
BRANCH  56  77
ATOM     77  C   UNL A   1      41.684  33.548  35.294  1.00  0.00    -0.014 A 
ATOM     78  C   UNL A   1      42.380  34.750  35.076  1.00  0.00     0.010 A 
ATOM     79  C   UNL A   1      41.055  33.332  36.533  1.00  0.00     0.010 A 
ATOM     80  C   UNL A   1      42.469  35.707  36.089  1.00  0.00     0.020 A 
ATOM     81  C   UNL A   1      41.126  34.295  37.542  1.00  0.00     0.020 A 
ATOM     82  C   UNL A   1      41.844  35.473  37.318  1.00  0.00     0.054 A 
BRANCH  82  83
ATOM     83  S   UNL A   1      41.939  36.745  38.608  1.00  0.00     0.124 S 
ATOM     84  O   UNL A   1      42.399  35.974  39.760  1.00  0.00    -0.237 OA
ATOM     85  O   UNL A   1      42.905  37.693  38.060  1.00  0.00    -0.237 OA
ATOM     86  O   UNL A   1      40.569  37.245  38.700  1.00  0.00    -0.744 OA
ENDBRANCH  82  83
ENDBRANCH  56  77
ENDBRANCH  30  31
ENDBRANCH  23  25
ENDBRANCH  22  23
ENDBRANCH   1  22
TORSDOF 16
ENDMDL
