MODEL 1
REMARK VINA RESULT:     -12.2      0.000      0.000
REMARK SMILES C[C@@H]1CCC[C@H](C)[N@H+]1Cc1cc2c(cc1Cl)C=C(C(=O)OCCOC(=O)c1ccc(-c3c4nc(c(-c5ccc(S(=O)(=O)[O-])cc5)c5ccc([nH]5)c(-c5ccc(S(=O)(=O)[O-])cc5)c5nc(c(-c6ccc(S(=O)(=O)[O-])cc6)c6ccc3[nH]6)C=C5)C=C4)cc1)[C@@H](C(F)(F)F)O2
REMARK SMILES IDX 23 1 22 2 21 3 19 4 20 5 18 6 10 7 11 8 15 9 12 10 14 11
REMARK SMILES IDX 16 12 13 13 92 14 17 15 87 16 9 17 8 18 7 19 6 20 5 21 4 22
REMARK SMILES IDX 2 23 3 25 1 26 88 27 89 28 90 29 91 30 24 31 25 32 26 33
REMARK SMILES IDX 27 34 28 35 86 36 29 37 85 38 30 39 31 40 32 41 79 42 33 43
REMARK SMILES IDX 84 44 78 45 80 46 34 47 83 48 77 49 76 50 35 52 65 53 46 54
REMARK SMILES IDX 64 55 47 56 50 57 63 58 81 59 48 60 49 61 62 63 82 64 51 65
REMARK SMILES IDX 36 66 37 67 45 68 38 69 44 70 39 71 40 72 41 73 42 74 43 75
REMARK SMILES IDX 66 76 67 77 75 78 68 79 74 80 69 81 70 82 71 83 72 84 73 85
REMARK SMILES IDX 52 86 53 87 61 88 54 89 60 90 55 91 56 92 57 93 58 94 59 95
REMARK H PARENT 8 24 80 51 50 62
REMARK Flexibility Score: inf
ROOT
ATOM      1  C   UNL A   1      32.534  30.036  26.348  1.00  0.00     0.275 C 
ENDROOT
BRANCH   1   2
ATOM      2  C   UNL A   1      32.183  28.943  25.334  1.00  0.00     0.275 C 
BRANCH   2   3
ATOM      3  O   UNL A   1      32.804  27.675  25.647  1.00  0.00    -0.459 OA
BRANCH   3   4
ATOM      4  C   UNL A   1      31.994  26.786  26.274  1.00  0.00     0.338 C 
ATOM      5  O   UNL A   1      31.080  27.062  27.026  1.00  0.00    -0.246 OA
BRANCH   4   6
ATOM      6  C   UNL A   1      32.318  25.393  25.894  1.00  0.00     0.087 C 
ATOM      7  C   UNL A   1      34.779  21.102  24.930  1.00  0.00     0.029 A 
ATOM      8  C   UNL A   1      33.414  21.434  25.109  1.00  0.00     0.058 A 
ATOM      9  C   UNL A   1      35.698  22.155  24.786  1.00  0.00     0.050 A 
ATOM     10  C   UNL A   1      33.015  22.760  25.299  1.00  0.00     0.128 A 
ATOM     11  C   UNL A   1      35.308  23.469  25.037  1.00  0.00     0.033 A 
ATOM     12  Cl  UNL A   1      37.339  21.921  24.303  1.00  0.00    -0.084 Cl
ATOM     13  C   UNL A   1      33.978  23.764  25.330  1.00  0.00     0.019 A 
ATOM     14  O   UNL A   1      31.685  23.006  25.526  1.00  0.00    -0.475 OA
ATOM     15  C   UNL A   1      33.615  25.107  25.727  1.00  0.00     0.027 C 
ATOM     16  C   UNL A   1      31.247  24.403  25.537  1.00  0.00     0.316 C 
BRANCH   7  17
ATOM     17  C   UNL A   1      35.214  19.649  24.975  1.00  0.00     0.301 C 
BRANCH  17  18
ATOM     18  N   UNL A   1      34.336  18.659  24.307  1.00  0.00    -0.327 N 
ATOM     19  C   UNL A   1      32.065  18.572  23.326  1.00  0.00     0.075 C 
ATOM     20  C   UNL A   1      32.901  18.796  24.596  1.00  0.00     0.181 C 
ATOM     21  C   UNL A   1      32.398  17.897  25.738  1.00  0.00     0.065 C 
ATOM     22  C   UNL A   1      32.861  16.450  25.615  1.00  0.00     0.012 C 
ATOM     23  C   UNL A   1      34.859  17.283  24.253  1.00  0.00     0.181 C 
ATOM     24  H   UNL A   1      34.380  18.937  23.327  1.00  0.00     0.348 HD
ATOM     25  C   UNL A   1      34.364  16.372  25.392  1.00  0.00     0.065 C 
ATOM     26  C   UNL A   1      34.597  16.628  22.888  1.00  0.00     0.075 C 
ENDBRANCH  17  18
ENDBRANCH   7  17
BRANCH  16  27
ATOM     27  C   UNL A   1      30.644  24.789  24.174  1.00  0.00     0.430 C 
ATOM     28  F   UNL A   1      29.585  25.622  24.309  1.00  0.00    -0.167 F 
ATOM     29  F   UNL A   1      31.553  25.438  23.404  1.00  0.00    -0.167 F 
ATOM     30  F   UNL A   1      30.223  23.712  23.472  1.00  0.00    -0.167 F 
ENDBRANCH  16  27
ENDBRANCH   4   6
ENDBRANCH   3   4
ENDBRANCH   2   3
ENDBRANCH   1   2
BRANCH   1  31
ATOM     31  O   UNL A   1      33.531  29.589  27.283  1.00  0.00    -0.458 OA
BRANCH  31  32
ATOM     32  C   UNL A   1      34.340  30.556  27.772  1.00  0.00     0.338 C 
ATOM     33  O   UNL A   1      34.028  31.695  28.080  1.00  0.00    -0.246 OA
BRANCH  32  34
ATOM     34  C   UNL A   1      35.682  30.005  28.009  1.00  0.00     0.060 A 
ATOM     35  C   UNL A   1      36.705  30.123  27.075  1.00  0.00     0.016 A 
ATOM     36  C   UNL A   1      35.946  29.478  29.269  1.00  0.00     0.016 A 
ATOM     37  C   UNL A   1      37.992  29.682  27.416  1.00  0.00     0.010 A 
ATOM     38  C   UNL A   1      37.240  29.127  29.640  1.00  0.00     0.010 A 
ATOM     39  C   UNL A   1      38.283  29.201  28.712  1.00  0.00    -0.014 A 
BRANCH  39  40
ATOM     40  C   UNL A   1      39.668  28.804  29.105  1.00  0.00     0.031 A 
ATOM     41  C   UNL A   1      40.531  29.712  29.952  1.00  0.00     0.074 A 
ATOM     42  C   UNL A   1      40.172  27.631  28.667  1.00  0.00     0.049 A 
ATOM     43  N   UNL A   1      41.741  29.502  30.408  1.00  0.00    -0.248 NA
ATOM     44  C   UNL A   1      39.989  31.035  30.305  1.00  0.00     0.031 C 
ATOM     45  C   UNL A   1      39.487  26.706  27.761  1.00  0.00     0.029 A 
ATOM     46  N   UNL A   1      41.365  27.002  28.939  1.00  0.00    -0.354 N 
ATOM     47  C   UNL A   1      42.101  30.662  31.087  1.00  0.00     0.074 A 
ATOM     48  C   UNL A   1      41.017  31.601  30.920  1.00  0.00     0.031 C 
ATOM     49  C   UNL A   1      40.230  25.598  27.619  1.00  0.00     0.029 A 
ATOM     50  C   UNL A   1      41.464  25.745  28.385  1.00  0.00     0.049 A 
ATOM     51  H   UNL A   1      42.079  27.411  29.478  1.00  0.00     0.167 HD
ATOM     52  C   UNL A   1      43.210  30.908  31.826  1.00  0.00     0.031 A 
ATOM     53  C   UNL A   1      42.423  24.802  28.494  1.00  0.00     0.031 A 
ATOM     54  C   UNL A   1      44.263  29.950  32.035  1.00  0.00     0.049 A 
ATOM     55  C   UNL A   1      43.618  25.070  29.367  1.00  0.00     0.074 A 
ATOM     56  C   UNL A   1      45.392  30.080  32.825  1.00  0.00     0.029 A 
ATOM     57  N   UNL A   1      44.309  28.684  31.475  1.00  0.00    -0.354 N 
ATOM     58  N   UNL A   1      43.899  26.145  30.063  1.00  0.00    -0.248 NA
ATOM     59  C   UNL A   1      44.618  23.998  29.486  1.00  0.00     0.031 C 
ATOM     60  C   UNL A   1      46.145  28.911  32.704  1.00  0.00     0.029 A 
ATOM     61  C   UNL A   1      45.453  28.026  31.893  1.00  0.00     0.049 A 
ATOM     62  H   UNL A   1      43.630  28.308  30.869  1.00  0.00     0.167 HD
ATOM     63  C   UNL A   1      45.098  25.876  30.712  1.00  0.00     0.074 A 
ATOM     64  C   UNL A   1      45.480  24.528  30.346  1.00  0.00     0.031 C 
ATOM     65  C   UNL A   1      45.820  26.680  31.529  1.00  0.00     0.031 A 
BRANCH  52  66
ATOM     66  C   UNL A   1      43.325  32.238  32.530  1.00  0.00    -0.014 A 
ATOM     67  C   UNL A   1      44.085  33.279  31.962  1.00  0.00     0.010 A 
ATOM     68  C   UNL A   1      42.790  32.411  33.820  1.00  0.00     0.010 A 
ATOM     69  C   UNL A   1      44.335  34.451  32.685  1.00  0.00     0.020 A 
ATOM     70  C   UNL A   1      43.011  33.593  34.531  1.00  0.00     0.020 A 
ATOM     71  C   UNL A   1      43.804  34.595  33.970  1.00  0.00     0.054 A 
BRANCH  71  72
ATOM     72  S   UNL A   1      44.170  36.103  34.910  1.00  0.00     0.124 S 
ATOM     73  O   UNL A   1      45.296  35.685  35.738  1.00  0.00    -0.237 OA
ATOM     74  O   UNL A   1      44.482  37.068  33.859  1.00  0.00    -0.237 OA
ATOM     75  O   UNL A   1      42.926  36.364  35.632  1.00  0.00    -0.744 OA
ENDBRANCH  71  72
ENDBRANCH  52  66
BRANCH  53  76
ATOM     76  C   UNL A   1      42.233  23.490  27.813  1.00  0.00    -0.014 A 
ATOM     77  C   UNL A   1      41.578  22.430  28.469  1.00  0.00     0.010 A 
ATOM     78  C   UNL A   1      42.793  23.262  26.543  1.00  0.00     0.010 A 
ATOM     79  C   UNL A   1      41.536  21.157  27.894  1.00  0.00     0.020 A 
ATOM     80  C   UNL A   1      42.724  21.996  25.951  1.00  0.00     0.020 A 
ATOM     81  C   UNL A   1      42.125  20.944  26.646  1.00  0.00     0.054 A 
BRANCH  81  82
ATOM     82  S   UNL A   1      42.112  19.270  25.946  1.00  0.00     0.124 S 
ATOM     83  O   UNL A   1      42.999  19.421  24.795  1.00  0.00    -0.237 OA
ATOM     84  O   UNL A   1      42.636  18.460  27.043  1.00  0.00    -0.237 OA
ATOM     85  O   UNL A   1      40.705  19.043  25.626  1.00  0.00    -0.744 OA
ENDBRANCH  81  82
ENDBRANCH  53  76
BRANCH  65  86
ATOM     86  C   UNL A   1      47.109  26.151  32.102  1.00  0.00    -0.014 A 
ATOM     87  C   UNL A   1      48.283  26.184  31.325  1.00  0.00     0.010 A 
ATOM     88  C   UNL A   1      47.122  25.480  33.337  1.00  0.00     0.010 A 
ATOM     89  C   UNL A   1      49.433  25.517  31.751  1.00  0.00     0.020 A 
ATOM     90  C   UNL A   1      48.280  24.835  33.780  1.00  0.00     0.020 A 
ATOM     91  C   UNL A   1      49.419  24.833  32.970  1.00  0.00     0.054 A 
BRANCH  91  92
ATOM     92  S   UNL A   1      50.904  23.927  33.481  1.00  0.00     0.124 S 
ATOM     93  O   UNL A   1      51.233  23.172  32.276  1.00  0.00    -0.237 OA
ATOM     94  O   UNL A   1      51.834  24.999  33.826  1.00  0.00    -0.237 OA
ATOM     95  O   UNL A   1      50.443  23.125  34.613  1.00  0.00    -0.744 OA
ENDBRANCH  91  92
ENDBRANCH  65  86
ENDBRANCH  39  40
ENDBRANCH  32  34
ENDBRANCH  31  32
ENDBRANCH   1  31
TORSDOF 17
ENDMDL
MODEL 2
REMARK VINA RESULT:     -11.6      2.008      2.590
REMARK SMILES C[C@@H]1CCC[C@H](C)[N@H+]1Cc1cc2c(cc1Cl)C=C(C(=O)OCCOC(=O)c1ccc(-c3c4nc(c(-c5ccc(S(=O)(=O)[O-])cc5)c5ccc([nH]5)c(-c5ccc(S(=O)(=O)[O-])cc5)c5nc(c(-c6ccc(S(=O)(=O)[O-])cc6)c6ccc3[nH]6)C=C5)C=C4)cc1)[C@@H](C(F)(F)F)O2
REMARK SMILES IDX 23 1 22 2 21 3 19 4 20 5 18 6 10 7 11 8 15 9 12 10 14 11
REMARK SMILES IDX 16 12 13 13 92 14 17 15 87 16 9 17 8 18 7 19 6 20 5 21 4 22
REMARK SMILES IDX 2 23 3 25 1 26 88 27 89 28 90 29 91 30 24 31 25 32 26 33
REMARK SMILES IDX 27 34 28 35 86 36 29 37 85 38 30 39 31 40 32 41 79 42 33 43
REMARK SMILES IDX 84 44 78 45 80 46 34 47 83 48 77 49 76 50 35 52 65 53 46 54
REMARK SMILES IDX 64 55 47 56 50 57 63 58 81 59 48 60 49 61 62 63 82 64 51 65
REMARK SMILES IDX 36 66 37 67 45 68 38 69 44 70 39 71 40 72 41 73 42 74 43 75
REMARK SMILES IDX 66 76 67 77 75 78 68 79 74 80 69 81 70 82 71 83 72 84 73 85
REMARK SMILES IDX 52 86 53 87 61 88 54 89 60 90 55 91 56 92 57 93 58 94 59 95
REMARK H PARENT 8 24 80 51 50 62
REMARK Flexibility Score: inf
ROOT
ATOM      1  C   UNL A   1      32.212  29.886  26.965  1.00  0.00     0.275 C 
ENDROOT
BRANCH   1   2
ATOM      2  C   UNL A   1      31.791  28.813  25.956  1.00  0.00     0.275 C 
BRANCH   2   3
ATOM      3  O   UNL A   1      32.494  27.564  26.148  1.00  0.00    -0.459 OA
BRANCH   3   4
ATOM      4  C   UNL A   1      33.336  27.227  25.139  1.00  0.00     0.338 C 
ATOM      5  O   UNL A   1      33.979  28.002  24.459  1.00  0.00    -0.246 OA
BRANCH   4   6
ATOM      6  C   UNL A   1      33.432  25.758  24.978  1.00  0.00     0.087 C 
ATOM      7  C   UNL A   1      35.119  21.011  24.921  1.00  0.00     0.029 A 
ATOM      8  C   UNL A   1      33.833  21.598  24.840  1.00  0.00     0.058 A 
ATOM      9  C   UNL A   1      36.236  21.855  24.806  1.00  0.00     0.050 A 
ATOM     10  C   UNL A   1      33.677  22.987  24.810  1.00  0.00     0.128 A 
ATOM     11  C   UNL A   1      36.079  23.239  24.837  1.00  0.00     0.033 A 
ATOM     12  Cl  UNL A   1      37.851  21.272  24.621  1.00  0.00    -0.084 Cl
ATOM     13  C   UNL A   1      34.804  23.801  24.879  1.00  0.00     0.019 A 
ATOM     14  O   UNL A   1      32.402  23.491  24.791  1.00  0.00    -0.475 OA
ATOM     15  C   UNL A   1      34.658  25.229  25.055  1.00  0.00     0.027 C 
ATOM     16  C   UNL A   1      32.246  24.931  24.571  1.00  0.00     0.316 C 
BRANCH   7  17
ATOM     17  C   UNL A   1      35.253  19.526  25.202  1.00  0.00     0.301 C 
BRANCH  17  18
ATOM     18  N   UNL A   1      34.335  18.615  24.478  1.00  0.00    -0.327 N 
ATOM     19  C   UNL A   1      32.017  18.636  23.614  1.00  0.00     0.075 C 
ATOM     20  C   UNL A   1      32.919  18.720  24.855  1.00  0.00     0.181 C 
ATOM     21  C   UNL A   1      32.471  17.703  25.917  1.00  0.00     0.065 C 
ATOM     22  C   UNL A   1      32.917  16.278  25.614  1.00  0.00     0.012 C 
ATOM     23  C   UNL A   1      34.846  17.252  24.248  1.00  0.00     0.181 C 
ATOM     24  H   UNL A   1      34.331  18.997  23.532  1.00  0.00     0.348 HD
ATOM     25  C   UNL A   1      34.406  16.224  25.305  1.00  0.00     0.065 C 
ATOM     26  C   UNL A   1      34.510  16.750  22.835  1.00  0.00     0.075 C 
ENDBRANCH  17  18
ENDBRANCH   7  17
BRANCH  16  27
ATOM     27  C   UNL A   1      31.920  25.217  23.094  1.00  0.00     0.430 C 
ATOM     28  F   UNL A   1      31.345  24.152  22.489  1.00  0.00    -0.167 F 
ATOM     29  F   UNL A   1      31.047  26.248  22.978  1.00  0.00    -0.167 F 
ATOM     30  F   UNL A   1      33.020  25.544  22.377  1.00  0.00    -0.167 F 
ENDBRANCH  16  27
ENDBRANCH   4   6
ENDBRANCH   3   4
ENDBRANCH   2   3
ENDBRANCH   1   2
BRANCH   1  31
ATOM     31  O   UNL A   1      33.539  30.373  26.695  1.00  0.00    -0.458 OA
BRANCH  31  32
ATOM     32  C   UNL A   1      33.986  31.330  27.539  1.00  0.00     0.338 C 
ATOM     33  O   UNL A   1      33.369  32.298  27.954  1.00  0.00    -0.246 OA
BRANCH  32  34
ATOM     34  C   UNL A   1      35.334  30.982  28.012  1.00  0.00     0.060 A 
ATOM     35  C   UNL A   1      36.351  31.926  28.105  1.00  0.00     0.016 A 
ATOM     36  C   UNL A   1      35.529  29.696  28.505  1.00  0.00     0.016 A 
ATOM     37  C   UNL A   1      37.575  31.552  28.677  1.00  0.00     0.010 A 
ATOM     38  C   UNL A   1      36.709  29.352  29.156  1.00  0.00     0.010 A 
ATOM     39  C   UNL A   1      37.763  30.268  29.234  1.00  0.00    -0.014 A 
BRANCH  39  40
ATOM     40  C   UNL A   1      39.037  29.889  29.915  1.00  0.00     0.031 A 
ATOM     41  C   UNL A   1      39.468  30.563  31.198  1.00  0.00     0.074 A 
ATOM     42  C   UNL A   1      39.837  28.956  29.357  1.00  0.00     0.049 A 
ATOM     43  N   UNL A   1      40.527  30.328  31.932  1.00  0.00    -0.248 NA
ATOM     44  C   UNL A   1      38.629  31.662  31.707  1.00  0.00     0.031 C 
ATOM     45  C   UNL A   1      39.594  28.299  28.070  1.00  0.00     0.029 A 
ATOM     46  N   UNL A   1      41.002  28.379  29.805  1.00  0.00    -0.354 N 
ATOM     47  C   UNL A   1      40.483  31.249  32.974  1.00  0.00     0.074 A 
ATOM     48  C   UNL A   1      39.338  32.098  32.738  1.00  0.00     0.031 C 
ATOM     49  C   UNL A   1      40.529  27.357  27.873  1.00  0.00     0.029 A 
ATOM     50  C   UNL A   1      41.465  27.367  28.994  1.00  0.00     0.049 A 
ATOM     51  H   UNL A   1      41.461  28.662  30.628  1.00  0.00     0.167 HD
ATOM     52  C   UNL A   1      41.291  31.351  34.057  1.00  0.00     0.031 A 
ATOM     53  C   UNL A   1      42.507  26.522  29.138  1.00  0.00     0.031 A 
ATOM     54  C   UNL A   1      42.398  30.470  34.317  1.00  0.00     0.049 A 
ATOM     55  C   UNL A   1      43.356  26.611  30.376  1.00  0.00     0.074 A 
ATOM     56  C   UNL A   1      43.231  30.447  35.423  1.00  0.00     0.029 A 
ATOM     57  N   UNL A   1      42.813  29.446  33.481  1.00  0.00    -0.354 N 
ATOM     58  N   UNL A   1      43.247  27.439  31.386  1.00  0.00    -0.248 NA
ATOM     59  C   UNL A   1      44.457  25.644  30.506  1.00  0.00     0.031 C 
ATOM     60  C   UNL A   1      44.180  29.441  35.232  1.00  0.00     0.029 A 
ATOM     61  C   UNL A   1      43.897  28.793  34.040  1.00  0.00     0.049 A 
ATOM     62  H   UNL A   1      42.399  29.217  32.617  1.00  0.00     0.167 HD
ATOM     63  C   UNL A   1      44.254  27.088  32.277  1.00  0.00     0.074 A 
ATOM     64  C   UNL A   1      44.948  25.956  31.700  1.00  0.00     0.031 C 
ATOM     65  C   UNL A   1      44.577  27.660  33.462  1.00  0.00     0.031 A 
BRANCH  52  66
ATOM     66  C   UNL A   1      40.978  32.405  35.092  1.00  0.00    -0.014 A 
ATOM     67  C   UNL A   1      41.601  33.666  35.032  1.00  0.00     0.010 A 
ATOM     68  C   UNL A   1      40.169  32.097  36.201  1.00  0.00     0.010 A 
ATOM     69  C   UNL A   1      41.447  34.585  36.076  1.00  0.00     0.020 A 
ATOM     70  C   UNL A   1      39.987  33.025  37.230  1.00  0.00     0.020 A 
ATOM     71  C   UNL A   1      40.649  34.252  37.174  1.00  0.00     0.054 A 
BRANCH  71  72
ATOM     72  S   UNL A   1      40.491  35.438  38.539  1.00  0.00     0.124 S 
ATOM     73  O   UNL A   1      41.301  34.817  39.582  1.00  0.00    -0.237 OA
ATOM     74  O   UNL A   1      41.035  36.664  37.962  1.00  0.00    -0.237 OA
ATOM     75  O   UNL A   1      39.053  35.467  38.800  1.00  0.00    -0.744 OA
ENDBRANCH  71  72
ENDBRANCH  52  66
BRANCH  53  76
ATOM     76  C   UNL A   1      42.739  25.471  28.106  1.00  0.00    -0.014 A 
ATOM     77  C   UNL A   1      42.262  24.161  28.297  1.00  0.00     0.010 A 
ATOM     78  C   UNL A   1      43.523  25.751  26.973  1.00  0.00     0.010 A 
ATOM     79  C   UNL A   1      42.610  23.141  27.407  1.00  0.00     0.020 A 
ATOM     80  C   UNL A   1      43.848  24.739  26.063  1.00  0.00     0.020 A 
ATOM     81  C   UNL A   1      43.415  23.434  26.305  1.00  0.00     0.054 A 
BRANCH  81  82
ATOM     82  S   UNL A   1      43.906  22.083  25.196  1.00  0.00     0.124 S 
ATOM     83  O   UNL A   1      42.777  21.166  25.326  1.00  0.00    -0.237 OA
ATOM     84  O   UNL A   1      44.025  22.756  23.905  1.00  0.00    -0.237 OA
ATOM     85  O   UNL A   1      45.165  21.612  25.767  1.00  0.00    -0.744 OA
ENDBRANCH  81  82
ENDBRANCH  53  76
BRANCH  65  86
ATOM     86  C   UNL A   1      45.735  27.094  34.241  1.00  0.00    -0.014 A 
ATOM     87  C   UNL A   1      47.045  27.525  33.956  1.00  0.00     0.010 A 
ATOM     88  C   UNL A   1      45.543  26.027  35.135  1.00  0.00     0.010 A 
ATOM     89  C   UNL A   1      48.143  26.869  34.516  1.00  0.00     0.020 A 
ATOM     90  C   UNL A   1      46.639  25.387  35.719  1.00  0.00     0.020 A 
ATOM     91  C   UNL A   1      47.932  25.793  35.383  1.00  0.00     0.054 A 
BRANCH  91  92
ATOM     92  S   UNL A   1      49.371  24.919  36.057  1.00  0.00     0.124 S 
ATOM     93  O   UNL A   1      48.870  23.553  36.183  1.00  0.00    -0.237 OA
ATOM     94  O   UNL A   1      50.385  25.124  35.026  1.00  0.00    -0.237 OA
ATOM     95  O   UNL A   1      49.630  25.608  37.320  1.00  0.00    -0.744 OA
ENDBRANCH  91  92
ENDBRANCH  65  86
ENDBRANCH  39  40
ENDBRANCH  32  34
ENDBRANCH  31  32
ENDBRANCH   1  31
TORSDOF 17
ENDMDL
MODEL 3
REMARK VINA RESULT:     -11.3      5.912      9.429
REMARK SMILES C[C@@H]1CCC[C@H](C)[N@H+]1Cc1cc2c(cc1Cl)C=C(C(=O)OCCOC(=O)c1ccc(-c3c4nc(c(-c5ccc(S(=O)(=O)[O-])cc5)c5ccc([nH]5)c(-c5ccc(S(=O)(=O)[O-])cc5)c5nc(c(-c6ccc(S(=O)(=O)[O-])cc6)c6ccc3[nH]6)C=C5)C=C4)cc1)[C@@H](C(F)(F)F)O2
REMARK SMILES IDX 23 1 22 2 21 3 19 4 20 5 18 6 10 7 11 8 15 9 12 10 14 11
REMARK SMILES IDX 16 12 13 13 92 14 17 15 87 16 9 17 8 18 7 19 6 20 5 21 4 22
REMARK SMILES IDX 2 23 3 25 1 26 88 27 89 28 90 29 91 30 24 31 25 32 26 33
REMARK SMILES IDX 27 34 28 35 86 36 29 37 85 38 30 39 31 40 32 41 79 42 33 43
REMARK SMILES IDX 84 44 78 45 80 46 34 47 83 48 77 49 76 50 35 52 65 53 46 54
REMARK SMILES IDX 64 55 47 56 50 57 63 58 81 59 48 60 49 61 62 63 82 64 51 65
REMARK SMILES IDX 36 66 37 67 45 68 38 69 44 70 39 71 40 72 41 73 42 74 43 75
REMARK SMILES IDX 66 76 67 77 75 78 68 79 74 80 69 81 70 82 71 83 72 84 73 85
REMARK SMILES IDX 52 86 53 87 61 88 54 89 60 90 55 91 56 92 57 93 58 94 59 95
REMARK H PARENT 8 24 80 51 50 62
REMARK Flexibility Score: inf
ROOT
ATOM      1  C   UNL A   1      33.705  33.474  28.005  1.00  0.00     0.275 C 
ENDROOT
BRANCH   1   2
ATOM      2  C   UNL A   1      33.937  33.430  29.518  1.00  0.00     0.275 C 
BRANCH   2   3
ATOM      3  O   UNL A   1      34.628  34.602  30.009  1.00  0.00    -0.459 OA
BRANCH   3   4
ATOM      4  C   UNL A   1      34.623  34.738  31.359  1.00  0.00     0.338 C 
ATOM      5  O   UNL A   1      33.638  34.873  32.058  1.00  0.00    -0.246 OA
BRANCH   4   6
ATOM      6  C   UNL A   1      35.990  34.652  31.919  1.00  0.00     0.087 C 
ATOM      7  C   UNL A   1      41.003  34.560  32.418  1.00  0.00     0.029 A 
ATOM      8  C   UNL A   1      39.927  34.693  33.328  1.00  0.00     0.058 A 
ATOM      9  C   UNL A   1      40.705  34.180  31.099  1.00  0.00     0.050 A 
ATOM     10  C   UNL A   1      38.601  34.609  32.892  1.00  0.00     0.128 A 
ATOM     11  C   UNL A   1      39.385  34.157  30.654  1.00  0.00     0.033 A 
ATOM     12  Cl  UNL A   1      41.909  33.723  29.948  1.00  0.00    -0.084 Cl
ATOM     13  C   UNL A   1      38.340  34.409  31.540  1.00  0.00     0.019 A 
ATOM     14  O   UNL A   1      37.607  34.806  33.816  1.00  0.00    -0.475 OA
ATOM     15  C   UNL A   1      36.988  34.523  31.038  1.00  0.00     0.027 C 
ATOM     16  C   UNL A   1      36.230  34.533  33.397  1.00  0.00     0.316 C 
BRANCH   7  17
ATOM     17  C   UNL A   1      42.414  34.900  32.863  1.00  0.00     0.301 C 
BRANCH  17  18
ATOM     18  N   UNL A   1      43.476  33.914  32.555  1.00  0.00    -0.327 N 
ATOM     19  C   UNL A   1      43.709  31.460  32.338  1.00  0.00     0.075 C 
ATOM     20  C   UNL A   1      43.371  32.634  33.270  1.00  0.00     0.181 C 
ATOM     21  C   UNL A   1      44.209  32.559  34.557  1.00  0.00     0.065 C 
ATOM     22  C   UNL A   1      45.644  33.039  34.372  1.00  0.00     0.012 C 
ATOM     23  C   UNL A   1      44.834  34.469  32.413  1.00  0.00     0.181 C 
ATOM     24  H   UNL A   1      43.263  33.638  31.597  1.00  0.00     0.348 HD
ATOM     25  C   UNL A   1      45.683  34.401  33.695  1.00  0.00     0.065 C 
ATOM     26  C   UNL A   1      45.587  33.834  31.234  1.00  0.00     0.075 C 
ENDBRANCH  17  18
ENDBRANCH   7  17
BRANCH  16  27
ATOM     27  C   UNL A   1      35.794  33.132  33.863  1.00  0.00     0.430 C 
ATOM     28  F   UNL A   1      35.807  32.237  32.848  1.00  0.00    -0.167 F 
ATOM     29  F   UNL A   1      36.632  32.651  34.815  1.00  0.00    -0.167 F 
ATOM     30  F   UNL A   1      34.548  33.128  34.389  1.00  0.00    -0.167 F 
ENDBRANCH  16  27
ENDBRANCH   4   6
ENDBRANCH   3   4
ENDBRANCH   2   3
ENDBRANCH   1   2
BRANCH   1  31
ATOM     31  O   UNL A   1      34.655  32.654  27.301  1.00  0.00    -0.458 OA
BRANCH  31  32
ATOM     32  C   UNL A   1      34.594  31.332  27.577  1.00  0.00     0.338 C 
ATOM     33  O   UNL A   1      33.674  30.567  27.330  1.00  0.00    -0.246 OA
BRANCH  32  34
ATOM     34  C   UNL A   1      35.878  30.881  28.129  1.00  0.00     0.060 A 
ATOM     35  C   UNL A   1      36.971  31.732  28.249  1.00  0.00     0.016 A 
ATOM     36  C   UNL A   1      35.931  29.600  28.669  1.00  0.00     0.016 A 
ATOM     37  C   UNL A   1      38.127  31.270  28.895  1.00  0.00     0.010 A 
ATOM     38  C   UNL A   1      37.041  29.174  29.391  1.00  0.00     0.010 A 
ATOM     39  C   UNL A   1      38.169  29.994  29.498  1.00  0.00    -0.014 A 
BRANCH  39  40
ATOM     40  C   UNL A   1      39.367  29.526  30.256  1.00  0.00     0.031 A 
ATOM     41  C   UNL A   1      39.617  29.974  31.679  1.00  0.00     0.074 A 
ATOM     42  C   UNL A   1      40.264  28.719  29.650  1.00  0.00     0.049 A 
ATOM     43  N   UNL A   1      40.591  29.635  32.486  1.00  0.00    -0.248 NA
ATOM     44  C   UNL A   1      38.681  30.952  32.260  1.00  0.00     0.031 C 
ATOM     45  C   UNL A   1      40.200  28.291  28.250  1.00  0.00     0.029 A 
ATOM     46  N   UNL A   1      41.390  28.094  30.133  1.00  0.00    -0.354 N 
ATOM     47  C   UNL A   1      40.388  30.360  33.657  1.00  0.00     0.074 A 
ATOM     48  C   UNL A   1      39.246  31.215  33.430  1.00  0.00     0.031 C 
ATOM     49  C   UNL A   1      41.188  27.415  28.012  1.00  0.00     0.029 A 
ATOM     50  C   UNL A   1      41.984  27.248  29.224  1.00  0.00     0.049 A 
ATOM     51  H   UNL A   1      41.737  28.239  31.042  1.00  0.00     0.167 HD
ATOM     52  C   UNL A   1      41.057  30.286  34.832  1.00  0.00     0.031 A 
ATOM     53  C   UNL A   1      43.035  26.410  29.349  1.00  0.00     0.031 A 
ATOM     54  C   UNL A   1      42.160  29.394  35.072  1.00  0.00     0.049 A 
ATOM     55  C   UNL A   1      43.728  26.298  30.679  1.00  0.00     0.074 A 
ATOM     56  C   UNL A   1      42.858  29.195  36.252  1.00  0.00     0.029 A 
ATOM     57  N   UNL A   1      42.711  28.539  34.131  1.00  0.00    -0.354 N 
ATOM     58  N   UNL A   1      43.468  26.936  31.794  1.00  0.00    -0.248 NA
ATOM     59  C   UNL A   1      44.843  25.344  30.777  1.00  0.00     0.031 C 
ATOM     60  C   UNL A   1      43.861  28.254  36.010  1.00  0.00     0.029 A 
ATOM     61  C   UNL A   1      43.747  27.819  34.700  1.00  0.00     0.049 A 
ATOM     62  H   UNL A   1      42.411  28.456  33.197  1.00  0.00     0.167 HD
ATOM     63  C   UNL A   1      44.376  26.453  32.729  1.00  0.00     0.074 A 
ATOM     64  C   UNL A   1      45.177  25.452  32.057  1.00  0.00     0.031 C 
ATOM     65  C   UNL A   1      44.534  26.817  34.024  1.00  0.00     0.031 A 
BRANCH  52  66
ATOM     66  C   UNL A   1      40.584  31.138  35.985  1.00  0.00    -0.014 A 
ATOM     67  C   UNL A   1      39.221  31.160  36.339  1.00  0.00     0.010 A 
ATOM     68  C   UNL A   1      41.469  32.020  36.631  1.00  0.00     0.010 A 
ATOM     69  C   UNL A   1      38.750  32.070  37.291  1.00  0.00     0.020 A 
ATOM     70  C   UNL A   1      41.007  32.908  37.606  1.00  0.00     0.020 A 
ATOM     71  C   UNL A   1      39.646  32.946  37.911  1.00  0.00     0.054 A 
BRANCH  71  72
ATOM     72  S   UNL A   1      39.013  34.147  39.115  1.00  0.00     0.124 S 
ATOM     73  O   UNL A   1      40.080  34.176  40.110  1.00  0.00    -0.237 OA
ATOM     74  O   UNL A   1      38.865  35.357  38.312  1.00  0.00    -0.237 OA
ATOM     75  O   UNL A   1      37.757  33.550  39.564  1.00  0.00    -0.744 OA
ENDBRANCH  71  72
ENDBRANCH  52  66
BRANCH  53  76
ATOM     76  C   UNL A   1      43.428  25.560  28.189  1.00  0.00    -0.014 A 
ATOM     77  C   UNL A   1      42.955  24.238  28.076  1.00  0.00     0.010 A 
ATOM     78  C   UNL A   1      44.356  26.033  27.245  1.00  0.00     0.010 A 
ATOM     79  C   UNL A   1      43.443  23.392  27.077  1.00  0.00     0.020 A 
ATOM     80  C   UNL A   1      44.823  25.198  26.224  1.00  0.00     0.020 A 
ATOM     81  C   UNL A   1      44.387  23.873  26.167  1.00  0.00     0.054 A 
BRANCH  81  82
ATOM     82  S   UNL A   1      45.053  22.740  24.916  1.00  0.00     0.124 S 
ATOM     83  O   UNL A   1      45.712  23.664  23.997  1.00  0.00    -0.237 OA
ATOM     84  O   UNL A   1      45.945  21.887  25.698  1.00  0.00    -0.237 OA
ATOM     85  O   UNL A   1      43.864  22.075  24.389  1.00  0.00    -0.744 OA
ENDBRANCH  81  82
ENDBRANCH  53  76
BRANCH  65  86
ATOM     86  C   UNL A   1      45.614  26.145  34.832  1.00  0.00    -0.014 A 
ATOM     87  C   UNL A   1      45.305  25.004  35.597  1.00  0.00     0.010 A 
ATOM     88  C   UNL A   1      46.884  26.733  34.959  1.00  0.00     0.010 A 
ATOM     89  C   UNL A   1      46.230  24.491  36.509  1.00  0.00     0.020 A 
ATOM     90  C   UNL A   1      47.822  26.205  35.850  1.00  0.00     0.020 A 
ATOM     91  C   UNL A   1      47.479  25.106  36.640  1.00  0.00     0.054 A 
BRANCH  91  92
ATOM     92  S   UNL A   1      48.646  24.459  37.868  1.00  0.00     0.124 S 
ATOM     93  O   UNL A   1      49.042  25.670  38.582  1.00  0.00    -0.237 OA
ATOM     94  O   UNL A   1      47.826  23.519  38.628  1.00  0.00    -0.237 OA
ATOM     95  O   UNL A   1      49.693  23.844  37.054  1.00  0.00    -0.744 OA
ENDBRANCH  91  92
ENDBRANCH  65  86
ENDBRANCH  39  40
ENDBRANCH  32  34
ENDBRANCH  31  32
ENDBRANCH   1  31
TORSDOF 17
ENDMDL
