MODEL 1
REMARK VINA RESULT:     -10.4      0.000      0.000
REMARK SMILES CC(C)C[C@H](NC(=O)[C@H](Cc1ccccc1)NC(=O)CNC(=O)CNC(=O)OCc1ccccc1)C(=O)OCCOC(=O)c1ccc(-c2c3nc(c(-c4ccc(S(=O)(=O)[O-])cc4)c4ccc([nH]4)c(-c4ccc(S(=O)(=O)[O-])cc4)c4nc(c(-c5ccc(S(=O)(=O)[O-])cc5)c5ccc2[nH]5)C=C4)C=C3)cc1
REMARK SMILES IDX 5 1 4 2 2 3 1 4 3 5 36 6 37 7 38 8 39 9 40 10 41 11 42 12
REMARK SMILES IDX 43 13 44 14 45 15 103 16 46 17 102 18 47 19 48 20 49 21
REMARK SMILES IDX 96 22 50 23 101 24 95 25 97 26 51 27 100 28 94 29 93 30
REMARK SMILES IDX 52 32 82 33 63 34 81 35 64 36 67 37 80 38 98 39 65 40 66 41
REMARK SMILES IDX 79 43 99 44 68 45 53 46 54 47 62 48 55 49 61 50 56 51 57 52
REMARK SMILES IDX 58 53 59 54 60 55 83 56 84 57 92 58 85 59 91 60 86 61 87 62
REMARK SMILES IDX 88 63 89 64 90 65 69 66 70 67 78 68 71 69 77 70 72 71 73 72
REMARK SMILES IDX 74 73 75 74 76 75 6 76 7 77 8 79 9 80 17 81 18 82 19 84
REMARK SMILES IDX 20 85 21 86 22 87 23 89 24 90 25 91 26 92 27 94 28 95 29 96
REMARK SMILES IDX 30 97 31 98 35 99 32 100 34 101 33 102 10 103 11 104 12 105
REMARK SMILES IDX 16 106 13 107 15 108 14 109
REMARK H PARENT 97 31 67 42 6 78 17 83 21 88 25 93
REMARK Flexibility Score: inf
ROOT
ATOM      1  C   UNL A   1      32.252  29.231  24.249  1.00  0.00     0.192 C 
ENDROOT
BRANCH   1   2
ATOM      2  C   UNL A   1      30.689  29.028  24.303  1.00  0.00     0.040 C 
BRANCH   2   3
ATOM      3  C   UNL A   1      29.783  28.226  23.315  1.00  0.00    -0.015 C 
ATOM      4  C   UNL A   1      29.074  26.955  23.837  1.00  0.00     0.007 C 
ATOM      5  C   UNL A   1      28.618  29.146  22.901  1.00  0.00     0.007 C 
ENDBRANCH   2   3
ENDBRANCH   1   2
BRANCH   1   6
ATOM      6  C   UNL A   1      32.912  29.425  25.651  1.00  0.00     0.328 C 
ATOM      7  O   UNL A   1      34.056  29.051  25.884  1.00  0.00    -0.250 OA
BRANCH   6   8
ATOM      8  O   UNL A   1      32.096  30.009  26.573  1.00  0.00    -0.461 OA
BRANCH   8   9
ATOM      9  C   UNL A   1      32.026  31.453  26.545  1.00  0.00     0.274 C 
BRANCH   9  10
ATOM     10  C   UNL A   1      32.791  32.105  27.697  1.00  0.00     0.275 C 
BRANCH  10  11
ATOM     11  O   UNL A   1      34.049  31.482  27.937  1.00  0.00    -0.458 OA
BRANCH  11  12
ATOM     12  C   UNL A   1      35.114  32.310  27.900  1.00  0.00     0.338 C 
ATOM     13  O   UNL A   1      35.166  33.489  27.591  1.00  0.00    -0.246 OA
BRANCH  12  14
ATOM     14  C   UNL A   1      36.237  31.562  28.418  1.00  0.00     0.060 A 
ATOM     15  C   UNL A   1      37.475  32.201  28.471  1.00  0.00     0.016 A 
ATOM     16  C   UNL A   1      36.023  30.285  28.927  1.00  0.00     0.016 A 
ATOM     17  C   UNL A   1      38.536  31.562  29.075  1.00  0.00     0.010 A 
ATOM     18  C   UNL A   1      37.073  29.665  29.575  1.00  0.00     0.010 A 
ATOM     19  C   UNL A   1      38.318  30.315  29.665  1.00  0.00    -0.014 A 
BRANCH  19  20
ATOM     20  C   UNL A   1      39.376  29.686  30.460  1.00  0.00     0.031 A 
ATOM     21  C   UNL A   1      39.748  30.301  31.763  1.00  0.00     0.074 A 
ATOM     22  C   UNL A   1      40.039  28.653  29.912  1.00  0.00     0.049 A 
ATOM     23  N   UNL A   1      40.778  30.054  32.519  1.00  0.00    -0.248 NA
ATOM     24  C   UNL A   1      38.862  31.368  32.259  1.00  0.00     0.031 C 
ATOM     25  C   UNL A   1      39.708  28.023  28.628  1.00  0.00     0.029 A 
ATOM     26  N   UNL A   1      41.144  27.977  30.342  1.00  0.00    -0.354 N 
ATOM     27  C   UNL A   1      40.692  30.963  33.564  1.00  0.00     0.074 A 
ATOM     28  C   UNL A   1      39.523  31.782  33.329  1.00  0.00     0.031 C 
ATOM     29  C   UNL A   1      40.603  27.059  28.369  1.00  0.00     0.029 A 
ATOM     30  C   UNL A   1      41.598  27.051  29.433  1.00  0.00     0.049 A 
ATOM     31  H   UNL A   1      41.573  28.136  31.213  1.00  0.00     0.167 HD
ATOM     32  C   UNL A   1      41.534  31.096  34.613  1.00  0.00     0.031 A 
ATOM     33  C   UNL A   1      42.723  26.315  29.443  1.00  0.00     0.031 A 
ATOM     34  C   UNL A   1      42.700  30.268  34.775  1.00  0.00     0.049 A 
ATOM     35  C   UNL A   1      43.646  26.479  30.614  1.00  0.00     0.074 A 
ATOM     36  C   UNL A   1      43.623  30.266  35.803  1.00  0.00     0.029 A 
ATOM     37  N   UNL A   1      43.105  29.297  33.864  1.00  0.00    -0.354 N 
ATOM     38  N   UNL A   1      43.543  27.313  31.625  1.00  0.00    -0.248 NA
ATOM     39  C   UNL A   1      44.823  25.609  30.659  1.00  0.00     0.031 C 
ATOM     40  C   UNL A   1      44.615  29.331  35.484  1.00  0.00     0.029 A 
ATOM     41  C   UNL A   1      44.275  28.700  34.294  1.00  0.00     0.049 A 
ATOM     42  H   UNL A   1      42.627  29.068  33.034  1.00  0.00     0.167 HD
ATOM     43  C   UNL A   1      44.628  27.049  32.447  1.00  0.00     0.074 A 
ATOM     44  C   UNL A   1      45.371  25.975  31.812  1.00  0.00     0.031 C 
ATOM     45  C   UNL A   1      44.976  27.632  33.621  1.00  0.00     0.031 A 
BRANCH  32  46
ATOM     46  C   UNL A   1      41.243  32.200  35.593  1.00  0.00    -0.014 A 
ATOM     47  C   UNL A   1      40.351  32.016  36.668  1.00  0.00     0.010 A 
ATOM     48  C   UNL A   1      41.836  33.463  35.410  1.00  0.00     0.010 A 
ATOM     49  C   UNL A   1      40.003  33.090  37.493  1.00  0.00     0.020 A 
ATOM     50  C   UNL A   1      41.517  34.530  36.255  1.00  0.00     0.020 A 
ATOM     51  C   UNL A   1      40.580  34.344  37.273  1.00  0.00     0.054 A 
BRANCH  51  52
ATOM     52  S   UNL A   1      40.091  35.727  38.340  1.00  0.00     0.124 S 
ATOM     53  O   UNL A   1      41.328  35.997  39.068  1.00  0.00    -0.237 OA
ATOM     54  O   UNL A   1      39.694  36.751  37.376  1.00  0.00    -0.237 OA
ATOM     55  O   UNL A   1      39.002  35.177  39.143  1.00  0.00    -0.744 OA
ENDBRANCH  51  52
ENDBRANCH  32  46
BRANCH  33  56
ATOM     56  C   UNL A   1      42.997  25.388  28.314  1.00  0.00    -0.014 A 
ATOM     57  C   UNL A   1      43.646  25.847  27.156  1.00  0.00     0.010 A 
ATOM     58  C   UNL A   1      42.717  24.013  28.440  1.00  0.00     0.010 A 
ATOM     59  C   UNL A   1      44.016  24.950  26.149  1.00  0.00     0.020 A 
ATOM     60  C   UNL A   1      43.108  23.110  27.447  1.00  0.00     0.020 A 
ATOM     61  C   UNL A   1      43.755  23.585  26.305  1.00  0.00     0.054 A 
BRANCH  61  62
ATOM     62  S   UNL A   1      44.334  22.434  25.028  1.00  0.00     0.124 S 
ATOM     63  O   UNL A   1      45.731  22.830  24.872  1.00  0.00    -0.237 OA
ATOM     64  O   UNL A   1      44.112  21.133  25.653  1.00  0.00    -0.237 OA
ATOM     65  O   UNL A   1      43.470  22.723  23.886  1.00  0.00    -0.744 OA
ENDBRANCH  61  62
ENDBRANCH  33  56
BRANCH  45  66
ATOM     66  C   UNL A   1      46.190  27.083  34.316  1.00  0.00    -0.014 A 
ATOM     67  C   UNL A   1      46.083  26.072  35.285  1.00  0.00     0.010 A 
ATOM     68  C   UNL A   1      47.463  27.529  33.914  1.00  0.00     0.010 A 
ATOM     69  C   UNL A   1      47.234  25.522  35.850  1.00  0.00     0.020 A 
ATOM     70  C   UNL A   1      48.614  26.960  34.455  1.00  0.00     0.020 A 
ATOM     71  C   UNL A   1      48.492  25.964  35.426  1.00  0.00     0.054 A 
BRANCH  71  72
ATOM     72  S   UNL A   1      49.970  25.175  36.115  1.00  0.00     0.124 S 
ATOM     73  O   UNL A   1      50.992  26.194  35.888  1.00  0.00    -0.237 OA
ATOM     74  O   UNL A   1      49.596  24.960  37.511  1.00  0.00    -0.237 OA
ATOM     75  O   UNL A   1      50.117  23.958  35.320  1.00  0.00    -0.744 OA
ENDBRANCH  71  72
ENDBRANCH  45  66
ENDBRANCH  19  20
ENDBRANCH  12  14
ENDBRANCH  11  12
ENDBRANCH  10  11
ENDBRANCH   9  10
ENDBRANCH   8   9
ENDBRANCH   6   8
ENDBRANCH   1   6
BRANCH   1  76
ATOM     76  N   UNL A   1      33.039  28.681  23.128  1.00  0.00    -0.341 N 
ATOM     77  C   UNL A   1      33.472  27.471  22.685  1.00  0.00     0.243 C 
ATOM     78  H   UNL A   1      33.335  29.400  22.525  1.00  0.00     0.164 HD
ATOM     79  O   UNL A   1      34.149  27.494  21.650  1.00  0.00    -0.273 OA
BRANCH  77  80
ATOM     80  C   UNL A   1      32.959  26.135  23.241  1.00  0.00     0.175 C 
BRANCH  80  81
ATOM     81  N   UNL A   1      33.315  25.062  22.314  1.00  0.00    -0.342 N 
ATOM     82  C   UNL A   1      32.950  23.801  22.017  1.00  0.00     0.240 C 
ATOM     83  H   UNL A   1      34.049  25.351  21.726  1.00  0.00     0.164 HD
ATOM     84  O   UNL A   1      33.487  23.283  21.032  1.00  0.00    -0.273 OA
BRANCH  82  85
ATOM     85  C   UNL A   1      31.993  23.007  22.857  1.00  0.00     0.216 C 
BRANCH  85  86
ATOM     86  N   UNL A   1      31.924  21.682  22.292  1.00  0.00    -0.346 N 
ATOM     87  C   UNL A   1      32.255  20.504  22.883  1.00  0.00     0.239 C 
ATOM     88  H   UNL A   1      31.597  21.623  21.365  1.00  0.00     0.164 HD
ATOM     89  O   UNL A   1      32.238  19.481  22.199  1.00  0.00    -0.273 OA
BRANCH  87  90
ATOM     90  C   UNL A   1      32.638  20.486  24.368  1.00  0.00     0.219 C 
BRANCH  90  91
ATOM     91  N   UNL A   1      33.754  19.600  24.628  1.00  0.00    -0.312 N 
ATOM     92  C   UNL A   1      35.052  19.945  24.853  1.00  0.00     0.407 C 
ATOM     93  H   UNL A   1      33.550  18.637  24.642  1.00  0.00     0.167 HD
ATOM     94  O   UNL A   1      35.927  19.088  24.826  1.00  0.00    -0.225 OA
BRANCH  92  95
ATOM     95  O   UNL A   1      35.256  21.274  25.017  1.00  0.00    -0.445 OA
BRANCH  95  96
ATOM     96  C   UNL A   1      36.475  21.783  24.437  1.00  0.00     0.270 C 
BRANCH  96  97
ATOM     97  C   UNL A   1      37.505  22.362  25.377  1.00  0.00    -0.011 A 
ATOM     98  C   UNL A   1      37.339  23.676  25.844  1.00  0.00     0.007 A 
ATOM     99  C   UNL A   1      38.649  21.661  25.762  1.00  0.00     0.007 A 
ATOM    100  C   UNL A   1      38.344  24.319  26.565  1.00  0.00     0.000 A 
ATOM    101  C   UNL A   1      39.652  22.298  26.496  1.00  0.00     0.000 A 
ATOM    102  C   UNL A   1      39.511  23.632  26.875  1.00  0.00     0.000 A 
ENDBRANCH  96  97
ENDBRANCH  95  96
ENDBRANCH  92  95
ENDBRANCH  90  91
ENDBRANCH  87  90
ENDBRANCH  85  86
ENDBRANCH  82  85
ENDBRANCH  80  81
BRANCH  80 103
ATOM    103  C   UNL A   1      33.657  25.985  24.616  1.00  0.00     0.070 C 
BRANCH 103 104
ATOM    104  C   UNL A   1      33.017  25.037  25.597  1.00  0.00    -0.045 A 
ATOM    105  C   UNL A   1      33.768  24.045  26.241  1.00  0.00     0.004 A 
ATOM    106  C   UNL A   1      31.633  25.076  25.790  1.00  0.00     0.004 A 
ATOM    107  C   UNL A   1      33.136  23.097  27.050  1.00  0.00     0.000 A 
ATOM    108  C   UNL A   1      31.006  24.139  26.610  1.00  0.00     0.000 A 
ATOM    109  C   UNL A   1      31.755  23.145  27.233  1.00  0.00     0.000 A 
ENDBRANCH 103 104
ENDBRANCH  80 103
ENDBRANCH  77  80
ENDBRANCH   1  76
TORSDOF 28
ENDMDL
MODEL 2
REMARK VINA RESULT:      -9.0      1.318      2.874
REMARK SMILES CC(C)C[C@H](NC(=O)[C@H](Cc1ccccc1)NC(=O)CNC(=O)CNC(=O)OCc1ccccc1)C(=O)OCCOC(=O)c1ccc(-c2c3nc(c(-c4ccc(S(=O)(=O)[O-])cc4)c4ccc([nH]4)c(-c4ccc(S(=O)(=O)[O-])cc4)c4nc(c(-c5ccc(S(=O)(=O)[O-])cc5)c5ccc2[nH]5)C=C4)C=C3)cc1
REMARK SMILES IDX 5 1 4 2 2 3 1 4 3 5 36 6 37 7 38 8 39 9 40 10 41 11 42 12
REMARK SMILES IDX 43 13 44 14 45 15 103 16 46 17 102 18 47 19 48 20 49 21
REMARK SMILES IDX 96 22 50 23 101 24 95 25 97 26 51 27 100 28 94 29 93 30
REMARK SMILES IDX 52 32 82 33 63 34 81 35 64 36 67 37 80 38 98 39 65 40 66 41
REMARK SMILES IDX 79 43 99 44 68 45 53 46 54 47 62 48 55 49 61 50 56 51 57 52
REMARK SMILES IDX 58 53 59 54 60 55 83 56 84 57 92 58 85 59 91 60 86 61 87 62
REMARK SMILES IDX 88 63 89 64 90 65 69 66 70 67 78 68 71 69 77 70 72 71 73 72
REMARK SMILES IDX 74 73 75 74 76 75 6 76 7 77 8 79 9 80 17 81 18 82 19 84
REMARK SMILES IDX 20 85 21 86 22 87 23 89 24 90 25 91 26 92 27 94 28 95 29 96
REMARK SMILES IDX 30 97 31 98 35 99 32 100 34 101 33 102 10 103 11 104 12 105
REMARK SMILES IDX 16 106 13 107 15 108 14 109
REMARK H PARENT 97 31 67 42 6 78 17 83 21 88 25 93
REMARK Flexibility Score: inf
ROOT
ATOM      1  C   UNL A   1      32.189  29.096  24.369  1.00  0.00     0.192 C 
ENDROOT
BRANCH   1   2
ATOM      2  C   UNL A   1      30.843  28.284  24.496  1.00  0.00     0.040 C 
BRANCH   2   3
ATOM      3  C   UNL A   1      29.825  27.916  23.369  1.00  0.00    -0.015 C 
ATOM      4  C   UNL A   1      28.593  27.061  23.745  1.00  0.00     0.007 C 
ATOM      5  C   UNL A   1      29.210  29.231  22.850  1.00  0.00     0.007 C 
ENDBRANCH   2   3
ENDBRANCH   1   2
BRANCH   1   6
ATOM      6  C   UNL A   1      32.936  29.293  25.726  1.00  0.00     0.328 C 
ATOM      7  O   UNL A   1      34.113  28.979  25.868  1.00  0.00    -0.250 OA
BRANCH   6   8
ATOM      8  O   UNL A   1      32.158  29.810  26.718  1.00  0.00    -0.461 OA
BRANCH   8   9
ATOM      9  C   UNL A   1      31.659  31.150  26.512  1.00  0.00     0.274 C 
BRANCH   9  10
ATOM     10  C   UNL A   1      32.463  32.206  27.271  1.00  0.00     0.275 C 
BRANCH  10  11
ATOM     11  O   UNL A   1      33.672  31.683  27.815  1.00  0.00    -0.458 OA
BRANCH  11  12
ATOM     12  C   UNL A   1      34.701  32.554  27.861  1.00  0.00     0.338 C 
ATOM     13  O   UNL A   1      34.714  33.750  27.622  1.00  0.00    -0.246 OA
BRANCH  12  14
ATOM     14  C   UNL A   1      35.838  31.823  28.373  1.00  0.00     0.060 A 
ATOM     15  C   UNL A   1      37.070  32.475  28.407  1.00  0.00     0.016 A 
ATOM     16  C   UNL A   1      35.643  30.548  28.895  1.00  0.00     0.016 A 
ATOM     17  C   UNL A   1      38.144  31.852  29.006  1.00  0.00     0.010 A 
ATOM     18  C   UNL A   1      36.706  29.945  29.537  1.00  0.00     0.010 A 
ATOM     19  C   UNL A   1      37.945  30.608  29.609  1.00  0.00    -0.014 A 
BRANCH  19  20
ATOM     20  C   UNL A   1      39.018  29.998  30.398  1.00  0.00     0.031 A 
ATOM     21  C   UNL A   1      39.448  30.669  31.654  1.00  0.00     0.074 A 
ATOM     22  C   UNL A   1      39.642  28.925  29.880  1.00  0.00     0.049 A 
ATOM     23  N   UNL A   1      40.498  30.437  32.387  1.00  0.00    -0.248 NA
ATOM     24  C   UNL A   1      38.600  31.777  32.127  1.00  0.00     0.031 C 
ATOM     25  C   UNL A   1      39.254  28.239  28.641  1.00  0.00     0.029 A 
ATOM     26  N   UNL A   1      40.748  28.248  30.305  1.00  0.00    -0.354 N 
ATOM     27  C   UNL A   1      40.467  31.399  33.387  1.00  0.00     0.074 A 
ATOM     28  C   UNL A   1      39.306  32.229  33.151  1.00  0.00     0.031 C 
ATOM     29  C   UNL A   1      40.121  27.245  28.400  1.00  0.00     0.029 A 
ATOM     30  C   UNL A   1      41.152  27.270  29.428  1.00  0.00     0.049 A 
ATOM     31  H   UNL A   1      41.210  28.441  31.152  1.00  0.00     0.167 HD
ATOM     32  C   UNL A   1      41.348  31.565  34.398  1.00  0.00     0.031 A 
ATOM     33  C   UNL A   1      42.263  26.512  29.437  1.00  0.00     0.031 A 
ATOM     34  C   UNL A   1      42.502  30.723  34.562  1.00  0.00     0.049 A 
ATOM     35  C   UNL A   1      43.229  26.714  30.566  1.00  0.00     0.074 A 
ATOM     36  C   UNL A   1      43.460  30.752  35.557  1.00  0.00     0.029 A 
ATOM     37  N   UNL A   1      42.856  29.700  33.688  1.00  0.00    -0.354 N 
ATOM     38  N   UNL A   1      43.178  27.599  31.537  1.00  0.00    -0.248 NA
ATOM     39  C   UNL A   1      44.390  25.823  30.615  1.00  0.00     0.031 C 
ATOM     40  C   UNL A   1      44.423  29.782  35.252  1.00  0.00     0.029 A 
ATOM     41  C   UNL A   1      44.029  29.101  34.107  1.00  0.00     0.049 A 
ATOM     42  H   UNL A   1      42.345  29.440  32.887  1.00  0.00     0.167 HD
ATOM     43  C   UNL A   1      44.285  27.353  32.334  1.00  0.00     0.074 A 
ATOM     44  C   UNL A   1      44.985  26.234  31.728  1.00  0.00     0.031 C 
ATOM     45  C   UNL A   1      44.686  27.986  33.465  1.00  0.00     0.031 A 
BRANCH  32  46
ATOM     46  C   UNL A   1      41.112  32.723  35.331  1.00  0.00    -0.014 A 
ATOM     47  C   UNL A   1      41.729  33.973  35.127  1.00  0.00     0.010 A 
ATOM     48  C   UNL A   1      40.294  32.545  36.463  1.00  0.00     0.010 A 
ATOM     49  C   UNL A   1      41.593  34.994  36.072  1.00  0.00     0.020 A 
ATOM     50  C   UNL A   1      40.128  33.577  37.392  1.00  0.00     0.020 A 
ATOM     51  C   UNL A   1      40.801  34.785  37.205  1.00  0.00     0.054 A 
BRANCH  51  52
ATOM     52  S   UNL A   1      40.663  36.117  38.428  1.00  0.00     0.124 S 
ATOM     53  O   UNL A   1      41.985  36.732  38.353  1.00  0.00    -0.237 OA
ATOM     54  O   UNL A   1      39.565  36.925  37.900  1.00  0.00    -0.237 OA
ATOM     55  O   UNL A   1      40.371  35.414  39.675  1.00  0.00    -0.744 OA
ENDBRANCH  51  52
ENDBRANCH  32  46
BRANCH  33  56
ATOM     56  C   UNL A   1      42.479  25.525  28.348  1.00  0.00    -0.014 A 
ATOM     57  C   UNL A   1      43.402  25.786  27.322  1.00  0.00     0.010 A 
ATOM     58  C   UNL A   1      41.849  24.265  28.394  1.00  0.00     0.010 A 
ATOM     59  C   UNL A   1      43.698  24.806  26.369  1.00  0.00     0.020 A 
ATOM     60  C   UNL A   1      42.161  23.274  27.458  1.00  0.00     0.020 A 
ATOM     61  C   UNL A   1      43.084  23.552  26.449  1.00  0.00     0.054 A 
BRANCH  61  62
ATOM     62  S   UNL A   1      43.561  22.269  25.258  1.00  0.00     0.124 S 
ATOM     63  O   UNL A   1      44.939  21.986  25.650  1.00  0.00    -0.237 OA
ATOM     64  O   UNL A   1      42.595  21.209  25.534  1.00  0.00    -0.237 OA
ATOM     65  O   UNL A   1      43.401  22.926  23.962  1.00  0.00    -0.744 OA
ENDBRANCH  61  62
ENDBRANCH  33  56
BRANCH  45  66
ATOM     66  C   UNL A   1      45.912  27.448  34.144  1.00  0.00    -0.014 A 
ATOM     67  C   UNL A   1      47.179  28.011  33.920  1.00  0.00     0.010 A 
ATOM     68  C   UNL A   1      45.768  26.420  35.095  1.00  0.00     0.010 A 
ATOM     69  C   UNL A   1      48.287  27.546  34.631  1.00  0.00     0.020 A 
ATOM     70  C   UNL A   1      46.866  25.975  35.828  1.00  0.00     0.020 A 
ATOM     71  C   UNL A   1      48.121  26.537  35.585  1.00  0.00     0.054 A 
BRANCH  71  72
ATOM     72  S   UNL A   1      49.560  26.010  36.553  1.00  0.00     0.124 S 
ATOM     73  O   UNL A   1      50.008  27.270  37.139  1.00  0.00    -0.237 OA
ATOM     74  O   UNL A   1      48.980  25.051  37.491  1.00  0.00    -0.237 OA
ATOM     75  O   UNL A   1      50.457  25.433  35.555  1.00  0.00    -0.744 OA
ENDBRANCH  71  72
ENDBRANCH  45  66
ENDBRANCH  19  20
ENDBRANCH  12  14
ENDBRANCH  11  12
ENDBRANCH  10  11
ENDBRANCH   9  10
ENDBRANCH   8   9
ENDBRANCH   6   8
ENDBRANCH   1   6
BRANCH   1  76
ATOM     76  N   UNL A   1      32.941  29.102  23.100  1.00  0.00    -0.341 N 
ATOM     77  C   UNL A   1      33.689  28.246  22.354  1.00  0.00     0.243 C 
ATOM     78  H   UNL A   1      32.884  29.983  22.665  1.00  0.00     0.164 HD
ATOM     79  O   UNL A   1      34.158  28.716  21.311  1.00  0.00    -0.273 OA
BRANCH  77  80
ATOM     80  C   UNL A   1      33.747  26.733  22.611  1.00  0.00     0.175 C 
BRANCH  80  81
ATOM     81  N   UNL A   1      33.945  26.496  24.040  1.00  0.00    -0.342 N 
ATOM     82  C   UNL A   1      34.475  25.573  24.862  1.00  0.00     0.240 C 
ATOM     83  H   UNL A   1      33.575  27.244  24.562  1.00  0.00     0.164 HD
ATOM     84  O   UNL A   1      34.515  25.854  26.065  1.00  0.00    -0.273 OA
BRANCH  82  85
ATOM     85  C   UNL A   1      34.945  24.229  24.388  1.00  0.00     0.216 C 
BRANCH  85  86
ATOM     86  N   UNL A   1      36.001  23.806  25.274  1.00  0.00    -0.346 N 
ATOM     87  C   UNL A   1      36.495  22.551  25.446  1.00  0.00     0.239 C 
ATOM     88  H   UNL A   1      36.416  24.512  25.821  1.00  0.00     0.164 HD
ATOM     89  O   UNL A   1      37.323  22.365  26.337  1.00  0.00    -0.273 OA
BRANCH  87  90
ATOM     90  C   UNL A   1      36.007  21.418  24.535  1.00  0.00     0.219 C 
BRANCH  90  91
ATOM     91  N   UNL A   1      35.090  20.530  25.220  1.00  0.00    -0.312 N 
ATOM     92  C   UNL A   1      34.054  20.874  26.034  1.00  0.00     0.407 C 
ATOM     93  H   UNL A   1      35.235  19.566  25.082  1.00  0.00     0.167 HD
ATOM     94  O   UNL A   1      33.511  20.023  26.727  1.00  0.00    -0.225 OA
BRANCH  92  95
ATOM     95  O   UNL A   1      33.769  22.198  26.044  1.00  0.00    -0.445 OA
BRANCH  95  96
ATOM     96  C   UNL A   1      33.000  22.651  27.178  1.00  0.00     0.270 C 
BRANCH  96  97
ATOM     97  C   UNL A   1      31.686  23.340  26.899  1.00  0.00    -0.011 A 
ATOM     98  C   UNL A   1      31.691  24.697  26.535  1.00  0.00     0.007 A 
ATOM     99  C   UNL A   1      30.456  22.695  27.039  1.00  0.00     0.007 A 
ATOM    100  C   UNL A   1      30.506  25.424  26.442  1.00  0.00     0.000 A 
ATOM    101  C   UNL A   1      29.266  23.418  26.933  1.00  0.00     0.000 A 
ATOM    102  C   UNL A   1      29.292  24.786  26.660  1.00  0.00     0.000 A 
ENDBRANCH  96  97
ENDBRANCH  95  96
ENDBRANCH  92  95
ENDBRANCH  90  91
ENDBRANCH  87  90
ENDBRANCH  85  86
ENDBRANCH  82  85
ENDBRANCH  80  81
BRANCH  80 103
ATOM    103  C   UNL A   1      32.385  26.194  22.105  1.00  0.00     0.070 C 
BRANCH 103 104
ATOM    104  C   UNL A   1      32.112  24.731  22.338  1.00  0.00    -0.045 A 
ATOM    105  C   UNL A   1      31.014  24.312  23.103  1.00  0.00     0.004 A 
ATOM    106  C   UNL A   1      33.022  23.776  21.875  1.00  0.00     0.004 A 
ATOM    107  C   UNL A   1      30.847  22.960  23.413  1.00  0.00     0.000 A 
ATOM    108  C   UNL A   1      32.845  22.426  22.172  1.00  0.00     0.000 A 
ATOM    109  C   UNL A   1      31.763  22.018  22.947  1.00  0.00     0.000 A 
ENDBRANCH 103 104
ENDBRANCH  80 103
ENDBRANCH  77  80
ENDBRANCH   1  76
TORSDOF 28
ENDMDL
MODEL 3
REMARK VINA RESULT:      -8.9      5.492     11.384
REMARK SMILES CC(C)C[C@H](NC(=O)[C@H](Cc1ccccc1)NC(=O)CNC(=O)CNC(=O)OCc1ccccc1)C(=O)OCCOC(=O)c1ccc(-c2c3nc(c(-c4ccc(S(=O)(=O)[O-])cc4)c4ccc([nH]4)c(-c4ccc(S(=O)(=O)[O-])cc4)c4nc(c(-c5ccc(S(=O)(=O)[O-])cc5)c5ccc2[nH]5)C=C4)C=C3)cc1
REMARK SMILES IDX 5 1 4 2 2 3 1 4 3 5 36 6 37 7 38 8 39 9 40 10 41 11 42 12
REMARK SMILES IDX 43 13 44 14 45 15 103 16 46 17 102 18 47 19 48 20 49 21
REMARK SMILES IDX 96 22 50 23 101 24 95 25 97 26 51 27 100 28 94 29 93 30
REMARK SMILES IDX 52 32 82 33 63 34 81 35 64 36 67 37 80 38 98 39 65 40 66 41
REMARK SMILES IDX 79 43 99 44 68 45 53 46 54 47 62 48 55 49 61 50 56 51 57 52
REMARK SMILES IDX 58 53 59 54 60 55 83 56 84 57 92 58 85 59 91 60 86 61 87 62
REMARK SMILES IDX 88 63 89 64 90 65 69 66 70 67 78 68 71 69 77 70 72 71 73 72
REMARK SMILES IDX 74 73 75 74 76 75 6 76 7 77 8 79 9 80 17 81 18 82 19 84
REMARK SMILES IDX 20 85 21 86 22 87 23 89 24 90 25 91 26 92 27 94 28 95 29 96
REMARK SMILES IDX 30 97 31 98 35 99 32 100 34 101 33 102 10 103 11 104 12 105
REMARK SMILES IDX 16 106 13 107 15 108 14 109
REMARK H PARENT 97 31 67 42 6 78 17 83 21 88 25 93
REMARK Flexibility Score: inf
ROOT
ATOM      1  C   UNL A   1      44.510  25.658  25.771  1.00  0.00     0.192 C 
ENDROOT
BRANCH   1   2
ATOM      2  C   UNL A   1      44.716  25.557  27.331  1.00  0.00     0.040 C 
BRANCH   2   3
ATOM      3  C   UNL A   1      45.676  24.611  28.121  1.00  0.00    -0.015 C 
ATOM      4  C   UNL A   1      45.607  23.093  27.836  1.00  0.00     0.007 C 
ATOM      5  C   UNL A   1      47.121  24.987  27.737  1.00  0.00     0.007 C 
ENDBRANCH   2   3
ENDBRANCH   1   2
BRANCH   1   6
ATOM      6  C   UNL A   1      44.638  24.291  25.028  1.00  0.00     0.328 C 
ATOM      7  O   UNL A   1      43.884  23.353  25.265  1.00  0.00    -0.250 OA
BRANCH   6   8
ATOM      8  O   UNL A   1      45.665  24.238  24.134  1.00  0.00    -0.461 OA
BRANCH   8   9
ATOM      9  C   UNL A   1      46.999  24.222  24.688  1.00  0.00     0.274 C 
BRANCH   9  10
ATOM     10  C   UNL A   1      47.903  25.301  24.091  1.00  0.00     0.275 C 
BRANCH  10  11
ATOM     11  O   UNL A   1      47.339  26.605  24.200  1.00  0.00    -0.458 OA
BRANCH  11  12
ATOM     12  C   UNL A   1      48.221  27.588  24.475  1.00  0.00     0.338 C 
ATOM     13  O   UNL A   1      49.226  27.917  23.866  1.00  0.00    -0.246 OA
BRANCH  12  14
ATOM     14  C   UNL A   1      47.699  28.305  25.616  1.00  0.00     0.060 A 
ATOM     15  C   UNL A   1      46.346  28.642  25.609  1.00  0.00     0.016 A 
ATOM     16  C   UNL A   1      48.531  28.544  26.704  1.00  0.00     0.016 A 
ATOM     17  C   UNL A   1      45.789  29.211  26.734  1.00  0.00     0.010 A 
ATOM     18  C   UNL A   1      47.963  29.069  27.848  1.00  0.00     0.010 A 
ATOM     19  C   UNL A   1      46.591  29.380  27.865  1.00  0.00    -0.014 A 
BRANCH  19  20
ATOM     20  C   UNL A   1      45.993  29.824  29.127  1.00  0.00     0.031 A 
ATOM     21  C   UNL A   1      45.858  28.841  30.235  1.00  0.00     0.074 A 
ATOM     22  C   UNL A   1      45.486  31.068  29.174  1.00  0.00     0.049 A 
ATOM     23  N   UNL A   1      45.179  28.943  31.341  1.00  0.00    -0.248 NA
ATOM     24  C   UNL A   1      46.549  27.552  30.054  1.00  0.00     0.031 C 
ATOM     25  C   UNL A   1      45.590  32.065  28.101  1.00  0.00     0.029 A 
ATOM     26  N   UNL A   1      44.753  31.694  30.141  1.00  0.00    -0.354 N 
ATOM     27  C   UNL A   1      45.322  27.716  31.973  1.00  0.00     0.074 A 
ATOM     28  C   UNL A   1      46.133  26.880  31.115  1.00  0.00     0.031 C 
ATOM     29  C   UNL A   1      44.932  33.174  28.466  1.00  0.00     0.029 A 
ATOM     30  C   UNL A   1      44.311  32.939  29.762  1.00  0.00     0.049 A 
ATOM     31  H   UNL A   1      44.560  31.295  31.019  1.00  0.00     0.167 HD
ATOM     32  C   UNL A   1      44.803  27.336  33.162  1.00  0.00     0.031 A 
ATOM     33  C   UNL A   1      43.457  33.774  30.381  1.00  0.00     0.031 A 
ATOM     34  C   UNL A   1      43.978  28.206  33.956  1.00  0.00     0.049 A 
ATOM     35  C   UNL A   1      42.889  33.332  31.697  1.00  0.00     0.074 A 
ATOM     36  C   UNL A   1      43.412  27.969  35.194  1.00  0.00     0.029 A 
ATOM     37  N   UNL A   1      43.593  29.487  33.572  1.00  0.00    -0.354 N 
ATOM     38  N   UNL A   1      43.058  32.185  32.316  1.00  0.00    -0.248 NA
ATOM     39  C   UNL A   1      42.032  34.286  32.404  1.00  0.00     0.031 C 
ATOM     40  C   UNL A   1      42.640  29.087  35.532  1.00  0.00     0.029 A 
ATOM     41  C   UNL A   1      42.779  30.049  34.539  1.00  0.00     0.049 A 
ATOM     42  H   UNL A   1      43.860  29.929  32.734  1.00  0.00     0.167 HD
ATOM     43  C   UNL A   1      42.351  32.286  33.503  1.00  0.00     0.074 A 
ATOM     44  C   UNL A   1      41.756  33.611  33.514  1.00  0.00     0.031 C 
ATOM     45  C   UNL A   1      42.211  31.376  34.499  1.00  0.00     0.031 A 
BRANCH  32  46
ATOM     46  C   UNL A   1      45.069  25.923  33.608  1.00  0.00    -0.014 A 
ATOM     47  C   UNL A   1      44.251  24.853  33.197  1.00  0.00     0.010 A 
ATOM     48  C   UNL A   1      46.131  25.666  34.495  1.00  0.00     0.010 A 
ATOM     49  C   UNL A   1      44.443  23.571  33.720  1.00  0.00     0.020 A 
ATOM     50  C   UNL A   1      46.348  24.377  34.993  1.00  0.00     0.020 A 
ATOM     51  C   UNL A   1      45.485  23.344  34.624  1.00  0.00     0.054 A 
BRANCH  51  52
ATOM     52  S   UNL A   1      45.696  21.678  35.309  1.00  0.00     0.124 S 
ATOM     53  O   UNL A   1      44.535  20.980  34.763  1.00  0.00    -0.237 OA
ATOM     54  O   UNL A   1      46.988  21.268  34.762  1.00  0.00    -0.237 OA
ATOM     55  O   UNL A   1      45.674  21.891  36.753  1.00  0.00    -0.744 OA
ENDBRANCH  51  52
ENDBRANCH  32  46
BRANCH  33  56
ATOM     56  C   UNL A   1      43.121  35.074  29.744  1.00  0.00    -0.014 A 
ATOM     57  C   UNL A   1      43.917  36.208  29.975  1.00  0.00     0.010 A 
ATOM     58  C   UNL A   1      42.069  35.157  28.810  1.00  0.00     0.010 A 
ATOM     59  C   UNL A   1      43.675  37.396  29.279  1.00  0.00     0.020 A 
ATOM     60  C   UNL A   1      41.841  36.335  28.093  1.00  0.00     0.020 A 
ATOM     61  C   UNL A   1      42.645  37.450  28.334  1.00  0.00     0.054 A 
BRANCH  61  62
ATOM     62  S   UNL A   1      42.418  38.974  27.375  1.00  0.00     0.124 S 
ATOM     63  O   UNL A   1      43.769  39.227  26.881  1.00  0.00    -0.237 OA
ATOM     64  O   UNL A   1      41.441  38.570  26.368  1.00  0.00    -0.237 OA
ATOM     65  O   UNL A   1      41.924  39.931  28.363  1.00  0.00    -0.744 OA
ENDBRANCH  61  62
ENDBRANCH  33  56
BRANCH  45  66
ATOM     66  C   UNL A   1      41.420  31.804  35.702  1.00  0.00    -0.014 A 
ATOM     67  C   UNL A   1      42.029  32.471  36.778  1.00  0.00     0.010 A 
ATOM     68  C   UNL A   1      40.026  31.614  35.703  1.00  0.00     0.010 A 
ATOM     69  C   UNL A   1      41.254  32.933  37.843  1.00  0.00     0.020 A 
ATOM     70  C   UNL A   1      39.246  32.101  36.750  1.00  0.00     0.020 A 
ATOM     71  C   UNL A   1      39.866  32.751  37.817  1.00  0.00     0.054 A 
BRANCH  71  72
ATOM     72  S   UNL A   1      38.875  33.434  39.171  1.00  0.00     0.124 S 
ATOM     73  O   UNL A   1      37.594  33.681  38.515  1.00  0.00    -0.237 OA
ATOM     74  O   UNL A   1      38.881  32.349  40.151  1.00  0.00    -0.237 OA
ATOM     75  O   UNL A   1      39.611  34.632  39.571  1.00  0.00    -0.744 OA
ENDBRANCH  71  72
ENDBRANCH  45  66
ENDBRANCH  19  20
ENDBRANCH  12  14
ENDBRANCH  11  12
ENDBRANCH  10  11
ENDBRANCH   9  10
ENDBRANCH   8   9
ENDBRANCH   6   8
ENDBRANCH   1   6
BRANCH   1  76
ATOM     76  N   UNL A   1      43.693  26.744  25.194  1.00  0.00    -0.341 N 
ATOM     77  C   UNL A   1      42.444  27.262  25.334  1.00  0.00     0.243 C 
ATOM     78  H   UNL A   1      44.200  27.236  24.510  1.00  0.00     0.164 HD
ATOM     79  O   UNL A   1      42.176  28.214  24.591  1.00  0.00    -0.273 OA
BRANCH  77  80
ATOM     80  C   UNL A   1      41.505  26.903  26.494  1.00  0.00     0.175 C 
BRANCH  80  81
ATOM     81  N   UNL A   1      40.590  28.018  26.733  1.00  0.00    -0.342 N 
ATOM     82  C   UNL A   1      39.748  28.468  27.681  1.00  0.00     0.240 C 
ATOM     83  H   UNL A   1      40.589  28.628  25.960  1.00  0.00     0.164 HD
ATOM     84  O   UNL A   1      39.229  29.573  27.488  1.00  0.00    -0.273 OA
BRANCH  82  85
ATOM     85  C   UNL A   1      39.380  27.666  28.895  1.00  0.00     0.216 C 
BRANCH  85  86
ATOM     86  N   UNL A   1      40.319  28.007  29.935  1.00  0.00    -0.346 N 
ATOM     87  C   UNL A   1      40.086  28.102  31.271  1.00  0.00     0.239 C 
ATOM     88  H   UNL A   1      41.241  28.192  29.643  1.00  0.00     0.164 HD
ATOM     89  O   UNL A   1      40.991  28.520  31.994  1.00  0.00    -0.273 OA
BRANCH  87  90
ATOM     90  C   UNL A   1      38.718  27.693  31.830  1.00  0.00     0.219 C 
BRANCH  90  91
ATOM     91  N   UNL A   1      38.300  28.552  32.919  1.00  0.00    -0.312 N 
ATOM     92  C   UNL A   1      37.433  29.601  32.863  1.00  0.00     0.407 C 
ATOM     93  H   UNL A   1      38.689  28.355  33.801  1.00  0.00     0.167 HD
ATOM     94  O   UNL A   1      37.351  30.379  33.805  1.00  0.00    -0.225 OA
BRANCH  92  95
ATOM     95  O   UNL A   1      36.776  29.718  31.685  1.00  0.00    -0.445 OA
BRANCH  95  96
ATOM     96  C   UNL A   1      36.261  31.036  31.399  1.00  0.00     0.270 C 
BRANCH  96  97
ATOM     97  C   UNL A   1      37.226  32.053  30.839  1.00  0.00    -0.011 A 
ATOM     98  C   UNL A   1      36.725  33.270  30.347  1.00  0.00     0.007 A 
ATOM     99  C   UNL A   1      38.598  31.812  30.739  1.00  0.00     0.007 A 
ATOM    100  C   UNL A   1      37.544  34.164  29.659  1.00  0.00     0.000 A 
ATOM    101  C   UNL A   1      39.424  32.712  30.063  1.00  0.00     0.000 A 
ATOM    102  C   UNL A   1      38.893  33.874  29.502  1.00  0.00     0.000 A 
ENDBRANCH  96  97
ENDBRANCH  95  96
ENDBRANCH  92  95
ENDBRANCH  90  91
ENDBRANCH  87  90
ENDBRANCH  85  86
ENDBRANCH  82  85
ENDBRANCH  80  81
BRANCH  80 103
ATOM    103  C   UNL A   1      40.769  25.623  26.025  1.00  0.00     0.070 C 
BRANCH 103 104
ATOM    104  C   UNL A   1      40.975  24.384  26.857  1.00  0.00    -0.045 A 
ATOM    105  C   UNL A   1      41.728  24.423  28.039  1.00  0.00     0.004 A 
ATOM    106  C   UNL A   1      40.499  23.154  26.394  1.00  0.00     0.004 A 
ATOM    107  C   UNL A   1      42.013  23.243  28.731  1.00  0.00     0.000 A 
ATOM    108  C   UNL A   1      40.771  21.981  27.094  1.00  0.00     0.000 A 
ATOM    109  C   UNL A   1      41.534  22.023  28.257  1.00  0.00     0.000 A 
ENDBRANCH 103 104
ENDBRANCH  80 103
ENDBRANCH  77  80
ENDBRANCH   1  76
TORSDOF 28
ENDMDL
