MODEL 1
REMARK VINA RESULT:     -11.6      0.000      0.000
REMARK SMILES O=C(OCCOC(=O)[C@@H](Cc1ccccc1)N1C(=O)/C(=C/c2ccncc2)SC1=S)c1ccc(-c2c3nc(c(-c4ccc(S(=O)(=O)[O-])cc4)c4ccc([nH]4)c(-c4ccc(S(=O)(=O)[O-])cc4)c4nc(c(-c5ccc(S(=O)(=O)[O-])cc5)c5ccc2[nH]5)C=C4)C=C3)cc1
REMARK SMILES IDX 4 1 3 2 2 3 1 4 31 5 32 6 90 7 33 8 89 9 34 10 35 11 36 12
REMARK SMILES IDX 83 13 37 14 88 15 82 16 84 17 38 18 87 19 81 20 80 21 39 23
REMARK SMILES IDX 69 24 50 25 68 26 51 27 54 28 67 29 85 30 52 31 53 32 66 34
REMARK SMILES IDX 86 35 55 36 40 37 41 38 49 39 42 40 48 41 43 42 44 43 45 44
REMARK SMILES IDX 46 45 47 46 70 47 71 48 79 49 72 50 78 51 73 52 74 53 75 54
REMARK SMILES IDX 76 55 77 56 56 57 57 58 65 59 58 60 64 61 59 62 60 63 61 64
REMARK SMILES IDX 62 65 63 66 5 67 6 68 7 69 8 70 9 71 10 72 11 73 12 74 16 75
REMARK SMILES IDX 13 76 15 77 14 78 17 79 18 80 29 81 19 82 20 83 28 84 30 85
REMARK SMILES IDX 21 86 22 87 23 88 27 89 24 90 26 91 25 92
REMARK H PARENT 84 22 54 33
REMARK Flexibility Score: inf
ROOT
ATOM      1  C   UNL A   1      33.417  27.860  26.789  1.00  0.00     0.275 C 
ENDROOT
BRANCH   1   2
ATOM      2  O   UNL A   1      34.122  29.085  26.546  1.00  0.00    -0.458 OA
BRANCH   2   3
ATOM      3  C   UNL A   1      34.608  29.943  27.472  1.00  0.00     0.338 C 
ATOM      4  O   UNL A   1      33.941  30.937  27.755  1.00  0.00    -0.246 OA
BRANCH   3   5
ATOM      5  C   UNL A   1      35.948  29.826  28.131  1.00  0.00     0.060 A 
ATOM      6  C   UNL A   1      36.186  29.427  29.823  1.00  0.00     0.016 A 
ATOM      7  C   UNL A   1      37.293  29.843  26.948  1.00  0.00     0.016 A 
ATOM      8  C   UNL A   1      37.813  28.960  30.375  1.00  0.00     0.010 A 
ATOM      9  C   UNL A   1      38.940  29.358  27.336  1.00  0.00     0.010 A 
ATOM     10  C   UNL A   1      39.345  28.911  29.044  1.00  0.00    -0.014 A 
BRANCH  10  11
ATOM     11  C   UNL A   1      40.906  28.710  29.012  1.00  0.00     0.031 A 
ATOM     12  C   UNL A   1      41.378  27.352  28.571  1.00  0.00     0.074 A 
ATOM     13  C   UNL A   1      41.822  29.666  29.302  1.00  0.00     0.049 A 
ATOM     14  N   UNL A   1      42.435  27.039  27.880  1.00  0.00    -0.248 NA
ATOM     15  C   UNL A   1      40.536  26.193  28.927  1.00  0.00     0.031 C 
ATOM     16  C   UNL A   1      41.586  30.913  30.024  1.00  0.00     0.029 A 
ATOM     17  N   UNL A   1      43.078  29.853  28.765  1.00  0.00    -0.354 N 
ATOM     18  C   UNL A   1      42.340  25.670  27.671  1.00  0.00     0.074 A 
ATOM     19  C   UNL A   1      41.150  25.197  28.320  1.00  0.00     0.031 C 
ATOM     20  C   UNL A   1      42.464  31.841  29.610  1.00  0.00     0.029 A 
ATOM     21  C   UNL A   1      43.440  31.196  28.746  1.00  0.00     0.049 A 
ATOM     22  H   UNL A   1      43.650  29.124  28.435  1.00  0.00     0.167 HD
ATOM     23  C   UNL A   1      43.194  24.873  27.003  1.00  0.00     0.031 A 
ATOM     24  C   UNL A   1      44.439  31.818  28.082  1.00  0.00     0.031 A 
ATOM     25  C   UNL A   1      44.450  25.355  26.521  1.00  0.00     0.049 A 
ATOM     26  C   UNL A   1      45.402  30.918  27.365  1.00  0.00     0.074 A 
ATOM     27  C   UNL A   1      45.476  24.658  25.923  1.00  0.00     0.029 A 
ATOM     28  N   UNL A   1      44.865  26.675  26.652  1.00  0.00    -0.354 N 
ATOM     29  N   UNL A   1      45.284  29.637  27.103  1.00  0.00    -0.248 NA
ATOM     30  C   UNL A   1      46.667  31.520  26.933  1.00  0.00     0.031 C 
ATOM     31  C   UNL A   1      46.551  25.540  25.778  1.00  0.00     0.029 A 
ATOM     32  C   UNL A   1      46.149  26.808  26.176  1.00  0.00     0.049 A 
ATOM     33  H   UNL A   1      44.321  27.406  27.026  1.00  0.00     0.167 HD
ATOM     34  C   UNL A   1      46.474  29.267  26.501  1.00  0.00     0.074 A 
ATOM     35  C   UNL A   1      47.271  30.477  26.385  1.00  0.00     0.031 C 
ATOM     36  C   UNL A   1      46.889  28.041  26.102  1.00  0.00     0.031 A 
BRANCH  23  37
ATOM     37  C   UNL A   1      42.833  23.420  26.915  1.00  0.00    -0.014 A 
ATOM     38  C   UNL A   1      43.104  22.530  27.973  1.00  0.00     0.010 A 
ATOM     39  C   UNL A   1      42.284  22.925  25.722  1.00  0.00     0.010 A 
ATOM     40  C   UNL A   1      42.850  21.164  27.826  1.00  0.00     0.020 A 
ATOM     41  C   UNL A   1      42.000  21.567  25.583  1.00  0.00     0.020 A 
ATOM     42  C   UNL A   1      42.289  20.694  26.634  1.00  0.00     0.054 A 
BRANCH  42  43
ATOM     43  S   UNL A   1      41.907  18.928  26.492  1.00  0.00     0.124 S 
ATOM     44  O   UNL A   1      42.011  18.483  27.880  1.00  0.00    -0.237 OA
ATOM     45  O   UNL A   1      40.558  18.943  25.936  1.00  0.00    -0.237 OA
ATOM     46  O   UNL A   1      42.944  18.420  25.597  1.00  0.00    -0.744 OA
ENDBRANCH  42  43
ENDBRANCH  23  37
BRANCH  24  47
ATOM     47  C   UNL A   1      44.682  33.292  28.163  1.00  0.00    -0.014 A 
ATOM     48  C   UNL A   1      44.192  34.196  27.196  1.00  0.00     0.010 A 
ATOM     49  C   UNL A   1      45.510  33.796  29.180  1.00  0.00     0.010 A 
ATOM     50  C   UNL A   1      44.518  35.562  27.254  1.00  0.00     0.020 A 
ATOM     51  C   UNL A   1      45.828  35.153  29.246  1.00  0.00     0.020 A 
ATOM     52  C   UNL A   1      45.329  36.033  28.288  1.00  0.00     0.054 A 
BRANCH  52  53
ATOM     53  S   UNL A   1      45.741  37.801  28.370  1.00  0.00     0.124 S 
ATOM     54  O   UNL A   1      47.182  37.770  28.599  1.00  0.00    -0.237 OA
ATOM     55  O   UNL A   1      45.319  38.279  27.057  1.00  0.00    -0.237 OA
ATOM     56  O   UNL A   1      44.950  38.278  29.502  1.00  0.00    -0.744 OA
ENDBRANCH  52  53
ENDBRANCH  24  47
BRANCH  36  57
ATOM     57  C   UNL A   1      48.226  27.981  25.439  1.00  0.00    -0.014 A 
ATOM     58  C   UNL A   1      49.419  28.164  26.157  1.00  0.00     0.010 A 
ATOM     59  C   UNL A   1      48.266  27.696  24.064  1.00  0.00     0.010 A 
ATOM     60  C   UNL A   1      50.639  28.117  25.487  1.00  0.00     0.020 A 
ATOM     61  C   UNL A   1      49.484  27.597  23.405  1.00  0.00     0.020 A 
ATOM     62  C   UNL A   1      50.661  27.832  24.117  1.00  0.00     0.054 A 
BRANCH  62  63
ATOM     63  S   UNL A   1      52.257  27.750  23.275  1.00  0.00     0.124 S 
ATOM     64  O   UNL A   1      52.627  29.161  23.194  1.00  0.00    -0.237 OA
ATOM     65  O   UNL A   1      53.054  26.939  24.190  1.00  0.00    -0.237 OA
ATOM     66  O   UNL A   1      51.942  27.114  21.997  1.00  0.00    -0.744 OA
ENDBRANCH  62  63
ENDBRANCH  36  57
ENDBRANCH  10  11
ENDBRANCH   3   5
ENDBRANCH   2   3
ENDBRANCH   1   2
BRANCH   1  67
ATOM     67  C   UNL A   1      33.962  26.695  25.950  1.00  0.00     0.274 C 
BRANCH  67  68
ATOM     68  O   UNL A   1      33.147  25.520  26.111  1.00  0.00    -0.461 OA
BRANCH  68  69
ATOM     69  C   UNL A   1      31.857  25.502  25.704  1.00  0.00     0.329 C 
ATOM     70  O   UNL A   1      30.898  25.315  26.442  1.00  0.00    -0.250 OA
BRANCH  69  71
ATOM     71  C   UNL A   1      31.763  25.609  24.173  1.00  0.00     0.206 C 
BRANCH  71  72
ATOM     72  C   UNL A   1      31.250  24.353  23.417  1.00  0.00     0.073 C 
BRANCH  72  73
ATOM     73  C   UNL A   1      31.532  22.853  23.906  1.00  0.00    -0.045 A 
ATOM     74  C   UNL A   1      32.126  21.915  25.608  1.00  0.00     0.004 A 
ATOM     75  C   UNL A   1      31.629  21.858  22.391  1.00  0.00     0.004 A 
ATOM     76  C   UNL A   1      32.681  20.202  25.524  1.00  0.00     0.000 A 
ATOM     77  C   UNL A   1      32.215  20.193  22.463  1.00  0.00     0.000 A 
ATOM     78  C   UNL A   1      32.723  19.409  23.964  1.00  0.00     0.000 A 
ENDBRANCH  72  73
ENDBRANCH  71  72
BRANCH  71  79
ATOM     79  N   UNL A   1      31.382  26.900  23.580  1.00  0.00    -0.278 N 
ATOM     80  C   UNL A   1      30.065  27.315  23.788  1.00  0.00     0.267 C 
ATOM     81  C   UNL A   1      32.236  27.833  23.021  1.00  0.00     0.149 C 
ATOM     82  O   UNL A   1      29.175  26.661  24.314  1.00  0.00    -0.268 OA
ATOM     83  C   UNL A   1      29.873  28.697  23.295  1.00  0.00     0.081 C 
ATOM     84  S   UNL A   1      31.371  29.329  22.739  1.00  0.00    -0.054 SA
ATOM     85  S   UNL A   1      33.851  27.731  22.625  1.00  0.00    -0.052 S 
ATOM     86  C   UNL A   1      28.674  29.296  23.261  1.00  0.00     0.029 C 
BRANCH  86  87
ATOM     87  C   UNL A   1      28.410  30.550  22.542  1.00  0.00    -0.021 A 
ATOM     88  C   UNL A   1      28.536  31.765  23.223  1.00  0.00     0.028 A 
ATOM     89  C   UNL A   1      28.086  30.574  21.190  1.00  0.00     0.028 A 
ATOM     90  C   UNL A   1      28.274  32.942  22.557  1.00  0.00     0.111 A 
ATOM     91  C   UNL A   1      27.888  31.814  20.596  1.00  0.00     0.111 A 
ATOM     92  N   UNL A   1      27.995  32.991  21.250  1.00  0.00    -0.265 NA
ENDBRANCH  86  87
ENDBRANCH  71  79
ENDBRANCH  69  71
ENDBRANCH  68  69
ENDBRANCH  67  68
ENDBRANCH   1  67
TORSDOF 18
ENDMDL
MODEL 2
REMARK VINA RESULT:     -11.4      5.363      9.391
REMARK SMILES O=C(OCCOC(=O)[C@@H](Cc1ccccc1)N1C(=O)/C(=C/c2ccncc2)SC1=S)c1ccc(-c2c3nc(c(-c4ccc(S(=O)(=O)[O-])cc4)c4ccc([nH]4)c(-c4ccc(S(=O)(=O)[O-])cc4)c4nc(c(-c5ccc(S(=O)(=O)[O-])cc5)c5ccc2[nH]5)C=C4)C=C3)cc1
REMARK SMILES IDX 4 1 3 2 2 3 1 4 31 5 32 6 90 7 33 8 89 9 34 10 35 11 36 12
REMARK SMILES IDX 83 13 37 14 88 15 82 16 84 17 38 18 87 19 81 20 80 21 39 23
REMARK SMILES IDX 69 24 50 25 68 26 51 27 54 28 67 29 85 30 52 31 53 32 66 34
REMARK SMILES IDX 86 35 55 36 40 37 41 38 49 39 42 40 48 41 43 42 44 43 45 44
REMARK SMILES IDX 46 45 47 46 70 47 71 48 79 49 72 50 78 51 73 52 74 53 75 54
REMARK SMILES IDX 76 55 77 56 56 57 57 58 65 59 58 60 64 61 59 62 60 63 61 64
REMARK SMILES IDX 62 65 63 66 5 67 6 68 7 69 8 70 9 71 10 72 11 73 12 74 16 75
REMARK SMILES IDX 13 76 15 77 14 78 17 79 18 80 29 81 19 82 20 83 28 84 30 85
REMARK SMILES IDX 21 86 22 87 23 88 27 89 24 90 26 91 25 92
REMARK H PARENT 84 22 54 33
REMARK Flexibility Score: inf
ROOT
ATOM      1  C   UNL A   1      32.165  28.879  26.691  1.00  0.00     0.275 C 
ENDROOT
BRANCH   1   2
ATOM      2  O   UNL A   1      33.389  29.237  27.347  1.00  0.00    -0.458 OA
BRANCH   2   3
ATOM      3  C   UNL A   1      33.882  30.484  27.527  1.00  0.00     0.338 C 
ATOM      4  O   UNL A   1      33.140  31.442  27.318  1.00  0.00    -0.246 OA
BRANCH   3   5
ATOM      5  C   UNL A   1      35.301  30.803  27.886  1.00  0.00     0.060 A 
ATOM      6  C   UNL A   1      35.946  32.429  28.014  1.00  0.00     0.016 A 
ATOM      7  C   UNL A   1      36.199  29.363  28.460  1.00  0.00     0.016 A 
ATOM      8  C   UNL A   1      37.526  32.668  28.802  1.00  0.00     0.010 A 
ATOM      9  C   UNL A   1      37.743  29.448  29.300  1.00  0.00     0.010 A 
ATOM     10  C   UNL A   1      38.538  31.060  29.518  1.00  0.00    -0.014 A 
BRANCH  10  11
ATOM     11  C   UNL A   1      39.937  30.700  30.144  1.00  0.00     0.031 A 
ATOM     12  C   UNL A   1      40.142  31.135  31.569  1.00  0.00     0.074 A 
ATOM     13  C   UNL A   1      40.918  30.006  29.517  1.00  0.00     0.049 A 
ATOM     14  N   UNL A   1      40.804  30.539  32.517  1.00  0.00    -0.248 NA
ATOM     15  C   UNL A   1      39.492  32.390  31.995  1.00  0.00     0.031 C 
ATOM     16  C   UNL A   1      41.041  29.769  28.081  1.00  0.00     0.029 A 
ATOM     17  N   UNL A   1      41.839  29.133  30.054  1.00  0.00    -0.354 N 
ATOM     18  C   UNL A   1      40.591  31.312  33.650  1.00  0.00     0.074 A 
ATOM     19  C   UNL A   1      39.768  32.430  33.284  1.00  0.00     0.031 C 
ATOM     20  C   UNL A   1      41.691  28.613  27.874  1.00  0.00     0.029 A 
ATOM     21  C   UNL A   1      42.198  28.137  29.152  1.00  0.00     0.049 A 
ATOM     22  H   UNL A   1      42.200  29.205  30.967  1.00  0.00     0.167 HD
ATOM     23  C   UNL A   1      41.066  31.108  34.894  1.00  0.00     0.031 A 
ATOM     24  C   UNL A   1      42.846  26.970  29.358  1.00  0.00     0.031 A 
ATOM     25  C   UNL A   1      42.019  30.081  35.174  1.00  0.00     0.049 A 
ATOM     26  C   UNL A   1      43.396  26.765  30.739  1.00  0.00     0.074 A 
ATOM     27  C   UNL A   1      42.681  29.810  36.351  1.00  0.00     0.029 A 
ATOM     28  N   UNL A   1      42.488  29.189  34.217  1.00  0.00    -0.354 N 
ATOM     29  N   UNL A   1      43.142  27.451  31.829  1.00  0.00    -0.248 NA
ATOM     30  C   UNL A   1      44.381  25.693  30.902  1.00  0.00     0.031 C 
ATOM     31  C   UNL A   1      43.621  28.813  36.080  1.00  0.00     0.029 A 
ATOM     32  C   UNL A   1      43.460  28.386  34.768  1.00  0.00     0.049 A 
ATOM     33  H   UNL A   1      42.171  29.138  33.286  1.00  0.00     0.167 HD
ATOM     34  C   UNL A   1      43.962  26.915  32.807  1.00  0.00     0.074 A 
ATOM     35  C   UNL A   1      44.672  25.808  32.190  1.00  0.00     0.031 C 
ATOM     36  C   UNL A   1      44.136  27.310  34.092  1.00  0.00     0.031 A 
BRANCH  23  37
ATOM     37  C   UNL A   1      40.659  32.100  35.941  1.00  0.00    -0.014 A 
ATOM     38  C   UNL A   1      41.515  33.148  36.334  1.00  0.00     0.010 A 
ATOM     39  C   UNL A   1      39.430  31.932  36.599  1.00  0.00     0.010 A 
ATOM     40  C   UNL A   1      41.154  33.997  37.383  1.00  0.00     0.020 A 
ATOM     41  C   UNL A   1      39.052  32.797  37.626  1.00  0.00     0.020 A 
ATOM     42  C   UNL A   1      39.919  33.821  38.015  1.00  0.00     0.054 A 
BRANCH  42  43
ATOM     43  S   UNL A   1      39.444  34.976  39.328  1.00  0.00     0.124 S 
ATOM     44  O   UNL A   1      40.654  35.021  40.145  1.00  0.00    -0.237 OA
ATOM     45  O   UNL A   1      39.144  36.194  38.581  1.00  0.00    -0.237 OA
ATOM     46  O   UNL A   1      38.293  34.333  39.956  1.00  0.00    -0.744 OA
ENDBRANCH  42  43
ENDBRANCH  23  37
BRANCH  24  47
ATOM     47  C   UNL A   1      43.143  25.994  28.263  1.00  0.00    -0.014 A 
ATOM     48  C   UNL A   1      42.369  24.833  28.050  1.00  0.00     0.010 A 
ATOM     49  C   UNL A   1      44.290  26.178  27.473  1.00  0.00     0.010 A 
ATOM     50  C   UNL A   1      42.733  23.892  27.071  1.00  0.00     0.020 A 
ATOM     51  C   UNL A   1      44.649  25.250  26.493  1.00  0.00     0.020 A 
ATOM     52  C   UNL A   1      43.869  24.114  26.292  1.00  0.00     0.054 A 
BRANCH  52  53
ATOM     53  S   UNL A   1      44.333  22.903  25.017  1.00  0.00     0.124 S 
ATOM     54  O   UNL A   1      45.219  23.684  24.161  1.00  0.00    -0.237 OA
ATOM     55  O   UNL A   1      44.976  21.856  25.805  1.00  0.00    -0.237 OA
ATOM     56  O   UNL A   1      43.053  22.545  24.412  1.00  0.00    -0.744 OA
ENDBRANCH  52  53
ENDBRANCH  24  47
BRANCH  36  57
ATOM     57  C   UNL A   1      45.072  26.485  34.913  1.00  0.00    -0.014 A 
ATOM     58  C   UNL A   1      44.651  25.319  35.571  1.00  0.00     0.010 A 
ATOM     59  C   UNL A   1      46.415  26.891  34.985  1.00  0.00     0.010 A 
ATOM     60  C   UNL A   1      45.560  24.597  36.340  1.00  0.00     0.020 A 
ATOM     61  C   UNL A   1      47.334  26.144  35.709  1.00  0.00     0.020 A 
ATOM     62  C   UNL A   1      46.895  25.015  36.401  1.00  0.00     0.054 A 
BRANCH  62  63
ATOM     63  S   UNL A   1      48.061  24.047  37.383  1.00  0.00     0.124 S 
ATOM     64  O   UNL A   1      47.204  23.536  38.451  1.00  0.00    -0.237 OA
ATOM     65  O   UNL A   1      48.534  23.054  36.423  1.00  0.00    -0.237 OA
ATOM     66  O   UNL A   1      49.059  25.029  37.802  1.00  0.00    -0.744 OA
ENDBRANCH  62  63
ENDBRANCH  36  57
ENDBRANCH  10  11
ENDBRANCH   3   5
ENDBRANCH   2   3
ENDBRANCH   1   2
BRANCH   1  67
ATOM     67  C   UNL A   1      31.552  27.590  27.259  1.00  0.00     0.274 C 
BRANCH  67  68
ATOM     68  O   UNL A   1      32.072  26.431  26.582  1.00  0.00    -0.461 OA
BRANCH  68  69
ATOM     69  C   UNL A   1      31.246  25.542  25.985  1.00  0.00     0.329 C 
ATOM     70  O   UNL A   1      30.574  24.709  26.579  1.00  0.00    -0.250 OA
BRANCH  69  71
ATOM     71  C   UNL A   1      31.368  25.622  24.454  1.00  0.00     0.206 C 
BRANCH  71  72
ATOM     72  C   UNL A   1      30.992  24.343  23.657  1.00  0.00     0.073 C 
BRANCH  72  73
ATOM     73  C   UNL A   1      31.428  22.867  24.101  1.00  0.00    -0.045 A 
ATOM     74  C   UNL A   1      32.176  21.956  25.756  1.00  0.00     0.004 A 
ATOM     75  C   UNL A   1      31.551  21.913  22.561  1.00  0.00     0.004 A 
ATOM     76  C   UNL A   1      32.879  20.302  25.612  1.00  0.00     0.000 A 
ATOM     77  C   UNL A   1      32.288  20.307  22.573  1.00  0.00     0.000 A 
ATOM     78  C   UNL A   1      32.928  19.545  24.034  1.00  0.00     0.000 A 
ENDBRANCH  72  73
ENDBRANCH  71  72
BRANCH  71  79
ATOM     79  N   UNL A   1      31.052  26.895  23.788  1.00  0.00    -0.278 N 
ATOM     80  C   UNL A   1      29.728  27.328  23.873  1.00  0.00     0.267 C 
ATOM     81  C   UNL A   1      31.960  27.800  23.270  1.00  0.00     0.149 C 
ATOM     82  O   UNL A   1      28.790  26.700  24.346  1.00  0.00    -0.268 OA
ATOM     83  C   UNL A   1      29.593  28.694  23.319  1.00  0.00     0.081 C 
ATOM     84  S   UNL A   1      31.138  29.293  22.868  1.00  0.00    -0.054 SA
ATOM     85  S   UNL A   1      33.600  27.672  23.013  1.00  0.00    -0.052 S 
ATOM     86  C   UNL A   1      28.407  29.301  23.167  1.00  0.00     0.029 C 
BRANCH  86  87
ATOM     87  C   UNL A   1      28.218  30.532  22.387  1.00  0.00    -0.021 A 
ATOM     88  C   UNL A   1      28.284  31.768  23.038  1.00  0.00     0.028 A 
ATOM     89  C   UNL A   1      28.023  30.513  21.009  1.00  0.00     0.028 A 
ATOM     90  C   UNL A   1      28.090  32.923  22.312  1.00  0.00     0.111 A 
ATOM     91  C   UNL A   1      27.886  31.733  20.361  1.00  0.00     0.111 A 
ATOM     92  N   UNL A   1      27.937  32.931  20.984  1.00  0.00    -0.265 NA
ENDBRANCH  86  87
ENDBRANCH  71  79
ENDBRANCH  69  71
ENDBRANCH  68  69
ENDBRANCH  67  68
ENDBRANCH   1  67
TORSDOF 18
ENDMDL
MODEL 3
REMARK VINA RESULT:     -11.4      2.093      5.239
REMARK SMILES O=C(OCCOC(=O)[C@@H](Cc1ccccc1)N1C(=O)/C(=C/c2ccncc2)SC1=S)c1ccc(-c2c3nc(c(-c4ccc(S(=O)(=O)[O-])cc4)c4ccc([nH]4)c(-c4ccc(S(=O)(=O)[O-])cc4)c4nc(c(-c5ccc(S(=O)(=O)[O-])cc5)c5ccc2[nH]5)C=C4)C=C3)cc1
REMARK SMILES IDX 4 1 3 2 2 3 1 4 31 5 32 6 90 7 33 8 89 9 34 10 35 11 36 12
REMARK SMILES IDX 83 13 37 14 88 15 82 16 84 17 38 18 87 19 81 20 80 21 39 23
REMARK SMILES IDX 69 24 50 25 68 26 51 27 54 28 67 29 85 30 52 31 53 32 66 34
REMARK SMILES IDX 86 35 55 36 40 37 41 38 49 39 42 40 48 41 43 42 44 43 45 44
REMARK SMILES IDX 46 45 47 46 70 47 71 48 79 49 72 50 78 51 73 52 74 53 75 54
REMARK SMILES IDX 76 55 77 56 56 57 57 58 65 59 58 60 64 61 59 62 60 63 61 64
REMARK SMILES IDX 62 65 63 66 5 67 6 68 7 69 8 70 9 71 10 72 11 73 12 74 16 75
REMARK SMILES IDX 13 76 15 77 14 78 17 79 18 80 29 81 19 82 20 83 28 84 30 85
REMARK SMILES IDX 21 86 22 87 23 88 27 89 24 90 26 91 25 92
REMARK H PARENT 84 22 54 33
REMARK Flexibility Score: inf
ROOT
ATOM      1  C   UNL A   1      33.920  28.233  25.708  1.00  0.00     0.275 C 
ENDROOT
BRANCH   1   2
ATOM      2  O   UNL A   1      34.026  28.751  27.041  1.00  0.00    -0.458 OA
BRANCH   2   3
ATOM      3  C   UNL A   1      34.733  29.833  27.440  1.00  0.00     0.338 C 
ATOM      4  O   UNL A   1      34.302  30.949  27.159  1.00  0.00    -0.246 OA
BRANCH   3   5
ATOM      5  C   UNL A   1      36.060  29.783  28.135  1.00  0.00     0.060 A 
ATOM      6  C   UNL A   1      36.262  29.553  29.863  1.00  0.00     0.016 A 
ATOM      7  C   UNL A   1      37.428  29.684  26.985  1.00  0.00     0.016 A 
ATOM      8  C   UNL A   1      37.877  29.145  30.492  1.00  0.00     0.010 A 
ATOM      9  C   UNL A   1      39.066  29.241  27.452  1.00  0.00     0.010 A 
ATOM     10  C   UNL A   1      39.435  28.966  29.204  1.00  0.00    -0.014 A 
BRANCH  10  11
ATOM     11  C   UNL A   1      40.997  28.764  29.224  1.00  0.00     0.031 A 
ATOM     12  C   UNL A   1      41.487  27.433  28.725  1.00  0.00     0.074 A 
ATOM     13  C   UNL A   1      41.900  29.700  29.607  1.00  0.00     0.049 A 
ATOM     14  N   UNL A   1      42.572  27.159  28.061  1.00  0.00    -0.248 NA
ATOM     15  C   UNL A   1      40.632  26.257  28.978  1.00  0.00     0.031 C 
ATOM     16  C   UNL A   1      41.634  30.903  30.391  1.00  0.00     0.029 A 
ATOM     17  N   UNL A   1      43.176  29.916  29.134  1.00  0.00    -0.354 N 
ATOM     18  C   UNL A   1      42.486  25.805  27.769  1.00  0.00     0.074 A 
ATOM     19  C   UNL A   1      41.271  25.297  28.339  1.00  0.00     0.031 C 
ATOM     20  C   UNL A   1      42.527  31.853  30.067  1.00  0.00     0.029 A 
ATOM     21  C   UNL A   1      43.538  31.257  29.207  1.00  0.00     0.049 A 
ATOM     22  H   UNL A   1      43.762  29.206  28.785  1.00  0.00     0.167 HD
ATOM     23  C   UNL A   1      43.368  25.046  27.090  1.00  0.00     0.031 A 
ATOM     24  C   UNL A   1      44.563  31.914  28.623  1.00  0.00     0.031 A 
ATOM     25  C   UNL A   1      44.642  25.554  26.689  1.00  0.00     0.049 A 
ATOM     26  C   UNL A   1      45.555  31.057  27.894  1.00  0.00     0.074 A 
ATOM     27  C   UNL A   1      45.692  24.891  26.094  1.00  0.00     0.029 A 
ATOM     28  N   UNL A   1      45.050  26.863  26.913  1.00  0.00    -0.354 N 
ATOM     29  N   UNL A   1      45.448  29.793  27.553  1.00  0.00    -0.248 NA
ATOM     30  C   UNL A   1      46.836  31.681  27.551  1.00  0.00     0.031 C 
ATOM     31  C   UNL A   1      46.771  25.778  26.045  1.00  0.00     0.029 A 
ATOM     32  C   UNL A   1      46.353  27.021  26.500  1.00  0.00     0.049 A 
ATOM     33  H   UNL A   1      44.491  27.572  27.307  1.00  0.00     0.167 HD
ATOM     34  C   UNL A   1      46.663  29.457  26.981  1.00  0.00     0.074 A 
ATOM     35  C   UNL A   1      47.463  30.670  26.967  1.00  0.00     0.031 C 
ATOM     36  C   UNL A   1      47.094  28.255  26.528  1.00  0.00     0.031 A 
BRANCH  23  37
ATOM     37  C   UNL A   1      43.011  23.602  26.903  1.00  0.00    -0.014 A 
ATOM     38  C   UNL A   1      42.573  23.108  25.659  1.00  0.00     0.010 A 
ATOM     39  C   UNL A   1      43.040  22.743  28.013  1.00  0.00     0.010 A 
ATOM     40  C   UNL A   1      42.151  21.782  25.536  1.00  0.00     0.020 A 
ATOM     41  C   UNL A   1      42.649  21.411  27.888  1.00  0.00     0.020 A 
ATOM     42  C   UNL A   1      42.201  20.940  26.651  1.00  0.00     0.054 A 
BRANCH  42  43
ATOM     43  S   UNL A   1      41.711  19.207  26.452  1.00  0.00     0.124 S 
ATOM     44  O   UNL A   1      40.328  19.333  25.999  1.00  0.00    -0.237 OA
ATOM     45  O   UNL A   1      42.659  18.726  25.451  1.00  0.00    -0.237 OA
ATOM     46  O   UNL A   1      41.879  18.643  27.788  1.00  0.00    -0.744 OA
ENDBRANCH  42  43
ENDBRANCH  23  37
BRANCH  24  47
ATOM     47  C   UNL A   1      44.801  33.381  28.799  1.00  0.00    -0.014 A 
ATOM     48  C   UNL A   1      45.510  33.908  29.900  1.00  0.00     0.010 A 
ATOM     49  C   UNL A   1      44.219  34.284  27.894  1.00  0.00     0.010 A 
ATOM     50  C   UNL A   1      45.634  35.296  30.081  1.00  0.00     0.020 A 
ATOM     51  C   UNL A   1      44.348  35.664  28.065  1.00  0.00     0.020 A 
ATOM     52  C   UNL A   1      45.058  36.166  29.153  1.00  0.00     0.054 A 
BRANCH  52  53
ATOM     53  S   UNL A   1      45.229  37.961  29.380  1.00  0.00     0.124 S 
ATOM     54  O   UNL A   1      45.993  38.349  28.199  1.00  0.00    -0.237 OA
ATOM     55  O   UNL A   1      43.838  38.404  29.407  1.00  0.00    -0.237 OA
ATOM     56  O   UNL A   1      45.954  38.072  30.644  1.00  0.00    -0.744 OA
ENDBRANCH  52  53
ENDBRANCH  24  47
BRANCH  36  57
ATOM     57  C   UNL A   1      48.457  28.231  25.918  1.00  0.00    -0.014 A 
ATOM     58  C   UNL A   1      49.610  28.520  26.666  1.00  0.00     0.010 A 
ATOM     59  C   UNL A   1      48.566  27.872  24.564  1.00  0.00     0.010 A 
ATOM     60  C   UNL A   1      50.856  28.503  26.044  1.00  0.00     0.020 A 
ATOM     61  C   UNL A   1      49.812  27.804  23.956  1.00  0.00     0.020 A 
ATOM     62  C   UNL A   1      50.946  28.143  24.694  1.00  0.00     0.054 A 
BRANCH  62  63
ATOM     63  S   UNL A   1      52.576  28.101  23.917  1.00  0.00     0.124 S 
ATOM     64  O   UNL A   1      52.742  29.488  23.491  1.00  0.00    -0.237 OA
ATOM     65  O   UNL A   1      53.438  27.669  25.013  1.00  0.00    -0.237 OA
ATOM     66  O   UNL A   1      52.418  27.132  22.834  1.00  0.00    -0.744 OA
ENDBRANCH  62  63
ENDBRANCH  36  57
ENDBRANCH  10  11
ENDBRANCH   3   5
ENDBRANCH   2   3
ENDBRANCH   1   2
BRANCH   1  67
ATOM     67  C   UNL A   1      33.670  26.717  25.687  1.00  0.00     0.274 C 
BRANCH  67  68
ATOM     68  O   UNL A   1      34.367  26.096  24.591  1.00  0.00    -0.461 OA
BRANCH  68  69
ATOM     69  C   UNL A   1      33.731  25.249  23.749  1.00  0.00     0.329 C 
ATOM     70  O   UNL A   1      33.897  25.220  22.537  1.00  0.00    -0.250 OA
BRANCH  69  71
ATOM     71  C   UNL A   1      32.672  24.423  24.498  1.00  0.00     0.206 C 
BRANCH  71  72
ATOM     72  C   UNL A   1      31.186  24.760  24.198  1.00  0.00     0.073 C 
BRANCH  72  73
ATOM     73  C   UNL A   1      30.715  26.117  23.489  1.00  0.00    -0.045 A 
ATOM     74  C   UNL A   1      31.581  27.767  22.678  1.00  0.00     0.004 A 
ATOM     75  C   UNL A   1      28.941  26.263  23.850  1.00  0.00     0.004 A 
ATOM     76  C   UNL A   1      30.572  29.225  22.355  1.00  0.00     0.000 A 
ATOM     77  C   UNL A   1      28.089  27.770  23.496  1.00  0.00     0.000 A 
ATOM     78  C   UNL A   1      28.876  29.185  22.788  1.00  0.00     0.000 A 
ENDBRANCH  72  73
ENDBRANCH  71  72
BRANCH  71  79
ATOM     79  N   UNL A   1      32.953  23.006  24.778  1.00  0.00    -0.278 N 
ATOM     80  C   UNL A   1      32.486  22.083  23.840  1.00  0.00     0.267 C 
ATOM     81  C   UNL A   1      33.800  22.512  25.752  1.00  0.00     0.149 C 
ATOM     82  O   UNL A   1      31.773  22.329  22.876  1.00  0.00    -0.268 OA
ATOM     83  C   UNL A   1      32.988  20.727  24.152  1.00  0.00     0.081 C 
ATOM     84  S   UNL A   1      34.053  20.799  25.499  1.00  0.00    -0.054 SA
ATOM     85  S   UNL A   1      34.560  23.274  27.024  1.00  0.00    -0.052 S 
ATOM     86  C   UNL A   1      32.593  19.635  23.482  1.00  0.00     0.029 C 
BRANCH  86  87
ATOM     87  C   UNL A   1      32.865  18.262  23.932  1.00  0.00    -0.021 A 
ATOM     88  C   UNL A   1      33.804  17.492  23.239  1.00  0.00     0.028 A 
ATOM     89  C   UNL A   1      32.254  17.717  25.057  1.00  0.00     0.028 A 
ATOM     90  C   UNL A   1      34.049  16.199  23.647  1.00  0.00     0.111 A 
ATOM     91  C   UNL A   1      32.604  16.422  25.416  1.00  0.00     0.111 A 
ATOM     92  N   UNL A   1      33.501  15.667  24.745  1.00  0.00    -0.265 NA
ENDBRANCH  86  87
ENDBRANCH  71  79
ENDBRANCH  69  71
ENDBRANCH  68  69
ENDBRANCH  67  68
ENDBRANCH   1  67
TORSDOF 18
ENDMDL
