MODEL 1
REMARK VINA RESULT:     -11.3      0.000      0.000
REMARK SMILES [NH3+][C@@]1(C(=O)OCCOC(=O)c2ccc(-c3c4nc(c(-c5ccc(S(=O)(=O)[O-])cc5)c5ccc([nH]5)c(-c5ccc(S(=O)(=O)[O-])cc5)c5nc(c(-c6ccc(S(=O)(=O)[O-])cc6)c6ccc3[nH]6)C=C5)C=C4)cc2)CCC[C@@H](Oc2ccccc2[N+](=O)[O-])C1
REMARK SMILES IDX 6 1 5 2 3 3 4 4 2 5 71 6 85 7 72 8 74 9 73 10 1 11 75 15
REMARK SMILES IDX 76 16 77 17 81 18 78 19 80 20 79 21 82 22 83 23 84 24 7 25
REMARK SMILES IDX 8 26 9 27 10 28 11 29 12 30 70 31 13 32 69 33 14 34 15 35
REMARK SMILES IDX 16 36 63 37 17 38 68 39 62 40 64 41 18 42 67 43 61 44 60 45
REMARK SMILES IDX 19 47 49 48 30 49 48 50 31 51 34 52 47 53 65 54 32 55 33 56
REMARK SMILES IDX 46 58 66 59 35 60 20 61 21 62 29 63 22 64 28 65 23 66 24 67
REMARK SMILES IDX 25 68 26 69 27 70 50 71 51 72 59 73 52 74 58 75 53 76 54 77
REMARK SMILES IDX 55 78 56 79 57 80 36 81 37 82 45 83 38 84 44 85 39 86 40 87
REMARK SMILES IDX 41 88 42 89 43 90
REMARK H PARENT 1 12 1 13 1 14 64 46 34 57
REMARK Flexibility Score: inf
ROOT
ATOM      1  C   UNL A   1      33.647  31.649  27.856  1.00  0.00     0.274 C 
ENDROOT
BRANCH   1   2
ATOM      2  O   UNL A   1      32.941  30.463  27.449  1.00  0.00    -0.457 OA
BRANCH   2   3
ATOM      3  C   UNL A   1      32.062  30.604  26.414  1.00  0.00     0.368 C 
ATOM      4  O   UNL A   1      31.358  31.595  26.247  1.00  0.00    -0.245 OA
BRANCH   3   5
ATOM      5  C   UNL A   1      32.013  29.336  25.493  1.00  0.00     0.196 C 
ATOM      6  C   UNL A   1      30.889  29.394  24.447  1.00  0.00     0.081 C 
ATOM      7  C   UNL A   1      31.735  28.133  26.430  1.00  0.00     0.126 C 
ATOM      8  C   UNL A   1      30.760  28.098  23.637  1.00  0.00     0.011 C 
ATOM      9  C   UNL A   1      31.393  26.786  25.783  1.00  0.00     0.180 C 
ATOM     10  C   UNL A   1      30.511  26.879  24.526  1.00  0.00     0.046 C 
BRANCH   5  11
ATOM     11  N   UNL A   1      33.292  29.275  24.764  1.00  0.00    -0.343 N 
ATOM     12  H   UNL A   1      33.168  28.738  23.906  1.00  0.00     0.345 HD
ATOM     13  H   UNL A   1      33.995  28.824  25.349  1.00  0.00     0.345 HD
ATOM     14  H   UNL A   1      33.597  30.220  24.532  1.00  0.00     0.345 HD
ENDBRANCH   5  11
BRANCH   9  15
ATOM     15  O   UNL A   1      32.467  25.821  25.736  1.00  0.00    -0.483 OA
BRANCH  15  16
ATOM     16  C   UNL A   1      32.274  24.687  25.015  1.00  0.00     0.197 A 
ATOM     17  C   UNL A   1      32.672  24.669  23.677  1.00  0.00     0.054 A 
ATOM     18  C   UNL A   1      31.638  23.556  25.538  1.00  0.00     0.310 A 
ATOM     19  C   UNL A   1      32.564  23.497  22.923  1.00  0.00     0.004 A 
ATOM     20  C   UNL A   1      31.537  22.370  24.794  1.00  0.00     0.090 A 
ATOM     21  C   UNL A   1      32.020  22.343  23.488  1.00  0.00     0.007 A 
BRANCH  18  22
ATOM     22  N   UNL A   1      31.167  23.526  26.909  1.00  0.00     0.066 N 
ATOM     23  O   UNL A   1      31.970  23.106  27.758  1.00  0.00    -0.258 OA
ATOM     24  O   UNL A   1      30.005  23.884  27.135  1.00  0.00    -0.258 OA
ENDBRANCH  18  22
ENDBRANCH  15  16
ENDBRANCH   9  15
ENDBRANCH   3   5
ENDBRANCH   2   3
ENDBRANCH   1   2
BRANCH   1  25
ATOM     25  C   UNL A   1      35.151  31.414  27.788  1.00  0.00     0.275 C 
BRANCH  25  26
ATOM     26  O   UNL A   1      35.462  30.176  28.449  1.00  0.00    -0.458 OA
BRANCH  26  27
ATOM     27  C   UNL A   1      36.292  30.264  29.513  1.00  0.00     0.338 C 
ATOM     28  O   UNL A   1      36.040  30.706  30.619  1.00  0.00    -0.246 OA
BRANCH  27  29
ATOM     29  C   UNL A   1      37.595  29.677  29.157  1.00  0.00     0.060 A 
ATOM     30  C   UNL A   1      38.400  29.161  30.165  1.00  0.00     0.016 A 
ATOM     31  C   UNL A   1      38.081  29.757  27.856  1.00  0.00     0.016 A 
ATOM     32  C   UNL A   1      39.725  28.830  29.917  1.00  0.00     0.010 A 
ATOM     33  C   UNL A   1      39.378  29.301  27.579  1.00  0.00     0.010 A 
ATOM     34  C   UNL A   1      40.227  28.868  28.613  1.00  0.00    -0.014 A 
BRANCH  34  35
ATOM     35  C   UNL A   1      41.645  28.492  28.362  1.00  0.00     0.031 A 
ATOM     36  C   UNL A   1      42.736  29.518  28.514  1.00  0.00     0.074 A 
ATOM     37  C   UNL A   1      41.966  27.220  28.046  1.00  0.00     0.049 A 
ATOM     38  N   UNL A   1      43.999  29.435  28.181  1.00  0.00    -0.248 NA
ATOM     39  C   UNL A   1      42.358  30.811  29.109  1.00  0.00     0.031 C 
ATOM     40  C   UNL A   1      41.020  26.105  27.932  1.00  0.00     0.029 A 
ATOM     41  N   UNL A   1      43.183  26.639  27.788  1.00  0.00    -0.354 N 
ATOM     42  C   UNL A   1      44.546  30.683  28.455  1.00  0.00     0.074 A 
ATOM     43  C   UNL A   1      43.483  31.502  28.996  1.00  0.00     0.031 C 
ATOM     44  C   UNL A   1      41.696  24.972  27.692  1.00  0.00     0.029 A 
ATOM     45  C   UNL A   1      43.107  25.292  27.527  1.00  0.00     0.049 A 
ATOM     46  H   UNL A   1      44.029  27.142  27.789  1.00  0.00     0.167 HD
ATOM     47  C   UNL A   1      45.817  31.110  28.259  1.00  0.00     0.031 A 
ATOM     48  C   UNL A   1      44.056  24.414  27.149  1.00  0.00     0.031 A 
ATOM     49  C   UNL A   1      46.879  30.275  27.761  1.00  0.00     0.049 A 
ATOM     50  C   UNL A   1      45.453  24.912  26.923  1.00  0.00     0.074 A 
ATOM     51  C   UNL A   1      48.196  30.614  27.503  1.00  0.00     0.029 A 
ATOM     52  N   UNL A   1      46.749  28.926  27.467  1.00  0.00    -0.354 N 
ATOM     53  N   UNL A   1      45.929  26.124  27.086  1.00  0.00    -0.248 NA
ATOM     54  C   UNL A   1      46.433  23.933  26.437  1.00  0.00     0.031 C 
ATOM     55  C   UNL A   1      48.855  29.474  27.025  1.00  0.00     0.029 A 
ATOM     56  C   UNL A   1      47.959  28.418  27.026  1.00  0.00     0.049 A 
ATOM     57  H   UNL A   1      45.918  28.406  27.559  1.00  0.00     0.167 HD
ATOM     58  C   UNL A   1      47.265  26.055  26.712  1.00  0.00     0.074 A 
ATOM     59  C   UNL A   1      47.529  24.674  26.352  1.00  0.00     0.031 C 
ATOM     60  C   UNL A   1      48.190  27.045  26.657  1.00  0.00     0.031 A 
BRANCH  47  61
ATOM     61  C   UNL A   1      46.107  32.563  28.527  1.00  0.00    -0.014 A 
ATOM     62  C   UNL A   1      45.901  33.550  27.548  1.00  0.00     0.010 A 
ATOM     63  C   UNL A   1      46.590  32.943  29.792  1.00  0.00     0.010 A 
ATOM     64  C   UNL A   1      46.210  34.887  27.818  1.00  0.00     0.020 A 
ATOM     65  C   UNL A   1      46.879  34.281  30.074  1.00  0.00     0.020 A 
ATOM     66  C   UNL A   1      46.705  35.242  29.078  1.00  0.00     0.054 A 
BRANCH  66  67
ATOM     67  S   UNL A   1      47.095  36.984  29.408  1.00  0.00     0.124 S 
ATOM     68  O   UNL A   1      46.469  37.189  30.711  1.00  0.00    -0.237 OA
ATOM     69  O   UNL A   1      48.556  36.996  29.404  1.00  0.00    -0.237 OA
ATOM     70  O   UNL A   1      46.468  37.694  28.296  1.00  0.00    -0.744 OA
ENDBRANCH  66  67
ENDBRANCH  47  61
BRANCH  48  71
ATOM     71  C   UNL A   1      43.695  22.992  26.896  1.00  0.00    -0.014 A 
ATOM     72  C   UNL A   1      42.824  22.308  27.760  1.00  0.00     0.010 A 
ATOM     73  C   UNL A   1      44.202  22.323  25.765  1.00  0.00     0.010 A 
ATOM     74  C   UNL A   1      42.469  20.980  27.501  1.00  0.00     0.020 A 
ATOM     75  C   UNL A   1      43.827  21.007  25.487  1.00  0.00     0.020 A 
ATOM     76  C   UNL A   1      42.971  20.339  26.363  1.00  0.00     0.054 A 
BRANCH  76  77
ATOM     77  S   UNL A   1      42.444  18.641  25.999  1.00  0.00     0.124 S 
ATOM     78  O   UNL A   1      42.729  17.960  27.258  1.00  0.00    -0.237 OA
ATOM     79  O   UNL A   1      41.028  18.807  25.676  1.00  0.00    -0.237 OA
ATOM     80  O   UNL A   1      43.290  18.258  24.871  1.00  0.00    -0.744 OA
ENDBRANCH  76  77
ENDBRANCH  48  71
BRANCH  60  81
ATOM     81  C   UNL A   1      49.567  26.654  26.201  1.00  0.00    -0.014 A 
ATOM     82  C   UNL A   1      50.523  26.182  27.118  1.00  0.00     0.010 A 
ATOM     83  C   UNL A   1      49.908  26.764  24.842  1.00  0.00     0.010 A 
ATOM     84  C   UNL A   1      51.816  25.873  26.689  1.00  0.00     0.020 A 
ATOM     85  C   UNL A   1      51.194  26.436  24.407  1.00  0.00     0.020 A 
ATOM     86  C   UNL A   1      52.146  26.013  25.337  1.00  0.00     0.054 A 
BRANCH  86  87
ATOM     87  S   UNL A   1      53.829  25.610  24.798  1.00  0.00     0.124 S 
ATOM     88  O   UNL A   1      53.899  26.276  23.500  1.00  0.00    -0.237 OA
ATOM     89  O   UNL A   1      54.658  26.196  25.850  1.00  0.00    -0.237 OA
ATOM     90  O   UNL A   1      53.835  24.149  24.752  1.00  0.00    -0.744 OA
ENDBRANCH  86  87
ENDBRANCH  60  81
ENDBRANCH  34  35
ENDBRANCH  27  29
ENDBRANCH  26  27
ENDBRANCH  25  26
ENDBRANCH   1  25
TORSDOF 18
ENDMDL
MODEL 2
REMARK VINA RESULT:     -11.3      2.478      8.382
REMARK SMILES [NH3+][C@@]1(C(=O)OCCOC(=O)c2ccc(-c3c4nc(c(-c5ccc(S(=O)(=O)[O-])cc5)c5ccc([nH]5)c(-c5ccc(S(=O)(=O)[O-])cc5)c5nc(c(-c6ccc(S(=O)(=O)[O-])cc6)c6ccc3[nH]6)C=C5)C=C4)cc2)CCC[C@@H](Oc2ccccc2[N+](=O)[O-])C1
REMARK SMILES IDX 6 1 5 2 3 3 4 4 2 5 71 6 85 7 72 8 74 9 73 10 1 11 75 15
REMARK SMILES IDX 76 16 77 17 81 18 78 19 80 20 79 21 82 22 83 23 84 24 7 25
REMARK SMILES IDX 8 26 9 27 10 28 11 29 12 30 70 31 13 32 69 33 14 34 15 35
REMARK SMILES IDX 16 36 63 37 17 38 68 39 62 40 64 41 18 42 67 43 61 44 60 45
REMARK SMILES IDX 19 47 49 48 30 49 48 50 31 51 34 52 47 53 65 54 32 55 33 56
REMARK SMILES IDX 46 58 66 59 35 60 20 61 21 62 29 63 22 64 28 65 23 66 24 67
REMARK SMILES IDX 25 68 26 69 27 70 50 71 51 72 59 73 52 74 58 75 53 76 54 77
REMARK SMILES IDX 55 78 56 79 57 80 36 81 37 82 45 83 38 84 44 85 39 86 40 87
REMARK SMILES IDX 41 88 42 89 43 90
REMARK H PARENT 1 12 1 13 1 14 64 46 34 57
REMARK Flexibility Score: inf
ROOT
ATOM      1  C   UNL A   1      38.273  21.542  25.658  1.00  0.00     0.274 C 
ENDROOT
BRANCH   1   2
ATOM      2  O   UNL A   1      37.363  21.653  24.550  1.00  0.00    -0.457 OA
BRANCH   2   3
ATOM      3  C   UNL A   1      36.037  21.497  24.834  1.00  0.00     0.368 C 
ATOM      4  O   UNL A   1      35.542  20.444  25.224  1.00  0.00    -0.245 OA
BRANCH   3   5
ATOM      5  C   UNL A   1      35.207  22.798  24.556  1.00  0.00     0.196 C 
ATOM      6  C   UNL A   1      35.419  23.887  25.620  1.00  0.00     0.081 C 
ATOM      7  C   UNL A   1      33.717  22.375  24.594  1.00  0.00     0.126 C 
ATOM      8  C   UNL A   1      34.508  25.103  25.418  1.00  0.00     0.011 C 
ATOM      9  C   UNL A   1      32.657  23.484  24.594  1.00  0.00     0.180 C 
ATOM     10  C   UNL A   1      33.026  24.727  25.421  1.00  0.00     0.046 C 
BRANCH   5  11
ATOM     11  N   UNL A   1      35.667  23.344  23.268  1.00  0.00    -0.343 N 
ATOM     12  H   UNL A   1      36.001  22.583  22.676  1.00  0.00     0.345 HD
ATOM     13  H   UNL A   1      36.425  24.006  23.430  1.00  0.00     0.345 HD
ATOM     14  H   UNL A   1      34.893  23.820  22.804  1.00  0.00     0.345 HD
ENDBRANCH   5  11
BRANCH   9  15
ATOM     15  O   UNL A   1      32.007  23.731  23.328  1.00  0.00    -0.483 OA
BRANCH  15  16
ATOM     16  C   UNL A   1      31.394  24.930  23.151  1.00  0.00     0.197 A 
ATOM     17  C   UNL A   1      30.239  25.206  23.884  1.00  0.00     0.054 A 
ATOM     18  C   UNL A   1      31.836  25.876  22.219  1.00  0.00     0.310 A 
ATOM     19  C   UNL A   1      29.624  26.457  23.789  1.00  0.00     0.004 A 
ATOM     20  C   UNL A   1      31.234  27.140  22.126  1.00  0.00     0.090 A 
ATOM     21  C   UNL A   1      30.134  27.431  22.930  1.00  0.00     0.007 A 
BRANCH  18  22
ATOM     22  N   UNL A   1      33.007  25.632  21.399  1.00  0.00     0.066 N 
ATOM     23  O   UNL A   1      34.082  25.493  22.004  1.00  0.00    -0.258 OA
ATOM     24  O   UNL A   1      32.866  25.611  20.171  1.00  0.00    -0.258 OA
ENDBRANCH  18  22
ENDBRANCH  15  16
ENDBRANCH   9  15
ENDBRANCH   3   5
ENDBRANCH   2   3
ENDBRANCH   1   2
BRANCH   1  25
ATOM     25  C   UNL A   1      39.056  20.238  25.568  1.00  0.00     0.275 C 
BRANCH  25  26
ATOM     26  O   UNL A   1      40.012  20.190  26.641  1.00  0.00    -0.458 OA
BRANCH  26  27
ATOM     27  C   UNL A   1      41.289  19.920  26.284  1.00  0.00     0.338 C 
ATOM     28  O   UNL A   1      41.734  18.876  25.845  1.00  0.00    -0.246 OA
BRANCH  27  29
ATOM     29  C   UNL A   1      42.104  21.135  26.457  1.00  0.00     0.060 A 
ATOM     30  C   UNL A   1      42.599  21.441  27.719  1.00  0.00     0.016 A 
ATOM     31  C   UNL A   1      42.266  22.039  25.412  1.00  0.00     0.016 A 
ATOM     32  C   UNL A   1      43.152  22.686  27.982  1.00  0.00     0.010 A 
ATOM     33  C   UNL A   1      42.942  23.245  25.646  1.00  0.00     0.010 A 
ATOM     34  C   UNL A   1      43.358  23.598  26.943  1.00  0.00    -0.014 A 
BRANCH  34  35
ATOM     35  C   UNL A   1      43.970  24.922  27.240  1.00  0.00     0.031 A 
ATOM     36  C   UNL A   1      43.140  26.015  27.857  1.00  0.00     0.074 A 
ATOM     37  C   UNL A   1      45.282  25.134  27.004  1.00  0.00     0.049 A 
ATOM     38  N   UNL A   1      43.437  27.277  28.034  1.00  0.00    -0.248 NA
ATOM     39  C   UNL A   1      41.794  25.646  28.328  1.00  0.00     0.031 C 
ATOM     40  C   UNL A   1      46.224  24.143  26.473  1.00  0.00     0.029 A 
ATOM     41  N   UNL A   1      46.061  26.246  27.206  1.00  0.00    -0.354 N 
ATOM     42  C   UNL A   1      42.295  27.866  28.566  1.00  0.00     0.074 A 
ATOM     43  C   UNL A   1      41.302  26.821  28.696  1.00  0.00     0.031 C 
ATOM     44  C   UNL A   1      47.456  24.669  26.452  1.00  0.00     0.029 A 
ATOM     45  C   UNL A   1      47.380  26.064  26.863  1.00  0.00     0.049 A 
ATOM     46  H   UNL A   1      45.708  27.093  27.561  1.00  0.00     0.167 HD
ATOM     47  C   UNL A   1      42.090  29.162  28.900  1.00  0.00     0.031 A 
ATOM     48  C   UNL A   1      48.410  26.933  26.835  1.00  0.00     0.031 A 
ATOM     49  C   UNL A   1      43.097  30.186  28.807  1.00  0.00     0.049 A 
ATOM     50  C   UNL A   1      48.155  28.367  27.194  1.00  0.00     0.074 A 
ATOM     51  C   UNL A   1      42.988  31.535  29.097  1.00  0.00     0.029 A 
ATOM     52  N   UNL A   1      44.409  29.969  28.413  1.00  0.00    -0.354 N 
ATOM     53  N   UNL A   1      47.039  28.928  27.594  1.00  0.00    -0.248 NA
ATOM     54  C   UNL A   1      49.291  29.289  27.073  1.00  0.00     0.031 C 
ATOM     55  C   UNL A   1      44.227  32.139  28.850  1.00  0.00     0.029 A 
ATOM     56  C   UNL A   1      45.119  31.157  28.447  1.00  0.00     0.049 A 
ATOM     57  H   UNL A   1      44.781  29.097  28.148  1.00  0.00     0.167 HD
ATOM     58  C   UNL A   1      47.336  30.274  27.763  1.00  0.00     0.074 A 
ATOM     59  C   UNL A   1      48.745  30.434  27.459  1.00  0.00     0.031 C 
ATOM     60  C   UNL A   1      46.515  31.292  28.123  1.00  0.00     0.031 A 
BRANCH  47  61
ATOM     61  C   UNL A   1      40.703  29.553  29.336  1.00  0.00    -0.014 A 
ATOM     62  C   UNL A   1      39.638  29.639  28.424  1.00  0.00     0.010 A 
ATOM     63  C   UNL A   1      40.465  29.830  30.696  1.00  0.00     0.010 A 
ATOM     64  C   UNL A   1      38.368  30.036  28.857  1.00  0.00     0.020 A 
ATOM     65  C   UNL A   1      39.193  30.203  31.136  1.00  0.00     0.020 A 
ATOM     66  C   UNL A   1      38.156  30.323  30.210  1.00  0.00     0.054 A 
BRANCH  66  67
ATOM     67  S   UNL A   1      36.499  30.830  30.751  1.00  0.00     0.124 S 
ATOM     68  O   UNL A   1      36.171  29.792  31.725  1.00  0.00    -0.237 OA
ATOM     69  O   UNL A   1      36.733  32.161  31.305  1.00  0.00    -0.237 OA
ATOM     70  O   UNL A   1      35.712  30.801  29.520  1.00  0.00    -0.744 OA
ENDBRANCH  66  67
ENDBRANCH  47  61
BRANCH  48  71
ATOM     71  C   UNL A   1      49.753  26.477  26.386  1.00  0.00    -0.014 A 
ATOM     72  C   UNL A   1      50.152  26.629  25.047  1.00  0.00     0.010 A 
ATOM     73  C   UNL A   1      50.655  25.913  27.308  1.00  0.00     0.010 A 
ATOM     74  C   UNL A   1      51.427  26.222  24.638  1.00  0.00     0.020 A 
ATOM     75  C   UNL A   1      51.938  25.533  26.910  1.00  0.00     0.020 A 
ATOM     76  C   UNL A   1      52.313  25.679  25.574  1.00  0.00     0.054 A 
BRANCH  76  77
ATOM     77  S   UNL A   1      53.988  25.224  25.046  1.00  0.00     0.124 S 
ATOM     78  O   UNL A   1      53.890  23.772  24.947  1.00  0.00    -0.237 OA
ATOM     79  O   UNL A   1      54.129  25.936  23.777  1.00  0.00    -0.237 OA
ATOM     80  O   UNL A   1      54.833  25.725  26.128  1.00  0.00    -0.744 OA
ENDBRANCH  76  77
ENDBRANCH  48  71
BRANCH  60  81
ATOM     81  C   UNL A   1      47.137  32.656  28.214  1.00  0.00    -0.014 A 
ATOM     82  C   UNL A   1      47.153  33.518  27.102  1.00  0.00     0.010 A 
ATOM     83  C   UNL A   1      47.716  33.079  29.423  1.00  0.00     0.010 A 
ATOM     84  C   UNL A   1      47.782  34.761  27.184  1.00  0.00     0.020 A 
ATOM     85  C   UNL A   1      48.327  34.331  29.514  1.00  0.00     0.020 A 
ATOM     86  C   UNL A   1      48.376  35.155  28.388  1.00  0.00     0.054 A 
BRANCH  86  87
ATOM     87  S   UNL A   1      49.191  36.772  28.477  1.00  0.00     0.124 S 
ATOM     88  O   UNL A   1      49.997  36.772  27.260  1.00  0.00    -0.237 OA
ATOM     89  O   UNL A   1      48.065  37.705  28.485  1.00  0.00    -0.237 OA
ATOM     90  O   UNL A   1      49.945  36.708  29.727  1.00  0.00    -0.744 OA
ENDBRANCH  86  87
ENDBRANCH  60  81
ENDBRANCH  34  35
ENDBRANCH  27  29
ENDBRANCH  26  27
ENDBRANCH  25  26
ENDBRANCH   1  25
TORSDOF 18
ENDMDL
MODEL 3
REMARK VINA RESULT:     -11.3      2.472      8.365
REMARK SMILES [NH3+][C@@]1(C(=O)OCCOC(=O)c2ccc(-c3c4nc(c(-c5ccc(S(=O)(=O)[O-])cc5)c5ccc([nH]5)c(-c5ccc(S(=O)(=O)[O-])cc5)c5nc(c(-c6ccc(S(=O)(=O)[O-])cc6)c6ccc3[nH]6)C=C5)C=C4)cc2)CCC[C@@H](Oc2ccccc2[N+](=O)[O-])C1
REMARK SMILES IDX 6 1 5 2 3 3 4 4 2 5 71 6 85 7 72 8 74 9 73 10 1 11 75 15
REMARK SMILES IDX 76 16 77 17 81 18 78 19 80 20 79 21 82 22 83 23 84 24 7 25
REMARK SMILES IDX 8 26 9 27 10 28 11 29 12 30 70 31 13 32 69 33 14 34 15 35
REMARK SMILES IDX 16 36 63 37 17 38 68 39 62 40 64 41 18 42 67 43 61 44 60 45
REMARK SMILES IDX 19 47 49 48 30 49 48 50 31 51 34 52 47 53 65 54 32 55 33 56
REMARK SMILES IDX 46 58 66 59 35 60 20 61 21 62 29 63 22 64 28 65 23 66 24 67
REMARK SMILES IDX 25 68 26 69 27 70 50 71 51 72 59 73 52 74 58 75 53 76 54 77
REMARK SMILES IDX 55 78 56 79 57 80 36 81 37 82 45 83 38 84 44 85 39 86 40 87
REMARK SMILES IDX 41 88 42 89 43 90
REMARK H PARENT 1 12 1 13 1 14 64 46 34 57
REMARK Flexibility Score: inf
ROOT
ATOM      1  C   UNL A   1      38.443  21.129  25.527  1.00  0.00     0.274 C 
ENDROOT
BRANCH   1   2
ATOM      2  O   UNL A   1      37.121  20.861  25.026  1.00  0.00    -0.457 OA
BRANCH   2   3
ATOM      3  C   UNL A   1      36.116  21.647  25.511  1.00  0.00     0.368 C 
ATOM      4  O   UNL A   1      36.297  22.747  26.022  1.00  0.00    -0.245 OA
BRANCH   3   5
ATOM      5  C   UNL A   1      34.710  20.963  25.391  1.00  0.00     0.196 C 
ATOM      6  C   UNL A   1      34.773  19.560  24.765  1.00  0.00     0.081 C 
ATOM      7  C   UNL A   1      33.869  21.868  24.455  1.00  0.00     0.126 C 
ATOM      8  C   UNL A   1      33.386  18.951  24.528  1.00  0.00     0.011 C 
ATOM      9  C   UNL A   1      32.523  21.329  23.957  1.00  0.00     0.180 C 
ATOM     10  C   UNL A   1      32.512  19.827  23.629  1.00  0.00     0.046 C 
BRANCH   5  11
ATOM     11  N   UNL A   1      34.177  20.813  26.756  1.00  0.00    -0.343 N 
ATOM     12  H   UNL A   1      34.199  19.829  27.024  1.00  0.00     0.345 HD
ATOM     13  H   UNL A   1      33.216  21.152  26.786  1.00  0.00     0.345 HD
ATOM     14  H   UNL A   1      34.749  21.354  27.406  1.00  0.00     0.345 HD
ENDBRANCH   5  11
BRANCH   9  15
ATOM     15  O   UNL A   1      31.353  21.842  24.631  1.00  0.00    -0.483 OA
BRANCH  15  16
ATOM     16  C   UNL A   1      31.143  23.183  24.612  1.00  0.00     0.197 A 
ATOM     17  C   UNL A   1      31.131  23.840  23.380  1.00  0.00     0.054 A 
ATOM     18  C   UNL A   1      30.999  23.945  25.777  1.00  0.00     0.310 A 
ATOM     19  C   UNL A   1      30.840  25.206  23.311  1.00  0.00     0.004 A 
ATOM     20  C   UNL A   1      30.693  25.313  25.717  1.00  0.00     0.090 A 
ATOM     21  C   UNL A   1      30.597  25.936  24.475  1.00  0.00     0.007 A 
BRANCH  18  22
ATOM     22  N   UNL A   1      31.041  23.326  27.087  1.00  0.00     0.066 N 
ATOM     23  O   UNL A   1      29.945  23.061  27.606  1.00  0.00    -0.258 OA
ATOM     24  O   UNL A   1      32.146  23.137  27.608  1.00  0.00    -0.258 OA
ENDBRANCH  18  22
ENDBRANCH  15  16
ENDBRANCH   9  15
ENDBRANCH   3   5
ENDBRANCH   2   3
ENDBRANCH   1   2
BRANCH   1  25
ATOM     25  C   UNL A   1      39.264  19.846  25.556  1.00  0.00     0.275 C 
BRANCH  25  26
ATOM     26  O   UNL A   1      40.278  19.963  26.570  1.00  0.00    -0.458 OA
BRANCH  26  27
ATOM     27  C   UNL A   1      41.537  20.180  26.125  1.00  0.00     0.338 C 
ATOM     28  O   UNL A   1      42.214  19.452  25.423  1.00  0.00    -0.246 OA
BRANCH  27  29
ATOM     29  C   UNL A   1      41.987  21.506  26.584  1.00  0.00     0.060 A 
ATOM     30  C   UNL A   1      41.929  22.579  25.703  1.00  0.00     0.016 A 
ATOM     31  C   UNL A   1      42.589  21.663  27.828  1.00  0.00     0.016 A 
ATOM     32  C   UNL A   1      42.566  23.776  26.000  1.00  0.00     0.010 A 
ATOM     33  C   UNL A   1      43.119  22.912  28.181  1.00  0.00     0.010 A 
ATOM     34  C   UNL A   1      43.146  23.972  27.256  1.00  0.00    -0.014 A 
BRANCH  34  35
ATOM     35  C   UNL A   1      43.809  25.268  27.564  1.00  0.00     0.031 A 
ATOM     36  C   UNL A   1      43.037  26.368  28.242  1.00  0.00     0.074 A 
ATOM     37  C   UNL A   1      45.118  25.447  27.285  1.00  0.00     0.049 A 
ATOM     38  N   UNL A   1      43.380  27.615  28.441  1.00  0.00    -0.248 NA
ATOM     39  C   UNL A   1      41.699  26.027  28.753  1.00  0.00     0.031 C 
ATOM     40  C   UNL A   1      46.008  24.443  26.693  1.00  0.00     0.029 A 
ATOM     41  N   UNL A   1      45.938  26.529  27.487  1.00  0.00    -0.354 N 
ATOM     42  C   UNL A   1      42.277  28.223  29.031  1.00  0.00     0.074 A 
ATOM     43  C   UNL A   1      41.258  27.205  29.170  1.00  0.00     0.031 C 
ATOM     44  C   UNL A   1      47.255  24.932  26.639  1.00  0.00     0.029 A 
ATOM     45  C   UNL A   1      47.237  26.317  27.090  1.00  0.00     0.049 A 
ATOM     46  H   UNL A   1      45.625  27.376  27.878  1.00  0.00     0.167 HD
ATOM     47  C   UNL A   1      42.125  29.516  29.407  1.00  0.00     0.031 A 
ATOM     48  C   UNL A   1      48.292  27.154  27.046  1.00  0.00     0.031 A 
ATOM     49  C   UNL A   1      43.159  30.511  29.303  1.00  0.00     0.049 A 
ATOM     50  C   UNL A   1      48.096  28.585  27.453  1.00  0.00     0.074 A 
ATOM     51  C   UNL A   1      43.103  31.854  29.633  1.00  0.00     0.029 A 
ATOM     52  N   UNL A   1      44.449  30.265  28.854  1.00  0.00    -0.354 N 
ATOM     53  N   UNL A   1      47.013  29.169  27.909  1.00  0.00    -0.248 NA
ATOM     54  C   UNL A   1      49.255  29.476  27.314  1.00  0.00     0.031 C 
ATOM     55  C   UNL A   1      44.351  32.426  29.356  1.00  0.00     0.029 A 
ATOM     56  C   UNL A   1      45.196  31.429  28.894  1.00  0.00     0.049 A 
ATOM     57  H   UNL A   1      44.783  29.389  28.552  1.00  0.00     0.167 HD
ATOM     58  C   UNL A   1      47.357  30.500  28.103  1.00  0.00     0.074 A 
ATOM     59  C   UNL A   1      48.759  30.625  27.750  1.00  0.00     0.031 C 
ATOM     60  C   UNL A   1      46.583  31.532  28.521  1.00  0.00     0.031 A 
BRANCH  47  61
ATOM     61  C   UNL A   1      40.768  29.935  29.905  1.00  0.00    -0.014 A 
ATOM     62  C   UNL A   1      39.691  30.145  29.028  1.00  0.00     0.010 A 
ATOM     63  C   UNL A   1      40.571  30.113  31.288  1.00  0.00     0.010 A 
ATOM     64  C   UNL A   1      38.451  30.565  29.521  1.00  0.00     0.020 A 
ATOM     65  C   UNL A   1      39.328  30.511  31.787  1.00  0.00     0.020 A 
ATOM     66  C   UNL A   1      38.280  30.753  30.898  1.00  0.00     0.054 A 
BRANCH  66  67
ATOM     67  S   UNL A   1      36.662  31.293  31.516  1.00  0.00     0.124 S 
ATOM     68  O   UNL A   1      36.276  32.287  30.518  1.00  0.00    -0.237 OA
ATOM     69  O   UNL A   1      35.883  30.057  31.507  1.00  0.00    -0.237 OA
ATOM     70  O   UNL A   1      36.960  31.826  32.843  1.00  0.00    -0.744 OA
ENDBRANCH  66  67
ENDBRANCH  47  61
BRANCH  48  71
ATOM     71  C   UNL A   1      49.603  26.672  26.534  1.00  0.00    -0.014 A 
ATOM     72  C   UNL A   1      50.516  26.033  27.390  1.00  0.00     0.010 A 
ATOM     73  C   UNL A   1      49.932  26.825  25.174  1.00  0.00     0.010 A 
ATOM     74  C   UNL A   1      51.736  25.558  26.895  1.00  0.00     0.020 A 
ATOM     75  C   UNL A   1      51.136  26.327  24.671  1.00  0.00     0.020 A 
ATOM     76  C   UNL A   1      52.037  25.707  25.537  1.00  0.00     0.054 A 
BRANCH  76  77
ATOM     77  S   UNL A   1      53.589  25.021  24.895  1.00  0.00     0.124 S 
ATOM     78  O   UNL A   1      53.426  23.597  25.168  1.00  0.00    -0.237 OA
ATOM     79  O   UNL A   1      53.550  25.404  23.485  1.00  0.00    -0.237 OA
ATOM     80  O   UNL A   1      54.613  25.700  25.686  1.00  0.00    -0.744 OA
ENDBRANCH  76  77
ENDBRANCH  48  71
BRANCH  60  81
ATOM     81  C   UNL A   1      47.250  32.873  28.625  1.00  0.00    -0.014 A 
ATOM     82  C   UNL A   1      47.899  33.266  29.810  1.00  0.00     0.010 A 
ATOM     83  C   UNL A   1      47.224  33.751  27.528  1.00  0.00     0.010 A 
ATOM     84  C   UNL A   1      48.468  34.537  29.911  1.00  0.00     0.020 A 
ATOM     85  C   UNL A   1      47.811  35.015  27.619  1.00  0.00     0.020 A 
ATOM     86  C   UNL A   1      48.410  35.408  28.818  1.00  0.00     0.054 A 
BRANCH  86  87
ATOM     87  S   UNL A   1      49.153  37.055  28.968  1.00  0.00     0.124 S 
ATOM     88  O   UNL A   1      50.080  36.869  30.080  1.00  0.00    -0.237 OA
ATOM     89  O   UNL A   1      49.772  37.254  27.659  1.00  0.00    -0.237 OA
ATOM     90  O   UNL A   1      48.010  37.923  29.246  1.00  0.00    -0.744 OA
ENDBRANCH  86  87
ENDBRANCH  60  81
ENDBRANCH  34  35
ENDBRANCH  27  29
ENDBRANCH  26  27
ENDBRANCH  25  26
ENDBRANCH   1  25
TORSDOF 18
ENDMDL
