MODEL 1
REMARK VINA RESULT:     -10.4      0.000      0.000
REMARK SMILES O=C(OCCOC(=O)[C@]1(CCCCO)CCc2ccccc2C1)c1ccc(-c2c3nc(c(-c4ccc(S(=O)(=O)[O-])cc4)c4ccc([nH]4)c(-c4ccc(S(=O)(=O)[O-])cc4)c4nc(c(-c5ccc(S(=O)(=O)[O-])cc5)c5ccc2[nH]5)C=C4)C=C3)cc1
REMARK SMILES IDX 5 1 4 2 3 3 2 4 1 5 24 6 25 7 83 8 26 9 82 10 27 11 28 12
REMARK SMILES IDX 29 13 76 14 30 15 81 16 75 17 77 18 31 19 80 20 74 21 73 22
REMARK SMILES IDX 32 24 62 25 43 26 61 27 44 28 47 29 60 30 78 31 45 32 46 33
REMARK SMILES IDX 59 35 79 36 48 37 33 38 34 39 42 40 35 41 41 42 36 43 37 44
REMARK SMILES IDX 38 45 39 46 40 47 63 48 64 49 72 50 65 51 71 52 66 53 67 54
REMARK SMILES IDX 68 55 69 56 70 57 49 58 50 59 58 60 51 61 57 62 52 63 53 64
REMARK SMILES IDX 54 65 55 66 56 67 6 68 7 69 8 70 9 71 15 72 23 73 16 74
REMARK SMILES IDX 22 75 17 76 21 77 18 78 20 79 19 80 10 81 11 82 12 83 13 84
REMARK SMILES IDX 14 85
REMARK H PARENT 77 23 47 34 14 86
REMARK Flexibility Score: inf
ROOT
ATOM      1  C   UNL A   1      35.248  22.527  25.352  1.00  0.00     0.274 C 
ENDROOT
BRANCH   1   2
ATOM      2  C   UNL A   1      36.694  21.990  25.327  1.00  0.00     0.275 C 
BRANCH   2   3
ATOM      3  O   UNL A   1      37.777  22.929  25.390  1.00  0.00    -0.458 OA
BRANCH   3   4
ATOM      4  C   UNL A   1      38.885  22.910  26.166  1.00  0.00     0.338 C 
ATOM      5  O   UNL A   1      39.367  21.830  26.499  1.00  0.00    -0.246 OA
BRANCH   4   6
ATOM      6  C   UNL A   1      39.460  24.154  26.753  1.00  0.00     0.060 A 
ATOM      7  C   UNL A   1      40.285  25.075  26.097  1.00  0.00     0.016 A 
ATOM      8  C   UNL A   1      39.105  24.424  28.078  1.00  0.00     0.016 A 
ATOM      9  C   UNL A   1      40.598  26.313  26.665  1.00  0.00     0.010 A 
ATOM     10  C   UNL A   1      39.436  25.650  28.654  1.00  0.00     0.010 A 
ATOM     11  C   UNL A   1      40.141  26.634  27.936  1.00  0.00    -0.014 A 
BRANCH  11  12
ATOM     12  C   UNL A   1      40.512  27.925  28.569  1.00  0.00     0.031 A 
ATOM     13  C   UNL A   1      41.924  28.055  29.057  1.00  0.00     0.074 A 
ATOM     14  C   UNL A   1      39.636  28.946  28.721  1.00  0.00     0.049 A 
ATOM     15  N   UNL A   1      42.505  29.059  29.651  1.00  0.00    -0.248 NA
ATOM     16  C   UNL A   1      42.794  26.875  28.885  1.00  0.00     0.031 C 
ATOM     17  C   UNL A   1      38.224  28.940  28.327  1.00  0.00     0.029 A 
ATOM     18  N   UNL A   1      39.804  30.197  29.269  1.00  0.00    -0.354 N 
ATOM     19  C   UNL A   1      43.798  28.623  29.896  1.00  0.00     0.074 A 
ATOM     20  C   UNL A   1      43.855  27.217  29.587  1.00  0.00     0.031 C 
ATOM     21  C   UNL A   1      37.651  30.109  28.674  1.00  0.00     0.029 A 
ATOM     22  C   UNL A   1      38.657  30.965  29.290  1.00  0.00     0.049 A 
ATOM     23  H   UNL A   1      40.666  30.518  29.618  1.00  0.00     0.167 HD
ATOM     24  C   UNL A   1      44.889  29.352  30.209  1.00  0.00     0.031 A 
ATOM     25  C   UNL A   1      38.458  32.225  29.733  1.00  0.00     0.031 A 
ATOM     26  C   UNL A   1      44.842  30.758  30.451  1.00  0.00     0.049 A 
ATOM     27  C   UNL A   1      39.666  33.007  30.195  1.00  0.00     0.074 A 
ATOM     28  C   UNL A   1      45.881  31.624  30.720  1.00  0.00     0.029 A 
ATOM     29  N   UNL A   1      43.672  31.504  30.444  1.00  0.00    -0.354 N 
ATOM     30  N   UNL A   1      40.915  32.612  30.292  1.00  0.00    -0.248 NA
ATOM     31  C   UNL A   1      39.454  34.419  30.541  1.00  0.00     0.031 C 
ATOM     32  C   UNL A   1      45.330  32.892  30.932  1.00  0.00     0.029 A 
ATOM     33  C   UNL A   1      43.958  32.822  30.729  1.00  0.00     0.049 A 
ATOM     34  H   UNL A   1      42.773  31.145  30.264  1.00  0.00     0.167 HD
ATOM     35  C   UNL A   1      41.647  33.746  30.625  1.00  0.00     0.074 A 
ATOM     36  C   UNL A   1      40.698  34.836  30.736  1.00  0.00     0.031 C 
ATOM     37  C   UNL A   1      42.986  33.885  30.796  1.00  0.00     0.031 A 
BRANCH  24  38
ATOM     38  C   UNL A   1      46.194  28.609  30.230  1.00  0.00    -0.014 A 
ATOM     39  C   UNL A   1      46.982  28.515  29.064  1.00  0.00     0.010 A 
ATOM     40  C   UNL A   1      46.582  27.909  31.383  1.00  0.00     0.010 A 
ATOM     41  C   UNL A   1      48.088  27.667  29.025  1.00  0.00     0.020 A 
ATOM     42  C   UNL A   1      47.713  27.089  31.358  1.00  0.00     0.020 A 
ATOM     43  C   UNL A   1      48.440  26.952  30.172  1.00  0.00     0.054 A 
BRANCH  43  44
ATOM     44  S   UNL A   1      49.869  25.840  30.089  1.00  0.00     0.124 S 
ATOM     45  O   UNL A   1      49.567  25.052  28.896  1.00  0.00    -0.237 OA
ATOM     46  O   UNL A   1      50.989  26.768  29.963  1.00  0.00    -0.237 OA
ATOM     47  O   UNL A   1      49.808  25.107  31.352  1.00  0.00    -0.744 OA
ENDBRANCH  43  44
ENDBRANCH  24  38
BRANCH  25  48
ATOM     48  C   UNL A   1      37.112  32.879  29.682  1.00  0.00    -0.014 A 
ATOM     49  C   UNL A   1      36.581  33.332  28.459  1.00  0.00     0.010 A 
ATOM     50  C   UNL A   1      36.382  33.121  30.861  1.00  0.00     0.010 A 
ATOM     51  C   UNL A   1      35.376  34.047  28.419  1.00  0.00     0.020 A 
ATOM     52  C   UNL A   1      35.164  33.815  30.824  1.00  0.00     0.020 A 
ATOM     53  C   UNL A   1      34.675  34.287  29.603  1.00  0.00     0.054 A 
BRANCH  53  54
ATOM     54  S   UNL A   1      33.111  35.210  29.521  1.00  0.00     0.124 S 
ATOM     55  O   UNL A   1      32.426  34.557  28.409  1.00  0.00    -0.237 OA
ATOM     56  O   UNL A   1      32.539  34.973  30.843  1.00  0.00    -0.237 OA
ATOM     57  O   UNL A   1      33.537  36.585  29.271  1.00  0.00    -0.744 OA
ENDBRANCH  53  54
ENDBRANCH  25  48
BRANCH  37  58
ATOM     58  C   UNL A   1      43.520  35.269  31.029  1.00  0.00    -0.014 A 
ATOM     59  C   UNL A   1      43.829  36.128  29.963  1.00  0.00     0.010 A 
ATOM     60  C   UNL A   1      43.617  35.742  32.351  1.00  0.00     0.010 A 
ATOM     61  C   UNL A   1      44.248  37.434  30.217  1.00  0.00     0.020 A 
ATOM     62  C   UNL A   1      44.001  37.056  32.608  1.00  0.00     0.020 A 
ATOM     63  C   UNL A   1      44.326  37.891  31.538  1.00  0.00     0.054 A 
BRANCH  63  64
ATOM     64  S   UNL A   1      44.807  39.612  31.839  1.00  0.00     0.124 S 
ATOM     65  O   UNL A   1      44.722  40.187  30.499  1.00  0.00    -0.237 OA
ATOM     66  O   UNL A   1      43.792  40.067  32.786  1.00  0.00    -0.237 OA
ATOM     67  O   UNL A   1      46.158  39.504  32.387  1.00  0.00    -0.744 OA
ENDBRANCH  63  64
ENDBRANCH  37  58
ENDBRANCH  11  12
ENDBRANCH   4   6
ENDBRANCH   3   4
ENDBRANCH   2   3
ENDBRANCH   1   2
BRANCH   1  68
ATOM     68  O   UNL A   1      34.990  23.930  25.588  1.00  0.00    -0.462 OA
BRANCH  68  69
ATOM     69  C   UNL A   1      34.315  24.556  24.585  1.00  0.00     0.312 C 
ATOM     70  O   UNL A   1      34.589  24.332  23.411  1.00  0.00    -0.252 OA
BRANCH  69  71
ATOM     71  C   UNL A   1      33.177  25.508  25.019  1.00  0.00     0.072 C 
ATOM     72  C   UNL A   1      32.491  26.198  23.818  1.00  0.00     0.024 C 
ATOM     73  C   UNL A   1      33.852  26.595  25.866  1.00  0.00     0.054 C 
ATOM     74  C   UNL A   1      31.544  27.348  24.208  1.00  0.00     0.037 C 
ATOM     75  C   UNL A   1      33.085  27.863  26.137  1.00  0.00    -0.044 A 
ATOM     76  C   UNL A   1      32.099  28.292  25.244  1.00  0.00    -0.045 A 
ATOM     77  C   UNL A   1      33.504  28.716  27.172  1.00  0.00     0.004 A 
ATOM     78  C   UNL A   1      31.608  29.603  25.356  1.00  0.00     0.004 A 
ATOM     79  C   UNL A   1      33.042  30.026  27.251  1.00  0.00     0.000 A 
ATOM     80  C   UNL A   1      32.107  30.477  26.327  1.00  0.00     0.000 A 
BRANCH  71  81
ATOM     81  C   UNL A   1      32.190  24.765  25.974  1.00  0.00     0.019 C 
BRANCH  81  82
ATOM     82  C   UNL A   1      31.034  23.952  25.378  1.00  0.00     0.004 C 
BRANCH  82  83
ATOM     83  C   UNL A   1      30.656  22.630  26.061  1.00  0.00     0.028 C 
BRANCH  83  84
ATOM     84  C   UNL A   1      29.600  22.725  27.166  1.00  0.00     0.156 C 
BRANCH  84  85
ATOM     85  O   UNL A   1      28.976  24.002  27.148  1.00  0.00    -0.396 OA
ATOM     86  H   UNL A   1      29.354  24.537  26.432  1.00  0.00     0.210 HD
ENDBRANCH  84  85
ENDBRANCH  83  84
ENDBRANCH  82  83
ENDBRANCH  81  82
ENDBRANCH  71  81
ENDBRANCH  69  71
ENDBRANCH  68  69
ENDBRANCH   1  68
TORSDOF 19
ENDMDL
MODEL 2
REMARK VINA RESULT:     -10.2      4.669      5.675
REMARK SMILES O=C(OCCOC(=O)[C@]1(CCCCO)CCc2ccccc2C1)c1ccc(-c2c3nc(c(-c4ccc(S(=O)(=O)[O-])cc4)c4ccc([nH]4)c(-c4ccc(S(=O)(=O)[O-])cc4)c4nc(c(-c5ccc(S(=O)(=O)[O-])cc5)c5ccc2[nH]5)C=C4)C=C3)cc1
REMARK SMILES IDX 5 1 4 2 3 3 2 4 1 5 24 6 25 7 83 8 26 9 82 10 27 11 28 12
REMARK SMILES IDX 29 13 76 14 30 15 81 16 75 17 77 18 31 19 80 20 74 21 73 22
REMARK SMILES IDX 32 24 62 25 43 26 61 27 44 28 47 29 60 30 78 31 45 32 46 33
REMARK SMILES IDX 59 35 79 36 48 37 33 38 34 39 42 40 35 41 41 42 36 43 37 44
REMARK SMILES IDX 38 45 39 46 40 47 63 48 64 49 72 50 65 51 71 52 66 53 67 54
REMARK SMILES IDX 68 55 69 56 70 57 49 58 50 59 58 60 51 61 57 62 52 63 53 64
REMARK SMILES IDX 54 65 55 66 56 67 6 68 7 69 8 70 9 71 15 72 23 73 16 74
REMARK SMILES IDX 22 75 17 76 21 77 18 78 20 79 19 80 10 81 11 82 12 83 13 84
REMARK SMILES IDX 14 85
REMARK H PARENT 77 23 47 34 14 86
REMARK Flexibility Score: inf
ROOT
ATOM      1  C   UNL A   1      39.327  23.177  26.567  1.00  0.00     0.274 C 
ENDROOT
BRANCH   1   2
ATOM      2  C   UNL A   1      40.436  24.229  26.776  1.00  0.00     0.275 C 
BRANCH   2   3
ATOM      3  O   UNL A   1      40.433  25.403  25.950  1.00  0.00    -0.458 OA
BRANCH   3   4
ATOM      4  C   UNL A   1      40.889  26.646  26.225  1.00  0.00     0.338 C 
ATOM      5  O   UNL A   1      41.719  27.160  25.477  1.00  0.00    -0.246 OA
BRANCH   4   6
ATOM      6  C   UNL A   1      40.531  27.361  27.483  1.00  0.00     0.060 A 
ATOM      7  C   UNL A   1      39.650  26.907  28.471  1.00  0.00     0.016 A 
ATOM      8  C   UNL A   1      41.171  28.586  27.693  1.00  0.00     0.016 A 
ATOM      9  C   UNL A   1      39.543  27.548  29.708  1.00  0.00     0.010 A 
ATOM     10  C   UNL A   1      41.049  29.238  28.919  1.00  0.00     0.010 A 
ATOM     11  C   UNL A   1      40.275  28.700  29.964  1.00  0.00    -0.014 A 
BRANCH  11  12
ATOM     12  C   UNL A   1      40.129  29.417  31.256  1.00  0.00     0.031 A 
ATOM     13  C   UNL A   1      41.118  29.076  32.331  1.00  0.00     0.074 A 
ATOM     14  C   UNL A   1      39.156  30.330  31.483  1.00  0.00     0.049 A 
ATOM     15  N   UNL A   1      41.214  29.541  33.545  1.00  0.00    -0.248 NA
ATOM     16  C   UNL A   1      42.118  28.040  32.004  1.00  0.00     0.031 C 
ATOM     17  C   UNL A   1      38.107  30.728  30.540  1.00  0.00     0.029 A 
ATOM     18  N   UNL A   1      38.878  31.086  32.599  1.00  0.00    -0.354 N 
ATOM     19  C   UNL A   1      42.288  28.861  34.098  1.00  0.00     0.074 A 
ATOM     20  C   UNL A   1      42.671  27.820  33.180  1.00  0.00     0.031 C 
ATOM     21  C   UNL A   1      37.287  31.623  31.125  1.00  0.00     0.029 A 
ATOM     22  C   UNL A   1      37.763  31.890  32.475  1.00  0.00     0.049 A 
ATOM     23  H   UNL A   1      39.426  31.056  33.416  1.00  0.00     0.167 HD
ATOM     24  C   UNL A   1      42.998  29.163  35.205  1.00  0.00     0.031 A 
ATOM     25  C   UNL A   1      37.212  32.759  33.350  1.00  0.00     0.031 A 
ATOM     26  C   UNL A   1      42.654  30.238  36.080  1.00  0.00     0.049 A 
ATOM     27  C   UNL A   1      37.948  33.014  34.646  1.00  0.00     0.074 A 
ATOM     28  C   UNL A   1      43.321  30.686  37.201  1.00  0.00     0.029 A 
ATOM     29  N   UNL A   1      41.535  31.040  35.914  1.00  0.00    -0.354 N 
ATOM     30  N   UNL A   1      39.047  32.451  35.093  1.00  0.00    -0.248 NA
ATOM     31  C   UNL A   1      37.411  34.064  35.523  1.00  0.00     0.031 C 
ATOM     32  C   UNL A   1      42.569  31.730  37.749  1.00  0.00     0.029 A 
ATOM     33  C   UNL A   1      41.474  31.970  36.930  1.00  0.00     0.049 A 
ATOM     34  H   UNL A   1      40.881  30.957  35.183  1.00  0.00     0.167 HD
ATOM     35  C   UNL A   1      39.379  33.137  36.256  1.00  0.00     0.074 A 
ATOM     36  C   UNL A   1      38.351  34.139  36.454  1.00  0.00     0.031 C 
ATOM     37  C   UNL A   1      40.450  32.976  37.072  1.00  0.00     0.031 A 
BRANCH  24  38
ATOM     38  C   UNL A   1      44.228  28.336  35.445  1.00  0.00    -0.014 A 
ATOM     39  C   UNL A   1      44.145  27.122  36.159  1.00  0.00     0.010 A 
ATOM     40  C   UNL A   1      45.485  28.822  35.055  1.00  0.00     0.010 A 
ATOM     41  C   UNL A   1      45.304  26.454  36.553  1.00  0.00     0.020 A 
ATOM     42  C   UNL A   1      46.646  28.133  35.414  1.00  0.00     0.020 A 
ATOM     43  C   UNL A   1      46.548  26.970  36.185  1.00  0.00     0.054 A 
BRANCH  43  44
ATOM     44  S   UNL A   1      48.039  26.095  36.727  1.00  0.00     0.124 S 
ATOM     45  O   UNL A   1      47.610  24.699  36.660  1.00  0.00    -0.237 OA
ATOM     46  O   UNL A   1      49.026  26.497  35.729  1.00  0.00    -0.237 OA
ATOM     47  O   UNL A   1      48.272  26.611  38.074  1.00  0.00    -0.744 OA
ENDBRANCH  43  44
ENDBRANCH  24  38
BRANCH  25  48
ATOM     48  C   UNL A   1      35.973  33.532  33.024  1.00  0.00    -0.014 A 
ATOM     49  C   UNL A   1      36.055  34.864  32.573  1.00  0.00     0.010 A 
ATOM     50  C   UNL A   1      34.698  32.972  33.230  1.00  0.00     0.010 A 
ATOM     51  C   UNL A   1      34.898  35.629  32.376  1.00  0.00     0.020 A 
ATOM     52  C   UNL A   1      33.536  33.726  33.011  1.00  0.00     0.020 A 
ATOM     53  C   UNL A   1      33.644  35.057  32.599  1.00  0.00     0.054 A 
BRANCH  53  54
ATOM     54  S   UNL A   1      32.159  36.071  32.328  1.00  0.00     0.124 S 
ATOM     55  O   UNL A   1      32.277  36.417  30.915  1.00  0.00    -0.237 OA
ATOM     56  O   UNL A   1      31.083  35.144  32.665  1.00  0.00    -0.237 OA
ATOM     57  O   UNL A   1      32.330  37.183  33.260  1.00  0.00    -0.744 OA
ENDBRANCH  53  54
ENDBRANCH  25  48
BRANCH  37  58
ATOM     58  C   UNL A   1      40.623  33.953  38.199  1.00  0.00    -0.014 A 
ATOM     59  C   UNL A   1      41.306  35.167  38.023  1.00  0.00     0.010 A 
ATOM     60  C   UNL A   1      39.996  33.682  39.430  1.00  0.00     0.010 A 
ATOM     61  C   UNL A   1      41.378  36.086  39.071  1.00  0.00     0.020 A 
ATOM     62  C   UNL A   1      40.036  34.613  40.466  1.00  0.00     0.020 A 
ATOM     63  C   UNL A   1      40.738  35.805  40.284  1.00  0.00     0.054 A 
BRANCH  63  64
ATOM     64  S   UNL A   1      40.789  37.044  41.604  1.00  0.00     0.124 S 
ATOM     65  O   UNL A   1      41.387  36.291  42.703  1.00  0.00    -0.237 OA
ATOM     66  O   UNL A   1      41.629  38.092  41.027  1.00  0.00    -0.237 OA
ATOM     67  O   UNL A   1      39.386  37.410  41.790  1.00  0.00    -0.744 OA
ENDBRANCH  63  64
ENDBRANCH  37  58
ENDBRANCH  11  12
ENDBRANCH   4   6
ENDBRANCH   3   4
ENDBRANCH   2   3
ENDBRANCH   1   2
BRANCH   1  68
ATOM     68  O   UNL A   1      38.141  23.501  25.807  1.00  0.00    -0.462 OA
BRANCH  68  69
ATOM     69  C   UNL A   1      37.353  22.432  25.507  1.00  0.00     0.312 C 
ATOM     70  O   UNL A   1      37.767  21.288  25.656  1.00  0.00    -0.252 OA
BRANCH  69  71
ATOM     71  C   UNL A   1      35.920  22.755  25.021  1.00  0.00     0.072 C 
ATOM     72  C   UNL A   1      35.797  22.727  23.482  1.00  0.00     0.024 C 
ATOM     73  C   UNL A   1      35.640  24.188  25.493  1.00  0.00     0.054 C 
ATOM     74  C   UNL A   1      34.472  23.302  22.945  1.00  0.00     0.037 C 
ATOM     75  C   UNL A   1      34.481  24.925  24.875  1.00  0.00    -0.044 A 
ATOM     76  C   UNL A   1      34.045  24.595  23.588  1.00  0.00    -0.045 A 
ATOM     77  C   UNL A   1      33.978  26.075  25.506  1.00  0.00     0.004 A 
ATOM     78  C   UNL A   1      33.171  25.473  22.924  1.00  0.00     0.004 A 
ATOM     79  C   UNL A   1      33.145  26.958  24.826  1.00  0.00     0.000 A 
ATOM     80  C   UNL A   1      32.758  26.666  23.525  1.00  0.00     0.000 A 
BRANCH  71  81
ATOM     81  C   UNL A   1      34.887  21.846  25.759  1.00  0.00     0.019 C 
BRANCH  81  82
ATOM     82  C   UNL A   1      34.409  20.552  25.090  1.00  0.00     0.004 C 
BRANCH  82  83
ATOM     83  C   UNL A   1      32.917  20.199  25.185  1.00  0.00     0.028 C 
BRANCH  83  84
ATOM     84  C   UNL A   1      32.434  19.079  24.259  1.00  0.00     0.156 C 
BRANCH  84  85
ATOM     85  O   UNL A   1      32.070  17.932  25.016  1.00  0.00    -0.396 OA
ATOM     86  H   UNL A   1      31.584  18.208  25.809  1.00  0.00     0.210 HD
ENDBRANCH  84  85
ENDBRANCH  83  84
ENDBRANCH  82  83
ENDBRANCH  81  82
ENDBRANCH  71  81
ENDBRANCH  69  71
ENDBRANCH  68  69
ENDBRANCH   1  68
TORSDOF 19
ENDMDL
MODEL 3
REMARK VINA RESULT:     -10.1      2.784      9.638
REMARK SMILES O=C(OCCOC(=O)[C@]1(CCCCO)CCc2ccccc2C1)c1ccc(-c2c3nc(c(-c4ccc(S(=O)(=O)[O-])cc4)c4ccc([nH]4)c(-c4ccc(S(=O)(=O)[O-])cc4)c4nc(c(-c5ccc(S(=O)(=O)[O-])cc5)c5ccc2[nH]5)C=C4)C=C3)cc1
REMARK SMILES IDX 5 1 4 2 3 3 2 4 1 5 24 6 25 7 83 8 26 9 82 10 27 11 28 12
REMARK SMILES IDX 29 13 76 14 30 15 81 16 75 17 77 18 31 19 80 20 74 21 73 22
REMARK SMILES IDX 32 24 62 25 43 26 61 27 44 28 47 29 60 30 78 31 45 32 46 33
REMARK SMILES IDX 59 35 79 36 48 37 33 38 34 39 42 40 35 41 41 42 36 43 37 44
REMARK SMILES IDX 38 45 39 46 40 47 63 48 64 49 72 50 65 51 71 52 66 53 67 54
REMARK SMILES IDX 68 55 69 56 70 57 49 58 50 59 58 60 51 61 57 62 52 63 53 64
REMARK SMILES IDX 54 65 55 66 56 67 6 68 7 69 8 70 9 71 15 72 23 73 16 74
REMARK SMILES IDX 22 75 17 76 21 77 18 78 20 79 19 80 10 81 11 82 12 83 13 84
REMARK SMILES IDX 14 85
REMARK H PARENT 77 23 47 34 14 86
REMARK Flexibility Score: inf
ROOT
ATOM      1  C   UNL A   1      31.743  29.165  26.367  1.00  0.00     0.274 C 
ENDROOT
BRANCH   1   2
ATOM      2  C   UNL A   1      32.887  30.169  26.624  1.00  0.00     0.275 C 
BRANCH   2   3
ATOM      3  O   UNL A   1      33.439  30.256  27.945  1.00  0.00    -0.458 OA
BRANCH   3   4
ATOM      4  C   UNL A   1      34.536  30.923  28.373  1.00  0.00     0.338 C 
ATOM      5  O   UNL A   1      34.451  32.124  28.620  1.00  0.00    -0.246 OA
BRANCH   4   6
ATOM      6  C   UNL A   1      35.883  30.283  28.420  1.00  0.00     0.060 A 
ATOM      7  C   UNL A   1      36.787  30.182  27.357  1.00  0.00     0.016 A 
ATOM      8  C   UNL A   1      36.273  29.771  29.660  1.00  0.00     0.016 A 
ATOM      9  C   UNL A   1      38.104  29.756  27.553  1.00  0.00     0.010 A 
ATOM     10  C   UNL A   1      37.579  29.326  29.853  1.00  0.00     0.010 A 
ATOM     11  C   UNL A   1      38.530  29.363  28.815  1.00  0.00    -0.014 A 
BRANCH  11  12
ATOM     12  C   UNL A   1      39.911  28.860  29.025  1.00  0.00     0.031 A 
ATOM     13  C   UNL A   1      40.891  29.818  29.636  1.00  0.00     0.074 A 
ATOM     14  C   UNL A   1      40.297  27.610  28.681  1.00  0.00     0.049 A 
ATOM     15  N   UNL A   1      42.152  29.645  29.916  1.00  0.00    -0.248 NA
ATOM     16  C   UNL A   1      40.389  31.173  29.939  1.00  0.00     0.031 C 
ATOM     17  C   UNL A   1      39.458  26.590  28.045  1.00  0.00     0.029 A 
ATOM     18  N   UNL A   1      41.515  26.980  28.806  1.00  0.00    -0.354 N 
ATOM     19  C   UNL A   1      42.566  30.860  30.439  1.00  0.00     0.074 A 
ATOM     20  C   UNL A   1      41.502  31.810  30.243  1.00  0.00     0.031 C 
ATOM     21  C   UNL A   1      40.189  25.484  27.807  1.00  0.00     0.029 A 
ATOM     22  C   UNL A   1      41.544  25.697  28.299  1.00  0.00     0.049 A 
ATOM     23  H   UNL A   1      42.298  27.408  29.221  1.00  0.00     0.167 HD
ATOM     24  C   UNL A   1      43.675  31.136  31.156  1.00  0.00     0.031 A 
ATOM     25  C   UNL A   1      42.549  24.795  28.263  1.00  0.00     0.031 A 
ATOM     26  C   UNL A   1      44.699  30.174  31.406  1.00  0.00     0.049 A 
ATOM     27  C   UNL A   1      43.837  25.150  28.969  1.00  0.00     0.074 A 
ATOM     28  C   UNL A   1      45.844  30.306  32.163  1.00  0.00     0.029 A 
ATOM     29  N   UNL A   1      44.687  28.884  30.895  1.00  0.00    -0.354 N 
ATOM     30  N   UNL A   1      44.162  26.267  29.580  1.00  0.00    -0.248 NA
ATOM     31  C   UNL A   1      44.868  24.105  29.042  1.00  0.00     0.031 C 
ATOM     32  C   UNL A   1      46.557  29.107  32.065  1.00  0.00     0.029 A 
ATOM     33  C   UNL A   1      45.820  28.211  31.301  1.00  0.00     0.049 A 
ATOM     34  H   UNL A   1      43.977  28.506  30.328  1.00  0.00     0.167 HD
ATOM     35  C   UNL A   1      45.392  26.028  30.181  1.00  0.00     0.074 A 
ATOM     36  C   UNL A   1      45.764  24.669  29.840  1.00  0.00     0.031 C 
ATOM     37  C   UNL A   1      46.137  26.845  30.967  1.00  0.00     0.031 A 
BRANCH  24  38
ATOM     38  C   UNL A   1      43.753  32.516  31.744  1.00  0.00    -0.014 A 
ATOM     39  C   UNL A   1      44.406  33.554  31.047  1.00  0.00     0.010 A 
ATOM     40  C   UNL A   1      43.273  32.752  33.041  1.00  0.00     0.010 A 
ATOM     41  C   UNL A   1      44.652  34.777  31.669  1.00  0.00     0.020 A 
ATOM     42  C   UNL A   1      43.484  33.990  33.652  1.00  0.00     0.020 A 
ATOM     43  C   UNL A   1      44.197  34.983  32.973  1.00  0.00     0.054 A 
BRANCH  43  44
ATOM     44  S   UNL A   1      44.548  36.574  33.768  1.00  0.00     0.124 S 
ATOM     45  O   UNL A   1      43.625  36.553  34.901  1.00  0.00    -0.237 OA
ATOM     46  O   UNL A   1      45.963  36.455  34.108  1.00  0.00    -0.237 OA
ATOM     47  O   UNL A   1      44.239  37.553  32.729  1.00  0.00    -0.744 OA
ENDBRANCH  43  44
ENDBRANCH  24  38
BRANCH  25  48
ATOM     48  C   UNL A   1      42.379  23.444  27.642  1.00  0.00    -0.014 A 
ATOM     49  C   UNL A   1      41.814  22.383  28.375  1.00  0.00     0.010 A 
ATOM     50  C   UNL A   1      42.845  23.185  26.339  1.00  0.00     0.010 A 
ATOM     51  C   UNL A   1      41.756  21.089  27.840  1.00  0.00     0.020 A 
ATOM     52  C   UNL A   1      42.768  21.897  25.790  1.00  0.00     0.020 A 
ATOM     53  C   UNL A   1      42.237  20.853  26.551  1.00  0.00     0.054 A 
BRANCH  53  54
ATOM     54  S   UNL A   1      42.144  19.165  25.879  1.00  0.00     0.124 S 
ATOM     55  O   UNL A   1      42.999  19.256  24.699  1.00  0.00    -0.237 OA
ATOM     56  O   UNL A   1      42.669  18.362  26.980  1.00  0.00    -0.237 OA
ATOM     57  O   UNL A   1      40.720  18.983  25.607  1.00  0.00    -0.744 OA
ENDBRANCH  53  54
ENDBRANCH  25  48
BRANCH  37  58
ATOM     58  C   UNL A   1      47.378  26.273  31.591  1.00  0.00    -0.014 A 
ATOM     59  C   UNL A   1      47.357  25.679  32.863  1.00  0.00     0.010 A 
ATOM     60  C   UNL A   1      48.564  26.247  30.833  1.00  0.00     0.010 A 
ATOM     61  C   UNL A   1      48.511  25.088  33.377  1.00  0.00     0.020 A 
ATOM     62  C   UNL A   1      49.709  25.626  31.328  1.00  0.00     0.020 A 
ATOM     63  C   UNL A   1      49.678  25.060  32.604  1.00  0.00     0.054 A 
BRANCH  63  64
ATOM     64  S   UNL A   1      51.144  24.225  33.266  1.00  0.00     0.124 S 
ATOM     65  O   UNL A   1      52.228  24.988  32.654  1.00  0.00    -0.237 OA
ATOM     66  O   UNL A   1      50.986  24.400  34.709  1.00  0.00    -0.237 OA
ATOM     67  O   UNL A   1      51.003  22.850  32.792  1.00  0.00    -0.744 OA
ENDBRANCH  63  64
ENDBRANCH  37  58
ENDBRANCH  11  12
ENDBRANCH   4   6
ENDBRANCH   3   4
ENDBRANCH   2   3
ENDBRANCH   1   2
BRANCH   1  68
ATOM     68  O   UNL A   1      31.936  28.046  25.472  1.00  0.00    -0.462 OA
BRANCH  68  69
ATOM     69  C   UNL A   1      31.757  26.826  26.047  1.00  0.00     0.312 C 
ATOM     70  O   UNL A   1      31.169  26.718  27.118  1.00  0.00    -0.252 OA
BRANCH  69  71
ATOM     71  C   UNL A   1      32.292  25.611  25.253  1.00  0.00     0.072 C 
ATOM     72  C   UNL A   1      31.609  24.288  25.663  1.00  0.00     0.024 C 
ATOM     73  C   UNL A   1      33.780  25.508  25.616  1.00  0.00     0.054 C 
ATOM     74  C   UNL A   1      32.291  23.026  25.102  1.00  0.00     0.037 C 
ATOM     75  C   UNL A   1      34.501  24.224  25.296  1.00  0.00    -0.044 A 
ATOM     76  C   UNL A   1      33.793  23.022  25.218  1.00  0.00    -0.045 A 
ATOM     77  C   UNL A   1      35.906  24.206  25.283  1.00  0.00     0.004 A 
ATOM     78  C   UNL A   1      34.510  21.814  25.211  1.00  0.00     0.004 A 
ATOM     79  C   UNL A   1      36.606  23.005  25.316  1.00  0.00     0.000 A 
ATOM     80  C   UNL A   1      35.906  21.806  25.301  1.00  0.00     0.000 A 
BRANCH  71  81
ATOM     81  C   UNL A   1      32.239  25.907  23.721  1.00  0.00     0.019 C 
BRANCH  81  82
ATOM     82  C   UNL A   1      33.547  26.122  22.950  1.00  0.00     0.004 C 
BRANCH  82  83
ATOM     83  C   UNL A   1      33.644  27.339  22.019  1.00  0.00     0.028 C 
BRANCH  83  84
ATOM     84  C   UNL A   1      33.461  28.707  22.685  1.00  0.00     0.156 C 
BRANCH  84  85
ATOM     85  O   UNL A   1      34.321  28.830  23.810  1.00  0.00    -0.396 OA
ATOM     86  H   UNL A   1      33.848  29.273  24.532  1.00  0.00     0.210 HD
ENDBRANCH  84  85
ENDBRANCH  83  84
ENDBRANCH  82  83
ENDBRANCH  81  82
ENDBRANCH  71  81
ENDBRANCH  69  71
ENDBRANCH  68  69
ENDBRANCH   1  68
TORSDOF 19
ENDMDL
