MODEL 1
REMARK VINA RESULT:      -9.0      0.000      0.000
REMARK SMILES CCC[C@H](Oc1ccccc1C(C)=O)C(=O)OCCOC(=O)c1ccc(-c2c3nc(c(-c4ccc(S(=O)(=O)[O-])cc4)c4ccc([nH]4)c(-c4ccc(S(=O)(=O)[O-])cc4)c4nc(c(-c5ccc(S(=O)(=O)[O-])cc5)c5ccc2[nH]5)C=C4)C=C3)cc1
REMARK SMILES IDX 18 1 17 2 15 3 16 4 4 5 3 6 2 7 1 8 5 9 6 10 7 11 11 12 8 13
REMARK SMILES IDX 10 14 9 15 12 16 13 17 14 18 19 19 20 20 21 21 22 22 23 23
REMARK SMILES IDX 24 24 82 25 25 26 81 27 26 28 27 29 28 30 75 31 29 32 80 33
REMARK SMILES IDX 74 34 76 35 30 36 79 37 73 38 72 39 31 41 61 42 42 43 60 44
REMARK SMILES IDX 43 45 46 46 59 47 77 48 44 49 45 50 58 52 78 53 47 54 32 55
REMARK SMILES IDX 33 56 41 57 34 58 40 59 35 60 36 61 37 62 38 63 39 64 62 65
REMARK SMILES IDX 63 66 71 67 64 68 70 69 65 70 66 71 67 72 68 73 69 74 48 75
REMARK SMILES IDX 49 76 57 77 50 78 56 79 51 80 52 81 53 82 54 83 55 84
REMARK H PARENT 76 40 46 51
REMARK Flexibility Score: inf
ROOT
ATOM      1  C   UNL A   1      36.294  22.928  24.198  1.00  0.00     0.274 C 
ENDROOT
BRANCH   1   2
ATOM      2  O   UNL A   1      35.783  23.823  25.201  1.00  0.00    -0.459 OA
BRANCH   2   3
ATOM      3  C   UNL A   1      34.540  23.552  25.673  1.00  0.00     0.347 C 
ATOM      4  O   UNL A   1      34.259  22.598  26.393  1.00  0.00    -0.248 OA
BRANCH   3   5
ATOM      5  C   UNL A   1      33.482  24.560  25.204  1.00  0.00     0.282 C 
BRANCH   5   6
ATOM      6  C   UNL A   1      32.391  23.820  24.407  1.00  0.00     0.057 C 
BRANCH   6   7
ATOM      7  C   UNL A   1      32.838  22.875  23.289  1.00  0.00     0.001 C 
ATOM      8  C   UNL A   1      32.370  21.442  23.454  1.00  0.00     0.004 C 
ENDBRANCH   6   7
ENDBRANCH   5   6
BRANCH   5   9
ATOM      9  O   UNL A   1      34.062  25.673  24.533  1.00  0.00    -0.478 OA
BRANCH   9  10
ATOM     10  C   UNL A   1      33.635  26.949  24.787  1.00  0.00     0.131 A 
ATOM     11  C   UNL A   1      33.759  27.561  26.044  1.00  0.00     0.047 A 
ATOM     12  C   UNL A   1      33.049  27.674  23.721  1.00  0.00     0.059 A 
ATOM     13  C   UNL A   1      33.285  28.855  26.263  1.00  0.00     0.004 A 
ATOM     14  C   UNL A   1      32.581  28.979  23.964  1.00  0.00     0.016 A 
ATOM     15  C   UNL A   1      32.693  29.561  25.228  1.00  0.00     0.001 A 
BRANCH  12  16
ATOM     16  C   UNL A   1      32.855  27.060  22.358  1.00  0.00     0.163 C 
ATOM     17  C   UNL A   1      31.535  26.416  22.000  1.00  0.00     0.093 C 
ATOM     18  O   UNL A   1      33.757  27.058  21.522  1.00  0.00    -0.294 OA
ENDBRANCH  12  16
ENDBRANCH   9  10
ENDBRANCH   5   9
ENDBRANCH   3   5
ENDBRANCH   2   3
ENDBRANCH   1   2
BRANCH   1  19
ATOM     19  C   UNL A   1      37.374  22.025  24.791  1.00  0.00     0.275 C 
BRANCH  19  20
ATOM     20  O   UNL A   1      37.829  22.547  26.051  1.00  0.00    -0.458 OA
BRANCH  20  21
ATOM     21  C   UNL A   1      39.169  22.690  26.174  1.00  0.00     0.338 C 
ATOM     22  O   UNL A   1      40.043  21.925  25.810  1.00  0.00    -0.246 OA
BRANCH  21  23
ATOM     23  C   UNL A   1      39.453  23.986  26.800  1.00  0.00     0.060 A 
ATOM     24  C   UNL A   1      40.343  24.857  26.167  1.00  0.00     0.016 A 
ATOM     25  C   UNL A   1      38.922  24.294  28.052  1.00  0.00     0.016 A 
ATOM     26  C   UNL A   1      40.711  26.047  26.790  1.00  0.00     0.010 A 
ATOM     27  C   UNL A   1      39.288  25.492  28.674  1.00  0.00     0.010 A 
ATOM     28  C   UNL A   1      40.196  26.367  28.054  1.00  0.00    -0.014 A 
BRANCH  28  29
ATOM     29  C   UNL A   1      40.654  27.591  28.755  1.00  0.00     0.031 A 
ATOM     30  C   UNL A   1      42.035  27.638  29.347  1.00  0.00     0.074 A 
ATOM     31  C   UNL A   1      39.837  28.656  28.852  1.00  0.00     0.049 A 
ATOM     32  N   UNL A   1      42.591  28.578  30.068  1.00  0.00    -0.248 NA
ATOM     33  C   UNL A   1      42.902  26.476  29.095  1.00  0.00     0.031 C 
ATOM     34  C   UNL A   1      38.493  28.745  28.279  1.00  0.00     0.029 A 
ATOM     35  N   UNL A   1      40.019  29.866  29.472  1.00  0.00    -0.354 N 
ATOM     36  C   UNL A   1      43.864  28.113  30.377  1.00  0.00     0.074 A 
ATOM     37  C   UNL A   1      43.993  26.803  29.773  1.00  0.00     0.031 C 
ATOM     38  C   UNL A   1      37.972  29.949  28.573  1.00  0.00     0.029 A 
ATOM     39  C   UNL A   1      38.925  30.694  29.392  1.00  0.00     0.049 A 
ATOM     40  H   UNL A   1      40.852  30.118  29.930  1.00  0.00     0.167 HD
ATOM     41  C   UNL A   1      44.835  28.721  31.099  1.00  0.00     0.031 A 
ATOM     42  C   UNL A   1      38.702  31.905  29.940  1.00  0.00     0.031 A 
ATOM     43  C   UNL A   1      44.700  30.022  31.700  1.00  0.00     0.049 A 
ATOM     44  C   UNL A   1      39.774  32.535  30.786  1.00  0.00     0.074 A 
ATOM     45  C   UNL A   1      45.628  30.725  32.449  1.00  0.00     0.029 A 
ATOM     46  N   UNL A   1      43.565  30.814  31.622  1.00  0.00    -0.354 N 
ATOM     47  N   UNL A   1      40.968  32.077  31.077  1.00  0.00    -0.248 NA
ATOM     48  C   UNL A   1      39.465  33.843  31.380  1.00  0.00     0.031 C 
ATOM     49  C   UNL A   1      45.037  31.928  32.858  1.00  0.00     0.029 A 
ATOM     50  C   UNL A   1      43.760  31.992  32.324  1.00  0.00     0.049 A 
ATOM     51  H   UNL A   1      42.741  30.574  31.139  1.00  0.00     0.167 HD
ATOM     52  C   UNL A   1      41.560  33.047  31.878  1.00  0.00     0.074 A 
ATOM     53  C   UNL A   1      40.598  34.123  32.012  1.00  0.00     0.031 C 
ATOM     54  C   UNL A   1      42.788  33.048  32.451  1.00  0.00     0.031 A 
BRANCH  41  55
ATOM     55  C   UNL A   1      46.116  27.961  31.313  1.00  0.00    -0.014 A 
ATOM     56  C   UNL A   1      47.196  28.085  30.420  1.00  0.00     0.010 A 
ATOM     57  C   UNL A   1      46.250  27.128  32.438  1.00  0.00     0.010 A 
ATOM     58  C   UNL A   1      48.371  27.359  30.628  1.00  0.00     0.020 A 
ATOM     59  C   UNL A   1      47.433  26.416  32.660  1.00  0.00     0.020 A 
ATOM     60  C   UNL A   1      48.479  26.522  31.743  1.00  0.00     0.054 A 
BRANCH  60  61
ATOM     61  S   UNL A   1      50.018  25.595  31.994  1.00  0.00     0.124 S 
ATOM     62  O   UNL A   1      50.891  26.613  32.575  1.00  0.00    -0.237 OA
ATOM     63  O   UNL A   1      49.609  24.528  32.904  1.00  0.00    -0.237 OA
ATOM     64  O   UNL A   1      50.383  25.156  30.649  1.00  0.00    -0.744 OA
ENDBRANCH  60  61
ENDBRANCH  41  55
BRANCH  42  65
ATOM     65  C   UNL A   1      37.395  32.582  29.727  1.00  0.00    -0.014 A 
ATOM     66  C   UNL A   1      36.298  32.296  30.558  1.00  0.00     0.010 A 
ATOM     67  C   UNL A   1      37.250  33.537  28.705  1.00  0.00     0.010 A 
ATOM     68  C   UNL A   1      35.077  32.949  30.364  1.00  0.00     0.020 A 
ATOM     69  C   UNL A   1      36.039  34.210  28.524  1.00  0.00     0.020 A 
ATOM     70  C   UNL A   1      34.957  33.904  29.351  1.00  0.00     0.054 A 
BRANCH  70  71
ATOM     71  S   UNL A   1      33.384  34.791  29.161  1.00  0.00     0.124 S 
ATOM     72  O   UNL A   1      32.883  34.817  30.531  1.00  0.00    -0.237 OA
ATOM     73  O   UNL A   1      33.808  36.079  28.616  1.00  0.00    -0.237 OA
ATOM     74  O   UNL A   1      32.630  33.949  28.232  1.00  0.00    -0.744 OA
ENDBRANCH  70  71
ENDBRANCH  42  65
BRANCH  54  75
ATOM     75  C   UNL A   1      43.171  34.258  33.257  1.00  0.00    -0.014 A 
ATOM     76  C   UNL A   1      43.808  35.358  32.656  1.00  0.00     0.010 A 
ATOM     77  C   UNL A   1      42.847  34.314  34.625  1.00  0.00     0.010 A 
ATOM     78  C   UNL A   1      44.139  36.483  33.415  1.00  0.00     0.020 A 
ATOM     79  C   UNL A   1      43.157  35.446  35.383  1.00  0.00     0.020 A 
ATOM     80  C   UNL A   1      43.814  36.519  34.776  1.00  0.00     0.054 A 
BRANCH  80  81
ATOM     81  S   UNL A   1      44.217  38.004  35.735  1.00  0.00     0.124 S 
ATOM     82  O   UNL A   1      43.479  37.776  36.973  1.00  0.00    -0.237 OA
ATOM     83  O   UNL A   1      45.672  37.932  35.847  1.00  0.00    -0.237 OA
ATOM     84  O   UNL A   1      43.717  39.098  34.903  1.00  0.00    -0.744 OA
ENDBRANCH  80  81
ENDBRANCH  54  75
ENDBRANCH  28  29
ENDBRANCH  21  23
ENDBRANCH  20  21
ENDBRANCH  19  20
ENDBRANCH   1  19
TORSDOF 19
ENDMDL
MODEL 2
REMARK VINA RESULT:      -8.9      4.212     10.220
REMARK SMILES CCC[C@H](Oc1ccccc1C(C)=O)C(=O)OCCOC(=O)c1ccc(-c2c3nc(c(-c4ccc(S(=O)(=O)[O-])cc4)c4ccc([nH]4)c(-c4ccc(S(=O)(=O)[O-])cc4)c4nc(c(-c5ccc(S(=O)(=O)[O-])cc5)c5ccc2[nH]5)C=C4)C=C3)cc1
REMARK SMILES IDX 18 1 17 2 15 3 16 4 4 5 3 6 2 7 1 8 5 9 6 10 7 11 11 12 8 13
REMARK SMILES IDX 10 14 9 15 12 16 13 17 14 18 19 19 20 20 21 21 22 22 23 23
REMARK SMILES IDX 24 24 82 25 25 26 81 27 26 28 27 29 28 30 75 31 29 32 80 33
REMARK SMILES IDX 74 34 76 35 30 36 79 37 73 38 72 39 31 41 61 42 42 43 60 44
REMARK SMILES IDX 43 45 46 46 59 47 77 48 44 49 45 50 58 52 78 53 47 54 32 55
REMARK SMILES IDX 33 56 41 57 34 58 40 59 35 60 36 61 37 62 38 63 39 64 62 65
REMARK SMILES IDX 63 66 71 67 64 68 70 69 65 70 66 71 67 72 68 73 69 74 48 75
REMARK SMILES IDX 49 76 57 77 50 78 56 79 51 80 52 81 53 82 54 83 55 84
REMARK H PARENT 76 40 46 51
REMARK Flexibility Score: inf
ROOT
ATOM      1  C   UNL A   1      33.159  29.350  27.326  1.00  0.00     0.274 C 
ENDROOT
BRANCH   1   2
ATOM      2  O   UNL A   1      33.338  27.957  27.021  1.00  0.00    -0.459 OA
BRANCH   2   3
ATOM      3  C   UNL A   1      32.583  27.460  26.008  1.00  0.00     0.347 C 
ATOM      4  O   UNL A   1      31.382  27.671  25.864  1.00  0.00    -0.248 OA
BRANCH   3   5
ATOM      5  C   UNL A   1      33.378  26.573  25.041  1.00  0.00     0.282 C 
BRANCH   5   6
ATOM      6  C   UNL A   1      32.646  26.512  23.686  1.00  0.00     0.057 C 
BRANCH   6   7
ATOM      7  C   UNL A   1      33.307  27.190  22.484  1.00  0.00     0.001 C 
ATOM      8  C   UNL A   1      34.069  28.457  22.820  1.00  0.00     0.004 C 
ENDBRANCH   6   7
ENDBRANCH   5   6
BRANCH   5   9
ATOM      9  O   UNL A   1      33.692  25.306  25.609  1.00  0.00    -0.478 OA
BRANCH   9  10
ATOM     10  C   UNL A   1      33.465  24.148  24.915  1.00  0.00     0.131 A 
ATOM     11  C   UNL A   1      34.270  23.729  23.844  1.00  0.00     0.047 A 
ATOM     12  C   UNL A   1      32.370  23.343  25.311  1.00  0.00     0.059 A 
ATOM     13  C   UNL A   1      33.986  22.554  23.148  1.00  0.00     0.004 A 
ATOM     14  C   UNL A   1      32.104  22.159  24.597  1.00  0.00     0.016 A 
ATOM     15  C   UNL A   1      32.903  21.772  23.520  1.00  0.00     0.001 A 
BRANCH  12  16
ATOM     16  C   UNL A   1      31.448  23.756  26.431  1.00  0.00     0.163 C 
ATOM     17  C   UNL A   1      30.166  24.492  26.119  1.00  0.00     0.093 C 
ATOM     18  O   UNL A   1      31.720  23.517  27.606  1.00  0.00    -0.294 OA
ENDBRANCH  12  16
ENDBRANCH   9  10
ENDBRANCH   5   9
ENDBRANCH   3   5
ENDBRANCH   2   3
ENDBRANCH   1   2
BRANCH   1  19
ATOM     19  C   UNL A   1      34.497  30.085  27.262  1.00  0.00     0.275 C 
BRANCH  19  20
ATOM     20  O   UNL A   1      35.507  29.352  27.975  1.00  0.00    -0.458 OA
BRANCH  20  21
ATOM     21  C   UNL A   1      36.168  30.048  28.930  1.00  0.00     0.338 C 
ATOM     22  O   UNL A   1      35.701  30.734  29.819  1.00  0.00    -0.246 OA
BRANCH  21  23
ATOM     23  C   UNL A   1      37.609  29.817  28.773  1.00  0.00     0.060 A 
ATOM     24  C   UNL A   1      38.135  29.710  27.484  1.00  0.00     0.016 A 
ATOM     25  C   UNL A   1      38.413  29.610  29.893  1.00  0.00     0.016 A 
ATOM     26  C   UNL A   1      39.479  29.387  27.308  1.00  0.00     0.010 A 
ATOM     27  C   UNL A   1      39.763  29.292  29.714  1.00  0.00     0.010 A 
ATOM     28  C   UNL A   1      40.300  29.163  28.422  1.00  0.00    -0.014 A 
BRANCH  28  29
ATOM     29  C   UNL A   1      41.707  28.735  28.235  1.00  0.00     0.031 A 
ATOM     30  C   UNL A   1      42.812  29.752  28.314  1.00  0.00     0.074 A 
ATOM     31  C   UNL A   1      41.992  27.441  28.005  1.00  0.00     0.049 A 
ATOM     32  N   UNL A   1      44.093  29.596  28.096  1.00  0.00    -0.248 NA
ATOM     33  C   UNL A   1      42.424  31.122  28.684  1.00  0.00     0.031 C 
ATOM     34  C   UNL A   1      41.010  26.356  27.952  1.00  0.00     0.029 A 
ATOM     35  N   UNL A   1      43.192  26.819  27.768  1.00  0.00    -0.354 N 
ATOM     36  C   UNL A   1      44.662  30.851  28.280  1.00  0.00     0.074 A 
ATOM     37  C   UNL A   1      43.585  31.758  28.615  1.00  0.00     0.031 C 
ATOM     38  C   UNL A   1      41.649  25.201  27.702  1.00  0.00     0.029 A 
ATOM     39  C   UNL A   1      43.074  25.471  27.530  1.00  0.00     0.049 A 
ATOM     40  H   UNL A   1      44.054  27.292  27.770  1.00  0.00     0.167 HD
ATOM     41  C   UNL A   1      45.963  31.213  28.175  1.00  0.00     0.031 A 
ATOM     42  C   UNL A   1      44.004  24.559  27.184  1.00  0.00     0.031 A 
ATOM     43  C   UNL A   1      47.030  30.308  27.837  1.00  0.00     0.049 A 
ATOM     44  C   UNL A   1      45.433  24.997  27.018  1.00  0.00     0.074 A 
ATOM     45  C   UNL A   1      48.381  30.578  27.710  1.00  0.00     0.029 A 
ATOM     46  N   UNL A   1      46.864  28.957  27.573  1.00  0.00    -0.354 N 
ATOM     47  N   UNL A   1      45.954  26.190  27.185  1.00  0.00    -0.248 NA
ATOM     48  C   UNL A   1      46.399  23.966  26.613  1.00  0.00     0.031 C 
ATOM     49  C   UNL A   1      49.028  29.396  27.327  1.00  0.00     0.029 A 
ATOM     50  C   UNL A   1      48.086  28.382  27.263  1.00  0.00     0.049 A 
ATOM     51  H   UNL A   1      46.005  28.477  27.600  1.00  0.00     0.167 HD
ATOM     52  C   UNL A   1      47.311  26.051  26.918  1.00  0.00     0.074 A 
ATOM     53  C   UNL A   1      47.533  24.655  26.595  1.00  0.00     0.031 C 
ATOM     54  C   UNL A   1      48.286  26.992  26.938  1.00  0.00     0.031 A 
BRANCH  41  55
ATOM     55  C   UNL A   1      46.296  32.665  28.389  1.00  0.00    -0.014 A 
ATOM     56  C   UNL A   1      46.257  33.587  27.328  1.00  0.00     0.010 A 
ATOM     57  C   UNL A   1      46.630  33.118  29.678  1.00  0.00     0.010 A 
ATOM     58  C   UNL A   1      46.584  34.928  27.544  1.00  0.00     0.020 A 
ATOM     59  C   UNL A   1      46.938  34.463  29.902  1.00  0.00     0.020 A 
ATOM     60  C   UNL A   1      46.931  35.356  28.829  1.00  0.00     0.054 A 
BRANCH  60  61
ATOM     61  S   UNL A   1      47.346  37.103  29.087  1.00  0.00     0.124 S 
ATOM     62  O   UNL A   1      48.742  37.021  29.510  1.00  0.00    -0.237 OA
ATOM     63  O   UNL A   1      47.125  37.686  27.766  1.00  0.00    -0.237 OA
ATOM     64  O   UNL A   1      46.406  37.535  30.119  1.00  0.00    -0.744 OA
ENDBRANCH  60  61
ENDBRANCH  41  55
BRANCH  42  65
ATOM     65  C   UNL A   1      43.601  23.148  26.943  1.00  0.00    -0.014 A 
ATOM     66  C   UNL A   1      43.031  22.380  27.973  1.00  0.00     0.010 A 
ATOM     67  C   UNL A   1      43.765  22.573  25.669  1.00  0.00     0.010 A 
ATOM     68  C   UNL A   1      42.638  21.060  27.735  1.00  0.00     0.020 A 
ATOM     69  C   UNL A   1      43.350  21.262  25.421  1.00  0.00     0.020 A 
ATOM     70  C   UNL A   1      42.797  20.511  26.459  1.00  0.00     0.054 A 
BRANCH  70  71
ATOM     71  S   UNL A   1      42.217  18.818  26.152  1.00  0.00     0.124 S 
ATOM     72  O   UNL A   1      40.829  19.040  25.762  1.00  0.00    -0.237 OA
ATOM     73  O   UNL A   1      43.110  18.363  25.089  1.00  0.00    -0.237 OA
ATOM     74  O   UNL A   1      42.409  18.155  27.442  1.00  0.00    -0.744 OA
ENDBRANCH  70  71
ENDBRANCH  42  65
BRANCH  54  75
ATOM     75  C   UNL A   1      49.685  26.541  26.624  1.00  0.00    -0.014 A 
ATOM     76  C   UNL A   1      50.501  25.965  27.614  1.00  0.00     0.010 A 
ATOM     77  C   UNL A   1      50.173  26.653  25.309  1.00  0.00     0.010 A 
ATOM     78  C   UNL A   1      51.792  25.533  27.301  1.00  0.00     0.020 A 
ATOM     79  C   UNL A   1      51.456  26.203  24.987  1.00  0.00     0.020 A 
ATOM     80  C   UNL A   1      52.263  25.658  25.989  1.00  0.00     0.054 A 
BRANCH  80  81
ATOM     81  S   UNL A   1      53.927  25.055  25.594  1.00  0.00     0.124 S 
ATOM     82  O   UNL A   1      53.691  23.630  25.380  1.00  0.00    -0.237 OA
ATOM     83  O   UNL A   1      54.274  25.821  24.399  1.00  0.00    -0.237 OA
ATOM     84  O   UNL A   1      54.706  25.387  26.786  1.00  0.00    -0.744 OA
ENDBRANCH  80  81
ENDBRANCH  54  75
ENDBRANCH  28  29
ENDBRANCH  21  23
ENDBRANCH  20  21
ENDBRANCH  19  20
ENDBRANCH   1  19
TORSDOF 19
ENDMDL
MODEL 3
REMARK VINA RESULT:      -8.9      3.215      4.059
REMARK SMILES CCC[C@H](Oc1ccccc1C(C)=O)C(=O)OCCOC(=O)c1ccc(-c2c3nc(c(-c4ccc(S(=O)(=O)[O-])cc4)c4ccc([nH]4)c(-c4ccc(S(=O)(=O)[O-])cc4)c4nc(c(-c5ccc(S(=O)(=O)[O-])cc5)c5ccc2[nH]5)C=C4)C=C3)cc1
REMARK SMILES IDX 18 1 17 2 15 3 16 4 4 5 3 6 2 7 1 8 5 9 6 10 7 11 11 12 8 13
REMARK SMILES IDX 10 14 9 15 12 16 13 17 14 18 19 19 20 20 21 21 22 22 23 23
REMARK SMILES IDX 24 24 82 25 25 26 81 27 26 28 27 29 28 30 75 31 29 32 80 33
REMARK SMILES IDX 74 34 76 35 30 36 79 37 73 38 72 39 31 41 61 42 42 43 60 44
REMARK SMILES IDX 43 45 46 46 59 47 77 48 44 49 45 50 58 52 78 53 47 54 32 55
REMARK SMILES IDX 33 56 41 57 34 58 40 59 35 60 36 61 37 62 38 63 39 64 62 65
REMARK SMILES IDX 63 66 71 67 64 68 70 69 65 70 66 71 67 72 68 73 69 74 48 75
REMARK SMILES IDX 49 76 57 77 50 78 56 79 51 80 52 81 53 82 54 83 55 84
REMARK H PARENT 76 40 46 51
REMARK Flexibility Score: inf
ROOT
ATOM      1  C   UNL A   1      38.816  21.764  25.804  1.00  0.00     0.274 C 
ENDROOT
BRANCH   1   2
ATOM      2  O   UNL A   1      37.514  22.254  26.168  1.00  0.00    -0.459 OA
BRANCH   2   3
ATOM      3  C   UNL A   1      36.923  23.102  25.288  1.00  0.00     0.347 C 
ATOM      4  O   UNL A   1      37.505  23.673  24.370  1.00  0.00    -0.248 OA
BRANCH   3   5
ATOM      5  C   UNL A   1      35.425  23.302  25.556  1.00  0.00     0.282 C 
BRANCH   5   6
ATOM      6  C   UNL A   1      34.805  21.966  26.008  1.00  0.00     0.057 C 
BRANCH   6   7
ATOM      7  C   UNL A   1      34.204  21.056  24.934  1.00  0.00     0.001 C 
ATOM      8  C   UNL A   1      32.883  20.419  25.320  1.00  0.00     0.004 C 
ENDBRANCH   6   7
ENDBRANCH   5   6
BRANCH   5   9
ATOM      9  O   UNL A   1      34.764  23.930  24.463  1.00  0.00    -0.478 OA
BRANCH   9  10
ATOM     10  C   UNL A   1      33.924  24.992  24.665  1.00  0.00     0.131 A 
ATOM     11  C   UNL A   1      34.133  25.951  25.668  1.00  0.00     0.047 A 
ATOM     12  C   UNL A   1      32.801  25.119  23.812  1.00  0.00     0.059 A 
ATOM     13  C   UNL A   1      33.236  27.004  25.854  1.00  0.00     0.004 A 
ATOM     14  C   UNL A   1      31.911  26.190  24.015  1.00  0.00     0.016 A 
ATOM     15  C   UNL A   1      32.125  27.121  25.033  1.00  0.00     0.001 A 
BRANCH  12  16
ATOM     16  C   UNL A   1      32.503  24.101  22.739  1.00  0.00     0.163 C 
ATOM     17  C   UNL A   1      31.507  22.996  23.003  1.00  0.00     0.093 C 
ATOM     18  O   UNL A   1      33.064  24.140  21.646  1.00  0.00    -0.294 OA
ENDBRANCH  12  16
ENDBRANCH   9  10
ENDBRANCH   5   9
ENDBRANCH   3   5
ENDBRANCH   2   3
ENDBRANCH   1   2
BRANCH   1  19
ATOM     19  C   UNL A   1      39.865  22.243  26.807  1.00  0.00     0.275 C 
BRANCH  19  20
ATOM     20  O   UNL A   1      39.614  23.609  27.181  1.00  0.00    -0.458 OA
BRANCH  20  21
ATOM     21  C   UNL A   1      40.653  24.459  27.009  1.00  0.00     0.338 C 
ATOM     22  O   UNL A   1      41.573  24.373  26.217  1.00  0.00    -0.246 OA
BRANCH  21  23
ATOM     23  C   UNL A   1      40.493  25.594  27.925  1.00  0.00     0.060 A 
ATOM     24  C   UNL A   1      41.514  26.544  28.002  1.00  0.00     0.016 A 
ATOM     25  C   UNL A   1      39.389  25.663  28.774  1.00  0.00     0.016 A 
ATOM     26  C   UNL A   1      41.436  27.573  28.938  1.00  0.00     0.010 A 
ATOM     27  C   UNL A   1      39.309  26.699  29.709  1.00  0.00     0.010 A 
ATOM     28  C   UNL A   1      40.339  27.650  29.807  1.00  0.00    -0.014 A 
BRANCH  28  29
ATOM     29  C   UNL A   1      40.296  28.693  30.861  1.00  0.00     0.031 A 
ATOM     30  C   UNL A   1      41.222  28.598  32.041  1.00  0.00     0.074 A 
ATOM     31  C   UNL A   1      39.439  29.724  30.753  1.00  0.00     0.049 A 
ATOM     32  N   UNL A   1      41.283  29.357  33.105  1.00  0.00    -0.248 NA
ATOM     33  C   UNL A   1      42.207  27.504  32.022  1.00  0.00     0.031 C 
ATOM     34  C   UNL A   1      38.524  29.948  29.632  1.00  0.00     0.029 A 
ATOM     35  N   UNL A   1      39.194  30.774  31.601  1.00  0.00    -0.354 N 
ATOM     36  C   UNL A   1      42.294  28.822  33.894  1.00  0.00     0.074 A 
ATOM     37  C   UNL A   1      42.812  27.667  33.191  1.00  0.00     0.031 C 
ATOM     38  C   UNL A   1      37.820  31.070  29.861  1.00  0.00     0.029 A 
ATOM     39  C   UNL A   1      38.199  31.614  31.163  1.00  0.00     0.049 A 
ATOM     40  H   UNL A   1      39.685  30.913  32.443  1.00  0.00     0.167 HD
ATOM     41  C   UNL A   1      42.747  29.252  35.095  1.00  0.00     0.031 A 
ATOM     42  C   UNL A   1      37.634  32.685  31.754  1.00  0.00     0.031 A 
ATOM     43  C   UNL A   1      42.227  30.399  35.792  1.00  0.00     0.049 A 
ATOM     44  C   UNL A   1      38.115  33.109  33.115  1.00  0.00     0.074 A 
ATOM     45  C   UNL A   1      42.622  30.917  37.014  1.00  0.00     0.029 A 
ATOM     46  N   UNL A   1      41.198  31.204  35.329  1.00  0.00    -0.354 N 
ATOM     47  N   UNL A   1      39.066  32.586  33.852  1.00  0.00    -0.248 NA
ATOM     48  C   UNL A   1      37.444  34.266  33.723  1.00  0.00     0.031 C 
ATOM     49  C   UNL A   1      41.801  32.014  37.308  1.00  0.00     0.029 A 
ATOM     50  C   UNL A   1      40.929  32.205  36.248  1.00  0.00     0.049 A 
ATOM     51  H   UNL A   1      40.726  31.082  34.473  1.00  0.00     0.167 HD
ATOM     52  C   UNL A   1      39.117  33.358  35.007  1.00  0.00     0.074 A 
ATOM     53  C   UNL A   1      38.113  34.393  34.863  1.00  0.00     0.031 C 
ATOM     54  C   UNL A   1      39.921  33.222  36.089  1.00  0.00     0.031 A 
BRANCH  41  55
ATOM     55  C   UNL A   1      43.838  28.448  35.751  1.00  0.00    -0.014 A 
ATOM     56  C   UNL A   1      43.539  27.406  36.647  1.00  0.00     0.010 A 
ATOM     57  C   UNL A   1      45.183  28.726  35.448  1.00  0.00     0.010 A 
ATOM     58  C   UNL A   1      44.567  26.683  37.257  1.00  0.00     0.020 A 
ATOM     59  C   UNL A   1      46.214  27.990  36.040  1.00  0.00     0.020 A 
ATOM     60  C   UNL A   1      45.898  26.985  36.956  1.00  0.00     0.054 A 
BRANCH  60  61
ATOM     61  S   UNL A   1      47.215  26.026  37.756  1.00  0.00     0.124 S 
ATOM     62  O   UNL A   1      46.531  25.504  38.937  1.00  0.00    -0.237 OA
ATOM     63  O   UNL A   1      47.557  25.035  36.740  1.00  0.00    -0.237 OA
ATOM     64  O   UNL A   1      48.252  27.020  38.026  1.00  0.00    -0.744 OA
ENDBRANCH  60  61
ENDBRANCH  41  55
BRANCH  42  65
ATOM     65  C   UNL A   1      36.528  33.408  31.072  1.00  0.00    -0.014 A 
ATOM     66  C   UNL A   1      36.728  33.994  29.810  1.00  0.00     0.010 A 
ATOM     67  C   UNL A   1      35.260  33.492  31.674  1.00  0.00     0.010 A 
ATOM     68  C   UNL A   1      35.680  34.658  29.166  1.00  0.00     0.020 A 
ATOM     69  C   UNL A   1      34.203  34.133  31.021  1.00  0.00     0.020 A 
ATOM     70  C   UNL A   1      34.423  34.720  29.775  1.00  0.00     0.054 A 
BRANCH  70  71
ATOM     71  S   UNL A   1      33.057  35.525  28.890  1.00  0.00     0.124 S 
ATOM     72  O   UNL A   1      32.256  36.054  29.989  1.00  0.00    -0.237 OA
ATOM     73  O   UNL A   1      33.749  36.519  28.074  1.00  0.00    -0.237 OA
ATOM     74  O   UNL A   1      32.447  34.429  28.139  1.00  0.00    -0.744 OA
ENDBRANCH  70  71
ENDBRANCH  42  65
BRANCH  54  75
ATOM     75  C   UNL A   1      39.765  34.231  37.194  1.00  0.00    -0.014 A 
ATOM     76  C   UNL A   1      38.985  33.948  38.329  1.00  0.00     0.010 A 
ATOM     77  C   UNL A   1      40.445  35.460  37.115  1.00  0.00     0.010 A 
ATOM     78  C   UNL A   1      38.866  34.889  39.355  1.00  0.00     0.020 A 
ATOM     79  C   UNL A   1      40.345  36.395  38.148  1.00  0.00     0.020 A 
ATOM     80  C   UNL A   1      39.544  36.109  39.256  1.00  0.00     0.054 A 
BRANCH  80  81
ATOM     81  S   UNL A   1      39.409  37.300  40.617  1.00  0.00     0.124 S 
ATOM     82  O   UNL A   1      38.974  36.451  41.722  1.00  0.00    -0.237 OA
ATOM     83  O   UNL A   1      40.768  37.825  40.724  1.00  0.00    -0.237 OA
ATOM     84  O   UNL A   1      38.415  38.259  40.138  1.00  0.00    -0.744 OA
ENDBRANCH  80  81
ENDBRANCH  54  75
ENDBRANCH  28  29
ENDBRANCH  21  23
ENDBRANCH  20  21
ENDBRANCH  19  20
ENDBRANCH   1  19
TORSDOF 19
ENDMDL
