MODEL 1
REMARK VINA RESULT:     -10.4      0.000      0.000
REMARK SMILES CCOC(=O)C1=NN(c2ccc([N+](=O)[O-])cc2C(F)(F)F)[C@@](C)(C(=O)OCCOC(=O)c2ccc(-c3c4nc(c(-c5ccc(S(=O)(=O)[O-])cc5)c5ccc([nH]5)c(-c5ccc(S(=O)(=O)[O-])cc5)c5nc(c(-c6ccc(S(=O)(=O)[O-])cc6)c6ccc3[nH]6)C=C5)C=C4)cc2)C1
REMARK SMILES IDX 27 1 26 2 24 3 25 4 22 5 6 6 7 7 92 8 8 9 23 10 4 11 5 12
REMARK SMILES IDX 3 13 2 14 1 15 9 16 10 17 17 18 11 19 16 20 12 21 18 22
REMARK SMILES IDX 19 23 20 24 21 25 13 26 14 27 15 28 28 29 29 30 30 31 31 32
REMARK SMILES IDX 32 33 33 34 91 35 34 36 90 37 35 38 36 39 37 40 84 41 38 42
REMARK SMILES IDX 89 43 83 44 85 45 39 46 88 47 82 48 81 49 40 51 70 52 51 53
REMARK SMILES IDX 69 54 52 55 55 56 68 57 86 58 53 59 54 60 67 62 87 63 56 64
REMARK SMILES IDX 41 65 42 66 50 67 43 68 49 69 44 70 45 71 46 72 47 73 48 74
REMARK SMILES IDX 71 75 72 76 80 77 73 78 79 79 74 80 75 81 76 82 77 83 78 84
REMARK SMILES IDX 57 85 58 86 66 87 59 88 65 89 60 90 61 91 62 92 63 93 64 94
REMARK H PARENT 85 50 55 61
REMARK Flexibility Score: inf
ROOT
ATOM      1  C   UNL A   1      33.071  28.452  25.840  1.00  0.00     0.274 C 
ENDROOT
BRANCH   1   2
ATOM      2  O   UNL A   1      33.153  27.022  26.034  1.00  0.00    -0.460 OA
BRANCH   2   3
ATOM      3  C   UNL A   1      31.979  26.391  26.301  1.00  0.00     0.334 C 
ATOM      4  O   UNL A   1      31.246  26.699  27.241  1.00  0.00    -0.249 OA
BRANCH   3   5
ATOM      5  C   UNL A   1      31.670  25.179  25.401  1.00  0.00     0.163 C 
ATOM      6  C   UNL A   1      31.615  25.843  23.194  1.00  0.00     0.149 C 
ATOM      7  N   UNL A   1      32.793  25.320  23.328  1.00  0.00    -0.169 NA
ATOM      8  C   UNL A   1      30.654  25.588  24.310  1.00  0.00     0.108 C 
ATOM      9  N   UNL A   1      32.799  24.724  24.558  1.00  0.00    -0.247 N 
ATOM     10  C   UNL A   1      31.087  24.125  26.337  1.00  0.00     0.050 C 
BRANCH   6  11
ATOM     11  C   UNL A   1      31.220  26.628  21.970  1.00  0.00     0.354 C 
ATOM     12  O   UNL A   1      31.618  26.324  20.868  1.00  0.00    -0.245 OA
BRANCH  11  13
ATOM     13  O   UNL A   1      30.370  27.612  22.323  1.00  0.00    -0.461 OA
BRANCH  13  14
ATOM     14  C   UNL A   1      30.983  28.880  22.617  1.00  0.00     0.230 C 
ATOM     15  C   UNL A   1      30.054  29.690  23.498  1.00  0.00     0.049 C 
ENDBRANCH  13  14
ENDBRANCH  11  13
ENDBRANCH   6  11
BRANCH   9  16
ATOM     16  C   UNL A   1      33.896  23.939  24.858  1.00  0.00     0.073 A 
ATOM     17  C   UNL A   1      35.094  24.583  25.236  1.00  0.00     0.036 A 
ATOM     18  C   UNL A   1      33.934  22.548  24.643  1.00  0.00     0.088 A 
ATOM     19  C   UNL A   1      36.281  23.883  25.463  1.00  0.00     0.088 A 
ATOM     20  C   UNL A   1      35.122  21.831  24.918  1.00  0.00     0.101 A 
ATOM     21  C   UNL A   1      36.286  22.498  25.314  1.00  0.00     0.270 A 
BRANCH  18  22
ATOM     22  C   UNL A   1      32.784  21.759  24.064  1.00  0.00     0.418 C 
ATOM     23  F   UNL A   1      31.787  21.551  24.975  1.00  0.00    -0.166 F 
ATOM     24  F   UNL A   1      32.184  22.426  23.036  1.00  0.00    -0.166 F 
ATOM     25  F   UNL A   1      33.093  20.524  23.589  1.00  0.00    -0.166 F 
ENDBRANCH  18  22
BRANCH  21  26
ATOM     26  N   UNL A   1      37.520  21.738  25.536  1.00  0.00     0.062 N 
ATOM     27  O   UNL A   1      37.603  20.609  25.034  1.00  0.00    -0.258 OA
ATOM     28  O   UNL A   1      38.414  22.277  26.207  1.00  0.00    -0.258 OA
ENDBRANCH  21  26
ENDBRANCH   9  16
ENDBRANCH   3   5
ENDBRANCH   2   3
ENDBRANCH   1   2
BRANCH   1  29
ATOM     29  C   UNL A   1      33.172  29.207  27.162  1.00  0.00     0.275 C 
BRANCH  29  30
ATOM     30  O   UNL A   1      34.000  30.369  26.990  1.00  0.00    -0.458 OA
BRANCH  30  31
ATOM     31  C   UNL A   1      34.628  30.812  28.105  1.00  0.00     0.338 C 
ATOM     32  O   UNL A   1      34.209  31.643  28.892  1.00  0.00    -0.246 OA
BRANCH  31  33
ATOM     33  C   UNL A   1      35.924  30.118  28.271  1.00  0.00     0.060 A 
ATOM     34  C   UNL A   1      36.281  29.579  29.503  1.00  0.00     0.016 A 
ATOM     35  C   UNL A   1      36.859  30.143  27.237  1.00  0.00     0.016 A 
ATOM     36  C   UNL A   1      37.609  29.235  29.758  1.00  0.00     0.010 A 
ATOM     37  C   UNL A   1      38.158  29.664  27.457  1.00  0.00     0.010 A 
ATOM     38  C   UNL A   1      38.576  29.278  28.742  1.00  0.00    -0.014 A 
BRANCH  38  39
ATOM     39  C   UNL A   1      40.017  29.006  29.050  1.00  0.00     0.031 A 
ATOM     40  C   UNL A   1      40.646  27.676  28.682  1.00  0.00     0.074 A 
ATOM     41  C   UNL A   1      40.805  29.964  29.587  1.00  0.00     0.049 A 
ATOM     42  N   UNL A   1      41.847  27.228  28.953  1.00  0.00    -0.248 NA
ATOM     43  C   UNL A   1      39.826  26.732  27.904  1.00  0.00     0.031 C 
ATOM     44  C   UNL A   1      40.377  31.318  29.947  1.00  0.00     0.029 A 
ATOM     45  N   UNL A   1      42.146  29.954  29.897  1.00  0.00    -0.354 N 
ATOM     46  C   UNL A   1      41.907  25.941  28.427  1.00  0.00     0.074 A 
ATOM     47  C   UNL A   1      40.619  25.673  27.827  1.00  0.00     0.031 C 
ATOM     48  C   UNL A   1      41.441  32.027  30.350  1.00  0.00     0.029 A 
ATOM     49  C   UNL A   1      42.608  31.152  30.393  1.00  0.00     0.049 A 
ATOM     50  H   UNL A   1      42.721  29.165  29.775  1.00  0.00     0.167 HD
ATOM     51  C   UNL A   1      42.938  25.062  28.428  1.00  0.00     0.031 A 
ATOM     52  C   UNL A   1      43.814  31.510  30.877  1.00  0.00     0.031 A 
ATOM     53  C   UNL A   1      44.238  25.323  28.987  1.00  0.00     0.049 A 
ATOM     54  C   UNL A   1      44.911  30.489  30.956  1.00  0.00     0.074 A 
ATOM     55  C   UNL A   1      45.337  24.482  29.041  1.00  0.00     0.029 A 
ATOM     56  N   UNL A   1      44.623  26.517  29.574  1.00  0.00    -0.354 N 
ATOM     57  N   UNL A   1      44.915  29.250  30.525  1.00  0.00    -0.248 NA
ATOM     58  C   UNL A   1      46.157  30.906  31.614  1.00  0.00     0.031 C 
ATOM     59  C   UNL A   1      46.375  25.155  29.698  1.00  0.00     0.029 A 
ATOM     60  C   UNL A   1      45.936  26.430  30.010  1.00  0.00     0.049 A 
ATOM     61  H   UNL A   1      44.048  27.311  29.668  1.00  0.00     0.167 HD
ATOM     62  C   UNL A   1      46.163  28.739  30.863  1.00  0.00     0.074 A 
ATOM     63  C   UNL A   1      46.897  29.811  31.506  1.00  0.00     0.031 C 
ATOM     64  C   UNL A   1      46.652  27.492  30.665  1.00  0.00     0.031 A 
BRANCH  51  65
ATOM     65  C   UNL A   1      42.695  23.703  27.826  1.00  0.00    -0.014 A 
ATOM     66  C   UNL A   1      43.023  23.429  26.486  1.00  0.00     0.010 A 
ATOM     67  C   UNL A   1      42.179  22.669  28.631  1.00  0.00     0.010 A 
ATOM     68  C   UNL A   1      42.810  22.153  25.954  1.00  0.00     0.020 A 
ATOM     69  C   UNL A   1      41.985  21.388  28.108  1.00  0.00     0.020 A 
ATOM     70  C   UNL A   1      42.289  21.142  26.768  1.00  0.00     0.054 A 
BRANCH  70  71
ATOM     71  S   UNL A   1      42.050  19.488  26.060  1.00  0.00     0.124 S 
ATOM     72  O   UNL A   1      42.935  19.528  24.899  1.00  0.00    -0.237 OA
ATOM     73  O   UNL A   1      42.479  18.609  27.146  1.00  0.00    -0.237 OA
ATOM     74  O   UNL A   1      40.622  19.444  25.754  1.00  0.00    -0.744 OA
ENDBRANCH  70  71
ENDBRANCH  51  65
BRANCH  52  75
ATOM     75  C   UNL A   1      44.022  32.888  31.403  1.00  0.00    -0.014 A 
ATOM     76  C   UNL A   1      43.738  33.199  32.744  1.00  0.00     0.010 A 
ATOM     77  C   UNL A   1      44.522  33.897  30.558  1.00  0.00     0.010 A 
ATOM     78  C   UNL A   1      43.952  34.494  33.229  1.00  0.00     0.020 A 
ATOM     79  C   UNL A   1      44.767  35.181  31.047  1.00  0.00     0.020 A 
ATOM     80  C   UNL A   1      44.472  35.474  32.379  1.00  0.00     0.054 A 
BRANCH  80  81
ATOM     81  S   UNL A   1      44.821  37.127  33.040  1.00  0.00     0.124 S 
ATOM     82  O   UNL A   1      44.972  36.857  34.467  1.00  0.00    -0.237 OA
ATOM     83  O   UNL A   1      46.043  37.503  32.334  1.00  0.00    -0.237 OA
ATOM     84  O   UNL A   1      43.636  37.898  32.668  1.00  0.00    -0.744 OA
ENDBRANCH  80  81
ENDBRANCH  52  75
BRANCH  64  85
ATOM     85  C   UNL A   1      48.054  27.223  31.138  1.00  0.00    -0.014 A 
ATOM     86  C   UNL A   1      48.296  26.702  32.422  1.00  0.00     0.010 A 
ATOM     87  C   UNL A   1      49.142  27.480  30.285  1.00  0.00     0.010 A 
ATOM     88  C   UNL A   1      49.605  26.480  32.858  1.00  0.00     0.020 A 
ATOM     89  C   UNL A   1      50.450  27.238  30.709  1.00  0.00     0.020 A 
ATOM     90  C   UNL A   1      50.675  26.757  32.001  1.00  0.00     0.054 A 
BRANCH  90  91
ATOM     91  S   UNL A   1      52.366  26.448  32.581  1.00  0.00     0.124 S 
ATOM     92  O   UNL A   1      52.131  25.699  33.813  1.00  0.00    -0.237 OA
ATOM     93  O   UNL A   1      52.951  25.684  31.483  1.00  0.00    -0.237 OA
ATOM     94  O   UNL A   1      52.918  27.789  32.762  1.00  0.00    -0.744 OA
ENDBRANCH  90  91
ENDBRANCH  64  85
ENDBRANCH  38  39
ENDBRANCH  31  33
ENDBRANCH  30  31
ENDBRANCH  29  30
ENDBRANCH   1  29
TORSDOF 20
ENDMDL
MODEL 2
REMARK VINA RESULT:     -10.4      1.010      7.997
REMARK SMILES CCOC(=O)C1=NN(c2ccc([N+](=O)[O-])cc2C(F)(F)F)[C@@](C)(C(=O)OCCOC(=O)c2ccc(-c3c4nc(c(-c5ccc(S(=O)(=O)[O-])cc5)c5ccc([nH]5)c(-c5ccc(S(=O)(=O)[O-])cc5)c5nc(c(-c6ccc(S(=O)(=O)[O-])cc6)c6ccc3[nH]6)C=C5)C=C4)cc2)C1
REMARK SMILES IDX 27 1 26 2 24 3 25 4 22 5 6 6 7 7 92 8 8 9 23 10 4 11 5 12
REMARK SMILES IDX 3 13 2 14 1 15 9 16 10 17 17 18 11 19 16 20 12 21 18 22
REMARK SMILES IDX 19 23 20 24 21 25 13 26 14 27 15 28 28 29 29 30 30 31 31 32
REMARK SMILES IDX 32 33 33 34 91 35 34 36 90 37 35 38 36 39 37 40 84 41 38 42
REMARK SMILES IDX 89 43 83 44 85 45 39 46 88 47 82 48 81 49 40 51 70 52 51 53
REMARK SMILES IDX 69 54 52 55 55 56 68 57 86 58 53 59 54 60 67 62 87 63 56 64
REMARK SMILES IDX 41 65 42 66 50 67 43 68 49 69 44 70 45 71 46 72 47 73 48 74
REMARK SMILES IDX 71 75 72 76 80 77 73 78 79 79 74 80 75 81 76 82 77 83 78 84
REMARK SMILES IDX 57 85 58 86 66 87 59 88 65 89 60 90 61 91 62 92 63 93 64 94
REMARK H PARENT 85 50 55 61
REMARK Flexibility Score: inf
ROOT
ATOM      1  C   UNL A   1      33.141  28.794  26.171  1.00  0.00     0.274 C 
ENDROOT
BRANCH   1   2
ATOM      2  O   UNL A   1      32.953  27.416  26.562  1.00  0.00    -0.460 OA
BRANCH   2   3
ATOM      3  C   UNL A   1      31.668  26.971  26.565  1.00  0.00     0.334 C 
ATOM      4  O   UNL A   1      30.884  27.181  27.490  1.00  0.00    -0.249 OA
BRANCH   3   5
ATOM      5  C   UNL A   1      31.282  26.081  25.367  1.00  0.00     0.163 C 
ATOM      6  C   UNL A   1      31.557  27.261  23.405  1.00  0.00     0.149 C 
ATOM      7  N   UNL A   1      32.625  26.530  23.477  1.00  0.00    -0.169 NA
ATOM      8  C   UNL A   1      30.457  26.907  24.353  1.00  0.00     0.108 C 
ATOM      9  N   UNL A   1      32.415  25.662  24.511  1.00  0.00    -0.247 N 
ATOM     10  C   UNL A   1      30.456  24.945  25.962  1.00  0.00     0.050 C 
BRANCH   6  11
ATOM     11  C   UNL A   1      31.411  28.373  22.399  1.00  0.00     0.354 C 
ATOM     12  O   UNL A   1      32.364  29.020  22.030  1.00  0.00    -0.245 OA
BRANCH  11  13
ATOM     13  O   UNL A   1      30.126  28.452  22.000  1.00  0.00    -0.461 OA
BRANCH  13  14
ATOM     14  C   UNL A   1      29.575  29.780  21.956  1.00  0.00     0.230 C 
ATOM     15  C   UNL A   1      28.104  29.720  22.315  1.00  0.00     0.049 C 
ENDBRANCH  13  14
ENDBRANCH  11  13
ENDBRANCH   6  11
BRANCH   9  16
ATOM     16  C   UNL A   1      33.347  24.655  24.670  1.00  0.00     0.073 A 
ATOM     17  C   UNL A   1      34.469  24.908  25.491  1.00  0.00     0.036 A 
ATOM     18  C   UNL A   1      33.329  23.458  23.929  1.00  0.00     0.088 A 
ATOM     19  C   UNL A   1      35.512  23.992  25.636  1.00  0.00     0.088 A 
ATOM     20  C   UNL A   1      34.362  22.508  24.111  1.00  0.00     0.101 A 
ATOM     21  C   UNL A   1      35.447  22.782  24.950  1.00  0.00     0.270 A 
BRANCH  18  22
ATOM     22  C   UNL A   1      32.291  23.140  22.880  1.00  0.00     0.418 C 
ATOM     23  F   UNL A   1      32.408  23.938  21.776  1.00  0.00    -0.166 F 
ATOM     24  F   UNL A   1      32.427  21.868  22.407  1.00  0.00    -0.166 F 
ATOM     25  F   UNL A   1      30.996  23.265  23.272  1.00  0.00    -0.166 F 
ENDBRANCH  18  22
BRANCH  21  26
ATOM     26  N   UNL A   1      36.533  21.804  25.075  1.00  0.00     0.062 N 
ATOM     27  O   UNL A   1      36.228  20.622  25.282  1.00  0.00    -0.258 OA
ATOM     28  O   UNL A   1      37.696  22.220  24.957  1.00  0.00    -0.258 OA
ENDBRANCH  21  26
ENDBRANCH   9  16
ENDBRANCH   3   5
ENDBRANCH   2   3
ENDBRANCH   1   2
BRANCH   1  29
ATOM     29  C   UNL A   1      32.836  29.753  27.318  1.00  0.00     0.275 C 
BRANCH  29  30
ATOM     30  O   UNL A   1      33.647  30.932  27.187  1.00  0.00    -0.458 OA
BRANCH  30  31
ATOM     31  C   UNL A   1      34.307  31.317  28.306  1.00  0.00     0.338 C 
ATOM     32  O   UNL A   1      33.935  32.146  29.119  1.00  0.00    -0.246 OA
BRANCH  31  33
ATOM     33  C   UNL A   1      35.572  30.561  28.437  1.00  0.00     0.060 A 
ATOM     34  C   UNL A   1      35.964  30.056  29.674  1.00  0.00     0.016 A 
ATOM     35  C   UNL A   1      36.452  30.490  27.358  1.00  0.00     0.016 A 
ATOM     36  C   UNL A   1      37.283  29.651  29.877  1.00  0.00     0.010 A 
ATOM     37  C   UNL A   1      37.733  29.951  27.535  1.00  0.00     0.010 A 
ATOM     38  C   UNL A   1      38.197  29.597  28.813  1.00  0.00    -0.014 A 
BRANCH  38  39
ATOM     39  C   UNL A   1      39.636  29.260  29.062  1.00  0.00     0.031 A 
ATOM     40  C   UNL A   1      40.548  30.250  29.760  1.00  0.00     0.074 A 
ATOM     41  C   UNL A   1      40.129  28.044  28.744  1.00  0.00     0.049 A 
ATOM     42  N   UNL A   1      41.839  30.172  29.976  1.00  0.00    -0.248 NA
ATOM     43  C   UNL A   1      39.934  31.480  30.290  1.00  0.00     0.031 C 
ATOM     44  C   UNL A   1      39.375  26.952  28.122  1.00  0.00     0.029 A 
ATOM     45  N   UNL A   1      41.383  27.506  28.930  1.00  0.00    -0.354 N 
ATOM     46  C   UNL A   1      42.195  31.356  30.617  1.00  0.00     0.074 A 
ATOM     47  C   UNL A   1      40.988  32.141  30.747  1.00  0.00     0.031 C 
ATOM     48  C   UNL A   1      40.150  25.861  28.051  1.00  0.00     0.029 A 
ATOM     49  C   UNL A   1      41.493  26.200  28.511  1.00  0.00     0.049 A 
ATOM     50  H   UNL A   1      42.131  28.009  29.325  1.00  0.00     0.167 HD
ATOM     51  C   UNL A   1      43.409  31.754  31.068  1.00  0.00     0.031 A 
ATOM     52  C   UNL A   1      42.553  25.370  28.450  1.00  0.00     0.031 A 
ATOM     53  C   UNL A   1      44.613  30.972  30.980  1.00  0.00     0.049 A 
ATOM     54  C   UNL A   1      43.907  25.869  28.867  1.00  0.00     0.074 A 
ATOM     55  C   UNL A   1      45.890  31.306  31.402  1.00  0.00     0.029 A 
ATOM     56  N   UNL A   1      44.692  29.695  30.449  1.00  0.00    -0.354 N 
ATOM     57  N   UNL A   1      44.231  27.025  29.393  1.00  0.00    -0.248 NA
ATOM     58  C   UNL A   1      45.042  24.960  28.651  1.00  0.00     0.031 C 
ATOM     59  C   UNL A   1      46.749  30.246  31.089  1.00  0.00     0.029 A 
ATOM     60  C   UNL A   1      45.998  29.234  30.516  1.00  0.00     0.049 A 
ATOM     61  H   UNL A   1      43.933  29.190  30.079  1.00  0.00     0.167 HD
ATOM     62  C   UNL A   1      45.610  26.982  29.570  1.00  0.00     0.074 A 
ATOM     63  C   UNL A   1      46.052  25.677  29.123  1.00  0.00     0.031 C 
ATOM     64  C   UNL A   1      46.434  27.943  30.053  1.00  0.00     0.031 A 
BRANCH  51  65
ATOM     65  C   UNL A   1      43.508  33.127  31.679  1.00  0.00    -0.014 A 
ATOM     66  C   UNL A   1      43.486  33.309  33.073  1.00  0.00     0.010 A 
ATOM     67  C   UNL A   1      43.680  34.248  30.844  1.00  0.00     0.010 A 
ATOM     68  C   UNL A   1      43.603  34.590  33.620  1.00  0.00     0.020 A 
ATOM     69  C   UNL A   1      43.818  35.528  31.388  1.00  0.00     0.020 A 
ATOM     70  C   UNL A   1      43.765  35.692  32.773  1.00  0.00     0.054 A 
BRANCH  70  71
ATOM     71  S   UNL A   1      43.944  37.341  33.510  1.00  0.00     0.124 S 
ATOM     72  O   UNL A   1      42.703  37.466  34.270  1.00  0.00    -0.237 OA
ATOM     73  O   UNL A   1      45.160  37.205  34.309  1.00  0.00    -0.237 OA
ATOM     74  O   UNL A   1      44.058  38.227  32.354  1.00  0.00    -0.744 OA
ENDBRANCH  70  71
ENDBRANCH  51  65
BRANCH  52  75
ATOM     75  C   UNL A   1      42.389  23.997  27.896  1.00  0.00    -0.014 A 
ATOM     76  C   UNL A   1      42.374  23.777  26.507  1.00  0.00     0.010 A 
ATOM     77  C   UNL A   1      42.260  22.897  28.764  1.00  0.00     0.010 A 
ATOM     78  C   UNL A   1      42.234  22.480  26.000  1.00  0.00     0.020 A 
ATOM     79  C   UNL A   1      42.153  21.599  28.261  1.00  0.00     0.020 A 
ATOM     80  C   UNL A   1      42.131  21.400  26.880  1.00  0.00     0.054 A 
BRANCH  80  81
ATOM     81  S   UNL A   1      42.032  19.717  26.211  1.00  0.00     0.124 S 
ATOM     82  O   UNL A   1      40.665  19.674  25.699  1.00  0.00    -0.237 OA
ATOM     83  O   UNL A   1      43.087  19.711  25.201  1.00  0.00    -0.237 OA
ATOM     84  O   UNL A   1      42.294  18.874  27.375  1.00  0.00    -0.744 OA
ENDBRANCH  80  81
ENDBRANCH  52  75
BRANCH  64  85
ATOM     85  C   UNL A   1      47.898  27.611  30.134  1.00  0.00    -0.014 A 
ATOM     86  C   UNL A   1      48.766  27.905  29.067  1.00  0.00     0.010 A 
ATOM     87  C   UNL A   1      48.416  27.013  31.296  1.00  0.00     0.010 A 
ATOM     88  C   UNL A   1      50.120  27.569  29.145  1.00  0.00     0.020 A 
ATOM     89  C   UNL A   1      49.773  26.697  31.387  1.00  0.00     0.020 A 
ATOM     90  C   UNL A   1      50.614  26.959  30.303  1.00  0.00     0.054 A 
BRANCH  90  91
ATOM     91  S   UNL A   1      52.378  26.544  30.391  1.00  0.00     0.124 S 
ATOM     92  O   UNL A   1      52.379  25.431  31.336  1.00  0.00    -0.237 OA
ATOM     93  O   UNL A   1      52.699  26.196  29.010  1.00  0.00    -0.237 OA
ATOM     94  O   UNL A   1      52.998  27.775  30.877  1.00  0.00    -0.744 OA
ENDBRANCH  90  91
ENDBRANCH  64  85
ENDBRANCH  38  39
ENDBRANCH  31  33
ENDBRANCH  30  31
ENDBRANCH  29  30
ENDBRANCH   1  29
TORSDOF 20
ENDMDL
MODEL 3
REMARK VINA RESULT:     -10.1      3.188      8.479
REMARK SMILES CCOC(=O)C1=NN(c2ccc([N+](=O)[O-])cc2C(F)(F)F)[C@@](C)(C(=O)OCCOC(=O)c2ccc(-c3c4nc(c(-c5ccc(S(=O)(=O)[O-])cc5)c5ccc([nH]5)c(-c5ccc(S(=O)(=O)[O-])cc5)c5nc(c(-c6ccc(S(=O)(=O)[O-])cc6)c6ccc3[nH]6)C=C5)C=C4)cc2)C1
REMARK SMILES IDX 27 1 26 2 24 3 25 4 22 5 6 6 7 7 92 8 8 9 23 10 4 11 5 12
REMARK SMILES IDX 3 13 2 14 1 15 9 16 10 17 17 18 11 19 16 20 12 21 18 22
REMARK SMILES IDX 19 23 20 24 21 25 13 26 14 27 15 28 28 29 29 30 30 31 31 32
REMARK SMILES IDX 32 33 33 34 91 35 34 36 90 37 35 38 36 39 37 40 84 41 38 42
REMARK SMILES IDX 89 43 83 44 85 45 39 46 88 47 82 48 81 49 40 51 70 52 51 53
REMARK SMILES IDX 69 54 52 55 55 56 68 57 86 58 53 59 54 60 67 62 87 63 56 64
REMARK SMILES IDX 41 65 42 66 50 67 43 68 49 69 44 70 45 71 46 72 47 73 48 74
REMARK SMILES IDX 71 75 72 76 80 77 73 78 79 79 74 80 75 81 76 82 77 83 78 84
REMARK SMILES IDX 57 85 58 86 66 87 59 88 65 89 60 90 61 91 62 92 63 93 64 94
REMARK H PARENT 85 50 55 61
REMARK Flexibility Score: inf
ROOT
ATOM      1  C   UNL A   1      36.584  23.240  24.578  1.00  0.00     0.274 C 
ENDROOT
BRANCH   1   2
ATOM      2  O   UNL A   1      35.206  22.811  24.656  1.00  0.00    -0.460 OA
BRANCH   2   3
ATOM      3  C   UNL A   1      34.357  23.655  25.300  1.00  0.00     0.334 C 
ATOM      4  O   UNL A   1      34.449  24.881  25.238  1.00  0.00    -0.249 OA
BRANCH   3   5
ATOM      5  C   UNL A   1      33.320  22.969  26.211  1.00  0.00     0.163 C 
ATOM      6  C   UNL A   1      31.237  23.886  25.844  1.00  0.00     0.149 C 
ATOM      7  N   UNL A   1      31.214  22.787  25.157  1.00  0.00    -0.169 NA
ATOM      8  C   UNL A   1      32.370  24.032  26.808  1.00  0.00     0.108 C 
ATOM      9  N   UNL A   1      32.346  22.105  25.506  1.00  0.00    -0.247 N 
ATOM     10  C   UNL A   1      34.138  22.280  27.300  1.00  0.00     0.050 C 
BRANCH   6  11
ATOM     11  C   UNL A   1      30.164  24.936  25.713  1.00  0.00     0.354 C 
ATOM     12  O   UNL A   1      29.476  25.257  26.655  1.00  0.00    -0.245 OA
BRANCH  11  13
ATOM     13  O   UNL A   1      30.170  25.429  24.459  1.00  0.00    -0.461 OA
BRANCH  13  14
ATOM     14  C   UNL A   1      30.219  26.864  24.361  1.00  0.00     0.230 C 
ATOM     15  C   UNL A   1      31.503  27.271  23.666  1.00  0.00     0.049 C 
ENDBRANCH  13  14
ENDBRANCH  11  13
ENDBRANCH   6  11
BRANCH   9  16
ATOM     16  C   UNL A   1      32.456  20.811  25.036  1.00  0.00     0.073 A 
ATOM     17  C   UNL A   1      32.824  19.799  25.950  1.00  0.00     0.036 A 
ATOM     18  C   UNL A   1      32.390  20.474  23.671  1.00  0.00     0.088 A 
ATOM     19  C   UNL A   1      33.057  18.480  25.552  1.00  0.00     0.088 A 
ATOM     20  C   UNL A   1      32.579  19.130  23.272  1.00  0.00     0.101 A 
ATOM     21  C   UNL A   1      32.920  18.147  24.208  1.00  0.00     0.270 A 
BRANCH  18  22
ATOM     22  C   UNL A   1      32.190  21.487  22.569  1.00  0.00     0.418 C 
ATOM     23  F   UNL A   1      32.102  20.902  21.337  1.00  0.00    -0.166 F 
ATOM     24  F   UNL A   1      31.016  22.166  22.717  1.00  0.00    -0.166 F 
ATOM     25  F   UNL A   1      33.163  22.428  22.445  1.00  0.00    -0.166 F 
ENDBRANCH  18  22
BRANCH  21  26
ATOM     26  N   UNL A   1      33.168  16.773  23.760  1.00  0.00     0.062 N 
ATOM     27  O   UNL A   1      33.680  16.610  22.644  1.00  0.00    -0.258 OA
ATOM     28  O   UNL A   1      32.857  15.853  24.532  1.00  0.00    -0.258 OA
ENDBRANCH  21  26
ENDBRANCH   9  16
ENDBRANCH   3   5
ENDBRANCH   2   3
ENDBRANCH   1   2
BRANCH   1  29
ATOM     29  C   UNL A   1      37.550  22.073  24.758  1.00  0.00     0.275 C 
BRANCH  29  30
ATOM     30  O   UNL A   1      38.022  22.045  26.115  1.00  0.00    -0.458 OA
BRANCH  30  31
ATOM     31  C   UNL A   1      39.368  22.058  26.268  1.00  0.00     0.338 C 
ATOM     32  O   UNL A   1      40.147  21.190  25.912  1.00  0.00    -0.246 OA
BRANCH  31  33
ATOM     33  C   UNL A   1      39.795  23.313  26.925  1.00  0.00     0.060 A 
ATOM     34  C   UNL A   1      39.363  24.543  26.438  1.00  0.00     0.016 A 
ATOM     35  C   UNL A   1      40.757  23.274  27.933  1.00  0.00     0.016 A 
ATOM     36  C   UNL A   1      40.015  25.715  26.823  1.00  0.00     0.010 A 
ATOM     37  C   UNL A   1      41.311  24.467  28.418  1.00  0.00     0.010 A 
ATOM     38  C   UNL A   1      41.008  25.700  27.815  1.00  0.00    -0.014 A 
BRANCH  38  39
ATOM     39  C   UNL A   1      41.772  26.945  28.147  1.00  0.00     0.031 A 
ATOM     40  C   UNL A   1      41.088  28.106  28.843  1.00  0.00     0.074 A 
ATOM     41  C   UNL A   1      43.099  27.030  27.907  1.00  0.00     0.049 A 
ATOM     42  N   UNL A   1      41.563  29.295  29.123  1.00  0.00    -0.248 NA
ATOM     43  C   UNL A   1      39.698  27.906  29.287  1.00  0.00     0.031 C 
ATOM     44  C   UNL A   1      43.925  25.983  27.300  1.00  0.00     0.029 A 
ATOM     45  N   UNL A   1      43.998  28.037  28.176  1.00  0.00    -0.354 N 
ATOM     46  C   UNL A   1      40.521  29.994  29.726  1.00  0.00     0.074 A 
ATOM     47  C   UNL A   1      39.384  29.102  29.764  1.00  0.00     0.031 C 
ATOM     48  C   UNL A   1      45.210  26.368  27.315  1.00  0.00     0.029 A 
ATOM     49  C   UNL A   1      45.293  27.733  27.822  1.00  0.00     0.049 A 
ATOM     50  H   UNL A   1      43.740  28.895  28.584  1.00  0.00     0.167 HD
ATOM     51  C   UNL A   1      40.506  31.258  30.216  1.00  0.00     0.031 A 
ATOM     52  C   UNL A   1      46.420  28.471  27.849  1.00  0.00     0.031 A 
ATOM     53  C   UNL A   1      41.637  32.148  30.220  1.00  0.00     0.049 A 
ATOM     54  C   UNL A   1      46.358  29.899  28.306  1.00  0.00     0.074 A 
ATOM     55  C   UNL A   1      41.705  33.450  30.687  1.00  0.00     0.029 A 
ATOM     56  N   UNL A   1      42.900  31.827  29.751  1.00  0.00    -0.354 N 
ATOM     57  N   UNL A   1      45.339  30.563  28.795  1.00  0.00    -0.248 NA
ATOM     58  C   UNL A   1      47.593  30.687  28.186  1.00  0.00     0.031 C 
ATOM     59  C   UNL A   1      43.001  33.931  30.463  1.00  0.00     0.029 A 
ATOM     60  C   UNL A   1      43.750  32.912  29.901  1.00  0.00     0.049 A 
ATOM     61  H   UNL A   1      43.156  30.957  29.369  1.00  0.00     0.167 HD
ATOM     62  C   UNL A   1      45.810  31.848  29.039  1.00  0.00     0.074 A 
ATOM     63  C   UNL A   1      47.212  31.860  28.673  1.00  0.00     0.031 C 
ATOM     64  C   UNL A   1      45.137  32.922  29.517  1.00  0.00     0.031 A 
BRANCH  51  65
ATOM     65  C   UNL A   1      39.204  31.775  30.769  1.00  0.00    -0.014 A 
ATOM     66  C   UNL A   1      38.214  32.310  29.926  1.00  0.00     0.010 A 
ATOM     67  C   UNL A   1      38.949  31.676  32.150  1.00  0.00     0.010 A 
ATOM     68  C   UNL A   1      37.004  32.764  30.458  1.00  0.00     0.020 A 
ATOM     69  C   UNL A   1      37.732  32.110  32.683  1.00  0.00     0.020 A 
ATOM     70  C   UNL A   1      36.772  32.664  31.835  1.00  0.00     0.054 A 
BRANCH  70  71
ATOM     71  S   UNL A   1      35.181  33.233  32.495  1.00  0.00     0.124 S 
ATOM     72  O   UNL A   1      35.305  32.894  33.910  1.00  0.00    -0.237 OA
ATOM     73  O   UNL A   1      35.198  34.662  32.188  1.00  0.00    -0.237 OA
ATOM     74  O   UNL A   1      34.196  32.452  31.751  1.00  0.00    -0.744 OA
ENDBRANCH  70  71
ENDBRANCH  51  65
BRANCH  52  75
ATOM     75  C   UNL A   1      47.698  27.890  27.349  1.00  0.00    -0.014 A 
ATOM     76  C   UNL A   1      48.067  28.014  25.999  1.00  0.00     0.010 A 
ATOM     77  C   UNL A   1      48.561  27.218  28.235  1.00  0.00     0.010 A 
ATOM     78  C   UNL A   1      49.277  27.477  25.545  1.00  0.00     0.020 A 
ATOM     79  C   UNL A   1      49.783  26.710  27.793  1.00  0.00     0.020 A 
ATOM     80  C   UNL A   1      50.130  26.834  26.447  1.00  0.00     0.054 A 
BRANCH  80  81
ATOM     81  S   UNL A   1      51.732  26.213  25.865  1.00  0.00     0.124 S 
ATOM     82  O   UNL A   1      51.712  24.833  26.338  1.00  0.00    -0.237 OA
ATOM     83  O   UNL A   1      51.636  26.388  24.418  1.00  0.00    -0.237 OA
ATOM     84  O   UNL A   1      52.696  27.091  26.526  1.00  0.00    -0.744 OA
ENDBRANCH  80  81
ENDBRANCH  52  75
BRANCH  64  85
ATOM     85  C   UNL A   1      45.915  34.199  29.682  1.00  0.00    -0.014 A 
ATOM     86  C   UNL A   1      46.604  34.476  30.877  1.00  0.00     0.010 A 
ATOM     87  C   UNL A   1      45.973  35.125  28.626  1.00  0.00     0.010 A 
ATOM     88  C   UNL A   1      47.303  35.676  31.027  1.00  0.00     0.020 A 
ATOM     89  C   UNL A   1      46.690  36.315  28.763  1.00  0.00     0.020 A 
ATOM     90  C   UNL A   1      47.335  36.593  29.971  1.00  0.00     0.054 A 
BRANCH  90  91
ATOM     91  S   UNL A   1      48.260  38.139  30.179  1.00  0.00     0.124 S 
ATOM     92  O   UNL A   1      49.601  37.749  29.751  1.00  0.00    -0.237 OA
ATOM     93  O   UNL A   1      47.559  39.060  29.288  1.00  0.00    -0.237 OA
ATOM     94  O   UNL A   1      48.122  38.434  31.604  1.00  0.00    -0.744 OA
ENDBRANCH  90  91
ENDBRANCH  64  85
ENDBRANCH  38  39
ENDBRANCH  31  33
ENDBRANCH  30  31
ENDBRANCH  29  30
ENDBRANCH   1  29
TORSDOF 20
ENDMDL
