MODEL 1
REMARK VINA RESULT:     -11.4      0.000      0.000
REMARK SMILES O=C(OCCOC(=O)c1cc(-c2ccccc2)nc(Nc2nc3ccccc3s2)n1)c1ccc(-c2c3nc(c(-c4ccc(S(=O)(=O)[O-])cc4)c4ccc([nH]4)c(-c4ccc(S(=O)(=O)[O-])cc4)c4nc(c(-c5ccc(S(=O)(=O)[O-])cc5)c5ccc2[nH]5)C=C4)C=C3)cc1
REMARK SMILES IDX 4 1 3 2 2 3 1 4 31 5 32 6 90 7 33 8 89 9 34 10 35 11 36 12
REMARK SMILES IDX 83 13 37 14 88 15 82 16 84 17 38 18 87 19 81 20 80 21 39 23
REMARK SMILES IDX 69 24 50 25 68 26 51 27 54 28 67 29 85 30 52 31 53 32 66 34
REMARK SMILES IDX 86 35 55 36 40 37 41 38 49 39 42 40 48 41 43 42 44 43 45 44
REMARK SMILES IDX 46 45 47 46 70 47 71 48 79 49 72 50 78 51 73 52 74 53 75 54
REMARK SMILES IDX 76 55 77 56 56 57 57 58 65 59 58 60 64 61 59 62 60 63 61 64
REMARK SMILES IDX 62 65 63 66 5 67 6 68 7 69 8 70 9 71 10 72 30 73 11 74 19 75
REMARK SMILES IDX 18 76 12 77 13 78 17 79 14 80 16 81 15 82 20 83 21 85 22 86
REMARK SMILES IDX 29 87 23 88 28 89 24 90 27 91 25 92 26 93
REMARK H PARENT 84 22 54 33 20 84
REMARK Flexibility Score: inf
ROOT
ATOM      1  C   UNL A   1      36.926  23.445  24.547  1.00  0.00     0.275 C 
ENDROOT
BRANCH   1   2
ATOM      2  O   UNL A   1      37.693  22.628  25.442  1.00  0.00    -0.458 OA
BRANCH   2   3
ATOM      3  C   UNL A   1      38.917  22.820  25.985  1.00  0.00     0.338 C 
ATOM      4  O   UNL A   1      39.713  21.887  25.931  1.00  0.00    -0.246 OA
BRANCH   3   5
ATOM      5  C   UNL A   1      39.349  24.073  26.689  1.00  0.00     0.060 A 
ATOM      6  C   UNL A   1      40.113  25.093  26.127  1.00  0.00     0.016 A 
ATOM      7  C   UNL A   1      38.956  24.230  28.032  1.00  0.00     0.016 A 
ATOM      8  C   UNL A   1      40.413  26.250  26.842  1.00  0.00     0.010 A 
ATOM      9  C   UNL A   1      39.230  25.399  28.754  1.00  0.00     0.010 A 
ATOM     10  C   UNL A   1      39.969  26.419  28.153  1.00  0.00    -0.014 A 
BRANCH  10  11
ATOM     11  C   UNL A   1      40.432  27.618  28.885  1.00  0.00     0.031 A 
ATOM     12  C   UNL A   1      41.850  27.647  29.377  1.00  0.00     0.074 A 
ATOM     13  C   UNL A   1      39.651  28.715  28.934  1.00  0.00     0.049 A 
ATOM     14  N   UNL A   1      42.515  28.645  29.895  1.00  0.00    -0.248 NA
ATOM     15  C   UNL A   1      42.640  26.412  29.221  1.00  0.00     0.031 C 
ATOM     16  C   UNL A   1      38.295  28.813  28.388  1.00  0.00     0.029 A 
ATOM     17  N   UNL A   1      39.883  29.965  29.444  1.00  0.00    -0.354 N 
ATOM     18  C   UNL A   1      43.812  28.178  30.064  1.00  0.00     0.074 A 
ATOM     19  C   UNL A   1      43.827  26.788  29.674  1.00  0.00     0.031 C 
ATOM     20  C   UNL A   1      37.799  30.038  28.627  1.00  0.00     0.029 A 
ATOM     21  C   UNL A   1      38.806  30.817  29.333  1.00  0.00     0.049 A 
ATOM     22  H   UNL A   1      40.739  30.231  29.851  1.00  0.00     0.167 HD
ATOM     23  C   UNL A   1      44.903  28.869  30.468  1.00  0.00     0.031 A 
ATOM     24  C   UNL A   1      38.651  32.081  29.771  1.00  0.00     0.031 A 
ATOM     25  C   UNL A   1      44.856  30.239  30.897  1.00  0.00     0.049 A 
ATOM     26  C   UNL A   1      39.818  32.741  30.434  1.00  0.00     0.074 A 
ATOM     27  C   UNL A   1      45.887  31.034  31.363  1.00  0.00     0.029 A 
ATOM     28  N   UNL A   1      43.705  31.014  30.924  1.00  0.00    -0.354 N 
ATOM     29  N   UNL A   1      41.030  32.275  30.616  1.00  0.00    -0.248 NA
ATOM     30  C   UNL A   1      39.600  34.102  30.935  1.00  0.00     0.031 C 
ATOM     31  C   UNL A   1      45.345  32.271  31.731  1.00  0.00     0.029 A 
ATOM     32  C   UNL A   1      43.992  32.270  31.429  1.00  0.00     0.049 A 
ATOM     33  H   UNL A   1      42.815  30.716  30.626  1.00  0.00     0.167 HD
ATOM     34  C   UNL A   1      41.737  33.302  31.221  1.00  0.00     0.074 A 
ATOM     35  C   UNL A   1      40.812  34.411  31.374  1.00  0.00     0.031 C 
ATOM     36  C   UNL A   1      43.039  33.336  31.594  1.00  0.00     0.031 A 
BRANCH  23  37
ATOM     37  C   UNL A   1      46.220  28.142  30.471  1.00  0.00    -0.014 A 
ATOM     38  C   UNL A   1      46.664  27.459  31.620  1.00  0.00     0.010 A 
ATOM     39  C   UNL A   1      47.010  28.112  29.309  1.00  0.00     0.010 A 
ATOM     40  C   UNL A   1      47.884  26.777  31.611  1.00  0.00     0.020 A 
ATOM     41  C   UNL A   1      48.220  27.411  29.290  1.00  0.00     0.020 A 
ATOM     42  C   UNL A   1      48.653  26.754  30.444  1.00  0.00     0.054 A 
BRANCH  42  43
ATOM     43  S   UNL A   1      50.207  25.819  30.448  1.00  0.00     0.124 S 
ATOM     44  O   UNL A   1      50.202  25.219  29.116  1.00  0.00    -0.237 OA
ATOM     45  O   UNL A   1      51.205  26.863  30.662  1.00  0.00    -0.237 OA
ATOM     46  O   UNL A   1      50.045  24.879  31.554  1.00  0.00    -0.744 OA
ENDBRANCH  42  43
ENDBRANCH  23  37
BRANCH  24  47
ATOM     47  C   UNL A   1      37.330  32.761  29.718  1.00  0.00    -0.014 A 
ATOM     48  C   UNL A   1      36.320  32.557  30.670  1.00  0.00     0.010 A 
ATOM     49  C   UNL A   1      37.068  33.593  28.619  1.00  0.00     0.010 A 
ATOM     50  C   UNL A   1      35.075  33.191  30.526  1.00  0.00     0.020 A 
ATOM     51  C   UNL A   1      35.840  34.239  28.481  1.00  0.00     0.020 A 
ATOM     52  C   UNL A   1      34.847  34.034  29.435  1.00  0.00     0.054 A 
BRANCH  52  53
ATOM     53  S   UNL A   1      33.271  34.922  29.279  1.00  0.00     0.124 S 
ATOM     54  O   UNL A   1      32.557  34.105  28.305  1.00  0.00    -0.237 OA
ATOM     55  O   UNL A   1      32.748  34.891  30.642  1.00  0.00    -0.237 OA
ATOM     56  O   UNL A   1      33.681  36.246  28.810  1.00  0.00    -0.744 OA
ENDBRANCH  52  53
ENDBRANCH  24  47
BRANCH  36  57
ATOM     57  C   UNL A   1      43.532  34.638  32.153  1.00  0.00    -0.014 A 
ATOM     58  C   UNL A   1      43.537  34.887  33.537  1.00  0.00     0.010 A 
ATOM     59  C   UNL A   1      43.984  35.631  31.266  1.00  0.00     0.010 A 
ATOM     60  C   UNL A   1      43.938  36.133  34.020  1.00  0.00     0.020 A 
ATOM     61  C   UNL A   1      44.422  36.863  31.749  1.00  0.00     0.020 A 
ATOM     62  C   UNL A   1      44.373  37.114  33.122  1.00  0.00     0.054 A 
BRANCH  62  63
ATOM     63  S   UNL A   1      44.896  38.721  33.774  1.00  0.00     0.124 S 
ATOM     64  O   UNL A   1      44.577  39.614  32.664  1.00  0.00    -0.237 OA
ATOM     65  O   UNL A   1      44.060  38.869  34.963  1.00  0.00    -0.237 OA
ATOM     66  O   UNL A   1      46.320  38.538  34.040  1.00  0.00    -0.744 OA
ENDBRANCH  62  63
ENDBRANCH  36  57
ENDBRANCH  10  11
ENDBRANCH   3   5
ENDBRANCH   2   3
ENDBRANCH   1   2
BRANCH   1  67
ATOM     67  C   UNL A   1      35.764  22.721  23.860  1.00  0.00     0.275 C 
BRANCH  67  68
ATOM     68  O   UNL A   1      34.598  23.541  23.671  1.00  0.00    -0.457 OA
BRANCH  68  69
ATOM     69  C   UNL A   1      33.869  23.790  24.794  1.00  0.00     0.357 C 
ATOM     70  O   UNL A   1      33.747  23.034  25.750  1.00  0.00    -0.244 OA
BRANCH  69  71
ATOM     71  C   UNL A   1      33.274  25.154  24.723  1.00  0.00     0.154 A 
ATOM     72  C   UNL A   1      33.527  26.077  25.707  1.00  0.00     0.065 A 
ATOM     73  N   UNL A   1      32.540  25.412  23.619  1.00  0.00    -0.206 NA
ATOM     74  C   UNL A   1      32.989  27.325  25.484  1.00  0.00     0.077 A 
ATOM     75  C   UNL A   1      32.010  26.632  23.507  1.00  0.00     0.230 A 
ATOM     76  N   UNL A   1      32.240  27.601  24.393  1.00  0.00    -0.213 NA
BRANCH  74  77
ATOM     77  C   UNL A   1      33.254  28.499  26.326  1.00  0.00     0.000 A 
ATOM     78  C   UNL A   1      32.213  29.390  26.649  1.00  0.00     0.010 A 
ATOM     79  C   UNL A   1      34.555  28.827  26.741  1.00  0.00     0.010 A 
ATOM     80  C   UNL A   1      32.472  30.602  27.283  1.00  0.00     0.001 A 
ATOM     81  C   UNL A   1      34.816  30.040  27.378  1.00  0.00     0.001 A 
ATOM     82  C   UNL A   1      33.781  30.941  27.609  1.00  0.00     0.000 A 
ENDBRANCH  74  77
BRANCH  75  83
ATOM     83  N   UNL A   1      31.264  27.009  22.400  1.00  0.00    -0.300 N 
ATOM     84  H   UNL A   1      31.433  26.542  21.549  1.00  0.00     0.172 HD
BRANCH  83  85
ATOM     85  C   UNL A   1      30.329  27.969  22.412  1.00  0.00     0.190 A 
ATOM     86  N   UNL A   1      30.399  29.076  21.716  1.00  0.00    -0.220 NA
ATOM     87  S   UNL A   1      28.881  27.802  23.329  1.00  0.00    -0.097 S 
ATOM     88  C   UNL A   1      29.413  29.955  22.092  1.00  0.00     0.084 A 
ATOM     89  C   UNL A   1      28.506  29.459  23.027  1.00  0.00     0.056 A 
ATOM     90  C   UNL A   1      29.279  31.283  21.647  1.00  0.00     0.030 A 
ATOM     91  C   UNL A   1      27.496  30.269  23.570  1.00  0.00     0.021 A 
ATOM     92  C   UNL A   1      28.316  32.114  22.218  1.00  0.00     0.002 A 
ATOM     93  C   UNL A   1      27.439  31.611  23.173  1.00  0.00     0.002 A 
ENDBRANCH  83  85
ENDBRANCH  75  83
ENDBRANCH  69  71
ENDBRANCH  68  69
ENDBRANCH  67  68
ENDBRANCH   1  67
TORSDOF 17
ENDMDL
MODEL 2
REMARK VINA RESULT:     -10.9      4.754      6.656
REMARK SMILES O=C(OCCOC(=O)c1cc(-c2ccccc2)nc(Nc2nc3ccccc3s2)n1)c1ccc(-c2c3nc(c(-c4ccc(S(=O)(=O)[O-])cc4)c4ccc([nH]4)c(-c4ccc(S(=O)(=O)[O-])cc4)c4nc(c(-c5ccc(S(=O)(=O)[O-])cc5)c5ccc2[nH]5)C=C4)C=C3)cc1
REMARK SMILES IDX 4 1 3 2 2 3 1 4 31 5 32 6 90 7 33 8 89 9 34 10 35 11 36 12
REMARK SMILES IDX 83 13 37 14 88 15 82 16 84 17 38 18 87 19 81 20 80 21 39 23
REMARK SMILES IDX 69 24 50 25 68 26 51 27 54 28 67 29 85 30 52 31 53 32 66 34
REMARK SMILES IDX 86 35 55 36 40 37 41 38 49 39 42 40 48 41 43 42 44 43 45 44
REMARK SMILES IDX 46 45 47 46 70 47 71 48 79 49 72 50 78 51 73 52 74 53 75 54
REMARK SMILES IDX 76 55 77 56 56 57 57 58 65 59 58 60 64 61 59 62 60 63 61 64
REMARK SMILES IDX 62 65 63 66 5 67 6 68 7 69 8 70 9 71 10 72 30 73 11 74 19 75
REMARK SMILES IDX 18 76 12 77 13 78 17 79 14 80 16 81 15 82 20 83 21 85 22 86
REMARK SMILES IDX 29 87 23 88 28 89 24 90 27 91 25 92 26 93
REMARK H PARENT 84 22 54 33 20 84
REMARK Flexibility Score: inf
ROOT
ATOM      1  C   UNL A   1      38.435  24.426  26.740  1.00  0.00     0.275 C 
ENDROOT
BRANCH   1   2
ATOM      2  O   UNL A   1      39.739  25.001  26.903  1.00  0.00    -0.458 OA
BRANCH   2   3
ATOM      3  C   UNL A   1      40.123  26.284  27.094  1.00  0.00     0.338 C 
ATOM      4  O   UNL A   1      40.593  26.883  26.130  1.00  0.00    -0.246 OA
BRANCH   3   5
ATOM      5  C   UNL A   1      40.058  27.006  28.408  1.00  0.00     0.060 A 
ATOM      6  C   UNL A   1      39.167  26.724  29.441  1.00  0.00     0.016 A 
ATOM      7  C   UNL A   1      40.967  28.061  28.613  1.00  0.00     0.016 A 
ATOM      8  C   UNL A   1      39.223  27.411  30.651  1.00  0.00     0.010 A 
ATOM      9  C   UNL A   1      41.050  28.742  29.834  1.00  0.00     0.010 A 
ATOM     10  C   UNL A   1      40.167  28.415  30.864  1.00  0.00    -0.014 A 
BRANCH  10  11
ATOM     11  C   UNL A   1      40.083  29.179  32.127  1.00  0.00     0.031 A 
ATOM     12  C   UNL A   1      41.129  28.937  33.177  1.00  0.00     0.074 A 
ATOM     13  C   UNL A   1      39.199  30.191  32.239  1.00  0.00     0.049 A 
ATOM     14  N   UNL A   1      41.346  29.599  34.281  1.00  0.00    -0.248 NA
ATOM     15  C   UNL A   1      42.087  27.845  32.930  1.00  0.00     0.031 C 
ATOM     16  C   UNL A   1      38.212  30.568  31.224  1.00  0.00     0.029 A 
ATOM     17  N   UNL A   1      38.996  31.104  33.240  1.00  0.00    -0.354 N 
ATOM     18  C   UNL A   1      42.499  29.046  34.824  1.00  0.00     0.074 A 
ATOM     19  C   UNL A   1      42.891  27.945  33.977  1.00  0.00     0.031 C 
ATOM     20  C   UNL A   1      37.481  31.603  31.668  1.00  0.00     0.029 A 
ATOM     21  C   UNL A   1      37.955  31.973  32.993  1.00  0.00     0.049 A 
ATOM     22  H   UNL A   1      39.542  31.137  34.058  1.00  0.00     0.167 HD
ATOM     23  C   UNL A   1      43.190  29.457  35.912  1.00  0.00     0.031 A 
ATOM     24  C   UNL A   1      37.436  32.946  33.766  1.00  0.00     0.031 A 
ATOM     25  C   UNL A   1      42.756  30.526  36.768  1.00  0.00     0.049 A 
ATOM     26  C   UNL A   1      38.090  33.218  35.084  1.00  0.00     0.074 A 
ATOM     27  C   UNL A   1      43.352  31.008  37.918  1.00  0.00     0.029 A 
ATOM     28  N   UNL A   1      41.602  31.270  36.568  1.00  0.00    -0.354 N 
ATOM     29  N   UNL A   1      39.161  32.664  35.598  1.00  0.00    -0.248 NA
ATOM     30  C   UNL A   1      37.473  34.256  35.917  1.00  0.00     0.031 C 
ATOM     31  C   UNL A   1      42.523  32.003  38.449  1.00  0.00     0.029 A 
ATOM     32  C   UNL A   1      41.448  32.188  37.592  1.00  0.00     0.049 A 
ATOM     33  H   UNL A   1      40.983  31.163  35.809  1.00  0.00     0.167 HD
ATOM     34  C   UNL A   1      39.373  33.314  36.803  1.00  0.00     0.074 A 
ATOM     35  C   UNL A   1      38.315  34.299  36.939  1.00  0.00     0.031 C 
ATOM     36  C   UNL A   1      40.367  33.131  37.708  1.00  0.00     0.031 A 
BRANCH  23  37
ATOM     37  C   UNL A   1      44.472  28.736  36.229  1.00  0.00    -0.014 A 
ATOM     38  C   UNL A   1      44.473  27.592  37.051  1.00  0.00     0.010 A 
ATOM     39  C   UNL A   1      45.686  29.183  35.678  1.00  0.00     0.010 A 
ATOM     40  C   UNL A   1      45.666  26.922  37.331  1.00  0.00     0.020 A 
ATOM     41  C   UNL A   1      46.878  28.501  35.939  1.00  0.00     0.020 A 
ATOM     42  C   UNL A   1      46.862  27.378  36.770  1.00  0.00     0.054 A 
BRANCH  42  43
ATOM     43  S   UNL A   1      48.387  26.459  37.113  1.00  0.00     0.124 S 
ATOM     44  O   UNL A   1      47.913  25.409  38.011  1.00  0.00    -0.237 OA
ATOM     45  O   UNL A   1      48.794  26.012  35.783  1.00  0.00    -0.237 OA
ATOM     46  O   UNL A   1      49.262  27.454  37.727  1.00  0.00    -0.744 OA
ENDBRANCH  42  43
ENDBRANCH  23  37
BRANCH  24  47
ATOM     47  C   UNL A   1      36.180  33.645  33.389  1.00  0.00    -0.014 A 
ATOM     48  C   UNL A   1      34.914  33.044  33.456  1.00  0.00     0.010 A 
ATOM     49  C   UNL A   1      36.285  34.947  32.877  1.00  0.00     0.010 A 
ATOM     50  C   UNL A   1      33.774  33.746  33.029  1.00  0.00     0.020 A 
ATOM     51  C   UNL A   1      35.156  35.656  32.470  1.00  0.00     0.020 A 
ATOM     52  C   UNL A   1      33.904  35.052  32.546  1.00  0.00     0.054 A 
BRANCH  52  53
ATOM     53  S   UNL A   1      32.432  36.000  32.068  1.00  0.00     0.124 S 
ATOM     54  O   UNL A   1      32.601  36.116  30.624  1.00  0.00    -0.237 OA
ATOM     55  O   UNL A   1      31.337  35.141  32.513  1.00  0.00    -0.237 OA
ATOM     56  O   UNL A   1      32.578  37.245  32.821  1.00  0.00    -0.744 OA
ENDBRANCH  52  53
ENDBRANCH  24  47
BRANCH  36  57
ATOM     57  C   UNL A   1      40.367  34.060  38.886  1.00  0.00    -0.014 A 
ATOM     58  C   UNL A   1      41.074  35.274  38.862  1.00  0.00     0.010 A 
ATOM     59  C   UNL A   1      39.651  33.694  40.039  1.00  0.00     0.010 A 
ATOM     60  C   UNL A   1      41.109  36.083  39.998  1.00  0.00     0.020 A 
ATOM     61  C   UNL A   1      39.653  34.519  41.163  1.00  0.00     0.020 A 
ATOM     62  C   UNL A   1      40.402  35.698  41.142  1.00  0.00     0.054 A 
BRANCH  62  63
ATOM     63  S   UNL A   1      40.456  36.769  42.601  1.00  0.00     0.124 S 
ATOM     64  O   UNL A   1      39.147  36.528  43.201  1.00  0.00    -0.237 OA
ATOM     65  O   UNL A   1      41.597  36.238  43.343  1.00  0.00    -0.237 OA
ATOM     66  O   UNL A   1      40.650  38.104  42.042  1.00  0.00    -0.744 OA
ENDBRANCH  62  63
ENDBRANCH  36  57
ENDBRANCH  10  11
ENDBRANCH   3   5
ENDBRANCH   2   3
ENDBRANCH   1   2
BRANCH   1  67
ATOM     67  C   UNL A   1      38.422  23.061  26.045  1.00  0.00     0.275 C 
BRANCH  67  68
ATOM     68  O   UNL A   1      37.102  22.576  25.743  1.00  0.00    -0.457 OA
BRANCH  68  69
ATOM     69  C   UNL A   1      36.505  23.141  24.657  1.00  0.00     0.357 C 
ATOM     70  O   UNL A   1      37.024  23.305  23.560  1.00  0.00    -0.244 OA
BRANCH  69  71
ATOM     71  C   UNL A   1      35.093  23.490  24.978  1.00  0.00     0.154 A 
ATOM     72  C   UNL A   1      34.747  24.783  25.281  1.00  0.00     0.065 A 
ATOM     73  N   UNL A   1      34.208  22.474  24.890  1.00  0.00    -0.206 NA
ATOM     74  C   UNL A   1      33.400  24.993  25.476  1.00  0.00     0.077 A 
ATOM     75  C   UNL A   1      32.927  22.753  25.148  1.00  0.00     0.230 A 
ATOM     76  N   UNL A   1      32.498  23.988  25.407  1.00  0.00    -0.213 NA
BRANCH  74  77
ATOM     77  C   UNL A   1      32.790  26.316  25.664  1.00  0.00     0.000 A 
ATOM     78  C   UNL A   1      31.603  26.653  24.986  1.00  0.00     0.010 A 
ATOM     79  C   UNL A   1      33.416  27.312  26.431  1.00  0.00     0.010 A 
ATOM     80  C   UNL A   1      31.110  27.955  24.999  1.00  0.00     0.001 A 
ATOM     81  C   UNL A   1      32.923  28.616  26.446  1.00  0.00     0.001 A 
ATOM     82  C   UNL A   1      31.796  28.942  25.698  1.00  0.00     0.000 A 
ENDBRANCH  74  77
BRANCH  75  83
ATOM     83  N   UNL A   1      31.934  21.789  25.058  1.00  0.00    -0.300 N 
ATOM     84  H   UNL A   1      31.006  22.065  25.232  1.00  0.00     0.172 HD
BRANCH  83  85
ATOM     85  C   UNL A   1      32.158  20.503  24.751  1.00  0.00     0.190 A 
ATOM     86  N   UNL A   1      32.151  19.525  25.621  1.00  0.00    -0.220 NA
ATOM     87  S   UNL A   1      32.427  20.001  23.126  1.00  0.00    -0.097 S 
ATOM     88  C   UNL A   1      32.621  18.364  25.057  1.00  0.00     0.084 A 
ATOM     89  C   UNL A   1      32.892  18.439  23.692  1.00  0.00     0.056 A 
ATOM     90  C   UNL A   1      32.874  17.160  25.740  1.00  0.00     0.030 A 
ATOM     91  C   UNL A   1      33.458  17.358  22.996  1.00  0.00     0.021 A 
ATOM     92  C   UNL A   1      33.486  16.099  25.074  1.00  0.00     0.002 A 
ATOM     93  C   UNL A   1      33.778  16.202  23.719  1.00  0.00     0.002 A 
ENDBRANCH  83  85
ENDBRANCH  75  83
ENDBRANCH  69  71
ENDBRANCH  68  69
ENDBRANCH  67  68
ENDBRANCH   1  67
TORSDOF 17
ENDMDL
MODEL 3
REMARK VINA RESULT:     -10.8      4.035      9.887
REMARK SMILES O=C(OCCOC(=O)c1cc(-c2ccccc2)nc(Nc2nc3ccccc3s2)n1)c1ccc(-c2c3nc(c(-c4ccc(S(=O)(=O)[O-])cc4)c4ccc([nH]4)c(-c4ccc(S(=O)(=O)[O-])cc4)c4nc(c(-c5ccc(S(=O)(=O)[O-])cc5)c5ccc2[nH]5)C=C4)C=C3)cc1
REMARK SMILES IDX 4 1 3 2 2 3 1 4 31 5 32 6 90 7 33 8 89 9 34 10 35 11 36 12
REMARK SMILES IDX 83 13 37 14 88 15 82 16 84 17 38 18 87 19 81 20 80 21 39 23
REMARK SMILES IDX 69 24 50 25 68 26 51 27 54 28 67 29 85 30 52 31 53 32 66 34
REMARK SMILES IDX 86 35 55 36 40 37 41 38 49 39 42 40 48 41 43 42 44 43 45 44
REMARK SMILES IDX 46 45 47 46 70 47 71 48 79 49 72 50 78 51 73 52 74 53 75 54
REMARK SMILES IDX 76 55 77 56 56 57 57 58 65 59 58 60 64 61 59 62 60 63 61 64
REMARK SMILES IDX 62 65 63 66 5 67 6 68 7 69 8 70 9 71 10 72 30 73 11 74 19 75
REMARK SMILES IDX 18 76 12 77 13 78 17 79 14 80 16 81 15 82 20 83 21 85 22 86
REMARK SMILES IDX 29 87 23 88 28 89 24 90 27 91 25 92 26 93
REMARK H PARENT 84 22 54 33 20 84
REMARK Flexibility Score: inf
ROOT
ATOM      1  C   UNL A   1      40.396  19.600  26.328  1.00  0.00     0.275 C 
ENDROOT
BRANCH   1   2
ATOM      2  O   UNL A   1      41.552  19.212  25.573  1.00  0.00    -0.458 OA
BRANCH   2   3
ATOM      3  C   UNL A   1      42.841  19.615  25.660  1.00  0.00     0.338 C 
ATOM      4  O   UNL A   1      43.707  18.745  25.661  1.00  0.00    -0.246 OA
BRANCH   3   5
ATOM      5  C   UNL A   1      43.278  21.044  25.803  1.00  0.00     0.060 A 
ATOM      6  C   UNL A   1      43.561  21.911  24.751  1.00  0.00     0.016 A 
ATOM      7  C   UNL A   1      43.420  21.550  27.109  1.00  0.00     0.016 A 
ATOM      8  C   UNL A   1      43.902  23.242  24.983  1.00  0.00     0.010 A 
ATOM      9  C   UNL A   1      43.737  22.892  27.355  1.00  0.00     0.010 A 
ATOM     10  C   UNL A   1      43.983  23.747  26.280  1.00  0.00    -0.014 A 
BRANCH  10  11
ATOM     11  C   UNL A   1      44.469  25.133  26.447  1.00  0.00     0.031 A 
ATOM     12  C   UNL A   1      43.483  26.189  26.857  1.00  0.00     0.074 A 
ATOM     13  C   UNL A   1      45.792  25.387  26.411  1.00  0.00     0.049 A 
ATOM     14  N   UNL A   1      43.710  27.424  27.216  1.00  0.00    -0.248 NA
ATOM     15  C   UNL A   1      42.064  25.792  26.925  1.00  0.00     0.031 C 
ATOM     16  C   UNL A   1      46.835  24.400  26.123  1.00  0.00     0.029 A 
ATOM     17  N   UNL A   1      46.496  26.541  26.638  1.00  0.00    -0.354 N 
ATOM     18  C   UNL A   1      42.477  27.928  27.611  1.00  0.00     0.074 A 
ATOM     19  C   UNL A   1      41.492  26.899  27.374  1.00  0.00     0.031 C 
ATOM     20  C   UNL A   1      48.039  24.994  26.149  1.00  0.00     0.029 A 
ATOM     21  C   UNL A   1      47.856  26.402  26.467  1.00  0.00     0.049 A 
ATOM     22  H   UNL A   1      46.070  27.389  26.899  1.00  0.00     0.167 HD
ATOM     23  C   UNL A   1      42.206  29.131  28.166  1.00  0.00     0.031 A 
ATOM     24  C   UNL A   1      48.837  27.321  26.543  1.00  0.00     0.031 A 
ATOM     25  C   UNL A   1      43.193  30.158  28.349  1.00  0.00     0.049 A 
ATOM     26  C   UNL A   1      48.464  28.716  26.935  1.00  0.00     0.074 A 
ATOM     27  C   UNL A   1      43.032  31.430  28.865  1.00  0.00     0.029 A 
ATOM     28  N   UNL A   1      44.532  30.029  28.005  1.00  0.00    -0.354 N 
ATOM     29  N   UNL A   1      47.287  29.185  27.274  1.00  0.00    -0.248 NA
ATOM     30  C   UNL A   1      49.552  29.698  26.968  1.00  0.00     0.031 C 
ATOM     31  C   UNL A   1      44.261  32.093  28.774  1.00  0.00     0.029 A 
ATOM     32  C   UNL A   1      45.203  31.210  28.267  1.00  0.00     0.049 A 
ATOM     33  H   UNL A   1      44.944  29.217  27.631  1.00  0.00     0.167 HD
ATOM     34  C   UNL A   1      47.498  30.515  27.601  1.00  0.00     0.074 A 
ATOM     35  C   UNL A   1      48.915  30.771  27.414  1.00  0.00     0.031 C 
ATOM     36  C   UNL A   1      46.607  31.437  28.040  1.00  0.00     0.031 A 
BRANCH  23  37
ATOM     37  C   UNL A   1      40.788  29.390  28.595  1.00  0.00    -0.014 A 
ATOM     38  C   UNL A   1      39.759  29.532  27.644  1.00  0.00     0.010 A 
ATOM     39  C   UNL A   1      40.468  29.462  29.963  1.00  0.00     0.010 A 
ATOM     40  C   UNL A   1      38.443  29.762  28.051  1.00  0.00     0.020 A 
ATOM     41  C   UNL A   1      39.148  29.668  30.374  1.00  0.00     0.020 A 
ATOM     42  C   UNL A   1      38.145  29.825  29.415  1.00  0.00     0.054 A 
BRANCH  42  43
ATOM     43  S   UNL A   1      36.419  30.074  29.915  1.00  0.00     0.124 S 
ATOM     44  O   UNL A   1      36.355  31.525  30.070  1.00  0.00    -0.237 OA
ATOM     45  O   UNL A   1      35.678  29.530  28.780  1.00  0.00    -0.237 OA
ATOM     46  O   UNL A   1      36.302  29.311  31.155  1.00  0.00    -0.744 OA
ENDBRANCH  42  43
ENDBRANCH  23  37
BRANCH  24  47
ATOM     47  C   UNL A   1      50.229  27.001  26.131  1.00  0.00    -0.014 A 
ATOM     48  C   UNL A   1      51.223  26.586  27.031  1.00  0.00     0.010 A 
ATOM     49  C   UNL A   1      50.571  27.192  24.784  1.00  0.00     0.010 A 
ATOM     50  C   UNL A   1      52.533  26.355  26.579  1.00  0.00     0.020 A 
ATOM     51  C   UNL A   1      51.865  26.945  24.326  1.00  0.00     0.020 A 
ATOM     52  C   UNL A   1      52.842  26.529  25.226  1.00  0.00     0.054 A 
BRANCH  52  53
ATOM     53  S   UNL A   1      54.510  26.156  24.614  1.00  0.00     0.124 S 
ATOM     54  O   UNL A   1      54.373  26.413  23.185  1.00  0.00    -0.237 OA
ATOM     55  O   UNL A   1      55.344  27.100  25.354  1.00  0.00    -0.237 OA
ATOM     56  O   UNL A   1      54.695  24.754  24.987  1.00  0.00    -0.744 OA
ENDBRANCH  52  53
ENDBRANCH  24  47
BRANCH  36  57
ATOM     57  C   UNL A   1      47.168  32.783  28.392  1.00  0.00    -0.014 A 
ATOM     58  C   UNL A   1      47.700  33.045  29.666  1.00  0.00     0.010 A 
ATOM     59  C   UNL A   1      47.145  33.802  27.424  1.00  0.00     0.010 A 
ATOM     60  C   UNL A   1      48.152  34.326  29.983  1.00  0.00     0.020 A 
ATOM     61  C   UNL A   1      47.632  35.073  27.726  1.00  0.00     0.020 A 
ATOM     62  C   UNL A   1      48.111  35.332  29.012  1.00  0.00     0.054 A 
BRANCH  62  63
ATOM     63  S   UNL A   1      48.710  36.986  29.445  1.00  0.00     0.124 S 
ATOM     64  O   UNL A   1      48.673  36.947  30.904  1.00  0.00    -0.237 OA
ATOM     65  O   UNL A   1      50.043  37.008  28.848  1.00  0.00    -0.237 OA
ATOM     66  O   UNL A   1      47.738  37.880  28.820  1.00  0.00    -0.744 OA
ENDBRANCH  62  63
ENDBRANCH  36  57
ENDBRANCH  10  11
ENDBRANCH   3   5
ENDBRANCH   2   3
ENDBRANCH   1   2
BRANCH   1  67
ATOM     67  C   UNL A   1      40.012  21.077  26.194  1.00  0.00     0.275 C 
BRANCH  67  68
ATOM     68  O   UNL A   1      38.797  21.297  25.457  1.00  0.00    -0.457 OA
BRANCH  68  69
ATOM     69  C   UNL A   1      38.063  22.375  25.848  1.00  0.00     0.357 C 
ATOM     70  O   UNL A   1      38.514  23.438  26.256  1.00  0.00    -0.244 OA
BRANCH  69  71
ATOM     71  C   UNL A   1      36.611  22.098  25.659  1.00  0.00     0.154 A 
ATOM     72  C   UNL A   1      36.198  20.941  25.047  1.00  0.00     0.065 A 
ATOM     73  N   UNL A   1      35.770  23.020  26.175  1.00  0.00    -0.206 NA
ATOM     74  C   UNL A   1      34.833  20.761  25.008  1.00  0.00     0.077 A 
ATOM     75  C   UNL A   1      34.460  22.794  26.045  1.00  0.00     0.230 A 
ATOM     76  N   UNL A   1      33.972  21.678  25.504  1.00  0.00    -0.213 NA
BRANCH  74  77
ATOM     77  C   UNL A   1      34.176  19.535  24.536  1.00  0.00     0.000 A 
ATOM     78  C   UNL A   1      34.878  18.315  24.520  1.00  0.00     0.010 A 
ATOM     79  C   UNL A   1      32.881  19.558  23.993  1.00  0.00     0.010 A 
ATOM     80  C   UNL A   1      34.344  17.185  23.906  1.00  0.00     0.001 A 
ATOM     81  C   UNL A   1      32.344  18.427  23.379  1.00  0.00     0.001 A 
ATOM     82  C   UNL A   1      33.095  17.257  23.301  1.00  0.00     0.000 A 
ENDBRANCH  74  77
BRANCH  75  83
ATOM     83  N   UNL A   1      33.512  23.663  26.564  1.00  0.00    -0.300 N 
ATOM     84  H   UNL A   1      33.067  23.411  27.406  1.00  0.00     0.172 HD
BRANCH  83  85
ATOM     85  C   UNL A   1      33.161  24.824  25.993  1.00  0.00     0.190 A 
ATOM     86  N   UNL A   1      33.948  25.865  25.894  1.00  0.00    -0.220 NA
ATOM     87  S   UNL A   1      31.616  25.035  25.263  1.00  0.00    -0.097 S 
ATOM     88  C   UNL A   1      33.251  26.967  25.460  1.00  0.00     0.084 A 
ATOM     89  C   UNL A   1      31.922  26.727  25.119  1.00  0.00     0.056 A 
ATOM     90  C   UNL A   1      33.755  28.278  25.373  1.00  0.00     0.030 A 
ATOM     91  C   UNL A   1      31.062  27.771  24.741  1.00  0.00     0.021 A 
ATOM     92  C   UNL A   1      32.899  29.331  25.052  1.00  0.00     0.002 A 
ATOM     93  C   UNL A   1      31.567  29.077  24.746  1.00  0.00     0.002 A 
ENDBRANCH  83  85
ENDBRANCH  75  83
ENDBRANCH  69  71
ENDBRANCH  68  69
ENDBRANCH  67  68
ENDBRANCH   1  67
TORSDOF 17
ENDMDL
