MODEL 1
REMARK VINA RESULT:     -12.8      0.000      0.000
REMARK SMILES Cc1cccc(NC(=O)COc2ccc(N3C[C@@H](C(=O)OCCOC(=O)c4ccc(-c5c6nc(c(-c7ccc(S(=O)(=O)[O-])cc7)c7ccc([nH]7)c(-c7ccc(S(=O)(=O)[O-])cc7)c7nc(c(-c8ccc(S(=O)(=O)[O-])cc8)c8ccc5[nH]8)C=C7)C=C6)cc4)CC3=O)cc2)c1
REMARK SMILES IDX 22 1 21 2 19 3 20 4 18 5 16 6 17 7 88 8 87 9 89 10 15 11
REMARK SMILES IDX 12 12 13 13 91 14 14 15 90 16 11 17 10 18 8 19 7 20 9 22
REMARK SMILES IDX 6 23 1 24 2 25 3 26 92 27 4 28 5 29 23 30 24 31 25 32 26 33
REMARK SMILES IDX 27 34 28 35 86 36 29 37 85 38 30 39 31 40 32 41 79 42 33 43
REMARK SMILES IDX 84 44 78 45 80 46 34 47 83 48 77 49 76 50 35 52 65 53 46 54
REMARK SMILES IDX 64 55 47 56 50 57 63 58 81 59 48 60 49 61 62 63 82 64 51 65
REMARK SMILES IDX 36 66 37 67 45 68 38 69 44 70 39 71 40 72 41 73 42 74 43 75
REMARK SMILES IDX 66 76 67 77 75 78 68 79 74 80 69 81 70 82 71 83 72 84 73 85
REMARK SMILES IDX 52 86 53 87 61 88 54 89 60 90 55 91 56 92 57 93 58 94 59 95
REMARK H PARENT 7 21 80 51 50 62
REMARK Flexibility Score: inf
ROOT
ATOM      1  C   UNL A   1      37.735  21.848  25.224  1.00  0.00     0.274 C 
ENDROOT
BRANCH   1   2
ATOM      2  O   UNL A   1      36.509  21.864  25.952  1.00  0.00    -0.462 OA
BRANCH   2   3
ATOM      3  C   UNL A   1      35.791  23.014  25.835  1.00  0.00     0.311 C 
ATOM      4  O   UNL A   1      36.271  24.121  25.741  1.00  0.00    -0.252 OA
BRANCH   3   5
ATOM      5  C   UNL A   1      34.326  22.669  25.769  1.00  0.00     0.128 C 
ATOM      6  N   UNL A   1      32.233  23.629  25.495  1.00  0.00    -0.312 N 
ATOM      7  C   UNL A   1      33.541  23.612  24.891  1.00  0.00     0.141 C 
ATOM      8  C   UNL A   1      32.277  23.229  26.829  1.00  0.00     0.227 C 
ATOM      9  C   UNL A   1      33.663  22.725  27.128  1.00  0.00     0.117 C 
ATOM     10  O   UNL A   1      31.388  23.300  27.665  1.00  0.00    -0.274 OA
BRANCH   6  11
ATOM     11  C   UNL A   1      31.266  24.492  24.959  1.00  0.00     0.044 A 
ATOM     12  C   UNL A   1      29.662  26.445  23.775  1.00  0.00     0.120 A 
ATOM     13  C   UNL A   1      29.903  25.241  23.111  1.00  0.00     0.048 A 
ATOM     14  C   UNL A   1      30.180  26.639  25.053  1.00  0.00     0.048 A 
ATOM     15  C   UNL A   1      30.735  24.276  23.686  1.00  0.00     0.030 A 
ATOM     16  C   UNL A   1      30.959  25.658  25.653  1.00  0.00     0.030 A 
BRANCH  12  17
ATOM     17  O   UNL A   1      28.859  27.337  23.125  1.00  0.00    -0.484 OA
BRANCH  17  18
ATOM     18  C   UNL A   1      29.186  28.710  23.269  1.00  0.00     0.329 C 
BRANCH  18  19
ATOM     19  C   UNL A   1      30.098  29.415  22.259  1.00  0.00     0.262 C 
ATOM     20  N   UNL A   1      31.446  29.221  22.195  1.00  0.00    -0.323 N 
ATOM     21  H   UNL A   1      31.854  29.634  21.400  1.00  0.00     0.170 HD
ATOM     22  O   UNL A   1      29.611  30.171  21.408  1.00  0.00    -0.271 OA
BRANCH  20  23
ATOM     23  C   UNL A   1      32.380  28.565  23.011  1.00  0.00     0.041 A 
ATOM     24  C   UNL A   1      33.798  29.225  26.500  1.00  0.00     0.044 C 
ATOM     25  C   UNL A   1      33.537  28.589  25.168  1.00  0.00    -0.049 A 
ATOM     26  C   UNL A   1      34.171  27.391  24.831  1.00  0.00     0.003 A 
ATOM     27  C   UNL A   1      32.649  29.168  24.251  1.00  0.00     0.029 A 
ATOM     28  C   UNL A   1      33.906  26.782  23.607  1.00  0.00     0.002 A 
ATOM     29  C   UNL A   1      33.004  27.359  22.709  1.00  0.00     0.026 A 
ENDBRANCH  20  23
ENDBRANCH  18  19
ENDBRANCH  17  18
ENDBRANCH  12  17
ENDBRANCH   6  11
ENDBRANCH   3   5
ENDBRANCH   2   3
ENDBRANCH   1   2
BRANCH   1  30
ATOM     30  C   UNL A   1      38.900  22.166  26.179  1.00  0.00     0.275 C 
BRANCH  30  31
ATOM     31  O   UNL A   1      39.393  23.531  26.330  1.00  0.00    -0.458 OA
BRANCH  31  32
ATOM     32  C   UNL A   1      40.055  23.933  27.452  1.00  0.00     0.338 C 
ATOM     33  O   UNL A   1      41.026  23.349  27.906  1.00  0.00    -0.246 OA
BRANCH  32  34
ATOM     34  C   UNL A   1      39.588  25.276  27.892  1.00  0.00     0.060 A 
ATOM     35  C   UNL A   1      38.966  25.451  29.140  1.00  0.00     0.016 A 
ATOM     36  C   UNL A   1      40.083  26.369  27.198  1.00  0.00     0.016 A 
ATOM     37  C   UNL A   1      39.031  26.689  29.785  1.00  0.00     0.010 A 
ATOM     38  C   UNL A   1      40.313  27.519  27.896  1.00  0.00     0.010 A 
ATOM     39  C   UNL A   1      39.773  27.697  29.179  1.00  0.00    -0.014 A 
BRANCH  39  40
ATOM     40  C   UNL A   1      39.883  29.072  29.638  1.00  0.00     0.031 A 
ATOM     41  C   UNL A   1      38.819  30.076  29.446  1.00  0.00     0.074 A 
ATOM     42  C   UNL A   1      40.957  29.242  30.445  1.00  0.00     0.049 A 
ATOM     43  N   UNL A   1      39.003  31.347  29.519  1.00  0.00    -0.248 NA
ATOM     44  C   UNL A   1      37.431  29.743  29.134  1.00  0.00     0.031 C 
ATOM     45  C   UNL A   1      41.288  30.299  31.377  1.00  0.00     0.029 A 
ATOM     46  N   UNL A   1      42.097  28.421  30.472  1.00  0.00    -0.354 N 
ATOM     47  C   UNL A   1      37.755  31.939  29.643  1.00  0.00     0.074 A 
ATOM     48  C   UNL A   1      36.815  30.929  29.243  1.00  0.00     0.031 C 
ATOM     49  C   UNL A   1      42.621  30.264  31.589  1.00  0.00     0.029 A 
ATOM     50  C   UNL A   1      43.175  29.270  30.670  1.00  0.00     0.049 A 
ATOM     51  H   UNL A   1      42.125  27.442  30.370  1.00  0.00     0.167 HD
ATOM     52  C   UNL A   1      37.661  33.146  30.273  1.00  0.00     0.031 A 
ATOM     53  C   UNL A   1      44.040  29.514  29.639  1.00  0.00     0.031 A 
ATOM     54  C   UNL A   1      38.994  33.591  30.668  1.00  0.00     0.049 A 
ATOM     55  C   UNL A   1      43.972  30.977  29.277  1.00  0.00     0.074 A 
ATOM     56  C   UNL A   1      39.669  33.492  31.871  1.00  0.00     0.029 A 
ATOM     57  N   UNL A   1      39.940  33.859  29.691  1.00  0.00    -0.354 N 
ATOM     58  N   UNL A   1      42.888  31.705  29.327  1.00  0.00    -0.248 NA
ATOM     59  C   UNL A   1      45.166  31.747  28.959  1.00  0.00     0.031 C 
ATOM     60  C   UNL A   1      41.054  33.616  31.594  1.00  0.00     0.029 A 
ATOM     61  C   UNL A   1      41.209  33.798  30.230  1.00  0.00     0.049 A 
ATOM     62  H   UNL A   1      39.737  34.064  28.750  1.00  0.00     0.167 HD
ATOM     63  C   UNL A   1      43.239  33.027  29.200  1.00  0.00     0.074 A 
ATOM     64  C   UNL A   1      44.668  32.994  28.930  1.00  0.00     0.031 C 
ATOM     65  C   UNL A   1      42.373  34.066  29.401  1.00  0.00     0.031 A 
BRANCH  52  66
ATOM     66  C   UNL A   1      36.408  33.794  30.834  1.00  0.00    -0.014 A 
ATOM     67  C   UNL A   1      35.377  34.143  29.927  1.00  0.00     0.010 A 
ATOM     68  C   UNL A   1      36.168  34.111  32.185  1.00  0.00     0.010 A 
ATOM     69  C   UNL A   1      34.216  34.820  30.317  1.00  0.00     0.020 A 
ATOM     70  C   UNL A   1      35.000  34.796  32.593  1.00  0.00     0.020 A 
ATOM     71  C   UNL A   1      34.038  35.157  31.651  1.00  0.00     0.054 A 
BRANCH  71  72
ATOM     72  S   UNL A   1      32.529  36.052  32.113  1.00  0.00     0.124 S 
ATOM     73  O   UNL A   1      32.146  36.692  30.856  1.00  0.00    -0.237 OA
ATOM     74  O   UNL A   1      31.647  34.976  32.561  1.00  0.00    -0.237 OA
ATOM     75  O   UNL A   1      32.973  36.967  33.162  1.00  0.00    -0.744 OA
ENDBRANCH  71  72
ENDBRANCH  52  66
BRANCH  53  76
ATOM     76  C   UNL A   1      44.206  28.374  28.670  1.00  0.00    -0.014 A 
ATOM     77  C   UNL A   1      43.806  28.594  27.329  1.00  0.00     0.010 A 
ATOM     78  C   UNL A   1      45.063  27.286  28.930  1.00  0.00     0.010 A 
ATOM     79  C   UNL A   1      44.351  27.851  26.274  1.00  0.00     0.020 A 
ATOM     80  C   UNL A   1      45.595  26.522  27.871  1.00  0.00     0.020 A 
ATOM     81  C   UNL A   1      45.274  26.843  26.548  1.00  0.00     0.054 A 
BRANCH  81  82
ATOM     82  S   UNL A   1      46.175  26.107  25.145  1.00  0.00     0.124 S 
ATOM     83  O   UNL A   1      45.233  25.104  24.661  1.00  0.00    -0.237 OA
ATOM     84  O   UNL A   1      46.369  27.262  24.270  1.00  0.00    -0.237 OA
ATOM     85  O   UNL A   1      47.391  25.584  25.760  1.00  0.00    -0.744 OA
ENDBRANCH  81  82
ENDBRANCH  53  76
BRANCH  65  86
ATOM     86  C   UNL A   1      42.584  35.493  28.949  1.00  0.00    -0.014 A 
ATOM     87  C   UNL A   1      41.989  36.047  27.809  1.00  0.00     0.010 A 
ATOM     88  C   UNL A   1      43.313  36.382  29.781  1.00  0.00     0.010 A 
ATOM     89  C   UNL A   1      42.181  37.389  27.468  1.00  0.00     0.020 A 
ATOM     90  C   UNL A   1      43.452  37.739  29.490  1.00  0.00     0.020 A 
ATOM     91  C   UNL A   1      42.910  38.226  28.311  1.00  0.00     0.054 A 
BRANCH  91  92
ATOM     92  S   UNL A   1      43.100  39.963  27.864  1.00  0.00     0.124 S 
ATOM     93  O   UNL A   1      44.471  39.993  27.363  1.00  0.00    -0.237 OA
ATOM     94  O   UNL A   1      42.059  40.147  26.855  1.00  0.00    -0.237 OA
ATOM     95  O   UNL A   1      42.874  40.673  29.120  1.00  0.00    -0.744 OA
ENDBRANCH  91  92
ENDBRANCH  65  86
ENDBRANCH  39  40
ENDBRANCH  32  34
ENDBRANCH  31  32
ENDBRANCH  30  31
ENDBRANCH   1  30
TORSDOF 19
ENDMDL
MODEL 2
REMARK VINA RESULT:     -12.4      4.482     11.229
REMARK SMILES Cc1cccc(NC(=O)COc2ccc(N3C[C@@H](C(=O)OCCOC(=O)c4ccc(-c5c6nc(c(-c7ccc(S(=O)(=O)[O-])cc7)c7ccc([nH]7)c(-c7ccc(S(=O)(=O)[O-])cc7)c7nc(c(-c8ccc(S(=O)(=O)[O-])cc8)c8ccc5[nH]8)C=C7)C=C6)cc4)CC3=O)cc2)c1
REMARK SMILES IDX 22 1 21 2 19 3 20 4 18 5 16 6 17 7 88 8 87 9 89 10 15 11
REMARK SMILES IDX 12 12 13 13 91 14 14 15 90 16 11 17 10 18 8 19 7 20 9 22
REMARK SMILES IDX 6 23 1 24 2 25 3 26 92 27 4 28 5 29 23 30 24 31 25 32 26 33
REMARK SMILES IDX 27 34 28 35 86 36 29 37 85 38 30 39 31 40 32 41 79 42 33 43
REMARK SMILES IDX 84 44 78 45 80 46 34 47 83 48 77 49 76 50 35 52 65 53 46 54
REMARK SMILES IDX 64 55 47 56 50 57 63 58 81 59 48 60 49 61 62 63 82 64 51 65
REMARK SMILES IDX 36 66 37 67 45 68 38 69 44 70 39 71 40 72 41 73 42 74 43 75
REMARK SMILES IDX 66 76 67 77 75 78 68 79 74 80 69 81 70 82 71 83 72 84 73 85
REMARK SMILES IDX 52 86 53 87 61 88 54 89 60 90 55 91 56 92 57 93 58 94 59 95
REMARK H PARENT 7 21 80 51 50 62
REMARK Flexibility Score: inf
ROOT
ATOM      1  C   UNL A   1      32.854  29.816  27.118  1.00  0.00     0.274 C 
ENDROOT
BRANCH   1   2
ATOM      2  O   UNL A   1      31.783  29.109  26.494  1.00  0.00    -0.462 OA
BRANCH   2   3
ATOM      3  C   UNL A   1      31.412  29.596  25.278  1.00  0.00     0.311 C 
ATOM      4  O   UNL A   1      31.078  30.739  25.064  1.00  0.00    -0.252 OA
BRANCH   3   5
ATOM      5  C   UNL A   1      31.556  28.502  24.253  1.00  0.00     0.128 C 
ATOM      6  N   UNL A   1      32.728  26.548  23.819  1.00  0.00    -0.312 N 
ATOM      7  C   UNL A   1      31.957  27.180  24.859  1.00  0.00     0.141 C 
ATOM      8  C   UNL A   1      33.226  27.479  22.910  1.00  0.00     0.227 C 
ATOM      9  C   UNL A   1      32.619  28.819  23.223  1.00  0.00     0.117 C 
ATOM     10  O   UNL A   1      34.052  27.300  22.026  1.00  0.00    -0.274 OA
BRANCH   6  11
ATOM     11  C   UNL A   1      33.330  25.312  24.096  1.00  0.00     0.044 A 
ATOM     12  C   UNL A   1      34.776  22.935  24.322  1.00  0.00     0.120 A 
ATOM     13  C   UNL A   1      35.042  24.000  25.184  1.00  0.00     0.048 A 
ATOM     14  C   UNL A   1      33.747  23.049  23.389  1.00  0.00     0.048 A 
ATOM     15  C   UNL A   1      34.345  25.204  25.050  1.00  0.00     0.030 A 
ATOM     16  C   UNL A   1      33.012  24.223  23.292  1.00  0.00     0.030 A 
BRANCH  12  17
ATOM     17  O   UNL A   1      35.524  21.810  24.511  1.00  0.00    -0.484 OA
BRANCH  17  18
ATOM     18  C   UNL A   1      35.536  21.268  25.823  1.00  0.00     0.329 C 
BRANCH  18  19
ATOM     19  C   UNL A   1      34.241  21.133  26.633  1.00  0.00     0.262 C 
ATOM     20  N   UNL A   1      33.269  20.220  26.356  1.00  0.00    -0.323 N 
ATOM     21  H   UNL A   1      32.580  20.171  27.057  1.00  0.00     0.170 HD
ATOM     22  O   UNL A   1      34.059  21.845  27.630  1.00  0.00    -0.271 OA
BRANCH  20  23
ATOM     23  C   UNL A   1      33.030  19.337  25.292  1.00  0.00     0.041 A 
ATOM     24  C   UNL A   1      33.045  15.530  24.937  1.00  0.00     0.044 C 
ATOM     25  C   UNL A   1      32.920  16.988  24.612  1.00  0.00    -0.049 A 
ATOM     26  C   UNL A   1      32.536  17.386  23.330  1.00  0.00     0.003 A 
ATOM     27  C   UNL A   1      33.168  17.969  25.582  1.00  0.00     0.029 A 
ATOM     28  C   UNL A   1      32.389  18.740  23.035  1.00  0.00     0.002 A 
ATOM     29  C   UNL A   1      32.621  19.708  24.016  1.00  0.00     0.026 A 
ENDBRANCH  20  23
ENDBRANCH  18  19
ENDBRANCH  17  18
ENDBRANCH  12  17
ENDBRANCH   6  11
ENDBRANCH   3   5
ENDBRANCH   2   3
ENDBRANCH   1   2
BRANCH   1  30
ATOM     30  C   UNL A   1      34.196  29.266  26.605  1.00  0.00     0.275 C 
BRANCH  30  31
ATOM     31  O   UNL A   1      35.349  29.157  27.493  1.00  0.00    -0.458 OA
BRANCH  31  32
ATOM     32  C   UNL A   1      36.150  30.227  27.763  1.00  0.00     0.338 C 
ATOM     33  O   UNL A   1      35.792  31.386  27.626  1.00  0.00    -0.246 OA
BRANCH  32  34
ATOM     34  C   UNL A   1      37.397  29.798  28.453  1.00  0.00     0.060 A 
ATOM     35  C   UNL A   1      37.345  28.969  29.587  1.00  0.00     0.016 A 
ATOM     36  C   UNL A   1      38.584  29.955  27.756  1.00  0.00     0.016 A 
ATOM     37  C   UNL A   1      38.425  28.137  29.893  1.00  0.00     0.010 A 
ATOM     38  C   UNL A   1      39.561  29.019  27.935  1.00  0.00     0.010 A 
ATOM     39  C   UNL A   1      39.502  28.121  29.013  1.00  0.00    -0.014 A 
BRANCH  39  40
ATOM     40  C   UNL A   1      40.751  27.403  29.202  1.00  0.00     0.031 A 
ATOM     41  C   UNL A   1      40.945  25.998  28.794  1.00  0.00     0.074 A 
ATOM     42  C   UNL A   1      41.751  28.234  29.575  1.00  0.00     0.049 A 
ATOM     43  N   UNL A   1      41.883  25.238  29.241  1.00  0.00    -0.248 NA
ATOM     44  C   UNL A   1      40.083  25.298  27.844  1.00  0.00     0.031 C 
ATOM     45  C   UNL A   1      43.188  28.061  29.560  1.00  0.00     0.029 A 
ATOM     46  N   UNL A   1      41.586  29.488  30.189  1.00  0.00    -0.354 N 
ATOM     47  C   UNL A   1      41.970  24.146  28.392  1.00  0.00     0.074 A 
ATOM     48  C   UNL A   1      40.743  24.148  27.644  1.00  0.00     0.031 C 
ATOM     49  C   UNL A   1      43.724  28.948  30.425  1.00  0.00     0.029 A 
ATOM     50  C   UNL A   1      42.610  29.597  31.116  1.00  0.00     0.049 A 
ATOM     51  H   UNL A   1      40.885  30.153  29.999  1.00  0.00     0.167 HD
ATOM     52  C   UNL A   1      43.165  23.496  28.279  1.00  0.00     0.031 A 
ATOM     53  C   UNL A   1      42.324  29.510  32.451  1.00  0.00     0.031 A 
ATOM     54  C   UNL A   1      44.139  24.119  29.169  1.00  0.00     0.049 A 
ATOM     55  C   UNL A   1      43.008  28.293  33.022  1.00  0.00     0.074 A 
ATOM     56  C   UNL A   1      45.116  25.069  28.930  1.00  0.00     0.029 A 
ATOM     57  N   UNL A   1      43.932  24.084  30.539  1.00  0.00    -0.354 N 
ATOM     58  N   UNL A   1      43.184  27.169  32.378  1.00  0.00    -0.248 NA
ATOM     59  C   UNL A   1      43.661  28.316  34.323  1.00  0.00     0.031 C 
ATOM     60  C   UNL A   1      45.432  25.675  30.173  1.00  0.00     0.029 A 
ATOM     61  C   UNL A   1      44.656  25.084  31.155  1.00  0.00     0.049 A 
ATOM     62  H   UNL A   1      43.352  23.439  31.005  1.00  0.00     0.167 HD
ATOM     63  C   UNL A   1      44.068  26.390  33.084  1.00  0.00     0.074 A 
ATOM     64  C   UNL A   1      44.301  27.136  34.311  1.00  0.00     0.031 C 
ATOM     65  C   UNL A   1      44.618  25.236  32.601  1.00  0.00     0.031 A 
BRANCH  52  66
ATOM     66  C   UNL A   1      43.589  22.538  27.180  1.00  0.00    -0.014 A 
ATOM     67  C   UNL A   1      42.791  21.389  26.956  1.00  0.00     0.010 A 
ATOM     68  C   UNL A   1      44.726  22.663  26.360  1.00  0.00     0.010 A 
ATOM     69  C   UNL A   1      43.130  20.395  26.032  1.00  0.00     0.020 A 
ATOM     70  C   UNL A   1      45.081  21.666  25.422  1.00  0.00     0.020 A 
ATOM     71  C   UNL A   1      44.284  20.531  25.274  1.00  0.00     0.054 A 
BRANCH  71  72
ATOM     72  S   UNL A   1      44.699  19.212  24.100  1.00  0.00     0.124 S 
ATOM     73  O   UNL A   1      44.474  19.859  22.809  1.00  0.00    -0.237 OA
ATOM     74  O   UNL A   1      46.096  18.929  24.423  1.00  0.00    -0.237 OA
ATOM     75  O   UNL A   1      43.758  18.144  24.427  1.00  0.00    -0.744 OA
ENDBRANCH  71  72
ENDBRANCH  52  66
BRANCH  53  76
ATOM     76  C   UNL A   1      40.960  30.017  32.839  1.00  0.00    -0.014 A 
ATOM     77  C   UNL A   1      40.711  31.403  32.683  1.00  0.00     0.010 A 
ATOM     78  C   UNL A   1      39.850  29.161  32.970  1.00  0.00     0.010 A 
ATOM     79  C   UNL A   1      39.410  31.896  32.520  1.00  0.00     0.020 A 
ATOM     80  C   UNL A   1      38.538  29.658  32.829  1.00  0.00     0.020 A 
ATOM     81  C   UNL A   1      38.332  31.014  32.554  1.00  0.00     0.054 A 
BRANCH  81  82
ATOM     82  S   UNL A   1      36.697  31.643  32.046  1.00  0.00     0.124 S 
ATOM     83  O   UNL A   1      35.891  30.428  32.017  1.00  0.00    -0.237 OA
ATOM     84  O   UNL A   1      36.386  32.580  33.124  1.00  0.00    -0.237 OA
ATOM     85  O   UNL A   1      36.960  32.257  30.748  1.00  0.00    -0.744 OA
ENDBRANCH  81  82
ENDBRANCH  53  76
BRANCH  65  86
ATOM     86  C   UNL A   1      45.302  24.169  33.424  1.00  0.00    -0.014 A 
ATOM     87  C   UNL A   1      44.721  22.936  33.743  1.00  0.00     0.010 A 
ATOM     88  C   UNL A   1      46.661  24.346  33.794  1.00  0.00     0.010 A 
ATOM     89  C   UNL A   1      45.423  21.967  34.467  1.00  0.00     0.020 A 
ATOM     90  C   UNL A   1      47.395  23.360  34.453  1.00  0.00     0.020 A 
ATOM     91  C   UNL A   1      46.755  22.186  34.816  1.00  0.00     0.054 A 
BRANCH  91  92
ATOM     92  S   UNL A   1      47.644  20.896  35.710  1.00  0.00     0.124 S 
ATOM     93  O   UNL A   1      48.495  20.340  34.662  1.00  0.00    -0.237 OA
ATOM     94  O   UNL A   1      48.340  21.651  36.750  1.00  0.00    -0.237 OA
ATOM     95  O   UNL A   1      46.585  20.014  36.194  1.00  0.00    -0.744 OA
ENDBRANCH  91  92
ENDBRANCH  65  86
ENDBRANCH  39  40
ENDBRANCH  32  34
ENDBRANCH  31  32
ENDBRANCH  30  31
ENDBRANCH   1  30
TORSDOF 19
ENDMDL
MODEL 3
REMARK VINA RESULT:     -12.4      1.339      2.061
REMARK SMILES Cc1cccc(NC(=O)COc2ccc(N3C[C@@H](C(=O)OCCOC(=O)c4ccc(-c5c6nc(c(-c7ccc(S(=O)(=O)[O-])cc7)c7ccc([nH]7)c(-c7ccc(S(=O)(=O)[O-])cc7)c7nc(c(-c8ccc(S(=O)(=O)[O-])cc8)c8ccc5[nH]8)C=C7)C=C6)cc4)CC3=O)cc2)c1
REMARK SMILES IDX 22 1 21 2 19 3 20 4 18 5 16 6 17 7 88 8 87 9 89 10 15 11
REMARK SMILES IDX 12 12 13 13 91 14 14 15 90 16 11 17 10 18 8 19 7 20 9 22
REMARK SMILES IDX 6 23 1 24 2 25 3 26 92 27 4 28 5 29 23 30 24 31 25 32 26 33
REMARK SMILES IDX 27 34 28 35 86 36 29 37 85 38 30 39 31 40 32 41 79 42 33 43
REMARK SMILES IDX 84 44 78 45 80 46 34 47 83 48 77 49 76 50 35 52 65 53 46 54
REMARK SMILES IDX 64 55 47 56 50 57 63 58 81 59 48 60 49 61 62 63 82 64 51 65
REMARK SMILES IDX 36 66 37 67 45 68 38 69 44 70 39 71 40 72 41 73 42 74 43 75
REMARK SMILES IDX 66 76 67 77 75 78 68 79 74 80 69 81 70 82 71 83 72 84 73 85
REMARK SMILES IDX 52 86 53 87 61 88 54 89 60 90 55 91 56 92 57 93 58 94 59 95
REMARK H PARENT 7 21 80 51 50 62
REMARK Flexibility Score: inf
ROOT
ATOM      1  C   UNL A   1      37.887  21.466  24.811  1.00  0.00     0.274 C 
ENDROOT
BRANCH   1   2
ATOM      2  O   UNL A   1      36.761  20.686  25.208  1.00  0.00    -0.462 OA
BRANCH   2   3
ATOM      3  C   UNL A   1      35.738  21.398  25.755  1.00  0.00     0.311 C 
ATOM      4  O   UNL A   1      35.139  21.087  26.759  1.00  0.00    -0.252 OA
BRANCH   3   5
ATOM      5  C   UNL A   1      35.535  22.654  24.948  1.00  0.00     0.128 C 
ATOM      6  N   UNL A   1      34.228  24.567  24.844  1.00  0.00    -0.312 N 
ATOM      7  C   UNL A   1      35.019  23.805  25.776  1.00  0.00     0.141 C 
ATOM      8  C   UNL A   1      33.826  23.792  23.757  1.00  0.00     0.227 C 
ATOM      9  C   UNL A   1      34.526  22.464  23.837  1.00  0.00     0.117 C 
ATOM     10  O   UNL A   1      33.011  24.078  22.891  1.00  0.00    -0.274 OA
BRANCH   6  11
ATOM     11  C   UNL A   1      33.526  25.681  25.324  1.00  0.00     0.044 A 
ATOM     12  C   UNL A   1      32.155  27.716  26.654  1.00  0.00     0.120 A 
ATOM     13  C   UNL A   1      33.492  27.893  26.295  1.00  0.00     0.048 A 
ATOM     14  C   UNL A   1      31.496  26.543  26.293  1.00  0.00     0.048 A 
ATOM     15  C   UNL A   1      34.191  26.861  25.662  1.00  0.00     0.030 A 
ATOM     16  C   UNL A   1      32.172  25.539  25.611  1.00  0.00     0.030 A 
BRANCH  12  17
ATOM     17  O   UNL A   1      31.563  28.767  27.292  1.00  0.00    -0.484 OA
BRANCH  17  18
ATOM     18  C   UNL A   1      32.090  30.057  27.018  1.00  0.00     0.329 C 
BRANCH  18  19
ATOM     19  C   UNL A   1      31.348  31.033  26.099  1.00  0.00     0.262 C 
ATOM     20  N   UNL A   1      30.843  30.688  24.882  1.00  0.00    -0.323 N 
ATOM     21  H   UNL A   1      30.273  31.390  24.492  1.00  0.00     0.170 HD
ATOM     22  O   UNL A   1      31.138  32.195  26.473  1.00  0.00    -0.271 OA
BRANCH  20  23
ATOM     23  C   UNL A   1      30.954  29.557  24.060  1.00  0.00     0.041 A 
ATOM     24  C   UNL A   1      33.842  27.910  22.170  1.00  0.00     0.044 C 
ATOM     25  C   UNL A   1      32.473  28.185  22.717  1.00  0.00    -0.049 A 
ATOM     26  C   UNL A   1      31.422  27.309  22.439  1.00  0.00     0.003 A 
ATOM     27  C   UNL A   1      32.228  29.305  23.523  1.00  0.00     0.029 A 
ATOM     28  C   UNL A   1      30.157  27.546  22.972  1.00  0.00     0.002 A 
ATOM     29  C   UNL A   1      29.930  28.656  23.790  1.00  0.00     0.026 A 
ENDBRANCH  20  23
ENDBRANCH  18  19
ENDBRANCH  17  18
ENDBRANCH  12  17
ENDBRANCH   6  11
ENDBRANCH   3   5
ENDBRANCH   2   3
ENDBRANCH   1   2
BRANCH   1  30
ATOM     30  C   UNL A   1      38.626  21.971  26.062  1.00  0.00     0.275 C 
BRANCH  30  31
ATOM     31  O   UNL A   1      38.648  23.392  26.396  1.00  0.00    -0.458 OA
BRANCH  31  32
ATOM     32  C   UNL A   1      39.644  23.934  27.153  1.00  0.00     0.338 C 
ATOM     33  O   UNL A   1      40.779  23.488  27.191  1.00  0.00    -0.246 OA
BRANCH  32  34
ATOM     34  C   UNL A   1      39.226  25.246  27.720  1.00  0.00     0.060 A 
ATOM     35  C   UNL A   1      38.786  25.350  29.050  1.00  0.00     0.016 A 
ATOM     36  C   UNL A   1      39.603  26.380  27.018  1.00  0.00     0.016 A 
ATOM     37  C   UNL A   1      38.926  26.557  29.740  1.00  0.00     0.010 A 
ATOM     38  C   UNL A   1      39.914  27.500  27.732  1.00  0.00     0.010 A 
ATOM     39  C   UNL A   1      39.560  27.607  29.086  1.00  0.00    -0.014 A 
BRANCH  39  40
ATOM     40  C   UNL A   1      39.716  28.961  29.592  1.00  0.00     0.031 A 
ATOM     41  C   UNL A   1      38.694  30.011  29.419  1.00  0.00     0.074 A 
ATOM     42  C   UNL A   1      40.783  29.063  30.418  1.00  0.00     0.049 A 
ATOM     43  N   UNL A   1      38.926  31.271  29.537  1.00  0.00    -0.248 NA
ATOM     44  C   UNL A   1      37.300  29.743  29.077  1.00  0.00     0.031 C 
ATOM     45  C   UNL A   1      41.142  30.074  31.389  1.00  0.00     0.029 A 
ATOM     46  N   UNL A   1      41.891  28.197  30.433  1.00  0.00    -0.354 N 
ATOM     47  C   UNL A   1      37.701  31.907  29.663  1.00  0.00     0.074 A 
ATOM     48  C   UNL A   1      36.728  30.948  29.216  1.00  0.00     0.031 C 
ATOM     49  C   UNL A   1      42.468  29.980  31.619  1.00  0.00     0.029 A 
ATOM     50  C   UNL A   1      42.997  28.997  30.675  1.00  0.00     0.049 A 
ATOM     51  H   UNL A   1      41.883  27.222  30.300  1.00  0.00     0.167 HD
ATOM     52  C   UNL A   1      37.643  33.096  30.332  1.00  0.00     0.031 A 
ATOM     53  C   UNL A   1      43.886  29.240  29.664  1.00  0.00     0.031 A 
ATOM     54  C   UNL A   1      38.987  33.474  30.759  1.00  0.00     0.049 A 
ATOM     55  C   UNL A   1      43.881  30.716  29.350  1.00  0.00     0.074 A 
ATOM     56  C   UNL A   1      39.639  33.311  31.968  1.00  0.00     0.029 A 
ATOM     57  N   UNL A   1      39.957  33.738  29.805  1.00  0.00    -0.354 N 
ATOM     58  N   UNL A   1      42.825  31.484  29.410  1.00  0.00    -0.248 NA
ATOM     59  C   UNL A   1      45.108  31.449  29.075  1.00  0.00     0.031 C 
ATOM     60  C   UNL A   1      41.032  33.389  31.714  1.00  0.00     0.029 A 
ATOM     61  C   UNL A   1      41.215  33.610  30.359  1.00  0.00     0.049 A 
ATOM     62  H   UNL A   1      39.775  33.981  28.868  1.00  0.00     0.167 HD
ATOM     63  C   UNL A   1      43.228  32.794  29.332  1.00  0.00     0.074 A 
ATOM     64  C   UNL A   1      44.659  32.714  29.081  1.00  0.00     0.031 C 
ATOM     65  C   UNL A   1      42.400  33.859  29.555  1.00  0.00     0.031 A 
BRANCH  52  66
ATOM     66  C   UNL A   1      36.408  33.773  30.897  1.00  0.00    -0.014 A 
ATOM     67  C   UNL A   1      35.335  34.042  30.013  1.00  0.00     0.010 A 
ATOM     68  C   UNL A   1      36.223  34.190  32.229  1.00  0.00     0.010 A 
ATOM     69  C   UNL A   1      34.184  34.737  30.401  1.00  0.00     0.020 A 
ATOM     70  C   UNL A   1      35.066  34.894  32.635  1.00  0.00     0.020 A 
ATOM     71  C   UNL A   1      34.059  35.173  31.711  1.00  0.00     0.054 A 
BRANCH  71  72
ATOM     72  S   UNL A   1      32.561  36.087  32.171  1.00  0.00     0.124 S 
ATOM     73  O   UNL A   1      33.043  36.964  33.236  1.00  0.00    -0.237 OA
ATOM     74  O   UNL A   1      32.203  36.758  30.923  1.00  0.00    -0.237 OA
ATOM     75  O   UNL A   1      31.633  35.045  32.602  1.00  0.00    -0.744 OA
ENDBRANCH  71  72
ENDBRANCH  52  66
BRANCH  53  76
ATOM     76  C   UNL A   1      44.023  28.126  28.660  1.00  0.00    -0.014 A 
ATOM     77  C   UNL A   1      43.764  28.437  27.302  1.00  0.00     0.010 A 
ATOM     78  C   UNL A   1      44.744  26.949  28.938  1.00  0.00     0.010 A 
ATOM     79  C   UNL A   1      44.322  27.683  26.262  1.00  0.00     0.020 A 
ATOM     80  C   UNL A   1      45.287  26.175  27.893  1.00  0.00     0.020 A 
ATOM     81  C   UNL A   1      45.115  26.578  26.564  1.00  0.00     0.054 A 
BRANCH  81  82
ATOM     82  S   UNL A   1      46.058  25.807  25.207  1.00  0.00     0.124 S 
ATOM     83  O   UNL A   1      47.198  25.229  25.908  1.00  0.00    -0.237 OA
ATOM     84  O   UNL A   1      45.092  24.846  24.676  1.00  0.00    -0.237 OA
ATOM     85  O   UNL A   1      46.362  26.931  24.326  1.00  0.00    -0.744 OA
ENDBRANCH  81  82
ENDBRANCH  53  76
BRANCH  65  86
ATOM     86  C   UNL A   1      42.672  35.291  29.154  1.00  0.00    -0.014 A 
ATOM     87  C   UNL A   1      42.125  35.902  28.019  1.00  0.00     0.010 A 
ATOM     88  C   UNL A   1      43.413  36.127  30.031  1.00  0.00     0.010 A 
ATOM     89  C   UNL A   1      42.373  37.246  27.726  1.00  0.00     0.020 A 
ATOM     90  C   UNL A   1      43.607  37.486  29.786  1.00  0.00     0.020 A 
ATOM     91  C   UNL A   1      43.111  38.029  28.612  1.00  0.00     0.054 A 
BRANCH  91  92
ATOM     92  S   UNL A   1      43.373  39.771  28.225  1.00  0.00     0.124 S 
ATOM     93  O   UNL A   1      43.694  39.714  26.801  1.00  0.00    -0.237 OA
ATOM     94  O   UNL A   1      42.081  40.368  28.554  1.00  0.00    -0.237 OA
ATOM     95  O   UNL A   1      44.474  40.161  29.102  1.00  0.00    -0.744 OA
ENDBRANCH  91  92
ENDBRANCH  65  86
ENDBRANCH  39  40
ENDBRANCH  32  34
ENDBRANCH  31  32
ENDBRANCH  30  31
ENDBRANCH   1  30
TORSDOF 19
ENDMDL
