MODEL 1
REMARK VINA RESULT:     -10.7      0.000      0.000
REMARK SMILES Cc1ccc(C(=O)OCCOC(=O)c2ccc(-c3c4nc(c(-c5ccc(S(=O)(=O)[O-])cc5)c5ccc([nH]5)c(-c5ccc(S(=O)(=O)[O-])cc5)c5nc(c(-c6ccc(S(=O)(=O)[O-])cc6)c6ccc3[nH]6)C=C5)C=C4)cc2)c(NC(=O)CN2C(=O)/C(=C/c3ccccc3C)SC2=S)c1
REMARK SMILES IDX 9 1 8 2 6 3 7 4 5 5 1 6 2 7 3 8 94 9 4 10 74 11 75 12 76 13
REMARK SMILES IDX 77 15 78 16 79 17 80 18 92 19 81 20 82 21 91 22 93 23 83 24
REMARK SMILES IDX 84 25 85 26 89 27 86 28 88 29 90 30 87 31 10 32 11 33 12 34
REMARK SMILES IDX 13 35 14 36 15 37 73 38 16 39 72 40 17 41 18 42 19 43 66 44
REMARK SMILES IDX 20 45 71 46 65 47 67 48 21 49 70 50 64 51 63 52 22 54 52 55
REMARK SMILES IDX 33 56 51 57 34 58 37 59 50 60 68 61 35 62 36 63 49 65 69 66
REMARK SMILES IDX 38 67 23 68 24 69 32 70 25 71 31 72 26 73 27 74 28 75 29 76
REMARK SMILES IDX 30 77 53 78 54 79 62 80 55 81 61 82 56 83 57 84 58 85 59 86
REMARK SMILES IDX 60 87 39 88 40 89 48 90 41 91 47 92 42 93 43 94 44 95 45 96
REMARK SMILES IDX 46 97
REMARK H PARENT 75 14 67 53 37 64
REMARK Flexibility Score: inf
ROOT
ATOM      1  C   UNL A   1      44.229  28.433  32.119  1.00  0.00     0.275 C 
ENDROOT
BRANCH   1   2
ATOM      2  O   UNL A   1      43.622  27.239  31.554  1.00  0.00    -0.458 OA
BRANCH   2   3
ATOM      3  C   UNL A   1      42.725  27.069  30.282  1.00  0.00     0.340 C 
ATOM      4  O   UNL A   1      43.351  26.091  29.784  1.00  0.00    -0.246 OA
BRANCH   3   5
ATOM      5  C   UNL A   1      40.955  28.159  29.765  1.00  0.00     0.083 A 
ATOM      6  C   UNL A   1      37.136  30.410  28.096  1.00  0.00     0.044 C 
ATOM      7  C   UNL A   1      38.354  29.740  28.669  1.00  0.00    -0.049 A 
ATOM      8  C   UNL A   1      38.983  28.784  27.930  1.00  0.00     0.004 A 
ATOM      9  C   UNL A   1      38.882  29.951  29.943  1.00  0.00     0.030 A 
ATOM     10  C   UNL A   1      40.146  28.123  28.417  1.00  0.00     0.018 A 
ATOM     11  C   UNL A   1      40.035  29.228  30.562  1.00  0.00     0.056 A 
BRANCH  11  12
ATOM     12  N   UNL A   1      40.126  29.820  31.924  1.00  0.00    -0.324 N 
ATOM     13  C   UNL A   1      39.502  30.066  33.120  1.00  0.00     0.244 C 
ATOM     14  H   UNL A   1      41.029  30.205  31.998  1.00  0.00     0.170 HD
ATOM     15  O   UNL A   1      40.301  30.209  34.068  1.00  0.00    -0.273 OA
BRANCH  13  16
ATOM     16  C   UNL A   1      37.969  30.202  33.510  1.00  0.00     0.227 C 
BRANCH  16  17
ATOM     17  N   UNL A   1      37.258  31.469  33.265  1.00  0.00    -0.283 N 
ATOM     18  C   UNL A   1      36.274  31.258  32.304  1.00  0.00     0.266 C 
ATOM     19  C   UNL A   1      37.843  32.733  33.085  1.00  0.00     0.148 C 
ATOM     20  O   UNL A   1      35.950  30.205  31.780  1.00  0.00    -0.268 OA
ATOM     21  C   UNL A   1      35.997  32.563  31.713  1.00  0.00     0.081 C 
ATOM     22  S   UNL A   1      37.585  33.183  31.412  1.00  0.00    -0.054 SA
ATOM     23  S   UNL A   1      37.953  34.123  34.001  1.00  0.00    -0.052 S 
ATOM     24  C   UNL A   1      34.853  33.163  32.075  1.00  0.00     0.029 C 
BRANCH  24  25
ATOM     25  C   UNL A   1      34.445  34.577  32.005  1.00  0.00    -0.021 A 
ATOM     26  C   UNL A   1      34.569  35.353  33.181  1.00  0.00     0.008 A 
ATOM     27  C   UNL A   1      33.811  35.148  30.888  1.00  0.00    -0.044 A 
ATOM     28  C   UNL A   1      34.024  36.639  33.260  1.00  0.00     0.001 A 
ATOM     29  C   UNL A   1      33.282  36.445  30.986  1.00  0.00     0.004 A 
ATOM     30  C   UNL A   1      33.691  34.500  29.543  1.00  0.00     0.045 C 
ATOM     31  C   UNL A   1      33.359  37.174  32.166  1.00  0.00     0.000 A 
ENDBRANCH  24  25
ENDBRANCH  16  17
ENDBRANCH  13  16
ENDBRANCH  11  12
ENDBRANCH   3   5
ENDBRANCH   2   3
ENDBRANCH   1   2
BRANCH   1  32
ATOM     32  C   UNL A   1      43.509  29.229  33.172  1.00  0.00     0.275 C 
BRANCH  32  33
ATOM     33  O   UNL A   1      43.556  30.665  33.142  1.00  0.00    -0.458 OA
BRANCH  33  34
ATOM     34  C   UNL A   1      44.120  31.657  33.900  1.00  0.00     0.338 C 
ATOM     35  O   UNL A   1      44.906  31.331  34.773  1.00  0.00    -0.246 OA
BRANCH  34  36
ATOM     36  C   UNL A   1      43.608  33.112  34.011  1.00  0.00     0.060 A 
ATOM     37  C   UNL A   1      41.949  32.953  33.352  1.00  0.00     0.016 A 
ATOM     38  C   UNL A   1      44.653  34.383  33.297  1.00  0.00     0.016 A 
ATOM     39  C   UNL A   1      41.438  33.835  31.834  1.00  0.00     0.010 A 
ATOM     40  C   UNL A   1      44.106  35.390  31.836  1.00  0.00     0.010 A 
ATOM     41  C   UNL A   1      42.531  34.999  31.040  1.00  0.00    -0.014 A 
BRANCH  41  42
ATOM     42  C   UNL A   1      42.856  34.804  29.536  1.00  0.00     0.031 A 
ATOM     43  C   UNL A   1      43.262  33.374  29.346  1.00  0.00     0.074 A 
ATOM     44  C   UNL A   1      42.600  35.811  28.616  1.00  0.00     0.049 A 
ATOM     45  N   UNL A   1      44.505  32.973  29.258  1.00  0.00    -0.248 NA
ATOM     46  C   UNL A   1      42.375  32.203  29.640  1.00  0.00     0.031 C 
ATOM     47  C   UNL A   1      42.462  35.921  27.152  1.00  0.00     0.029 A 
ATOM     48  N   UNL A   1      42.441  37.159  28.922  1.00  0.00    -0.354 N 
ATOM     49  C   UNL A   1      44.360  31.630  28.932  1.00  0.00     0.074 A 
ATOM     50  C   UNL A   1      43.261  31.215  29.735  1.00  0.00     0.031 C 
ATOM     51  C   UNL A   1      42.567  37.218  26.746  1.00  0.00     0.029 A 
ATOM     52  C   UNL A   1      42.658  38.078  27.916  1.00  0.00     0.049 A 
ATOM     53  H   UNL A   1      42.183  37.448  29.827  1.00  0.00     0.167 HD
ATOM     54  C   UNL A   1      44.420  31.251  27.607  1.00  0.00     0.031 A 
ATOM     55  C   UNL A   1      43.560  39.049  28.239  1.00  0.00     0.031 A 
ATOM     56  C   UNL A   1      44.649  32.424  26.758  1.00  0.00     0.049 A 
ATOM     57  C   UNL A   1      44.900  38.383  27.938  1.00  0.00     0.074 A 
ATOM     58  C   UNL A   1      43.886  33.089  25.815  1.00  0.00     0.029 A 
ATOM     59  N   UNL A   1      45.661  33.300  27.116  1.00  0.00    -0.354 N 
ATOM     60  N   UNL A   1      45.067  37.083  27.894  1.00  0.00    -0.248 NA
ATOM     61  C   UNL A   1      46.064  39.104  27.438  1.00  0.00     0.031 C 
ATOM     62  C   UNL A   1      44.480  34.376  25.613  1.00  0.00     0.029 A 
ATOM     63  C   UNL A   1      45.517  34.533  26.518  1.00  0.00     0.049 A 
ATOM     64  H   UNL A   1      46.397  33.069  27.727  1.00  0.00     0.167 HD
ATOM     65  C   UNL A   1      46.202  36.788  27.209  1.00  0.00     0.074 A 
ATOM     66  C   UNL A   1      46.828  38.086  27.002  1.00  0.00     0.031 C 
ATOM     67  C   UNL A   1      46.540  35.541  26.768  1.00  0.00     0.031 A 
BRANCH  54  68
ATOM     68  C   UNL A   1      43.885  29.925  27.061  1.00  0.00    -0.014 A 
ATOM     69  C   UNL A   1      44.648  28.764  27.281  1.00  0.00     0.010 A 
ATOM     70  C   UNL A   1      42.659  29.729  26.379  1.00  0.00     0.010 A 
ATOM     71  C   UNL A   1      44.219  27.494  26.868  1.00  0.00     0.020 A 
ATOM     72  C   UNL A   1      42.224  28.467  25.938  1.00  0.00     0.020 A 
ATOM     73  C   UNL A   1      43.000  27.349  26.210  1.00  0.00     0.054 A 
BRANCH  73  74
ATOM     74  S   UNL A   1      42.423  25.683  25.799  1.00  0.00     0.124 S 
ATOM     75  O   UNL A   1      42.576  24.976  27.068  1.00  0.00    -0.237 OA
ATOM     76  O   UNL A   1      41.047  25.929  25.376  1.00  0.00    -0.237 OA
ATOM     77  O   UNL A   1      43.330  25.250  24.737  1.00  0.00    -0.744 OA
ENDBRANCH  73  74
ENDBRANCH  54  68
BRANCH  55  78
ATOM     78  C   UNL A   1      43.144  39.839  29.487  1.00  0.00    -0.014 A 
ATOM     79  C   UNL A   1      44.016  39.826  30.614  1.00  0.00     0.010 A 
ATOM     80  C   UNL A   1      42.115  40.794  29.531  1.00  0.00     0.010 A 
ATOM     81  C   UNL A   1      43.931  40.765  31.676  1.00  0.00     0.020 A 
ATOM     82  C   UNL A   1      42.006  41.726  30.607  1.00  0.00     0.020 A 
ATOM     83  C   UNL A   1      42.920  41.721  31.673  1.00  0.00     0.054 A 
BRANCH  83  84
ATOM     84  S   UNL A   1      42.824  43.011  33.004  1.00  0.00     0.124 S 
ATOM     85  O   UNL A   1      42.282  44.151  32.269  1.00  0.00    -0.237 OA
ATOM     86  O   UNL A   1      41.902  42.473  34.001  1.00  0.00    -0.237 OA
ATOM     87  O   UNL A   1      44.215  43.186  33.431  1.00  0.00    -0.744 OA
ENDBRANCH  83  84
ENDBRANCH  55  78
BRANCH  67  88
ATOM     88  C   UNL A   1      47.961  35.154  26.481  1.00  0.00    -0.014 A 
ATOM     89  C   UNL A   1      48.545  35.316  25.221  1.00  0.00     0.010 A 
ATOM     90  C   UNL A   1      48.808  34.764  27.548  1.00  0.00     0.010 A 
ATOM     91  C   UNL A   1      49.868  34.955  25.001  1.00  0.00     0.020 A 
ATOM     92  C   UNL A   1      50.158  34.516  27.364  1.00  0.00     0.020 A 
ATOM     93  C   UNL A   1      50.662  34.551  26.074  1.00  0.00     0.054 A 
BRANCH  93  94
ATOM     94  S   UNL A   1      52.356  34.051  25.750  1.00  0.00     0.124 S 
ATOM     95  O   UNL A   1      53.042  34.569  26.930  1.00  0.00    -0.237 OA
ATOM     96  O   UNL A   1      52.245  32.596  25.672  1.00  0.00    -0.237 OA
ATOM     97  O   UNL A   1      52.682  34.717  24.492  1.00  0.00    -0.744 OA
ENDBRANCH  93  94
ENDBRANCH  67  88
ENDBRANCH  41  42
ENDBRANCH  34  36
ENDBRANCH  33  34
ENDBRANCH  32  33
ENDBRANCH   1  32
TORSDOF 18
ENDMDL
MODEL 2
REMARK VINA RESULT:      -9.8      5.318     10.095
REMARK SMILES Cc1ccc(C(=O)OCCOC(=O)c2ccc(-c3c4nc(c(-c5ccc(S(=O)(=O)[O-])cc5)c5ccc([nH]5)c(-c5ccc(S(=O)(=O)[O-])cc5)c5nc(c(-c6ccc(S(=O)(=O)[O-])cc6)c6ccc3[nH]6)C=C5)C=C4)cc2)c(NC(=O)CN2C(=O)/C(=C/c3ccccc3C)SC2=S)c1
REMARK SMILES IDX 9 1 8 2 6 3 7 4 5 5 1 6 2 7 3 8 94 9 4 10 74 11 75 12 76 13
REMARK SMILES IDX 77 15 78 16 79 17 80 18 92 19 81 20 82 21 91 22 93 23 83 24
REMARK SMILES IDX 84 25 85 26 89 27 86 28 88 29 90 30 87 31 10 32 11 33 12 34
REMARK SMILES IDX 13 35 14 36 15 37 73 38 16 39 72 40 17 41 18 42 19 43 66 44
REMARK SMILES IDX 20 45 71 46 65 47 67 48 21 49 70 50 64 51 63 52 22 54 52 55
REMARK SMILES IDX 33 56 51 57 34 58 37 59 50 60 68 61 35 62 36 63 49 65 69 66
REMARK SMILES IDX 38 67 23 68 24 69 32 70 25 71 31 72 26 73 27 74 28 75 29 76
REMARK SMILES IDX 30 77 53 78 54 79 62 80 55 81 61 82 56 83 57 84 58 85 59 86
REMARK SMILES IDX 60 87 39 88 40 89 48 90 41 91 47 92 42 93 43 94 44 95 45 96
REMARK SMILES IDX 46 97
REMARK H PARENT 75 14 67 53 37 64
REMARK Flexibility Score: inf
ROOT
ATOM      1  C   UNL A   1      45.303  33.677  37.920  1.00  0.00     0.275 C 
ENDROOT
BRANCH   1   2
ATOM      2  O   UNL A   1      44.368  32.565  37.850  1.00  0.00    -0.458 OA
BRANCH   2   3
ATOM      3  C   UNL A   1      42.839  32.509  38.181  1.00  0.00     0.340 C 
ATOM      4  O   UNL A   1      42.735  31.250  38.206  1.00  0.00    -0.246 OA
BRANCH   3   5
ATOM      5  C   UNL A   1      41.515  34.148  38.561  1.00  0.00     0.083 A 
ATOM      6  C   UNL A   1      38.983  37.978  39.732  1.00  0.00     0.044 C 
ATOM      7  C   UNL A   1      39.735  36.730  39.355  1.00  0.00    -0.049 A 
ATOM      8  C   UNL A   1      41.076  36.681  39.582  1.00  0.00     0.004 A 
ATOM      9  C   UNL A   1      39.197  35.613  38.716  1.00  0.00     0.030 A 
ATOM     10  C   UNL A   1      41.837  35.523  39.255  1.00  0.00     0.018 A 
ATOM     11  C   UNL A   1      39.945  34.404  38.252  1.00  0.00     0.056 A 
BRANCH  11  12
ATOM     12  N   UNL A   1      38.894  33.570  37.610  1.00  0.00    -0.324 N 
ATOM     13  C   UNL A   1      37.603  33.107  37.648  1.00  0.00     0.244 C 
ATOM     14  H   UNL A   1      39.305  33.178  36.806  1.00  0.00     0.170 HD
ATOM     15  O   UNL A   1      37.164  32.791  36.524  1.00  0.00    -0.273 OA
BRANCH  13  16
ATOM     16  C   UNL A   1      36.585  32.900  38.849  1.00  0.00     0.227 C 
BRANCH  16  17
ATOM     17  N   UNL A   1      37.087  32.548  40.187  1.00  0.00    -0.283 N 
ATOM     18  C   UNL A   1      37.233  31.167  40.268  1.00  0.00     0.266 C 
ATOM     19  C   UNL A   1      36.624  33.055  41.413  1.00  0.00     0.148 C 
ATOM     20  O   UNL A   1      37.070  30.342  39.384  1.00  0.00    -0.268 OA
ATOM     21  C   UNL A   1      37.185  30.835  41.688  1.00  0.00     0.081 C 
ATOM     22  S   UNL A   1      35.816  31.739  42.238  1.00  0.00    -0.054 SA
ATOM     23  S   UNL A   1      37.226  34.113  42.554  1.00  0.00    -0.052 S 
ATOM     24  C   UNL A   1      38.349  30.521  42.277  1.00  0.00     0.029 C 
BRANCH  24  25
ATOM     25  C   UNL A   1      38.738  30.521  43.698  1.00  0.00    -0.021 A 
ATOM     26  C   UNL A   1      38.042  29.647  44.567  1.00  0.00     0.008 A 
ATOM     27  C   UNL A   1      39.650  31.434  44.255  1.00  0.00    -0.044 A 
ATOM     28  C   UNL A   1      38.207  29.723  45.954  1.00  0.00     0.001 A 
ATOM     29  C   UNL A   1      39.807  31.486  45.649  1.00  0.00     0.004 A 
ATOM     30  C   UNL A   1      40.536  32.351  43.469  1.00  0.00     0.045 C 
ATOM     31  C   UNL A   1      39.074  30.662  46.494  1.00  0.00     0.000 A 
ENDBRANCH  24  25
ENDBRANCH  16  17
ENDBRANCH  13  16
ENDBRANCH  11  12
ENDBRANCH   3   5
ENDBRANCH   2   3
ENDBRANCH   1   2
BRANCH   1  32
ATOM     32  C   UNL A   1      45.658  34.452  36.682  1.00  0.00     0.275 C 
BRANCH  32  33
ATOM     33  O   UNL A   1      44.639  35.173  35.970  1.00  0.00    -0.458 OA
BRANCH  33  34
ATOM     34  C   UNL A   1      44.591  36.233  35.104  1.00  0.00     0.338 C 
ATOM     35  O   UNL A   1      45.443  37.100  35.216  1.00  0.00    -0.246 OA
BRANCH  34  36
ATOM     36  C   UNL A   1      43.380  36.637  34.233  1.00  0.00     0.060 A 
ATOM     37  C   UNL A   1      42.024  36.389  35.379  1.00  0.00     0.016 A 
ATOM     38  C   UNL A   1      43.250  35.845  32.629  1.00  0.00     0.016 A 
ATOM     39  C   UNL A   1      40.713  35.156  35.053  1.00  0.00     0.010 A 
ATOM     40  C   UNL A   1      41.853  34.691  32.220  1.00  0.00     0.010 A 
ATOM     41  C   UNL A   1      40.662  34.263  33.510  1.00  0.00    -0.014 A 
BRANCH  41  42
ATOM     42  C   UNL A   1      40.625  32.713  33.551  1.00  0.00     0.031 A 
ATOM     43  C   UNL A   1      42.043  32.229  33.540  1.00  0.00     0.074 A 
ATOM     44  C   UNL A   1      39.430  32.034  33.744  1.00  0.00     0.049 A 
ATOM     45  N   UNL A   1      42.657  31.791  32.471  1.00  0.00    -0.248 NA
ATOM     46  C   UNL A   1      43.050  32.558  34.600  1.00  0.00     0.031 C 
ATOM     47  C   UNL A   1      39.016  30.677  34.146  1.00  0.00     0.029 A 
ATOM     48  N   UNL A   1      38.161  32.558  33.515  1.00  0.00    -0.354 N 
ATOM     49  C   UNL A   1      43.857  31.321  32.991  1.00  0.00     0.074 A 
ATOM     50  C   UNL A   1      44.194  32.297  33.971  1.00  0.00     0.031 C 
ATOM     51  C   UNL A   1      37.712  30.446  33.822  1.00  0.00     0.029 A 
ATOM     52  C   UNL A   1      37.127  31.671  33.296  1.00  0.00     0.049 A 
ATOM     53  H   UNL A   1      38.006  33.530  33.509  1.00  0.00     0.167 HD
ATOM     54  C   UNL A   1      43.979  29.980  33.291  1.00  0.00     0.031 A 
ATOM     55  C   UNL A   1      36.434  31.902  32.145  1.00  0.00     0.031 A 
ATOM     56  C   UNL A   1      42.735  29.276  32.970  1.00  0.00     0.049 A 
ATOM     57  C   UNL A   1      37.281  31.198  31.089  1.00  0.00     0.074 A 
ATOM     58  C   UNL A   1      41.764  28.648  33.729  1.00  0.00     0.029 A 
ATOM     59  N   UNL A   1      42.160  29.502  31.729  1.00  0.00    -0.354 N 
ATOM     60  N   UNL A   1      38.556  30.930  31.245  1.00  0.00    -0.248 NA
ATOM     61  C   UNL A   1      36.722  30.542  29.914  1.00  0.00     0.031 C 
ATOM     62  C   UNL A   1      40.605  28.495  32.902  1.00  0.00     0.029 A 
ATOM     63  C   UNL A   1      40.832  29.138  31.696  1.00  0.00     0.049 A 
ATOM     64  H   UNL A   1      42.645  29.880  30.960  1.00  0.00     0.167 HD
ATOM     65  C   UNL A   1      38.931  29.959  30.375  1.00  0.00     0.074 A 
ATOM     66  C   UNL A   1      37.767  29.795  29.516  1.00  0.00     0.031 C 
ATOM     67  C   UNL A   1      40.112  29.277  30.436  1.00  0.00     0.031 A 
BRANCH  54  68
ATOM     68  C   UNL A   1      45.044  29.395  34.222  1.00  0.00    -0.014 A 
ATOM     69  C   UNL A   1      44.638  28.948  35.493  1.00  0.00     0.010 A 
ATOM     70  C   UNL A   1      46.417  29.215  33.923  1.00  0.00     0.010 A 
ATOM     71  C   UNL A   1      45.526  28.348  36.397  1.00  0.00     0.020 A 
ATOM     72  C   UNL A   1      47.325  28.636  34.827  1.00  0.00     0.020 A 
ATOM     73  C   UNL A   1      46.865  28.182  36.055  1.00  0.00     0.054 A 
BRANCH  73  74
ATOM     74  S   UNL A   1      47.956  27.297  37.197  1.00  0.00     0.124 S 
ATOM     75  O   UNL A   1      47.050  26.326  37.806  1.00  0.00    -0.237 OA
ATOM     76  O   UNL A   1      48.962  26.742  36.296  1.00  0.00    -0.237 OA
ATOM     77  O   UNL A   1      48.440  28.341  38.098  1.00  0.00    -0.744 OA
ENDBRANCH  73  74
ENDBRANCH  54  68
BRANCH  55  78
ATOM     78  C   UNL A   1      35.831  33.313  32.102  1.00  0.00    -0.014 A 
ATOM     79  C   UNL A   1      35.078  33.689  30.952  1.00  0.00     0.010 A 
ATOM     80  C   UNL A   1      35.723  34.178  33.203  1.00  0.00     0.010 A 
ATOM     81  C   UNL A   1      34.196  34.803  30.928  1.00  0.00     0.020 A 
ATOM     82  C   UNL A   1      34.858  35.314  33.180  1.00  0.00     0.020 A 
ATOM     83  C   UNL A   1      34.085  35.620  32.048  1.00  0.00     0.054 A 
BRANCH  83  84
ATOM     84  S   UNL A   1      32.888  37.037  32.079  1.00  0.00     0.124 S 
ATOM     85  O   UNL A   1      33.548  37.959  33.001  1.00  0.00    -0.237 OA
ATOM     86  O   UNL A   1      32.834  37.531  30.705  1.00  0.00    -0.237 OA
ATOM     87  O   UNL A   1      31.654  36.450  32.608  1.00  0.00    -0.744 OA
ENDBRANCH  83  84
ENDBRANCH  55  78
BRANCH  67  88
ATOM     88  C   UNL A   1      40.710  28.606  29.234  1.00  0.00    -0.014 A 
ATOM     89  C   UNL A   1      41.080  27.258  29.232  1.00  0.00     0.010 A 
ATOM     90  C   UNL A   1      40.757  29.297  27.999  1.00  0.00     0.010 A 
ATOM     91  C   UNL A   1      41.620  26.672  28.094  1.00  0.00     0.020 A 
ATOM     92  C   UNL A   1      41.181  28.688  26.829  1.00  0.00     0.020 A 
ATOM     93  C   UNL A   1      41.673  27.395  26.904  1.00  0.00     0.054 A 
BRANCH  93  94
ATOM     94  S   UNL A   1      42.414  26.625  25.461  1.00  0.00     0.124 S 
ATOM     95  O   UNL A   1      42.573  27.770  24.569  1.00  0.00    -0.237 OA
ATOM     96  O   UNL A   1      43.652  26.069  26.002  1.00  0.00    -0.237 OA
ATOM     97  O   UNL A   1      41.420  25.639  25.043  1.00  0.00    -0.744 OA
ENDBRANCH  93  94
ENDBRANCH  67  88
ENDBRANCH  41  42
ENDBRANCH  34  36
ENDBRANCH  33  34
ENDBRANCH  32  33
ENDBRANCH   1  32
TORSDOF 18
ENDMDL
MODEL 3
REMARK VINA RESULT:      -9.7      6.334     13.118
REMARK SMILES Cc1ccc(C(=O)OCCOC(=O)c2ccc(-c3c4nc(c(-c5ccc(S(=O)(=O)[O-])cc5)c5ccc([nH]5)c(-c5ccc(S(=O)(=O)[O-])cc5)c5nc(c(-c6ccc(S(=O)(=O)[O-])cc6)c6ccc3[nH]6)C=C5)C=C4)cc2)c(NC(=O)CN2C(=O)/C(=C/c3ccccc3C)SC2=S)c1
REMARK SMILES IDX 9 1 8 2 6 3 7 4 5 5 1 6 2 7 3 8 94 9 4 10 74 11 75 12 76 13
REMARK SMILES IDX 77 15 78 16 79 17 80 18 92 19 81 20 82 21 91 22 93 23 83 24
REMARK SMILES IDX 84 25 85 26 89 27 86 28 88 29 90 30 87 31 10 32 11 33 12 34
REMARK SMILES IDX 13 35 14 36 15 37 73 38 16 39 72 40 17 41 18 42 19 43 66 44
REMARK SMILES IDX 20 45 71 46 65 47 67 48 21 49 70 50 64 51 63 52 22 54 52 55
REMARK SMILES IDX 33 56 51 57 34 58 37 59 50 60 68 61 35 62 36 63 49 65 69 66
REMARK SMILES IDX 38 67 23 68 24 69 32 70 25 71 31 72 26 73 27 74 28 75 29 76
REMARK SMILES IDX 30 77 53 78 54 79 62 80 55 81 61 82 56 83 57 84 58 85 59 86
REMARK SMILES IDX 60 87 39 88 40 89 48 90 41 91 47 92 42 93 43 94 44 95 45 96
REMARK SMILES IDX 46 97
REMARK H PARENT 75 14 67 53 37 64
REMARK Flexibility Score: inf
ROOT
ATOM      1  C   UNL A   1      45.861  45.021  27.478  1.00  0.00     0.275 C 
ENDROOT
BRANCH   1   2
ATOM      2  O   UNL A   1      47.236  44.762  27.084  1.00  0.00    -0.458 OA
BRANCH   2   3
ATOM      3  C   UNL A   1      48.200  45.596  26.174  1.00  0.00     0.340 C 
ATOM      4  O   UNL A   1      48.265  46.616  26.917  1.00  0.00    -0.246 OA
BRANCH   3   5
ATOM      5  C   UNL A   1      49.122  44.997  24.337  1.00  0.00     0.083 A 
ATOM      6  C   UNL A   1      51.532  44.078  20.363  1.00  0.00     0.044 C 
ATOM      7  C   UNL A   1      50.716  44.352  21.596  1.00  0.00    -0.049 A 
ATOM      8  C   UNL A   1      51.261  45.111  22.586  1.00  0.00     0.004 A 
ATOM      9  C   UNL A   1      49.448  43.837  21.869  1.00  0.00     0.030 A 
ATOM     10  C   UNL A   1      50.531  45.411  23.771  1.00  0.00     0.018 A 
ATOM     11  C   UNL A   1      48.661  44.023  23.127  1.00  0.00     0.056 A 
BRANCH  11  12
ATOM     12  N   UNL A   1      47.427  43.228  22.886  1.00  0.00    -0.324 N 
ATOM     13  C   UNL A   1      46.694  42.472  22.007  1.00  0.00     0.244 C 
ATOM     14  H   UNL A   1      46.910  43.258  23.724  1.00  0.00     0.170 HD
ATOM     15  O   UNL A   1      45.928  41.668  22.576  1.00  0.00    -0.273 OA
BRANCH  13  16
ATOM     16  C   UNL A   1      46.642  42.440  20.421  1.00  0.00     0.227 C 
BRANCH  16  17
ATOM     17  N   UNL A   1      45.804  43.408  19.693  1.00  0.00    -0.283 N 
ATOM     18  C   UNL A   1      46.627  44.291  19.001  1.00  0.00     0.266 C 
ATOM     19  C   UNL A   1      44.684  44.090  20.199  1.00  0.00     0.148 C 
ATOM     20  O   UNL A   1      47.843  44.265  18.907  1.00  0.00    -0.268 OA
ATOM     21  C   UNL A   1      45.834  45.494  18.776  1.00  0.00     0.081 C 
ATOM     22  S   UNL A   1      45.131  45.778  20.332  1.00  0.00    -0.054 SA
ATOM     23  S   UNL A   1      43.036  43.990  19.962  1.00  0.00    -0.052 S 
ATOM     24  C   UNL A   1      45.369  45.691  17.532  1.00  0.00     0.029 C 
BRANCH  24  25
ATOM     25  C   UNL A   1      44.264  46.531  17.040  1.00  0.00    -0.021 A 
ATOM     26  C   UNL A   1      44.435  47.934  17.092  1.00  0.00     0.008 A 
ATOM     27  C   UNL A   1      43.009  46.021  16.664  1.00  0.00    -0.044 A 
ATOM     28  C   UNL A   1      43.370  48.803  16.834  1.00  0.00     0.001 A 
ATOM     29  C   UNL A   1      41.957  46.913  16.399  1.00  0.00     0.004 A 
ATOM     30  C   UNL A   1      42.695  44.571  16.463  1.00  0.00     0.045 C 
ATOM     31  C   UNL A   1      42.123  48.288  16.510  1.00  0.00     0.000 A 
ENDBRANCH  24  25
ENDBRANCH  16  17
ENDBRANCH  13  16
ENDBRANCH  11  12
ENDBRANCH   3   5
ENDBRANCH   2   3
ENDBRANCH   1   2
BRANCH   1  32
ATOM     32  C   UNL A   1      45.465  44.988  28.927  1.00  0.00     0.275 C 
BRANCH  32  33
ATOM     33  O   UNL A   1      45.578  43.764  29.674  1.00  0.00    -0.458 OA
BRANCH  33  34
ATOM     34  C   UNL A   1      45.602  42.425  29.390  1.00  0.00     0.338 C 
ATOM     35  O   UNL A   1      46.496  41.754  29.878  1.00  0.00    -0.246 OA
BRANCH  34  36
ATOM     36  C   UNL A   1      44.835  41.729  28.242  1.00  0.00     0.060 A 
ATOM     37  C   UNL A   1      43.311  41.269  29.065  1.00  0.00     0.016 A 
ATOM     38  C   UNL A   1      45.713  40.435  27.363  1.00  0.00     0.016 A 
ATOM     39  C   UNL A   1      42.822  39.516  29.256  1.00  0.00     0.010 A 
ATOM     40  C   UNL A   1      45.161  38.663  27.427  1.00  0.00     0.010 A 
ATOM     41  C   UNL A   1      43.775  38.214  28.498  1.00  0.00    -0.014 A 
BRANCH  41  42
ATOM     42  C   UNL A   1      44.292  37.056  29.391  1.00  0.00     0.031 A 
ATOM     43  C   UNL A   1      43.924  35.769  28.715  1.00  0.00     0.074 A 
ATOM     44  C   UNL A   1      45.090  37.311  30.497  1.00  0.00     0.049 A 
ATOM     45  N   UNL A   1      42.892  35.037  29.050  1.00  0.00    -0.248 NA
ATOM     46  C   UNL A   1      44.406  35.369  27.354  1.00  0.00     0.031 C 
ATOM     47  C   UNL A   1      46.001  36.544  31.366  1.00  0.00     0.029 A 
ATOM     48  N   UNL A   1      45.180  38.531  31.160  1.00  0.00    -0.354 N 
ATOM     49  C   UNL A   1      43.068  33.903  28.267  1.00  0.00     0.074 A 
ATOM     50  C   UNL A   1      43.523  34.430  27.025  1.00  0.00     0.031 C 
ATOM     51  C   UNL A   1      46.247  37.211  32.529  1.00  0.00     0.029 A 
ATOM     52  C   UNL A   1      45.620  38.523  32.468  1.00  0.00     0.049 A 
ATOM     53  H   UNL A   1      44.937  39.373  30.711  1.00  0.00     0.167 HD
ATOM     54  C   UNL A   1      43.695  32.801  28.812  1.00  0.00     0.031 A 
ATOM     55  C   UNL A   1      44.777  39.148  33.339  1.00  0.00     0.031 A 
ATOM     56  C   UNL A   1      44.063  33.070  30.205  1.00  0.00     0.049 A 
ATOM     57  C   UNL A   1      43.754  38.062  33.661  1.00  0.00     0.074 A 
ATOM     58  C   UNL A   1      45.269  33.219  30.867  1.00  0.00     0.029 A 
ATOM     59  N   UNL A   1      43.101  33.613  31.040  1.00  0.00    -0.354 N 
ATOM     60  N   UNL A   1      43.521  37.034  32.882  1.00  0.00    -0.248 NA
ATOM     61  C   UNL A   1      43.110  37.923  34.962  1.00  0.00     0.031 C 
ATOM     62  C   UNL A   1      44.994  33.852  32.121  1.00  0.00     0.029 A 
ATOM     63  C   UNL A   1      43.652  34.195  32.161  1.00  0.00     0.049 A 
ATOM     64  H   UNL A   1      42.134  33.588  30.855  1.00  0.00     0.167 HD
ATOM     65  C   UNL A   1      42.909  36.050  33.589  1.00  0.00     0.074 A 
ATOM     66  C   UNL A   1      42.611  36.677  34.869  1.00  0.00     0.031 C 
ATOM     67  C   UNL A   1      42.750  34.766  33.154  1.00  0.00     0.031 A 
BRANCH  54  68
ATOM     68  C   UNL A   1      44.317  31.667  27.995  1.00  0.00    -0.014 A 
ATOM     69  C   UNL A   1      45.679  31.767  27.655  1.00  0.00     0.010 A 
ATOM     70  C   UNL A   1      43.668  30.482  27.568  1.00  0.00     0.010 A 
ATOM     71  C   UNL A   1      46.354  30.757  26.956  1.00  0.00     0.020 A 
ATOM     72  C   UNL A   1      44.325  29.470  26.846  1.00  0.00     0.020 A 
ATOM     73  C   UNL A   1      45.677  29.604  26.566  1.00  0.00     0.054 A 
BRANCH  73  74
ATOM     74  S   UNL A   1      46.608  28.270  25.771  1.00  0.00     0.124 S 
ATOM     75  O   UNL A   1      46.710  27.279  26.839  1.00  0.00    -0.237 OA
ATOM     76  O   UNL A   1      45.738  27.908  24.655  1.00  0.00    -0.237 OA
ATOM     77  O   UNL A   1      47.871  28.902  25.393  1.00  0.00    -0.744 OA
ENDBRANCH  73  74
ENDBRANCH  54  68
BRANCH  55  78
ATOM     78  C   UNL A   1      44.528  40.614  32.958  1.00  0.00    -0.014 A 
ATOM     79  C   UNL A   1      43.182  41.038  32.757  1.00  0.00     0.010 A 
ATOM     80  C   UNL A   1      45.478  41.643  33.050  1.00  0.00     0.010 A 
ATOM     81  C   UNL A   1      42.790  42.403  32.745  1.00  0.00     0.020 A 
ATOM     82  C   UNL A   1      45.096  43.019  33.013  1.00  0.00     0.020 A 
ATOM     83  C   UNL A   1      43.751  43.400  32.874  1.00  0.00     0.054 A 
BRANCH  83  84
ATOM     84  S   UNL A   1      43.266  45.190  32.937  1.00  0.00     0.124 S 
ATOM     85  O   UNL A   1      44.223  45.718  33.908  1.00  0.00    -0.237 OA
ATOM     86  O   UNL A   1      43.474  45.698  31.584  1.00  0.00    -0.237 OA
ATOM     87  O   UNL A   1      41.882  45.166  33.419  1.00  0.00    -0.744 OA
ENDBRANCH  83  84
ENDBRANCH  55  78
BRANCH  67  88
ATOM     88  C   UNL A   1      41.676  33.867  33.694  1.00  0.00    -0.014 A 
ATOM     89  C   UNL A   1      40.315  34.149  33.545  1.00  0.00     0.010 A 
ATOM     90  C   UNL A   1      42.027  32.604  34.229  1.00  0.00     0.010 A 
ATOM     91  C   UNL A   1      39.353  33.283  34.050  1.00  0.00     0.020 A 
ATOM     92  C   UNL A   1      41.073  31.682  34.628  1.00  0.00     0.020 A 
ATOM     93  C   UNL A   1      39.741  32.060  34.594  1.00  0.00     0.054 A 
BRANCH  93  94
ATOM     94  S   UNL A   1      38.478  30.982  35.277  1.00  0.00     0.124 S 
ATOM     95  O   UNL A   1      38.734  29.739  34.553  1.00  0.00    -0.237 OA
ATOM     96  O   UNL A   1      38.812  30.965  36.699  1.00  0.00    -0.237 OA
ATOM     97  O   UNL A   1      37.226  31.655  34.941  1.00  0.00    -0.744 OA
ENDBRANCH  93  94
ENDBRANCH  67  88
ENDBRANCH  41  42
ENDBRANCH  34  36
ENDBRANCH  33  34
ENDBRANCH  32  33
ENDBRANCH   1  32
TORSDOF 18
ENDMDL
