MODEL 1
REMARK VINA RESULT:     -10.5      0.000      0.000
REMARK SMILES COc1ccc([C@H](C)[N@H+]2CC[C@H](C(=O)OCCOC(=O)c3ccc(-c4c5nc(c(-c6ccc(S(=O)(=O)[O-])cc6)c6ccc([nH]6)c(-c6ccc(S(=O)(=O)[O-])cc6)c6nc(c(-c7ccc(S(=O)(=O)[O-])cc7)c7ccc4[nH]7)C=C6)C=C5)cc3)[C@@H]2C)cc1
REMARK SMILES IDX 16 1 15 2 13 3 14 4 12 5 9 6 10 7 81 8 11 10 82 11 7 12 8 13
REMARK SMILES IDX 6 14 3 15 4 16 84 17 5 18 83 19 2 20 1 21 17 22 18 23 19 24
REMARK SMILES IDX 20 25 21 26 22 27 80 28 23 29 79 30 24 31 25 32 26 33 73 34
REMARK SMILES IDX 27 35 78 36 72 37 74 38 28 39 77 40 71 41 70 42 29 44 59 45
REMARK SMILES IDX 40 46 58 47 41 48 44 49 57 50 75 51 42 52 43 53 56 55 76 56
REMARK SMILES IDX 45 57 30 58 31 59 39 60 32 61 38 62 33 63 34 64 35 65 36 66
REMARK SMILES IDX 37 67 60 68 61 69 69 70 62 71 68 72 63 73 64 74 65 75 66 76
REMARK SMILES IDX 67 77 46 78 47 79 55 80 48 81 54 82 49 83 50 84 51 85 52 86
REMARK SMILES IDX 53 87
REMARK H PARENT 9 9 74 43 44 54
REMARK Flexibility Score: inf
ROOT
ATOM      1  C   UNL A   1      31.632  29.945  25.561  1.00  0.00     0.274 C 
ENDROOT
BRANCH   1   2
ATOM      2  O   UNL A   1      32.439  29.153  24.667  1.00  0.00    -0.462 OA
BRANCH   2   3
ATOM      3  C   UNL A   1      32.221  27.804  24.652  1.00  0.00     0.315 C 
ATOM      4  O   UNL A   1      31.118  27.275  24.655  1.00  0.00    -0.252 OA
BRANCH   3   5
ATOM      5  C   UNL A   1      33.553  27.080  24.738  1.00  0.00     0.162 C 
ATOM      6  N   UNL A   1      33.583  24.740  24.197  1.00  0.00    -0.326 N 
ATOM      7  C   UNL A   1      33.234  24.859  25.605  1.00  0.00     0.264 C 
ATOM      8  C   UNL A   1      33.887  26.062  23.646  1.00  0.00     0.196 C 
ATOM      9  H   UNL A   1      32.741  24.398  23.736  1.00  0.00     0.348 HD
ATOM     10  C   UNL A   1      33.634  26.264  26.020  1.00  0.00     0.083 C 
ATOM     11  C   UNL A   1      33.182  26.222  22.319  1.00  0.00     0.076 C 
BRANCH   6  12
ATOM     12  C   UNL A   1      34.437  23.620  23.770  1.00  0.00     0.212 C 
ATOM     13  C   UNL A   1      35.853  23.667  24.375  1.00  0.00     0.081 C 
BRANCH  12  14
ATOM     14  C   UNL A   1      33.731  22.276  23.966  1.00  0.00     0.009 A 
ATOM     15  C   UNL A   1      32.607  19.714  24.271  1.00  0.00     0.118 A 
ATOM     16  C   UNL A   1      33.582  20.156  25.161  1.00  0.00     0.047 A 
ATOM     17  C   UNL A   1      32.143  20.564  23.271  1.00  0.00     0.047 A 
ATOM     18  C   UNL A   1      34.147  21.425  25.005  1.00  0.00     0.013 A 
ATOM     19  C   UNL A   1      32.706  21.831  23.116  1.00  0.00     0.013 A 
BRANCH  15  20
ATOM     20  O   UNL A   1      32.122  18.448  24.456  1.00  0.00    -0.497 OA
ATOM     21  C   UNL A   1      32.740  17.778  25.555  1.00  0.00     0.278 C 
ENDBRANCH  15  20
ENDBRANCH  12  14
ENDBRANCH   6  12
ENDBRANCH   3   5
ENDBRANCH   2   3
ENDBRANCH   1   2
BRANCH   1  22
ATOM     22  C   UNL A   1      32.294  30.040  26.932  1.00  0.00     0.275 C 
BRANCH  22  23
ATOM     23  O   UNL A   1      33.697  30.309  26.768  1.00  0.00    -0.458 OA
BRANCH  23  24
ATOM     24  C   UNL A   1      34.231  31.213  27.621  1.00  0.00     0.338 C 
ATOM     25  O   UNL A   1      33.680  32.196  28.088  1.00  0.00    -0.246 OA
BRANCH  24  26
ATOM     26  C   UNL A   1      35.609  30.824  27.983  1.00  0.00     0.060 A 
ATOM     27  C   UNL A   1      35.872  29.520  28.379  1.00  0.00     0.016 A 
ATOM     28  C   UNL A   1      36.598  31.798  28.129  1.00  0.00     0.016 A 
ATOM     29  C   UNL A   1      37.036  29.241  29.098  1.00  0.00     0.010 A 
ATOM     30  C   UNL A   1      37.837  31.460  28.696  1.00  0.00     0.010 A 
ATOM     31  C   UNL A   1      38.059  30.189  29.258  1.00  0.00    -0.014 A 
BRANCH  31  32
ATOM     32  C   UNL A   1      39.311  29.878  30.037  1.00  0.00     0.031 A 
ATOM     33  C   UNL A   1      40.284  28.817  29.554  1.00  0.00     0.074 A 
ATOM     34  C   UNL A   1      39.623  30.542  31.174  1.00  0.00     0.049 A 
ATOM     35  N   UNL A   1      41.238  28.204  30.213  1.00  0.00    -0.248 NA
ATOM     36  C   UNL A   1      40.159  28.373  28.155  1.00  0.00     0.031 C 
ATOM     37  C   UNL A   1      38.857  31.641  31.768  1.00  0.00     0.029 A 
ATOM     38  N   UNL A   1      40.691  30.401  32.034  1.00  0.00    -0.354 N 
ATOM     39  C   UNL A   1      41.753  27.241  29.347  1.00  0.00     0.074 A 
ATOM     40  C   UNL A   1      41.019  27.364  28.106  1.00  0.00     0.031 C 
ATOM     41  C   UNL A   1      39.520  32.132  32.822  1.00  0.00     0.029 A 
ATOM     42  C   UNL A   1      40.668  31.281  33.093  1.00  0.00     0.049 A 
ATOM     43  H   UNL A   1      41.403  29.733  31.903  1.00  0.00     0.167 HD
ATOM     44  C   UNL A   1      42.735  26.332  29.569  1.00  0.00     0.031 A 
ATOM     45  C   UNL A   1      41.421  31.361  34.209  1.00  0.00     0.031 A 
ATOM     46  C   UNL A   1      43.523  26.267  30.775  1.00  0.00     0.049 A 
ATOM     47  C   UNL A   1      42.475  30.324  34.459  1.00  0.00     0.074 A 
ATOM     48  C   UNL A   1      44.535  25.377  31.098  1.00  0.00     0.029 A 
ATOM     49  N   UNL A   1      43.416  27.148  31.841  1.00  0.00    -0.354 N 
ATOM     50  N   UNL A   1      42.847  29.328  33.692  1.00  0.00    -0.248 NA
ATOM     51  C   UNL A   1      43.181  30.395  35.746  1.00  0.00     0.031 C 
ATOM     52  C   UNL A   1      45.012  25.696  32.374  1.00  0.00     0.029 A 
ATOM     53  C   UNL A   1      44.336  26.818  32.823  1.00  0.00     0.049 A 
ATOM     54  H   UNL A   1      42.780  27.898  31.892  1.00  0.00     0.167 HD
ATOM     55  C   UNL A   1      43.832  28.655  34.403  1.00  0.00     0.074 A 
ATOM     56  C   UNL A   1      44.017  29.371  35.649  1.00  0.00     0.031 C 
ATOM     57  C   UNL A   1      44.513  27.536  34.059  1.00  0.00     0.031 A 
BRANCH  44  58
ATOM     58  C   UNL A   1      42.987  25.283  28.512  1.00  0.00    -0.014 A 
ATOM     59  C   UNL A   1      42.374  24.020  28.550  1.00  0.00     0.010 A 
ATOM     60  C   UNL A   1      43.817  25.604  27.419  1.00  0.00     0.010 A 
ATOM     61  C   UNL A   1      42.616  23.085  27.536  1.00  0.00     0.020 A 
ATOM     62  C   UNL A   1      44.039  24.684  26.391  1.00  0.00     0.020 A 
ATOM     63  C   UNL A   1      43.452  23.421  26.465  1.00  0.00     0.054 A 
BRANCH  63  64
ATOM     64  S   UNL A   1      43.736  22.196  25.155  1.00  0.00     0.124 S 
ATOM     65  O   UNL A   1      43.568  23.003  23.948  1.00  0.00    -0.237 OA
ATOM     66  O   UNL A   1      45.099  21.747  25.424  1.00  0.00    -0.237 OA
ATOM     67  O   UNL A   1      42.697  21.195  25.383  1.00  0.00    -0.744 OA
ENDBRANCH  63  64
ENDBRANCH  44  58
BRANCH  45  68
ATOM     68  C   UNL A   1      41.120  32.407  35.230  1.00  0.00    -0.014 A 
ATOM     69  C   UNL A   1      41.627  33.710  35.099  1.00  0.00     0.010 A 
ATOM     70  C   UNL A   1      40.295  32.104  36.330  1.00  0.00     0.010 A 
ATOM     71  C   UNL A   1      41.312  34.691  36.046  1.00  0.00     0.020 A 
ATOM     72  C   UNL A   1      39.947  33.088  37.256  1.00  0.00     0.020 A 
ATOM     73  C   UNL A   1      40.468  34.374  37.115  1.00  0.00     0.054 A 
BRANCH  73  74
ATOM     74  S   UNL A   1      40.007  35.675  38.293  1.00  0.00     0.124 S 
ATOM     75  O   UNL A   1      38.773  35.143  38.862  1.00  0.00    -0.237 OA
ATOM     76  O   UNL A   1      41.156  35.713  39.194  1.00  0.00    -0.237 OA
ATOM     77  O   UNL A   1      39.851  36.858  37.449  1.00  0.00    -0.744 OA
ENDBRANCH  73  74
ENDBRANCH  45  68
BRANCH  57  78
ATOM     78  C   UNL A   1      45.549  27.038  35.028  1.00  0.00    -0.014 A 
ATOM     79  C   UNL A   1      46.872  27.511  34.985  1.00  0.00     0.010 A 
ATOM     80  C   UNL A   1      45.185  26.105  36.015  1.00  0.00     0.010 A 
ATOM     81  C   UNL A   1      47.823  27.032  35.890  1.00  0.00     0.020 A 
ATOM     82  C   UNL A   1      46.126  25.642  36.937  1.00  0.00     0.020 A 
ATOM     83  C   UNL A   1      47.443  26.099  36.860  1.00  0.00     0.054 A 
BRANCH  83  84
ATOM     84  S   UNL A   1      48.686  25.517  38.046  1.00  0.00     0.124 S 
ATOM     85  O   UNL A   1      48.324  26.254  39.253  1.00  0.00    -0.237 OA
ATOM     86  O   UNL A   1      48.439  24.077  38.091  1.00  0.00    -0.237 OA
ATOM     87  O   UNL A   1      49.956  25.906  37.436  1.00  0.00    -0.744 OA
ENDBRANCH  83  84
ENDBRANCH  57  78
ENDBRANCH  31  32
ENDBRANCH  24  26
ENDBRANCH  23  24
ENDBRANCH  22  23
ENDBRANCH   1  22
TORSDOF 17
ENDMDL
MODEL 2
REMARK VINA RESULT:     -10.3      2.513      8.284
REMARK SMILES COc1ccc([C@H](C)[N@H+]2CC[C@H](C(=O)OCCOC(=O)c3ccc(-c4c5nc(c(-c6ccc(S(=O)(=O)[O-])cc6)c6ccc([nH]6)c(-c6ccc(S(=O)(=O)[O-])cc6)c6nc(c(-c7ccc(S(=O)(=O)[O-])cc7)c7ccc4[nH]7)C=C6)C=C5)cc3)[C@@H]2C)cc1
REMARK SMILES IDX 16 1 15 2 13 3 14 4 12 5 9 6 10 7 81 8 11 10 82 11 7 12 8 13
REMARK SMILES IDX 6 14 3 15 4 16 84 17 5 18 83 19 2 20 1 21 17 22 18 23 19 24
REMARK SMILES IDX 20 25 21 26 22 27 80 28 23 29 79 30 24 31 25 32 26 33 73 34
REMARK SMILES IDX 27 35 78 36 72 37 74 38 28 39 77 40 71 41 70 42 29 44 59 45
REMARK SMILES IDX 40 46 58 47 41 48 44 49 57 50 75 51 42 52 43 53 56 55 76 56
REMARK SMILES IDX 45 57 30 58 31 59 39 60 32 61 38 62 33 63 34 64 35 65 36 66
REMARK SMILES IDX 37 67 60 68 61 69 69 70 62 71 68 72 63 73 64 74 65 75 66 76
REMARK SMILES IDX 67 77 46 78 47 79 55 80 48 81 54 82 49 83 50 84 51 85 52 86
REMARK SMILES IDX 53 87
REMARK H PARENT 9 9 74 43 44 54
REMARK Flexibility Score: inf
ROOT
ATOM      1  C   UNL A   1      37.917  21.254  25.130  1.00  0.00     0.274 C 
ENDROOT
BRANCH   1   2
ATOM      2  O   UNL A   1      37.183  22.482  24.949  1.00  0.00    -0.462 OA
BRANCH   2   3
ATOM      3  C   UNL A   1      36.350  22.564  23.869  1.00  0.00     0.315 C 
ATOM      4  O   UNL A   1      36.701  22.877  22.740  1.00  0.00    -0.252 OA
BRANCH   3   5
ATOM      5  C   UNL A   1      34.922  22.310  24.317  1.00  0.00     0.162 C 
ATOM      6  N   UNL A   1      33.764  24.111  25.407  1.00  0.00    -0.326 N 
ATOM      7  C   UNL A   1      34.513  23.391  26.427  1.00  0.00     0.264 C 
ATOM      8  C   UNL A   1      33.900  23.432  24.117  1.00  0.00     0.196 C 
ATOM      9  H   UNL A   1      34.218  25.021  25.327  1.00  0.00     0.348 HD
ATOM     10  C   UNL A   1      34.873  22.049  25.816  1.00  0.00     0.083 C 
ATOM     11  C   UNL A   1      34.201  24.452  23.045  1.00  0.00     0.076 C 
BRANCH   6  12
ATOM     12  C   UNL A   1      32.438  24.650  25.748  1.00  0.00     0.212 C 
ATOM     13  C   UNL A   1      31.670  23.783  26.764  1.00  0.00     0.081 C 
BRANCH  12  14
ATOM     14  C   UNL A   1      32.522  26.127  26.142  1.00  0.00     0.009 A 
ATOM     15  C   UNL A   1      32.828  28.791  26.996  1.00  0.00     0.118 A 
ATOM     16  C   UNL A   1      33.821  28.188  26.230  1.00  0.00     0.047 A 
ATOM     17  C   UNL A   1      31.655  28.097  27.283  1.00  0.00     0.047 A 
ATOM     18  C   UNL A   1      33.675  26.863  25.813  1.00  0.00     0.013 A 
ATOM     19  C   UNL A   1      31.508  26.774  26.867  1.00  0.00     0.013 A 
BRANCH  15  20
ATOM     20  O   UNL A   1      33.049  30.079  27.404  1.00  0.00    -0.497 OA
ATOM     21  C   UNL A   1      32.149  31.008  26.802  1.00  0.00     0.278 C 
ENDBRANCH  15  20
ENDBRANCH  12  14
ENDBRANCH   6  12
ENDBRANCH   3   5
ENDBRANCH   2   3
ENDBRANCH   1   2
BRANCH   1  22
ATOM     22  C   UNL A   1      39.178  21.503  25.951  1.00  0.00     0.275 C 
BRANCH  22  23
ATOM     23  O   UNL A   1      39.154  22.844  26.469  1.00  0.00    -0.458 OA
BRANCH  23  24
ATOM     24  C   UNL A   1      40.349  23.473  26.545  1.00  0.00     0.338 C 
ATOM     25  O   UNL A   1      41.411  23.088  26.083  1.00  0.00    -0.246 OA
BRANCH  24  26
ATOM     26  C   UNL A   1      40.204  24.769  27.239  1.00  0.00     0.060 A 
ATOM     27  C   UNL A   1      41.108  25.790  26.979  1.00  0.00     0.016 A 
ATOM     28  C   UNL A   1      39.302  24.903  28.294  1.00  0.00     0.016 A 
ATOM     29  C   UNL A   1      41.239  26.839  27.892  1.00  0.00     0.010 A 
ATOM     30  C   UNL A   1      39.329  26.052  29.099  1.00  0.00     0.010 A 
ATOM     31  C   UNL A   1      40.346  27.016  28.960  1.00  0.00    -0.014 A 
BRANCH  31  32
ATOM     32  C   UNL A   1      40.498  28.151  29.939  1.00  0.00     0.031 A 
ATOM     33  C   UNL A   1      41.666  28.192  30.907  1.00  0.00     0.074 A 
ATOM     34  C   UNL A   1      39.619  29.180  29.974  1.00  0.00     0.049 A 
ATOM     35  N   UNL A   1      41.814  28.901  32.001  1.00  0.00    -0.248 NA
ATOM     36  C   UNL A   1      42.809  27.307  30.624  1.00  0.00     0.031 C 
ATOM     37  C   UNL A   1      38.471  29.364  29.083  1.00  0.00     0.029 A 
ATOM     38  N   UNL A   1      39.566  30.289  30.791  1.00  0.00    -0.354 N 
ATOM     39  C   UNL A   1      43.008  28.478  32.582  1.00  0.00     0.074 A 
ATOM     40  C   UNL A   1      43.557  27.462  31.709  1.00  0.00     0.031 C 
ATOM     41  C   UNL A   1      37.894  30.546  29.333  1.00  0.00     0.029 A 
ATOM     42  C   UNL A   1      38.514  31.132  30.511  1.00  0.00     0.049 A 
ATOM     43  H   UNL A   1      40.219  30.462  31.508  1.00  0.00     0.167 HD
ATOM     44  C   UNL A   1      43.586  28.888  33.739  1.00  0.00     0.031 A 
ATOM     45  C   UNL A   1      38.030  32.209  31.161  1.00  0.00     0.031 A 
ATOM     46  C   UNL A   1      43.083  29.959  34.562  1.00  0.00     0.049 A 
ATOM     47  C   UNL A   1      38.654  32.624  32.461  1.00  0.00     0.074 A 
ATOM     48  C   UNL A   1      43.593  30.442  35.757  1.00  0.00     0.029 A 
ATOM     49  N   UNL A   1      41.977  30.740  34.259  1.00  0.00    -0.354 N 
ATOM     50  N   UNL A   1      39.697  32.115  33.071  1.00  0.00    -0.248 NA
ATOM     51  C   UNL A   1      38.010  33.731  33.181  1.00  0.00     0.031 C 
ATOM     52  C   UNL A   1      42.773  31.488  36.194  1.00  0.00     0.029 A 
ATOM     53  C   UNL A   1      41.785  31.693  35.247  1.00  0.00     0.049 A 
ATOM     54  H   UNL A   1      41.412  30.633  33.460  1.00  0.00     0.167 HD
ATOM     55  C   UNL A   1      39.834  32.841  34.247  1.00  0.00     0.074 A 
ATOM     56  C   UNL A   1      38.786  33.842  34.250  1.00  0.00     0.031 C 
ATOM     57  C   UNL A   1      40.740  32.684  35.241  1.00  0.00     0.031 A 
BRANCH  44  58
ATOM     58  C   UNL A   1      44.804  28.141  34.229  1.00  0.00    -0.014 A 
ATOM     59  C   UNL A   1      46.110  28.559  33.927  1.00  0.00     0.010 A 
ATOM     60  C   UNL A   1      44.625  27.022  35.067  1.00  0.00     0.010 A 
ATOM     61  C   UNL A   1      47.213  27.851  34.421  1.00  0.00     0.020 A 
ATOM     62  C   UNL A   1      45.722  26.329  35.585  1.00  0.00     0.020 A 
ATOM     63  C   UNL A   1      47.012  26.737  35.243  1.00  0.00     0.054 A 
BRANCH  63  64
ATOM     64  S   UNL A   1      48.458  25.846  35.884  1.00  0.00     0.124 S 
ATOM     65  O   UNL A   1      48.274  25.976  37.328  1.00  0.00    -0.237 OA
ATOM     66  O   UNL A   1      48.273  24.501  35.347  1.00  0.00    -0.237 OA
ATOM     67  O   UNL A   1      49.593  26.583  35.333  1.00  0.00    -0.744 OA
ENDBRANCH  63  64
ENDBRANCH  44  58
BRANCH  45  68
ATOM     68  C   UNL A   1      36.814  32.902  30.642  1.00  0.00    -0.014 A 
ATOM     69  C   UNL A   1      35.583  32.796  31.310  1.00  0.00     0.010 A 
ATOM     70  C   UNL A   1      36.896  33.699  29.484  1.00  0.00     0.010 A 
ATOM     71  C   UNL A   1      34.458  33.476  30.831  1.00  0.00     0.020 A 
ATOM     72  C   UNL A   1      35.786  34.410  29.026  1.00  0.00     0.020 A 
ATOM     73  C   UNL A   1      34.569  34.285  29.695  1.00  0.00     0.054 A 
BRANCH  73  74
ATOM     74  S   UNL A   1      33.120  35.220  29.131  1.00  0.00     0.124 S 
ATOM     75  O   UNL A   1      32.560  34.328  28.121  1.00  0.00    -0.237 OA
ATOM     76  O   UNL A   1      32.336  35.365  30.354  1.00  0.00    -0.237 OA
ATOM     77  O   UNL A   1      33.696  36.463  28.621  1.00  0.00    -0.744 OA
ENDBRANCH  73  74
ENDBRANCH  45  68
BRANCH  57  78
ATOM     78  C   UNL A   1      40.662  33.640  36.399  1.00  0.00    -0.014 A 
ATOM     79  C   UNL A   1      39.906  33.336  37.544  1.00  0.00     0.010 A 
ATOM     80  C   UNL A   1      41.379  34.849  36.350  1.00  0.00     0.010 A 
ATOM     81  C   UNL A   1      39.840  34.240  38.608  1.00  0.00     0.020 A 
ATOM     82  C   UNL A   1      41.336  35.745  37.421  1.00  0.00     0.020 A 
ATOM     83  C   UNL A   1      40.555  35.441  38.538  1.00  0.00     0.054 A 
BRANCH  83  84
ATOM     84  S   UNL A   1      40.482  36.584  39.944  1.00  0.00     0.124 S 
ATOM     85  O   UNL A   1      40.222  37.861  39.285  1.00  0.00    -0.237 OA
ATOM     86  O   UNL A   1      39.378  36.049  40.737  1.00  0.00    -0.237 OA
ATOM     87  O   UNL A   1      41.801  36.458  40.561  1.00  0.00    -0.744 OA
ENDBRANCH  83  84
ENDBRANCH  57  78
ENDBRANCH  31  32
ENDBRANCH  24  26
ENDBRANCH  23  24
ENDBRANCH  22  23
ENDBRANCH   1  22
TORSDOF 17
ENDMDL
MODEL 3
REMARK VINA RESULT:     -10.3      5.679      9.886
REMARK SMILES COc1ccc([C@H](C)[N@H+]2CC[C@H](C(=O)OCCOC(=O)c3ccc(-c4c5nc(c(-c6ccc(S(=O)(=O)[O-])cc6)c6ccc([nH]6)c(-c6ccc(S(=O)(=O)[O-])cc6)c6nc(c(-c7ccc(S(=O)(=O)[O-])cc7)c7ccc4[nH]7)C=C6)C=C5)cc3)[C@@H]2C)cc1
REMARK SMILES IDX 16 1 15 2 13 3 14 4 12 5 9 6 10 7 81 8 11 10 82 11 7 12 8 13
REMARK SMILES IDX 6 14 3 15 4 16 84 17 5 18 83 19 2 20 1 21 17 22 18 23 19 24
REMARK SMILES IDX 20 25 21 26 22 27 80 28 23 29 79 30 24 31 25 32 26 33 73 34
REMARK SMILES IDX 27 35 78 36 72 37 74 38 28 39 77 40 71 41 70 42 29 44 59 45
REMARK SMILES IDX 40 46 58 47 41 48 44 49 57 50 75 51 42 52 43 53 56 55 76 56
REMARK SMILES IDX 45 57 30 58 31 59 39 60 32 61 38 62 33 63 34 64 35 65 36 66
REMARK SMILES IDX 37 67 60 68 61 69 69 70 62 71 68 72 63 73 64 74 65 75 66 76
REMARK SMILES IDX 67 77 46 78 47 79 55 80 48 81 54 82 49 83 50 84 51 85 52 86
REMARK SMILES IDX 53 87
REMARK H PARENT 9 9 74 43 44 54
REMARK Flexibility Score: inf
ROOT
ATOM      1  C   UNL A   1      32.977  28.898  27.171  1.00  0.00     0.274 C 
ENDROOT
BRANCH   1   2
ATOM      2  O   UNL A   1      33.181  27.741  26.336  1.00  0.00    -0.462 OA
BRANCH   2   3
ATOM      3  C   UNL A   1      32.301  26.704  26.471  1.00  0.00     0.315 C 
ATOM      4  O   UNL A   1      31.138  26.820  26.828  1.00  0.00    -0.252 OA
BRANCH   3   5
ATOM      5  C   UNL A   1      33.026  25.395  26.212  1.00  0.00     0.162 C 
ATOM      6  N   UNL A   1      32.539  24.244  24.161  1.00  0.00    -0.326 N 
ATOM      7  C   UNL A   1      31.546  23.829  25.142  1.00  0.00     0.264 C 
ATOM      8  C   UNL A   1      33.525  25.123  24.792  1.00  0.00     0.196 C 
ATOM      9  H   UNL A   1      32.028  24.795  23.473  1.00  0.00     0.348 HD
ATOM     10  C   UNL A   1      32.109  24.214  26.498  1.00  0.00     0.083 C 
ATOM     11  C   UNL A   1      33.763  26.323  23.906  1.00  0.00     0.076 C 
BRANCH   6  12
ATOM     12  C   UNL A   1      33.040  23.252  23.196  1.00  0.00     0.212 C 
ATOM     13  C   UNL A   1      33.050  23.766  21.744  1.00  0.00     0.081 C 
BRANCH  12  14
ATOM     14  C   UNL A   1      34.379  22.664  23.647  1.00  0.00     0.009 A 
ATOM     15  C   UNL A   1      36.803  21.656  24.663  1.00  0.00     0.118 A 
ATOM     16  C   UNL A   1      35.594  21.099  25.069  1.00  0.00     0.047 A 
ATOM     17  C   UNL A   1      36.815  22.667  23.706  1.00  0.00     0.047 A 
ATOM     18  C   UNL A   1      34.389  21.604  24.573  1.00  0.00     0.013 A 
ATOM     19  C   UNL A   1      35.614  23.171  23.209  1.00  0.00     0.013 A 
BRANCH  15  20
ATOM     20  O   UNL A   1      37.944  21.141  25.216  1.00  0.00    -0.497 OA
ATOM     21  C   UNL A   1      38.067  19.734  25.010  1.00  0.00     0.278 C 
ENDBRANCH  15  20
ENDBRANCH  12  14
ENDBRANCH   6  12
ENDBRANCH   3   5
ENDBRANCH   2   3
ENDBRANCH   1   2
BRANCH   1  22
ATOM     22  C   UNL A   1      34.240  29.752  27.217  1.00  0.00     0.275 C 
BRANCH  22  23
ATOM     23  O   UNL A   1      34.891  29.575  28.487  1.00  0.00    -0.458 OA
BRANCH  23  24
ATOM     24  C   UNL A   1      35.968  30.360  28.716  1.00  0.00     0.338 C 
ATOM     25  O   UNL A   1      35.965  31.511  29.122  1.00  0.00    -0.246 OA
BRANCH  24  26
ATOM     26  C   UNL A   1      37.214  29.609  28.458  1.00  0.00     0.060 A 
ATOM     27  C   UNL A   1      37.820  28.910  29.493  1.00  0.00     0.016 A 
ATOM     28  C   UNL A   1      37.889  29.765  27.248  1.00  0.00     0.016 A 
ATOM     29  C   UNL A   1      39.165  28.551  29.384  1.00  0.00     0.010 A 
ATOM     30  C   UNL A   1      39.182  29.240  27.093  1.00  0.00     0.010 A 
ATOM     31  C   UNL A   1      39.877  28.681  28.181  1.00  0.00    -0.014 A 
BRANCH  31  32
ATOM     32  C   UNL A   1      41.329  28.291  28.076  1.00  0.00     0.031 A 
ATOM     33  C   UNL A   1      42.428  29.314  28.299  1.00  0.00     0.074 A 
ATOM     34  C   UNL A   1      41.703  27.019  27.803  1.00  0.00     0.049 A 
ATOM     35  N   UNL A   1      43.696  29.256  27.968  1.00  0.00    -0.248 NA
ATOM     36  C   UNL A   1      42.052  30.575  28.961  1.00  0.00     0.031 C 
ATOM     37  C   UNL A   1      40.805  25.876  27.625  1.00  0.00     0.029 A 
ATOM     38  N   UNL A   1      42.956  26.465  27.647  1.00  0.00    -0.354 N 
ATOM     39  C   UNL A   1      44.239  30.498  28.289  1.00  0.00     0.074 A 
ATOM     40  C   UNL A   1      43.167  31.286  28.858  1.00  0.00     0.031 C 
ATOM     41  C   UNL A   1      41.526  24.757  27.483  1.00  0.00     0.029 A 
ATOM     42  C   UNL A   1      42.933  25.113  27.385  1.00  0.00     0.049 A 
ATOM     43  H   UNL A   1      43.788  26.987  27.715  1.00  0.00     0.167 HD
ATOM     44  C   UNL A   1      45.509  30.946  28.112  1.00  0.00     0.031 A 
ATOM     45  C   UNL A   1      43.906  24.253  27.021  1.00  0.00     0.031 A 
ATOM     46  C   UNL A   1      46.595  30.132  27.625  1.00  0.00     0.049 A 
ATOM     47  C   UNL A   1      45.294  24.771  26.790  1.00  0.00     0.074 A 
ATOM     48  C   UNL A   1      47.914  30.497  27.404  1.00  0.00     0.029 A 
ATOM     49  N   UNL A   1      46.500  28.783  27.319  1.00  0.00    -0.354 N 
ATOM     50  N   UNL A   1      45.756  25.987  26.956  1.00  0.00    -0.248 NA
ATOM     51  C   UNL A   1      46.283  23.810  26.281  1.00  0.00     0.031 C 
ATOM     52  C   UNL A   1      48.605  29.377  26.928  1.00  0.00     0.029 A 
ATOM     53  C   UNL A   1      47.732  28.303  26.904  1.00  0.00     0.049 A 
ATOM     54  H   UNL A   1      45.678  28.245  27.386  1.00  0.00     0.167 HD
ATOM     55  C   UNL A   1      47.091  25.936  26.573  1.00  0.00     0.074 A 
ATOM     56  C   UNL A   1      47.369  24.566  26.193  1.00  0.00     0.031 C 
ATOM     57  C   UNL A   1      47.999  26.939  26.527  1.00  0.00     0.031 A 
BRANCH  44  58
ATOM     58  C   UNL A   1      45.795  32.402  28.392  1.00  0.00    -0.014 A 
ATOM     59  C   UNL A   1      45.606  33.401  27.423  1.00  0.00     0.010 A 
ATOM     60  C   UNL A   1      46.209  32.779  29.685  1.00  0.00     0.010 A 
ATOM     61  C   UNL A   1      45.861  34.744  27.730  1.00  0.00     0.020 A 
ATOM     62  C   UNL A   1      46.438  34.120  30.004  1.00  0.00     0.020 A 
ATOM     63  C   UNL A   1      46.281  35.094  29.018  1.00  0.00     0.054 A 
BRANCH  63  64
ATOM     64  S   UNL A   1      46.589  36.843  29.395  1.00  0.00     0.124 S 
ATOM     65  O   UNL A   1      46.811  37.403  28.064  1.00  0.00    -0.237 OA
ATOM     66  O   UNL A   1      45.351  37.254  30.050  1.00  0.00    -0.237 OA
ATOM     67  O   UNL A   1      47.766  36.810  30.260  1.00  0.00    -0.744 OA
ENDBRANCH  63  64
ENDBRANCH  44  58
BRANCH  45  68
ATOM     68  C   UNL A   1      43.566  22.827  26.742  1.00  0.00    -0.014 A 
ATOM     69  C   UNL A   1      43.925  22.225  25.525  1.00  0.00     0.010 A 
ATOM     70  C   UNL A   1      42.901  22.056  27.715  1.00  0.00     0.010 A 
ATOM     71  C   UNL A   1      43.629  20.878  25.288  1.00  0.00     0.020 A 
ATOM     72  C   UNL A   1      42.640  20.703  27.499  1.00  0.00     0.020 A 
ATOM     73  C   UNL A   1      42.994  20.124  26.280  1.00  0.00     0.054 A 
BRANCH  73  74
ATOM     74  S   UNL A   1      42.685  18.359  25.988  1.00  0.00     0.124 S 
ATOM     75  O   UNL A   1      41.254  18.347  25.702  1.00  0.00    -0.237 OA
ATOM     76  O   UNL A   1      43.560  18.065  24.857  1.00  0.00    -0.237 OA
ATOM     77  O   UNL A   1      43.079  17.732  27.249  1.00  0.00    -0.744 OA
ENDBRANCH  73  74
ENDBRANCH  45  68
BRANCH  57  78
ATOM     78  C   UNL A   1      49.392  26.583  26.086  1.00  0.00    -0.014 A 
ATOM     79  C   UNL A   1      49.839  26.871  24.784  1.00  0.00     0.010 A 
ATOM     80  C   UNL A   1      50.275  25.979  26.998  1.00  0.00     0.010 A 
ATOM     81  C   UNL A   1      51.135  26.527  24.392  1.00  0.00     0.020 A 
ATOM     82  C   UNL A   1      51.579  25.656  26.617  1.00  0.00     0.020 A 
ATOM     83  C   UNL A   1      51.997  25.920  25.310  1.00  0.00     0.054 A 
BRANCH  83  84
ATOM     84  S   UNL A   1      53.685  25.513  24.788  1.00  0.00     0.124 S 
ATOM     85  O   UNL A   1      53.751  26.126  23.464  1.00  0.00    -0.237 OA
ATOM     86  O   UNL A   1      54.503  26.151  25.817  1.00  0.00    -0.237 OA
ATOM     87  O   UNL A   1      53.709  24.051  24.800  1.00  0.00    -0.744 OA
ENDBRANCH  83  84
ENDBRANCH  57  78
ENDBRANCH  31  32
ENDBRANCH  24  26
ENDBRANCH  23  24
ENDBRANCH  22  23
ENDBRANCH   1  22
TORSDOF 17
ENDMDL
