MODEL 1
REMARK VINA RESULT:     -10.8      0.000      0.000
REMARK SMILES O=C(OCCOC(=O)c1ccc(-c2c3nc(c(-c4ccc(S(=O)(=O)[O-])cc4)c4ccc([nH]4)c(-c4ccc(S(=O)(=O)[O-])cc4)c4nc(c(-c5ccc(S(=O)(=O)[O-])cc5)c5ccc2[nH]5)C=C4)C=C3)cc1)C1=Cc2c(cc(Cl)c(Cl)c2Cl)O[C@H]1C(F)(F)F
REMARK SMILES IDX 5 1 4 2 3 3 2 4 1 5 69 6 70 7 81 8 71 9 80 10 72 11 78 12
REMARK SMILES IDX 73 13 76 14 79 15 74 16 77 17 75 18 82 19 83 20 84 21 85 22
REMARK SMILES IDX 6 23 7 24 8 25 9 26 10 27 68 28 11 29 67 30 12 31 13 32
REMARK SMILES IDX 14 33 61 34 15 35 66 36 60 37 62 38 16 39 65 40 59 41 58 42
REMARK SMILES IDX 17 44 47 45 28 46 46 47 29 48 32 49 45 50 63 51 30 52 31 53
REMARK SMILES IDX 44 55 64 56 33 57 18 58 19 59 27 60 20 61 26 62 21 63 22 64
REMARK SMILES IDX 23 65 24 66 25 67 48 68 49 69 57 70 50 71 56 72 51 73 52 74
REMARK SMILES IDX 53 75 54 76 55 77 34 78 35 79 43 80 36 81 42 82 37 83 38 84
REMARK SMILES IDX 39 85 40 86 41 87
REMARK H PARENT 62 43 32 54
REMARK Flexibility Score: inf
ROOT
ATOM      1  C   UNL A   1      33.343  28.834  25.336  1.00  0.00     0.275 C 
ENDROOT
BRANCH   1   2
ATOM      2  C   UNL A   1      33.958  28.495  23.970  1.00  0.00     0.275 C 
BRANCH   2   3
ATOM      3  O   UNL A   1      33.337  27.384  23.291  1.00  0.00    -0.459 OA
BRANCH   3   4
ATOM      4  C   UNL A   1      33.611  26.066  23.380  1.00  0.00     0.338 C 
ATOM      5  O   UNL A   1      33.946  25.459  22.365  1.00  0.00    -0.246 OA
BRANCH   4   6
ATOM      6  C   UNL A   1      33.539  25.307  24.655  1.00  0.00     0.087 C 
ATOM      7  C   UNL A   1      34.596  24.867  25.361  1.00  0.00     0.029 C 
ATOM      8  C   UNL A   1      32.177  24.662  24.882  1.00  0.00     0.316 C 
ATOM      9  C   UNL A   1      34.683  23.386  25.320  1.00  0.00     0.038 A 
ATOM     10  O   UNL A   1      32.263  23.288  25.373  1.00  0.00    -0.475 OA
ATOM     11  C   UNL A   1      33.481  22.675  25.244  1.00  0.00     0.131 A 
ATOM     12  C   UNL A   1      35.908  22.689  25.281  1.00  0.00     0.072 A 
ATOM     13  C   UNL A   1      33.488  21.296  25.070  1.00  0.00     0.069 A 
ATOM     14  C   UNL A   1      35.920  21.307  25.035  1.00  0.00     0.079 A 
ATOM     15  Cl  UNL A   1      37.396  23.540  25.563  1.00  0.00    -0.082 Cl
ATOM     16  C   UNL A   1      34.702  20.620  24.923  1.00  0.00     0.064 A 
ATOM     17  Cl  UNL A   1      37.428  20.464  24.832  1.00  0.00    -0.081 Cl
ATOM     18  Cl  UNL A   1      34.629  18.923  24.603  1.00  0.00    -0.083 Cl
BRANCH   8  19
ATOM     19  C   UNL A   1      31.328  25.521  25.835  1.00  0.00     0.430 C 
ATOM     20  F   UNL A   1      30.267  24.845  26.325  1.00  0.00    -0.167 F 
ATOM     21  F   UNL A   1      32.056  25.955  26.889  1.00  0.00    -0.167 F 
ATOM     22  F   UNL A   1      30.844  26.616  25.198  1.00  0.00    -0.167 F 
ENDBRANCH   8  19
ENDBRANCH   4   6
ENDBRANCH   3   4
ENDBRANCH   2   3
ENDBRANCH   1   2
BRANCH   1  23
ATOM     23  O   UNL A   1      34.241  28.563  26.413  1.00  0.00    -0.458 OA
BRANCH  23  24
ATOM     24  C   UNL A   1      34.344  29.601  27.276  1.00  0.00     0.338 C 
ATOM     25  O   UNL A   1      33.431  30.318  27.656  1.00  0.00    -0.246 OA
BRANCH  24  26
ATOM     26  C   UNL A   1      35.701  29.623  27.845  1.00  0.00     0.060 A 
ATOM     27  C   UNL A   1      36.743  29.942  26.971  1.00  0.00     0.016 A 
ATOM     28  C   UNL A   1      35.961  29.324  29.188  1.00  0.00     0.016 A 
ATOM     29  C   UNL A   1      38.055  29.854  27.409  1.00  0.00     0.010 A 
ATOM     30  C   UNL A   1      37.282  29.264  29.635  1.00  0.00     0.010 A 
ATOM     31  C   UNL A   1      38.332  29.462  28.726  1.00  0.00    -0.014 A 
BRANCH  31  32
ATOM     32  C   UNL A   1      39.724  29.081  29.050  1.00  0.00     0.031 A 
ATOM     33  C   UNL A   1      40.544  30.010  29.906  1.00  0.00     0.074 A 
ATOM     34  C   UNL A   1      40.184  27.861  28.714  1.00  0.00     0.049 A 
ATOM     35  N   UNL A   1      41.692  29.794  30.493  1.00  0.00    -0.248 NA
ATOM     36  C   UNL A   1      39.995  31.357  30.142  1.00  0.00     0.031 C 
ATOM     37  C   UNL A   1      39.463  26.881  27.901  1.00  0.00     0.029 A 
ATOM     38  N   UNL A   1      41.352  27.228  29.050  1.00  0.00    -0.354 N 
ATOM     39  C   UNL A   1      41.983  30.962  31.190  1.00  0.00     0.074 A 
ATOM     40  C   UNL A   1      40.933  31.908  30.897  1.00  0.00     0.031 C 
ATOM     41  C   UNL A   1      40.196  25.758  27.820  1.00  0.00     0.029 A 
ATOM     42  C   UNL A   1      41.438  25.945  28.566  1.00  0.00     0.049 A 
ATOM     43  H   UNL A   1      42.060  27.651  29.586  1.00  0.00     0.167 HD
ATOM     44  C   UNL A   1      43.015  31.211  32.029  1.00  0.00     0.031 A 
ATOM     45  C   UNL A   1      42.407  25.023  28.722  1.00  0.00     0.031 A 
ATOM     46  C   UNL A   1      44.067  30.270  32.299  1.00  0.00     0.049 A 
ATOM     47  C   UNL A   1      43.581  25.350  29.608  1.00  0.00     0.074 A 
ATOM     48  C   UNL A   1      45.167  30.419  33.124  1.00  0.00     0.029 A 
ATOM     49  N   UNL A   1      44.150  29.002  31.741  1.00  0.00    -0.354 N 
ATOM     50  N   UNL A   1      43.813  26.440  30.304  1.00  0.00    -0.248 NA
ATOM     51  C   UNL A   1      44.611  24.313  29.753  1.00  0.00     0.031 C 
ATOM     52  C   UNL A   1      45.946  29.261  33.021  1.00  0.00     0.029 A 
ATOM     53  C   UNL A   1      45.296  28.366  32.184  1.00  0.00     0.049 A 
ATOM     54  H   UNL A   1      43.491  28.612  31.122  1.00  0.00     0.167 HD
ATOM     55  C   UNL A   1      45.003  26.208  30.987  1.00  0.00     0.074 A 
ATOM     56  C   UNL A   1      45.421  24.864  30.646  1.00  0.00     0.031 C 
ATOM     57  C   UNL A   1      45.692  27.029  31.820  1.00  0.00     0.031 A 
BRANCH  44  58
ATOM     58  C   UNL A   1      43.052  32.556  32.706  1.00  0.00    -0.014 A 
ATOM     59  C   UNL A   1      43.788  33.622  32.154  1.00  0.00     0.010 A 
ATOM     60  C   UNL A   1      42.319  32.770  33.887  1.00  0.00     0.010 A 
ATOM     61  C   UNL A   1      43.811  34.869  32.786  1.00  0.00     0.020 A 
ATOM     62  C   UNL A   1      42.319  34.024  34.506  1.00  0.00     0.020 A 
ATOM     63  C   UNL A   1      43.075  35.062  33.958  1.00  0.00     0.054 A 
BRANCH  63  64
ATOM     64  S   UNL A   1      43.094  36.702  34.733  1.00  0.00     0.124 S 
ATOM     65  O   UNL A   1      41.715  36.832  35.200  1.00  0.00    -0.237 OA
ATOM     66  O   UNL A   1      44.099  36.546  35.782  1.00  0.00    -0.237 OA
ATOM     67  O   UNL A   1      43.469  37.598  33.642  1.00  0.00    -0.744 OA
ENDBRANCH  63  64
ENDBRANCH  44  58
BRANCH  45  68
ATOM     68  C   UNL A   1      42.319  23.712  28.019  1.00  0.00    -0.014 A 
ATOM     69  C   UNL A   1      41.680  22.604  28.606  1.00  0.00     0.010 A 
ATOM     70  C   UNL A   1      42.914  23.559  26.752  1.00  0.00     0.010 A 
ATOM     71  C   UNL A   1      41.680  21.362  27.962  1.00  0.00     0.020 A 
ATOM     72  C   UNL A   1      42.887  22.330  26.090  1.00  0.00     0.020 A 
ATOM     73  C   UNL A   1      42.288  21.232  26.709  1.00  0.00     0.054 A 
BRANCH  73  74
ATOM     74  S   UNL A   1      42.274  19.615  25.889  1.00  0.00     0.124 S 
ATOM     75  O   UNL A   1      40.892  19.518  25.431  1.00  0.00    -0.237 OA
ATOM     76  O   UNL A   1      43.279  19.783  24.842  1.00  0.00    -0.237 OA
ATOM     77  O   UNL A   1      42.646  18.686  26.954  1.00  0.00    -0.744 OA
ENDBRANCH  73  74
ENDBRANCH  45  68
BRANCH  57  78
ATOM     78  C   UNL A   1      46.957  26.482  32.429  1.00  0.00    -0.014 A 
ATOM     79  C   UNL A   1      48.204  26.657  31.802  1.00  0.00     0.010 A 
ATOM     80  C   UNL A   1      46.898  25.803  33.660  1.00  0.00     0.010 A 
ATOM     81  C   UNL A   1      49.360  26.113  32.366  1.00  0.00     0.020 A 
ATOM     82  C   UNL A   1      48.057  25.290  34.247  1.00  0.00     0.020 A 
ATOM     83  C   UNL A   1      49.278  25.428  33.584  1.00  0.00     0.054 A 
BRANCH  83  84
ATOM     84  S   UNL A   1      50.794  24.740  34.299  1.00  0.00     0.124 S 
ATOM     85  O   UNL A   1      51.773  25.008  33.250  1.00  0.00    -0.237 OA
ATOM     86  O   UNL A   1      50.954  25.522  35.524  1.00  0.00    -0.237 OA
ATOM     87  O   UNL A   1      50.472  23.330  34.506  1.00  0.00    -0.744 OA
ENDBRANCH  83  84
ENDBRANCH  57  78
ENDBRANCH  31  32
ENDBRANCH  24  26
ENDBRANCH  23  24
ENDBRANCH   1  23
TORSDOF 15
ENDMDL
MODEL 2
REMARK VINA RESULT:     -10.8      4.936     11.000
REMARK SMILES O=C(OCCOC(=O)c1ccc(-c2c3nc(c(-c4ccc(S(=O)(=O)[O-])cc4)c4ccc([nH]4)c(-c4ccc(S(=O)(=O)[O-])cc4)c4nc(c(-c5ccc(S(=O)(=O)[O-])cc5)c5ccc2[nH]5)C=C4)C=C3)cc1)C1=Cc2c(cc(Cl)c(Cl)c2Cl)O[C@H]1C(F)(F)F
REMARK SMILES IDX 5 1 4 2 3 3 2 4 1 5 69 6 70 7 81 8 71 9 80 10 72 11 78 12
REMARK SMILES IDX 73 13 76 14 79 15 74 16 77 17 75 18 82 19 83 20 84 21 85 22
REMARK SMILES IDX 6 23 7 24 8 25 9 26 10 27 68 28 11 29 67 30 12 31 13 32
REMARK SMILES IDX 14 33 61 34 15 35 66 36 60 37 62 38 16 39 65 40 59 41 58 42
REMARK SMILES IDX 17 44 47 45 28 46 46 47 29 48 32 49 45 50 63 51 30 52 31 53
REMARK SMILES IDX 44 55 64 56 33 57 18 58 19 59 27 60 20 61 26 62 21 63 22 64
REMARK SMILES IDX 23 65 24 66 25 67 48 68 49 69 57 70 50 71 56 72 51 73 52 74
REMARK SMILES IDX 53 75 54 76 55 77 34 78 35 79 43 80 36 81 42 82 37 83 38 84
REMARK SMILES IDX 39 85 40 86 41 87
REMARK H PARENT 62 43 32 54
REMARK Flexibility Score: inf
ROOT
ATOM      1  C   UNL A   1      40.987  20.871  26.518  1.00  0.00     0.275 C 
ENDROOT
BRANCH   1   2
ATOM      2  C   UNL A   1      42.331  20.834  25.775  1.00  0.00     0.275 C 
BRANCH   2   3
ATOM      3  O   UNL A   1      43.321  21.755  26.278  1.00  0.00    -0.459 OA
BRANCH   3   4
ATOM      4  C   UNL A   1      43.528  23.049  25.956  1.00  0.00     0.338 C 
ATOM      5  O   UNL A   1      43.221  23.436  24.830  1.00  0.00    -0.246 OA
BRANCH   4   6
ATOM      6  C   UNL A   1      44.101  24.039  26.903  1.00  0.00     0.087 C 
ATOM      7  C   UNL A   1      44.429  25.308  26.601  1.00  0.00     0.029 C 
ATOM      8  C   UNL A   1      44.719  23.387  28.134  1.00  0.00     0.316 C 
ATOM      9  C   UNL A   1      45.900  25.499  26.636  1.00  0.00     0.038 A 
ATOM     10  O   UNL A   1      46.010  23.964  28.506  1.00  0.00    -0.475 OA
ATOM     11  C   UNL A   1      46.625  24.734  27.554  1.00  0.00     0.131 A 
ATOM     12  C   UNL A   1      46.585  26.350  25.745  1.00  0.00     0.072 A 
ATOM     13  C   UNL A   1      48.014  24.762  27.554  1.00  0.00     0.069 A 
ATOM     14  C   UNL A   1      47.988  26.329  25.694  1.00  0.00     0.079 A 
ATOM     15  Cl  UNL A   1      45.690  27.442  24.731  1.00  0.00    -0.082 Cl
ATOM     16  C   UNL A   1      48.694  25.524  26.600  1.00  0.00     0.064 A 
ATOM     17  Cl  UNL A   1      48.838  27.259  24.496  1.00  0.00    -0.081 Cl
ATOM     18  Cl  UNL A   1      50.420  25.425  26.592  1.00  0.00    -0.083 Cl
BRANCH   8  19
ATOM     19  C   UNL A   1      43.743  23.447  29.321  1.00  0.00     0.430 C 
ATOM     20  F   UNL A   1      44.189  24.250  30.310  1.00  0.00    -0.167 F 
ATOM     21  F   UNL A   1      42.529  23.907  28.940  1.00  0.00    -0.167 F 
ATOM     22  F   UNL A   1      43.559  22.215  29.860  1.00  0.00    -0.167 F 
ENDBRANCH   8  19
ENDBRANCH   4   6
ENDBRANCH   3   4
ENDBRANCH   2   3
ENDBRANCH   1   2
BRANCH   1  23
ATOM     23  O   UNL A   1      40.762  22.126  27.160  1.00  0.00    -0.458 OA
BRANCH  23  24
ATOM     24  C   UNL A   1      39.780  22.845  26.566  1.00  0.00     0.338 C 
ATOM     25  O   UNL A   1      38.938  22.416  25.792  1.00  0.00    -0.246 OA
BRANCH  24  26
ATOM     26  C   UNL A   1      39.759  24.200  27.140  1.00  0.00     0.060 A 
ATOM     27  C   UNL A   1      40.412  25.199  26.416  1.00  0.00     0.016 A 
ATOM     28  C   UNL A   1      39.136  24.491  28.360  1.00  0.00     0.016 A 
ATOM     29  C   UNL A   1      40.541  26.467  26.961  1.00  0.00     0.010 A 
ATOM     30  C   UNL A   1      39.243  25.776  28.895  1.00  0.00     0.010 A 
ATOM     31  C   UNL A   1      40.004  26.746  28.226  1.00  0.00    -0.014 A 
BRANCH  31  32
ATOM     32  C   UNL A   1      40.434  27.995  28.893  1.00  0.00     0.031 A 
ATOM     33  C   UNL A   1      41.883  28.142  29.280  1.00  0.00     0.074 A 
ATOM     34  C   UNL A   1      39.579  29.027  29.005  1.00  0.00     0.049 A 
ATOM     35  N   UNL A   1      42.529  29.210  29.668  1.00  0.00    -0.248 NA
ATOM     36  C   UNL A   1      42.718  26.930  29.208  1.00  0.00     0.031 C 
ATOM     37  C   UNL A   1      38.160  28.991  28.647  1.00  0.00     0.029 A 
ATOM     38  N   UNL A   1      39.790  30.317  29.418  1.00  0.00    -0.354 N 
ATOM     39  C   UNL A   1      43.846  28.805  29.856  1.00  0.00     0.074 A 
ATOM     40  C   UNL A   1      43.896  27.383  29.609  1.00  0.00     0.031 C 
ATOM     41  C   UNL A   1      37.633  30.213  28.833  1.00  0.00     0.029 A 
ATOM     42  C   UNL A   1      38.672  31.111  29.331  1.00  0.00     0.049 A 
ATOM     43  H   UNL A   1      40.660  30.643  29.744  1.00  0.00     0.167 HD
ATOM     44  C   UNL A   1      44.925  29.558  30.169  1.00  0.00     0.031 A 
ATOM     45  C   UNL A   1      38.514  32.418  29.611  1.00  0.00     0.031 A 
ATOM     46  C   UNL A   1      44.863  30.969  30.432  1.00  0.00     0.049 A 
ATOM     47  C   UNL A   1      39.721  33.221  30.024  1.00  0.00     0.074 A 
ATOM     48  C   UNL A   1      45.891  31.831  30.769  1.00  0.00     0.029 A 
ATOM     49  N   UNL A   1      43.700  31.726  30.393  1.00  0.00    -0.354 N 
ATOM     50  N   UNL A   1      40.970  32.833  30.143  1.00  0.00    -0.248 NA
ATOM     51  C   UNL A   1      39.501  34.643  30.315  1.00  0.00     0.031 C 
ATOM     52  C   UNL A   1      45.341  33.098  30.988  1.00  0.00     0.029 A 
ATOM     53  C   UNL A   1      43.980  33.039  30.723  1.00  0.00     0.049 A 
ATOM     54  H   UNL A   1      42.808  31.379  30.164  1.00  0.00     0.167 HD
ATOM     55  C   UNL A   1      41.688  33.971  30.498  1.00  0.00     0.074 A 
ATOM     56  C   UNL A   1      40.738  35.064  30.541  1.00  0.00     0.031 C 
ATOM     57  C   UNL A   1      43.012  34.105  30.767  1.00  0.00     0.031 A 
BRANCH  44  58
ATOM     58  C   UNL A   1      46.259  28.863  30.247  1.00  0.00    -0.014 A 
ATOM     59  C   UNL A   1      47.018  28.623  29.085  1.00  0.00     0.010 A 
ATOM     60  C   UNL A   1      46.778  28.473  31.494  1.00  0.00     0.010 A 
ATOM     61  C   UNL A   1      48.258  27.983  29.167  1.00  0.00     0.020 A 
ATOM     62  C   UNL A   1      48.031  27.857  31.582  1.00  0.00     0.020 A 
ATOM     63  C   UNL A   1      48.757  27.606  30.417  1.00  0.00     0.054 A 
BRANCH  63  64
ATOM     64  S   UNL A   1      50.386  26.812  30.495  1.00  0.00     0.124 S 
ATOM     65  O   UNL A   1      50.835  27.174  31.838  1.00  0.00    -0.237 OA
ATOM     66  O   UNL A   1      50.063  25.401  30.301  1.00  0.00    -0.237 OA
ATOM     67  O   UNL A   1      51.130  27.435  29.403  1.00  0.00    -0.744 OA
ENDBRANCH  63  64
ENDBRANCH  44  58
BRANCH  45  68
ATOM     68  C   UNL A   1      37.167  33.048  29.523  1.00  0.00    -0.014 A 
ATOM     69  C   UNL A   1      36.622  33.450  28.290  1.00  0.00     0.010 A 
ATOM     70  C   UNL A   1      36.429  33.281  30.699  1.00  0.00     0.010 A 
ATOM     71  C   UNL A   1      35.390  34.112  28.241  1.00  0.00     0.020 A 
ATOM     72  C   UNL A   1      35.183  33.912  30.652  1.00  0.00     0.020 A 
ATOM     73  C   UNL A   1      34.681  34.343  29.424  1.00  0.00     0.054 A 
BRANCH  73  74
ATOM     74  S   UNL A   1      33.085  35.201  29.339  1.00  0.00     0.124 S 
ATOM     75  O   UNL A   1      32.612  35.099  30.715  1.00  0.00    -0.237 OA
ATOM     76  O   UNL A   1      33.469  36.540  28.898  1.00  0.00    -0.237 OA
ATOM     77  O   UNL A   1      32.330  34.424  28.358  1.00  0.00    -0.744 OA
ENDBRANCH  73  74
ENDBRANCH  45  68
BRANCH  57  78
ATOM     78  C   UNL A   1      43.504  35.487  31.113  1.00  0.00    -0.014 A 
ATOM     79  C   UNL A   1      43.886  36.397  30.111  1.00  0.00     0.010 A 
ATOM     80  C   UNL A   1      43.561  35.887  32.461  1.00  0.00     0.010 A 
ATOM     81  C   UNL A   1      44.371  37.661  30.453  1.00  0.00     0.020 A 
ATOM     82  C   UNL A   1      44.009  37.165  32.805  1.00  0.00     0.020 A 
ATOM     83  C   UNL A   1      44.434  38.035  31.800  1.00  0.00     0.054 A 
BRANCH  83  84
ATOM     84  S   UNL A   1      45.058  39.685  32.217  1.00  0.00     0.124 S 
ATOM     85  O   UNL A   1      46.494  39.447  32.326  1.00  0.00    -0.237 OA
ATOM     86  O   UNL A   1      44.638  40.486  31.069  1.00  0.00    -0.237 OA
ATOM     87  O   UNL A   1      44.382  40.004  33.472  1.00  0.00    -0.744 OA
ENDBRANCH  83  84
ENDBRANCH  57  78
ENDBRANCH  31  32
ENDBRANCH  24  26
ENDBRANCH  23  24
ENDBRANCH   1  23
TORSDOF 15
ENDMDL
MODEL 3
REMARK VINA RESULT:     -10.6      5.181      6.896
REMARK SMILES O=C(OCCOC(=O)c1ccc(-c2c3nc(c(-c4ccc(S(=O)(=O)[O-])cc4)c4ccc([nH]4)c(-c4ccc(S(=O)(=O)[O-])cc4)c4nc(c(-c5ccc(S(=O)(=O)[O-])cc5)c5ccc2[nH]5)C=C4)C=C3)cc1)C1=Cc2c(cc(Cl)c(Cl)c2Cl)O[C@H]1C(F)(F)F
REMARK SMILES IDX 5 1 4 2 3 3 2 4 1 5 69 6 70 7 81 8 71 9 80 10 72 11 78 12
REMARK SMILES IDX 73 13 76 14 79 15 74 16 77 17 75 18 82 19 83 20 84 21 85 22
REMARK SMILES IDX 6 23 7 24 8 25 9 26 10 27 68 28 11 29 67 30 12 31 13 32
REMARK SMILES IDX 14 33 61 34 15 35 66 36 60 37 62 38 16 39 65 40 59 41 58 42
REMARK SMILES IDX 17 44 47 45 28 46 46 47 29 48 32 49 45 50 63 51 30 52 31 53
REMARK SMILES IDX 44 55 64 56 33 57 18 58 19 59 27 60 20 61 26 62 21 63 22 64
REMARK SMILES IDX 23 65 24 66 25 67 48 68 49 69 57 70 50 71 56 72 51 73 52 74
REMARK SMILES IDX 53 75 54 76 55 77 34 78 35 79 43 80 36 81 42 82 37 83 38 84
REMARK SMILES IDX 39 85 40 86 41 87
REMARK H PARENT 62 43 32 54
REMARK Flexibility Score: inf
ROOT
ATOM      1  C   UNL A   1      36.522  31.604  33.146  1.00  0.00     0.275 C 
ENDROOT
BRANCH   1   2
ATOM      2  C   UNL A   1      35.338  32.562  32.950  1.00  0.00     0.275 C 
BRANCH   2   3
ATOM      3  O   UNL A   1      34.575  32.336  31.746  1.00  0.00    -0.459 OA
BRANCH   3   4
ATOM      4  C   UNL A   1      34.326  33.177  30.721  1.00  0.00     0.338 C 
ATOM      5  O   UNL A   1      33.640  34.176  30.926  1.00  0.00    -0.246 OA
BRANCH   4   6
ATOM      6  C   UNL A   1      34.853  32.960  29.349  1.00  0.00     0.087 C 
ATOM      7  C   UNL A   1      34.117  32.953  28.223  1.00  0.00     0.029 C 
ATOM      8  C   UNL A   1      36.223  32.293  29.343  1.00  0.00     0.316 C 
ATOM      9  C   UNL A   1      34.055  31.590  27.638  1.00  0.00     0.038 A 
ATOM     10  O   UNL A   1      36.344  31.232  28.344  1.00  0.00    -0.475 OA
ATOM     11  C   UNL A   1      35.171  30.766  27.812  1.00  0.00     0.131 A 
ATOM     12  C   UNL A   1      32.909  31.084  26.992  1.00  0.00     0.072 A 
ATOM     13  C   UNL A   1      35.135  29.437  27.407  1.00  0.00     0.069 A 
ATOM     14  C   UNL A   1      32.842  29.725  26.646  1.00  0.00     0.079 A 
ATOM     15  Cl  UNL A   1      31.592  32.149  26.604  1.00  0.00    -0.082 Cl
ATOM     16  C   UNL A   1      33.961  28.907  26.865  1.00  0.00     0.064 A 
ATOM     17  Cl  UNL A   1      31.378  29.055  25.990  1.00  0.00    -0.081 Cl
ATOM     18  Cl  UNL A   1      33.957  27.220  26.485  1.00  0.00    -0.083 Cl
BRANCH   8  19
ATOM     19  C   UNL A   1      37.331  33.342  29.147  1.00  0.00     0.430 C 
ATOM     20  F   UNL A   1      38.563  32.829  29.348  1.00  0.00    -0.167 F 
ATOM     21  F   UNL A   1      37.305  33.862  27.898  1.00  0.00    -0.167 F 
ATOM     22  F   UNL A   1      37.181  34.372  30.018  1.00  0.00    -0.167 F 
ENDBRANCH   8  19
ENDBRANCH   4   6
ENDBRANCH   3   4
ENDBRANCH   2   3
ENDBRANCH   1   2
BRANCH   1  23
ATOM     23  O   UNL A   1      36.534  30.557  32.175  1.00  0.00    -0.458 OA
BRANCH  23  24
ATOM     24  C   UNL A   1      37.342  29.530  32.529  1.00  0.00     0.338 C 
ATOM     25  O   UNL A   1      37.035  28.578  33.231  1.00  0.00    -0.246 OA
BRANCH  24  26
ATOM     26  C   UNL A   1      38.606  29.630  31.782  1.00  0.00     0.060 A 
ATOM     27  C   UNL A   1      38.508  29.710  30.391  1.00  0.00     0.016 A 
ATOM     28  C   UNL A   1      39.856  29.630  32.412  1.00  0.00     0.016 A 
ATOM     29  C   UNL A   1      39.659  29.676  29.620  1.00  0.00     0.010 A 
ATOM     30  C   UNL A   1      41.016  29.625  31.635  1.00  0.00     0.010 A 
ATOM     31  C   UNL A   1      40.915  29.579  30.237  1.00  0.00    -0.014 A 
BRANCH  31  32
ATOM     32  C   UNL A   1      42.073  29.231  29.383  1.00  0.00     0.031 A 
ATOM     33  C   UNL A   1      43.173  30.246  29.216  1.00  0.00     0.074 A 
ATOM     34  C   UNL A   1      42.203  27.981  28.903  1.00  0.00     0.049 A 
ATOM     35  N   UNL A   1      44.367  30.092  28.705  1.00  0.00    -0.248 NA
ATOM     36  C   UNL A   1      42.898  31.612  29.695  1.00  0.00     0.031 C 
ATOM     37  C   UNL A   1      41.202  26.921  29.023  1.00  0.00     0.029 A 
ATOM     38  N   UNL A   1      43.249  27.385  28.249  1.00  0.00    -0.354 N 
ATOM     39  C   UNL A   1      44.992  31.328  28.832  1.00  0.00     0.074 A 
ATOM     40  C   UNL A   1      44.026  32.240  29.399  1.00  0.00     0.031 C 
ATOM     41  C   UNL A   1      41.694  25.794  28.482  1.00  0.00     0.029 A 
ATOM     42  C   UNL A   1      43.036  26.057  27.970  1.00  0.00     0.049 A 
ATOM     43  H   UNL A   1      44.074  27.862  28.003  1.00  0.00     0.167 HD
ATOM     44  C   UNL A   1      46.268  31.664  28.537  1.00  0.00     0.031 A 
ATOM     45  C   UNL A   1      43.843  25.154  27.379  1.00  0.00     0.031 A 
ATOM     46  C   UNL A   1      47.217  30.755  27.954  1.00  0.00     0.049 A 
ATOM     47  C   UNL A   1      45.239  25.574  26.997  1.00  0.00     0.074 A 
ATOM     48  C   UNL A   1      48.534  30.990  27.604  1.00  0.00     0.029 A 
ATOM     49  N   UNL A   1      46.943  29.434  27.631  1.00  0.00    -0.354 N 
ATOM     50  N   UNL A   1      45.832  26.732  27.175  1.00  0.00    -0.248 NA
ATOM     51  C   UNL A   1      46.084  24.556  26.360  1.00  0.00     0.031 C 
ATOM     52  C   UNL A   1      49.040  29.825  27.016  1.00  0.00     0.029 A 
ATOM     53  C   UNL A   1      48.059  28.846  27.062  1.00  0.00     0.049 A 
ATOM     54  H   UNL A   1      46.083  28.981  27.784  1.00  0.00     0.167 HD
ATOM     55  C   UNL A   1      47.128  26.572  26.693  1.00  0.00     0.074 A 
ATOM     56  C   UNL A   1      47.239  25.198  26.249  1.00  0.00     0.031 C 
ATOM     57  C   UNL A   1      48.137  27.477  26.620  1.00  0.00     0.031 A 
BRANCH  44  58
ATOM     58  C   UNL A   1      46.704  33.074  28.837  1.00  0.00    -0.014 A 
ATOM     59  C   UNL A   1      47.251  33.410  30.090  1.00  0.00     0.010 A 
ATOM     60  C   UNL A   1      46.597  34.069  27.850  1.00  0.00     0.010 A 
ATOM     61  C   UNL A   1      47.659  34.720  30.358  1.00  0.00     0.020 A 
ATOM     62  C   UNL A   1      47.030  35.375  28.106  1.00  0.00     0.020 A 
ATOM     63  C   UNL A   1      47.546  35.694  29.363  1.00  0.00     0.054 A 
BRANCH  63  64
ATOM     64  S   UNL A   1      48.120  37.376  29.727  1.00  0.00     0.124 S 
ATOM     65  O   UNL A   1      49.116  37.137  30.769  1.00  0.00    -0.237 OA
ATOM     66  O   UNL A   1      48.651  37.817  28.440  1.00  0.00    -0.237 OA
ATOM     67  O   UNL A   1      46.911  38.067  30.169  1.00  0.00    -0.744 OA
ENDBRANCH  63  64
ENDBRANCH  44  58
BRANCH  45  68
ATOM     68  C   UNL A   1      43.352  23.776  27.100  1.00  0.00    -0.014 A 
ATOM     69  C   UNL A   1      43.018  22.890  28.141  1.00  0.00     0.010 A 
ATOM     70  C   UNL A   1      43.249  23.328  25.770  1.00  0.00     0.010 A 
ATOM     71  C   UNL A   1      42.636  21.574  27.858  1.00  0.00     0.020 A 
ATOM     72  C   UNL A   1      42.836  22.026  25.481  1.00  0.00     0.020 A 
ATOM     73  C   UNL A   1      42.553  21.149  26.528  1.00  0.00     0.054 A 
BRANCH  73  74
ATOM     74  S   UNL A   1      42.053  19.440  26.182  1.00  0.00     0.124 S 
ATOM     75  O   UNL A   1      42.556  18.733  27.355  1.00  0.00    -0.237 OA
ATOM     76  O   UNL A   1      40.600  19.550  26.082  1.00  0.00    -0.237 OA
ATOM     77  O   UNL A   1      42.734  19.132  24.926  1.00  0.00    -0.744 OA
ENDBRANCH  73  74
ENDBRANCH  45  68
BRANCH  57  78
ATOM     78  C   UNL A   1      49.449  26.996  26.056  1.00  0.00    -0.014 A 
ATOM     79  C   UNL A   1      50.376  26.302  26.854  1.00  0.00     0.010 A 
ATOM     80  C   UNL A   1      49.745  27.221  24.698  1.00  0.00     0.010 A 
ATOM     81  C   UNL A   1      51.601  25.894  26.321  1.00  0.00     0.020 A 
ATOM     82  C   UNL A   1      50.953  26.780  24.151  1.00  0.00     0.020 A 
ATOM     83  C   UNL A   1      51.883  26.140  24.973  1.00  0.00     0.054 A 
BRANCH  83  84
ATOM     84  S   UNL A   1      53.475  25.591  24.302  1.00  0.00     0.124 S 
ATOM     85  O   UNL A   1      53.314  25.864  22.878  1.00  0.00    -0.237 OA
ATOM     86  O   UNL A   1      54.430  26.447  25.004  1.00  0.00    -0.237 OA
ATOM     87  O   UNL A   1      53.534  24.177  24.663  1.00  0.00    -0.744 OA
ENDBRANCH  83  84
ENDBRANCH  57  78
ENDBRANCH  31  32
ENDBRANCH  24  26
ENDBRANCH  23  24
ENDBRANCH   1  23
TORSDOF 15
ENDMDL
