MODEL 1
REMARK VINA RESULT:     -10.8      0.000      0.000
REMARK SMILES O=C1C[C@@H]([N@@H+]2CCO[C@@H](CC(=O)OCCOC(=O)c3ccc(-c4c5nc(c(-c6ccc(S(=O)(=O)[O-])cc6)c6ccc([nH]6)c(-c6ccc(S(=O)(=O)[O-])cc6)c6nc(c(-c7ccc(S(=O)(=O)[O-])cc7)c7ccc4[nH]7)C=C6)C=C5)cc3)C2)C(=O)N1
REMARK SMILES IDX 15 1 14 2 13 3 11 4 12 5 10 6 9 7 5 8 6 9 79 10 7 12 8 13
REMARK SMILES IDX 4 14 1 15 2 16 3 17 82 18 80 19 81 21 16 22 17 23 18 24
REMARK SMILES IDX 19 25 20 26 78 27 21 28 77 29 22 30 23 31 24 32 71 33 25 34
REMARK SMILES IDX 76 35 70 36 72 37 26 38 75 39 69 40 68 41 27 43 57 44 38 45
REMARK SMILES IDX 56 46 39 47 42 48 55 49 73 50 40 51 41 52 54 54 74 55 43 56
REMARK SMILES IDX 28 57 29 58 37 59 30 60 36 61 31 62 32 63 33 64 34 65 35 66
REMARK SMILES IDX 58 67 59 68 67 69 60 70 66 71 61 72 62 73 63 74 64 75 65 76
REMARK SMILES IDX 44 77 45 78 53 79 46 80 52 81 47 82 48 83 49 84 50 85 51 86
REMARK H PARENT 5 11 82 20 72 42 42 53
REMARK Flexibility Score: inf
ROOT
ATOM      1  C   UNL A   1      34.593  30.722  27.625  1.00  0.00     0.275 C 
ENDROOT
BRANCH   1   2
ATOM      2  C   UNL A   1      33.258  30.071  27.250  1.00  0.00     0.274 C 
BRANCH   2   3
ATOM      3  O   UNL A   1      32.826  30.444  25.926  1.00  0.00    -0.462 OA
BRANCH   3   4
ATOM      4  C   UNL A   1      32.330  29.450  25.145  1.00  0.00     0.308 C 
ATOM      5  O   UNL A   1      31.216  29.452  24.640  1.00  0.00    -0.252 OA
BRANCH   4   6
ATOM      6  C   UNL A   1      33.293  28.298  25.019  1.00  0.00     0.160 C 
BRANCH   6   7
ATOM      7  C   UNL A   1      32.651  26.910  25.005  1.00  0.00     0.184 C 
ATOM      8  N   UNL A   1      30.950  25.424  26.201  1.00  0.00    -0.320 N 
ATOM      9  C   UNL A   1      30.281  25.309  24.900  1.00  0.00     0.291 C 
ATOM     10  C   UNL A   1      31.787  26.635  26.260  1.00  0.00     0.295 C 
ATOM     11  H   UNL A   1      30.179  25.530  26.860  1.00  0.00     0.348 HD
ATOM     12  C   UNL A   1      31.166  25.606  23.682  1.00  0.00     0.222 C 
ATOM     13  O   UNL A   1      31.827  26.868  23.818  1.00  0.00    -0.366 OA
BRANCH   8  14
ATOM     14  C   UNL A   1      31.577  24.218  26.775  1.00  0.00     0.284 C 
ATOM     15  O   UNL A   1      32.547  21.513  24.664  1.00  0.00    -0.274 OA
ATOM     16  C   UNL A   1      32.067  22.264  25.496  1.00  0.00     0.233 C 
ATOM     17  C   UNL A   1      32.703  23.515  26.016  1.00  0.00     0.176 C 
ATOM     18  N   UNL A   1      30.883  22.072  26.124  1.00  0.00    -0.291 N 
ATOM     19  C   UNL A   1      30.533  23.109  26.930  1.00  0.00     0.285 C 
ATOM     20  H   UNL A   1      30.332  21.265  26.009  1.00  0.00     0.173 HD
ATOM     21  O   UNL A   1      29.524  23.137  27.617  1.00  0.00    -0.268 OA
ENDBRANCH   8  14
ENDBRANCH   6   7
ENDBRANCH   4   6
ENDBRANCH   3   4
ENDBRANCH   2   3
ENDBRANCH   1   2
BRANCH   1  22
ATOM     22  O   UNL A   1      35.536  29.760  28.129  1.00  0.00    -0.458 OA
BRANCH  22  23
ATOM     23  C   UNL A   1      36.263  30.166  29.195  1.00  0.00     0.338 C 
ATOM     24  O   UNL A   1      35.830  30.626  30.240  1.00  0.00    -0.246 OA
BRANCH  23  25
ATOM     25  C   UNL A   1      37.687  29.858  28.981  1.00  0.00     0.060 A 
ATOM     26  C   UNL A   1      38.139  29.684  27.669  1.00  0.00     0.016 A 
ATOM     27  C   UNL A   1      38.557  29.682  30.059  1.00  0.00     0.016 A 
ATOM     28  C   UNL A   1      39.464  29.329  27.428  1.00  0.00     0.010 A 
ATOM     29  C   UNL A   1      39.889  29.330  29.814  1.00  0.00     0.010 A 
ATOM     30  C   UNL A   1      40.349  29.143  28.499  1.00  0.00    -0.014 A 
BRANCH  30  31
ATOM     31  C   UNL A   1      41.750  28.732  28.237  1.00  0.00     0.031 A 
ATOM     32  C   UNL A   1      42.851  29.756  28.262  1.00  0.00     0.074 A 
ATOM     33  C   UNL A   1      42.034  27.440  27.985  1.00  0.00     0.049 A 
ATOM     34  N   UNL A   1      44.125  29.603  28.007  1.00  0.00    -0.248 NA
ATOM     35  C   UNL A   1      42.468  31.132  28.619  1.00  0.00     0.031 C 
ATOM     36  C   UNL A   1      41.058  26.349  27.968  1.00  0.00     0.029 A 
ATOM     37  N   UNL A   1      43.226  26.826  27.694  1.00  0.00    -0.354 N 
ATOM     38  C   UNL A   1      44.695  30.861  28.158  1.00  0.00     0.074 A 
ATOM     39  C   UNL A   1      43.625  31.771  28.507  1.00  0.00     0.031 C 
ATOM     40  C   UNL A   1      41.691  25.199  27.683  1.00  0.00     0.029 A 
ATOM     41  C   UNL A   1      43.107  25.478  27.457  1.00  0.00     0.049 A 
ATOM     42  H   UNL A   1      44.084  27.306  27.658  1.00  0.00     0.167 HD
ATOM     43  C   UNL A   1      45.994  31.224  28.019  1.00  0.00     0.031 A 
ATOM     44  C   UNL A   1      44.029  24.571  27.077  1.00  0.00     0.031 A 
ATOM     45  C   UNL A   1      47.055  30.316  27.669  1.00  0.00     0.049 A 
ATOM     46  C   UNL A   1      45.454  25.013  26.874  1.00  0.00     0.074 A 
ATOM     47  C   UNL A   1      48.405  30.588  27.521  1.00  0.00     0.029 A 
ATOM     48  N   UNL A   1      46.890  28.965  27.410  1.00  0.00    -0.354 N 
ATOM     49  N   UNL A   1      45.979  26.204  27.033  1.00  0.00    -0.248 NA
ATOM     50  C   UNL A   1      46.411  23.984  26.440  1.00  0.00     0.031 C 
ATOM     51  C   UNL A   1      49.048  29.411  27.124  1.00  0.00     0.029 A 
ATOM     52  C   UNL A   1      48.108  28.393  27.079  1.00  0.00     0.049 A 
ATOM     53  H   UNL A   1      46.033  28.481  27.454  1.00  0.00     0.167 HD
ATOM     54  C   UNL A   1      47.331  26.063  26.744  1.00  0.00     0.074 A 
ATOM     55  C   UNL A   1      47.547  24.669  26.414  1.00  0.00     0.031 C 
ATOM     56  C   UNL A   1      48.308  27.004  26.753  1.00  0.00     0.031 A 
BRANCH  43  57
ATOM     57  C   UNL A   1      46.337  32.676  28.215  1.00  0.00    -0.014 A 
ATOM     58  C   UNL A   1      46.718  33.172  29.474  1.00  0.00     0.010 A 
ATOM     59  C   UNL A   1      46.327  33.547  27.110  1.00  0.00     0.010 A 
ATOM     60  C   UNL A   1      47.053  34.521  29.630  1.00  0.00     0.020 A 
ATOM     61  C   UNL A   1      46.685  34.891  27.257  1.00  0.00     0.020 A 
ATOM     62  C   UNL A   1      47.031  35.372  28.520  1.00  0.00     0.054 A 
BRANCH  62  63
ATOM     63  S   UNL A   1      47.498  37.111  28.745  1.00  0.00     0.124 S 
ATOM     64  O   UNL A   1      46.215  37.727  29.074  1.00  0.00    -0.237 OA
ATOM     65  O   UNL A   1      48.463  37.047  29.839  1.00  0.00    -0.237 OA
ATOM     66  O   UNL A   1      48.055  37.491  27.449  1.00  0.00    -0.744 OA
ENDBRANCH  62  63
ENDBRANCH  43  57
BRANCH  44  67
ATOM     67  C   UNL A   1      43.629  23.158  26.838  1.00  0.00    -0.014 A 
ATOM     68  C   UNL A   1      43.855  22.548  25.592  1.00  0.00     0.010 A 
ATOM     69  C   UNL A   1      43.014  22.415  27.862  1.00  0.00     0.010 A 
ATOM     70  C   UNL A   1      43.456  21.227  25.369  1.00  0.00     0.020 A 
ATOM     71  C   UNL A   1      42.638  21.086  27.652  1.00  0.00     0.020 A 
ATOM     72  C   UNL A   1      42.849  20.503  26.402  1.00  0.00     0.054 A 
BRANCH  72  73
ATOM     73  S   UNL A   1      42.376  18.777  26.106  1.00  0.00     0.124 S 
ATOM     74  O   UNL A   1      43.271  18.400  25.017  1.00  0.00    -0.237 OA
ATOM     75  O   UNL A   1      42.648  18.148  27.397  1.00  0.00    -0.237 OA
ATOM     76  O   UNL A   1      40.961  18.867  25.753  1.00  0.00    -0.744 OA
ENDBRANCH  72  73
ENDBRANCH  44  67
BRANCH  56  77
ATOM     77  C   UNL A   1      49.707  26.554  26.429  1.00  0.00    -0.014 A 
ATOM     78  C   UNL A   1      50.560  26.048  27.427  1.00  0.00     0.010 A 
ATOM     79  C   UNL A   1      50.155  26.588  25.096  1.00  0.00     0.010 A 
ATOM     80  C   UNL A   1      51.848  25.615  27.101  1.00  0.00     0.020 A 
ATOM     81  C   UNL A   1      51.434  26.131  24.763  1.00  0.00     0.020 A 
ATOM     82  C   UNL A   1      52.277  25.660  25.771  1.00  0.00     0.054 A 
BRANCH  82  83
ATOM     83  S   UNL A   1      53.937  25.051  25.365  1.00  0.00     0.124 S 
ATOM     84  O   UNL A   1      53.671  23.660  25.009  1.00  0.00    -0.237 OA
ATOM     85  O   UNL A   1      54.336  25.918  24.258  1.00  0.00    -0.237 OA
ATOM     86  O   UNL A   1      54.690  25.244  26.602  1.00  0.00    -0.744 OA
ENDBRANCH  82  83
ENDBRANCH  56  77
ENDBRANCH  30  31
ENDBRANCH  23  25
ENDBRANCH  22  23
ENDBRANCH   1  22
TORSDOF 16
ENDMDL
MODEL 2
REMARK VINA RESULT:     -10.8      3.074      3.979
REMARK SMILES O=C1C[C@@H]([N@@H+]2CCO[C@@H](CC(=O)OCCOC(=O)c3ccc(-c4c5nc(c(-c6ccc(S(=O)(=O)[O-])cc6)c6ccc([nH]6)c(-c6ccc(S(=O)(=O)[O-])cc6)c6nc(c(-c7ccc(S(=O)(=O)[O-])cc7)c7ccc4[nH]7)C=C6)C=C5)cc3)C2)C(=O)N1
REMARK SMILES IDX 15 1 14 2 13 3 11 4 12 5 10 6 9 7 5 8 6 9 79 10 7 12 8 13
REMARK SMILES IDX 4 14 1 15 2 16 3 17 82 18 80 19 81 21 16 22 17 23 18 24
REMARK SMILES IDX 19 25 20 26 78 27 21 28 77 29 22 30 23 31 24 32 71 33 25 34
REMARK SMILES IDX 76 35 70 36 72 37 26 38 75 39 69 40 68 41 27 43 57 44 38 45
REMARK SMILES IDX 56 46 39 47 42 48 55 49 73 50 40 51 41 52 54 54 74 55 43 56
REMARK SMILES IDX 28 57 29 58 37 59 30 60 36 61 31 62 32 63 33 64 34 65 35 66
REMARK SMILES IDX 58 67 59 68 67 69 60 70 66 71 61 72 62 73 63 74 64 75 65 76
REMARK SMILES IDX 44 77 45 78 53 79 46 80 52 81 47 82 48 83 49 84 50 85 51 86
REMARK H PARENT 5 11 82 20 72 42 42 53
REMARK Flexibility Score: inf
ROOT
ATOM      1  C   UNL A   1      33.152  29.920  26.268  1.00  0.00     0.275 C 
ENDROOT
BRANCH   1   2
ATOM      2  C   UNL A   1      32.348  28.760  25.671  1.00  0.00     0.274 C 
BRANCH   2   3
ATOM      3  O   UNL A   1      32.928  28.274  24.444  1.00  0.00    -0.462 OA
BRANCH   3   4
ATOM      4  C   UNL A   1      33.317  26.973  24.430  1.00  0.00     0.308 C 
ATOM      5  O   UNL A   1      33.673  26.364  23.430  1.00  0.00    -0.252 OA
BRANCH   4   6
ATOM      6  C   UNL A   1      33.199  26.334  25.789  1.00  0.00     0.160 C 
BRANCH   6   7
ATOM      7  C   UNL A   1      32.775  24.864  25.783  1.00  0.00     0.184 C 
ATOM      8  N   UNL A   1      33.590  22.491  26.270  1.00  0.00    -0.320 N 
ATOM      9  C   UNL A   1      32.463  22.400  27.205  1.00  0.00     0.291 C 
ATOM     10  C   UNL A   1      33.959  23.896  26.022  1.00  0.00     0.295 C 
ATOM     11  H   UNL A   1      34.355  22.038  26.770  1.00  0.00     0.348 HD
ATOM     12  C   UNL A   1      31.317  23.388  26.945  1.00  0.00     0.222 C 
ATOM     13  O   UNL A   1      31.803  24.729  26.845  1.00  0.00    -0.366 OA
BRANCH   8  14
ATOM     14  C   UNL A   1      33.570  21.642  25.064  1.00  0.00     0.284 C 
ATOM     15  O   UNL A   1      32.098  18.397  25.168  1.00  0.00    -0.274 OA
ATOM     16  C   UNL A   1      32.812  19.380  25.070  1.00  0.00     0.233 C 
ATOM     17  C   UNL A   1      32.348  20.771  24.770  1.00  0.00     0.176 C 
ATOM     18  N   UNL A   1      34.161  19.373  25.176  1.00  0.00    -0.291 N 
ATOM     19  C   UNL A   1      34.706  20.618  25.126  1.00  0.00     0.285 C 
ATOM     20  H   UNL A   1      34.694  18.553  25.280  1.00  0.00     0.173 HD
ATOM     21  O   UNL A   1      35.905  20.848  25.171  1.00  0.00    -0.268 OA
ENDBRANCH   8  14
ENDBRANCH   6   7
ENDBRANCH   4   6
ENDBRANCH   3   4
ENDBRANCH   2   3
ENDBRANCH   1   2
BRANCH   1  22
ATOM     22  O   UNL A   1      33.929  29.504  27.405  1.00  0.00    -0.458 OA
BRANCH  22  23
ATOM     23  C   UNL A   1      34.644  30.483  28.006  1.00  0.00     0.338 C 
ATOM     24  O   UNL A   1      34.222  31.563  28.389  1.00  0.00    -0.246 OA
BRANCH  23  25
ATOM     25  C   UNL A   1      36.017  30.019  28.264  1.00  0.00     0.060 A 
ATOM     26  C   UNL A   1      36.339  29.579  29.553  1.00  0.00     0.016 A 
ATOM     27  C   UNL A   1      36.996  30.071  27.269  1.00  0.00     0.016 A 
ATOM     28  C   UNL A   1      37.643  29.192  29.854  1.00  0.00     0.010 A 
ATOM     29  C   UNL A   1      38.304  29.677  27.572  1.00  0.00     0.010 A 
ATOM     30  C   UNL A   1      38.638  29.244  28.867  1.00  0.00    -0.014 A 
BRANCH  30  31
ATOM     31  C   UNL A   1      40.031  28.862  29.203  1.00  0.00     0.031 A 
ATOM     32  C   UNL A   1      40.930  29.840  29.907  1.00  0.00     0.074 A 
ATOM     33  C   UNL A   1      40.486  27.636  28.880  1.00  0.00     0.049 A 
ATOM     34  N   UNL A   1      42.189  29.713  30.237  1.00  0.00    -0.248 NA
ATOM     35  C   UNL A   1      40.333  31.130  30.291  1.00  0.00     0.031 C 
ATOM     36  C   UNL A   1      39.700  26.589  28.226  1.00  0.00     0.029 A 
ATOM     37  N   UNL A   1      41.721  27.065  29.058  1.00  0.00    -0.354 N 
ATOM     38  C   UNL A   1      42.543  30.907  30.853  1.00  0.00     0.074 A 
ATOM     39  C   UNL A   1      41.370  31.755  30.834  1.00  0.00     0.031 C 
ATOM     40  C   UNL A   1      40.472  25.502  28.060  1.00  0.00     0.029 A 
ATOM     41  C   UNL A   1      41.815  25.789  28.556  1.00  0.00     0.049 A 
ATOM     42  H   UNL A   1      42.469  27.526  29.502  1.00  0.00     0.167 HD
ATOM     43  C   UNL A   1      43.737  31.263  31.386  1.00  0.00     0.031 A 
ATOM     44  C   UNL A   1      42.869  24.954  28.480  1.00  0.00     0.031 A 
ATOM     45  C   UNL A   1      44.902  30.417  31.401  1.00  0.00     0.049 A 
ATOM     46  C   UNL A   1      44.199  25.396  29.030  1.00  0.00     0.074 A 
ATOM     47  C   UNL A   1      46.151  30.685  31.934  1.00  0.00     0.029 A 
ATOM     48  N   UNL A   1      44.965  29.143  30.858  1.00  0.00    -0.354 N 
ATOM     49  N   UNL A   1      44.512  26.524  29.621  1.00  0.00    -0.248 NA
ATOM     50  C   UNL A   1      45.317  24.450  28.903  1.00  0.00     0.031 C 
ATOM     51  C   UNL A   1      46.984  29.592  31.669  1.00  0.00     0.029 A 
ATOM     52  C   UNL A   1      46.237  28.621  31.021  1.00  0.00     0.049 A 
ATOM     53  H   UNL A   1      44.215  28.678  30.420  1.00  0.00     0.167 HD
ATOM     54  C   UNL A   1      45.857  26.414  29.958  1.00  0.00     0.074 A 
ATOM     55  C   UNL A   1      46.294  25.104  29.518  1.00  0.00     0.031 C 
ATOM     56  C   UNL A   1      46.658  27.316  30.578  1.00  0.00     0.031 A 
BRANCH  43  57
ATOM     57  C   UNL A   1      43.854  32.644  31.973  1.00  0.00    -0.014 A 
ATOM     58  C   UNL A   1      44.163  33.755  31.168  1.00  0.00     0.010 A 
ATOM     59  C   UNL A   1      43.599  32.840  33.342  1.00  0.00     0.010 A 
ATOM     60  C   UNL A   1      44.247  35.033  31.729  1.00  0.00     0.020 A 
ATOM     61  C   UNL A   1      43.657  34.120  33.903  1.00  0.00     0.020 A 
ATOM     62  C   UNL A   1      43.996  35.206  33.095  1.00  0.00     0.054 A 
BRANCH  62  63
ATOM     63  S   UNL A   1      44.082  36.879  33.792  1.00  0.00     0.124 S 
ATOM     64  O   UNL A   1      43.064  37.582  33.015  1.00  0.00    -0.237 OA
ATOM     65  O   UNL A   1      43.757  36.659  35.199  1.00  0.00    -0.237 OA
ATOM     66  O   UNL A   1      45.459  37.293  33.532  1.00  0.00    -0.744 OA
ENDBRANCH  62  63
ENDBRANCH  43  57
BRANCH  44  67
ATOM     67  C   UNL A   1      42.717  23.620  27.838  1.00  0.00    -0.014 A 
ATOM     68  C   UNL A   1      42.929  23.460  26.457  1.00  0.00     0.010 A 
ATOM     69  C   UNL A   1      42.356  22.501  28.609  1.00  0.00     0.010 A 
ATOM     70  C   UNL A   1      42.762  22.208  25.857  1.00  0.00     0.020 A 
ATOM     71  C   UNL A   1      42.216  21.242  28.017  1.00  0.00     0.020 A 
ATOM     72  C   UNL A   1      42.406  21.107  26.641  1.00  0.00     0.054 A 
BRANCH  72  73
ATOM     73  S   UNL A   1      42.236  19.483  25.851  1.00  0.00     0.124 S 
ATOM     74  O   UNL A   1      43.205  19.571  24.764  1.00  0.00    -0.237 OA
ATOM     75  O   UNL A   1      42.581  18.565  26.935  1.00  0.00    -0.237 OA
ATOM     76  O   UNL A   1      40.833  19.449  25.441  1.00  0.00    -0.744 OA
ENDBRANCH  72  73
ENDBRANCH  44  67
BRANCH  56  77
ATOM     77  C   UNL A   1      48.080  26.907  30.850  1.00  0.00    -0.014 A 
ATOM     78  C   UNL A   1      49.120  27.250  29.967  1.00  0.00     0.010 A 
ATOM     79  C   UNL A   1      48.388  26.213  32.035  1.00  0.00     0.010 A 
ATOM     80  C   UNL A   1      50.438  26.879  30.249  1.00  0.00     0.020 A 
ATOM     81  C   UNL A   1      49.708  25.863  32.333  1.00  0.00     0.020 A 
ATOM     82  C   UNL A   1      50.723  26.187  31.430  1.00  0.00     0.054 A 
BRANCH  82  83
ATOM     83  S   UNL A   1      52.446  25.755  31.797  1.00  0.00     0.124 S 
ATOM     84  O   UNL A   1      53.071  25.856  30.482  1.00  0.00    -0.237 OA
ATOM     85  O   UNL A   1      52.837  26.784  32.759  1.00  0.00    -0.237 OA
ATOM     86  O   UNL A   1      52.356  24.403  32.343  1.00  0.00    -0.744 OA
ENDBRANCH  82  83
ENDBRANCH  56  77
ENDBRANCH  30  31
ENDBRANCH  23  25
ENDBRANCH  22  23
ENDBRANCH   1  22
TORSDOF 16
ENDMDL
MODEL 3
REMARK VINA RESULT:     -10.7      4.556     10.428
REMARK SMILES O=C1C[C@@H]([N@@H+]2CCO[C@@H](CC(=O)OCCOC(=O)c3ccc(-c4c5nc(c(-c6ccc(S(=O)(=O)[O-])cc6)c6ccc([nH]6)c(-c6ccc(S(=O)(=O)[O-])cc6)c6nc(c(-c7ccc(S(=O)(=O)[O-])cc7)c7ccc4[nH]7)C=C6)C=C5)cc3)C2)C(=O)N1
REMARK SMILES IDX 15 1 14 2 13 3 11 4 12 5 10 6 9 7 5 8 6 9 79 10 7 12 8 13
REMARK SMILES IDX 4 14 1 15 2 16 3 17 82 18 80 19 81 21 16 22 17 23 18 24
REMARK SMILES IDX 19 25 20 26 78 27 21 28 77 29 22 30 23 31 24 32 71 33 25 34
REMARK SMILES IDX 76 35 70 36 72 37 26 38 75 39 69 40 68 41 27 43 57 44 38 45
REMARK SMILES IDX 56 46 39 47 42 48 55 49 73 50 40 51 41 52 54 54 74 55 43 56
REMARK SMILES IDX 28 57 29 58 37 59 30 60 36 61 31 62 32 63 33 64 34 65 35 66
REMARK SMILES IDX 58 67 59 68 67 69 60 70 66 71 61 72 62 73 63 74 64 75 65 76
REMARK SMILES IDX 44 77 45 78 53 79 46 80 52 81 47 82 48 83 49 84 50 85 51 86
REMARK H PARENT 5 11 82 20 72 42 42 53
REMARK Flexibility Score: inf
ROOT
ATOM      1  C   UNL A   1      36.639  22.209  25.917  1.00  0.00     0.275 C 
ENDROOT
BRANCH   1   2
ATOM      2  C   UNL A   1      35.889  21.498  24.785  1.00  0.00     0.274 C 
BRANCH   2   3
ATOM      3  O   UNL A   1      34.596  22.085  24.539  1.00  0.00    -0.462 OA
BRANCH   3   4
ATOM      4  C   UNL A   1      34.466  22.813  23.401  1.00  0.00     0.308 C 
ATOM      5  O   UNL A   1      35.393  23.340  22.802  1.00  0.00    -0.252 OA
BRANCH   4   6
ATOM      6  C   UNL A   1      33.025  22.958  22.985  1.00  0.00     0.160 C 
BRANCH   6   7
ATOM      7  C   UNL A   1      32.576  24.387  22.675  1.00  0.00     0.184 C 
ATOM      8  N   UNL A   1      32.803  26.818  23.429  1.00  0.00    -0.320 N 
ATOM      9  C   UNL A   1      33.272  27.095  22.066  1.00  0.00     0.291 C 
ATOM     10  C   UNL A   1      32.987  25.398  23.773  1.00  0.00     0.295 C 
ATOM     11  H   UNL A   1      33.422  27.377  24.016  1.00  0.00     0.348 HD
ATOM     12  C   UNL A   1      32.858  26.061  21.010  1.00  0.00     0.222 C 
ATOM     13  O   UNL A   1      33.204  24.735  21.421  1.00  0.00    -0.366 OA
BRANCH   8  14
ATOM     14  C   UNL A   1      31.510  27.388  23.853  1.00  0.00     0.284 C 
ATOM     15  O   UNL A   1      29.625  29.436  21.626  1.00  0.00    -0.274 OA
ATOM     16  C   UNL A   1      30.270  28.942  22.535  1.00  0.00     0.233 C 
ATOM     17  C   UNL A   1      30.358  27.482  22.852  1.00  0.00     0.176 C 
ATOM     18  N   UNL A   1      30.991  29.640  23.443  1.00  0.00    -0.291 N 
ATOM     19  C   UNL A   1      31.697  28.843  24.289  1.00  0.00     0.285 C 
ATOM     20  H   UNL A   1      31.005  30.623  23.487  1.00  0.00     0.173 HD
ATOM     21  O   UNL A   1      32.391  29.256  25.205  1.00  0.00    -0.268 OA
ENDBRANCH   8  14
ENDBRANCH   6   7
ENDBRANCH   4   6
ENDBRANCH   3   4
ENDBRANCH   2   3
ENDBRANCH   1   2
BRANCH   1  22
ATOM     22  O   UNL A   1      37.699  23.043  25.416  1.00  0.00    -0.458 OA
BRANCH  22  23
ATOM     23  C   UNL A   1      38.889  22.904  26.043  1.00  0.00     0.338 C 
ATOM     24  O   UNL A   1      39.648  21.951  25.962  1.00  0.00    -0.246 OA
BRANCH  23  25
ATOM     25  C   UNL A   1      39.228  24.144  26.763  1.00  0.00     0.060 A 
ATOM     26  C   UNL A   1      40.018  25.096  26.111  1.00  0.00     0.016 A 
ATOM     27  C   UNL A   1      38.825  24.343  28.085  1.00  0.00     0.016 A 
ATOM     28  C   UNL A   1      40.412  26.253  26.780  1.00  0.00     0.010 A 
ATOM     29  C   UNL A   1      39.219  25.507  28.754  1.00  0.00     0.010 A 
ATOM     30  C   UNL A   1      40.021  26.465  28.109  1.00  0.00    -0.014 A 
BRANCH  30  31
ATOM     31  C   UNL A   1      40.472  27.682  28.826  1.00  0.00     0.031 A 
ATOM     32  C   UNL A   1      41.836  27.720  29.459  1.00  0.00     0.074 A 
ATOM     33  C   UNL A   1      39.661  28.754  28.904  1.00  0.00     0.049 A 
ATOM     34  N   UNL A   1      42.388  28.668  30.171  1.00  0.00    -0.248 NA
ATOM     35  C   UNL A   1      42.689  26.537  29.265  1.00  0.00     0.031 C 
ATOM     36  C   UNL A   1      38.330  28.850  28.301  1.00  0.00     0.029 A 
ATOM     37  N   UNL A   1      39.836  29.966  29.523  1.00  0.00    -0.354 N 
ATOM     38  C   UNL A   1      43.646  28.194  30.524  1.00  0.00     0.074 A 
ATOM     39  C   UNL A   1      43.768  26.866  29.963  1.00  0.00     0.031 C 
ATOM     40  C   UNL A   1      37.810  30.058  28.579  1.00  0.00     0.029 A 
ATOM     41  C   UNL A   1      38.751  30.803  29.411  1.00  0.00     0.049 A 
ATOM     42  H   UNL A   1      40.660  30.213  30.000  1.00  0.00     0.167 HD
ATOM     43  C   UNL A   1      44.610  28.812  31.248  1.00  0.00     0.031 A 
ATOM     44  C   UNL A   1      38.529  32.022  29.940  1.00  0.00     0.031 A 
ATOM     45  C   UNL A   1      44.483  30.134  31.805  1.00  0.00     0.049 A 
ATOM     46  C   UNL A   1      39.595  32.662  30.788  1.00  0.00     0.074 A 
ATOM     47  C   UNL A   1      45.414  30.849  32.540  1.00  0.00     0.029 A 
ATOM     48  N   UNL A   1      43.360  30.937  31.696  1.00  0.00    -0.354 N 
ATOM     49  N   UNL A   1      40.784  32.205  31.101  1.00  0.00    -0.248 NA
ATOM     50  C   UNL A   1      39.289  33.984  31.354  1.00  0.00     0.031 C 
ATOM     51  C   UNL A   1      44.834  32.065  32.915  1.00  0.00     0.029 A 
ATOM     52  C   UNL A   1      43.562  32.131  32.368  1.00  0.00     0.049 A 
ATOM     53  H   UNL A   1      42.537  30.695  31.211  1.00  0.00     0.167 HD
ATOM     54  C   UNL A   1      41.377  33.193  31.878  1.00  0.00     0.074 A 
ATOM     55  C   UNL A   1      40.422  34.278  31.977  1.00  0.00     0.031 C 
ATOM     56  C   UNL A   1      42.603  33.202  32.458  1.00  0.00     0.031 A 
BRANCH  43  57
ATOM     57  C   UNL A   1      45.882  28.050  31.508  1.00  0.00    -0.014 A 
ATOM     58  C   UNL A   1      46.029  27.242  32.649  1.00  0.00     0.010 A 
ATOM     59  C   UNL A   1      46.927  28.103  30.567  1.00  0.00     0.010 A 
ATOM     60  C   UNL A   1      47.211  26.526  32.861  1.00  0.00     0.020 A 
ATOM     61  C   UNL A   1      48.101  27.369  30.763  1.00  0.00     0.020 A 
ATOM     62  C   UNL A   1      48.241  26.597  31.917  1.00  0.00     0.054 A 
BRANCH  62  63
ATOM     63  S   UNL A   1      49.753  25.635  32.202  1.00  0.00     0.124 S 
ATOM     64  O   UNL A   1      50.695  26.671  32.617  1.00  0.00    -0.237 OA
ATOM     65  O   UNL A   1      49.348  24.700  33.247  1.00  0.00    -0.237 OA
ATOM     66  O   UNL A   1      50.029  25.030  30.901  1.00  0.00    -0.744 OA
ENDBRANCH  62  63
ENDBRANCH  43  57
BRANCH  44  67
ATOM     67  C   UNL A   1      37.231  32.710  29.703  1.00  0.00    -0.014 A 
ATOM     68  C   UNL A   1      37.052  33.543  28.585  1.00  0.00     0.010 A 
ATOM     69  C   UNL A   1      36.163  32.535  30.602  1.00  0.00     0.010 A 
ATOM     70  C   UNL A   1      35.837  34.203  28.381  1.00  0.00     0.020 A 
ATOM     71  C   UNL A   1      34.938  33.171  30.387  1.00  0.00     0.020 A 
ATOM     72  C   UNL A   1      34.787  34.013  29.284  1.00  0.00     0.054 A 
BRANCH  72  73
ATOM     73  S   UNL A   1      33.204  34.846  28.980  1.00  0.00     0.124 S 
ATOM     74  O   UNL A   1      33.634  36.105  28.382  1.00  0.00    -0.237 OA
ATOM     75  O   UNL A   1      32.524  33.916  28.080  1.00  0.00    -0.237 OA
ATOM     76  O   UNL A   1      32.613  34.953  30.313  1.00  0.00    -0.744 OA
ENDBRANCH  72  73
ENDBRANCH  44  67
BRANCH  56  77
ATOM     77  C   UNL A   1      42.999  34.436  33.222  1.00  0.00    -0.014 A 
ATOM     78  C   UNL A   1      42.818  34.521  34.614  1.00  0.00     0.010 A 
ATOM     79  C   UNL A   1      43.609  35.507  32.543  1.00  0.00     0.010 A 
ATOM     80  C   UNL A   1      43.212  35.669  35.309  1.00  0.00     0.020 A 
ATOM     81  C   UNL A   1      44.028  36.645  33.238  1.00  0.00     0.020 A 
ATOM     82  C   UNL A   1      43.814  36.723  34.616  1.00  0.00     0.054 A 
BRANCH  82  83
ATOM     83  S   UNL A   1      44.358  38.184  35.545  1.00  0.00     0.124 S 
ATOM     84  O   UNL A   1      43.768  37.945  36.858  1.00  0.00    -0.237 OA
ATOM     85  O   UNL A   1      45.815  38.081  35.481  1.00  0.00    -0.237 OA
ATOM     86  O   UNL A   1      43.787  39.303  34.798  1.00  0.00    -0.744 OA
ENDBRANCH  82  83
ENDBRANCH  56  77
ENDBRANCH  30  31
ENDBRANCH  23  25
ENDBRANCH  22  23
ENDBRANCH   1  22
TORSDOF 16
ENDMDL
