MODEL 1
REMARK VINA RESULT:      -8.8      0.000      0.000
REMARK SMILES CC1(C)[C@H](C(=O)OCCOC(=O)c2ccc(-c3c4nc(c(-c5ccc(S(=O)(=O)[O-])cc5)c5ccc([nH]5)c(-c5ccc(S(=O)(=O)[O-])cc5)c5nc(c(-c6ccc(S(=O)(=O)[O-])cc6)c6ccc3[nH]6)C=C5)C=C4)cc2)[C@@H]1C(=O)Nc1ccc(NC(=O)C2CCC2)cc1
REMARK SMILES IDX 8 1 7 2 5 3 6 4 4 5 1 6 2 7 3 8 73 9 74 10 75 11 76 12 77 14
REMARK SMILES IDX 78 15 89 16 79 17 88 18 80 19 81 20 82 21 83 23 84 24 85 25
REMARK SMILES IDX 87 26 86 27 9 28 10 29 11 30 12 31 13 32 14 33 72 34 15 35
REMARK SMILES IDX 71 36 16 37 17 38 18 39 65 40 19 41 70 42 64 43 66 44 20 45
REMARK SMILES IDX 69 46 63 47 62 48 21 50 51 51 32 52 50 53 33 54 36 55 49 56
REMARK SMILES IDX 67 57 34 58 35 59 48 61 68 62 37 63 22 64 23 65 31 66 24 67
REMARK SMILES IDX 30 68 25 69 26 70 27 71 28 72 29 73 52 74 53 75 61 76 54 77
REMARK SMILES IDX 60 78 55 79 56 80 57 81 58 82 59 83 38 84 39 85 47 86 40 87
REMARK SMILES IDX 46 88 41 89 42 90 43 91 44 92 45 93
REMARK H PARENT 76 13 81 22 66 49 36 60
REMARK Flexibility Score: inf
ROOT
ATOM      1  C   UNL A   1      42.996  21.520  27.224  1.00  0.00     0.274 C 
ENDROOT
BRANCH   1   2
ATOM      2  O   UNL A   1      43.764  21.911  26.066  1.00  0.00    -0.462 OA
BRANCH   2   3
ATOM      3  C   UNL A   1      44.987  22.432  26.356  1.00  0.00     0.310 C 
ATOM      4  O   UNL A   1      46.022  22.052  25.844  1.00  0.00    -0.252 OA
BRANCH   3   5
ATOM      5  C   UNL A   1      45.024  23.624  27.231  1.00  0.00     0.118 C 
ATOM      6  C   UNL A   1      46.493  25.081  28.688  1.00  0.00     0.013 C 
ATOM      7  C   UNL A   1      46.052  24.716  27.288  1.00  0.00    -0.009 C 
ATOM      8  C   UNL A   1      47.182  24.726  26.291  1.00  0.00     0.013 C 
ATOM      9  C   UNL A   1      44.592  25.018  26.871  1.00  0.00     0.100 C 
BRANCH   9  10
ATOM     10  C   UNL A   1      44.287  25.566  25.532  1.00  0.00     0.228 C 
ATOM     11  O   UNL A   1      43.992  24.801  24.617  1.00  0.00    -0.274 OA
ATOM     12  N   UNL A   1      44.383  26.911  25.261  1.00  0.00    -0.326 N 
ATOM     13  H   UNL A   1      44.456  27.159  24.311  1.00  0.00     0.169 HD
BRANCH  12  14
ATOM     14  C   UNL A   1      44.391  27.964  26.177  1.00  0.00     0.041 A 
ATOM     15  C   UNL A   1      43.195  28.657  26.289  1.00  0.00     0.028 A 
ATOM     16  C   UNL A   1      45.463  28.293  27.003  1.00  0.00     0.028 A 
ATOM     17  C   UNL A   1      43.026  29.568  27.325  1.00  0.00     0.028 A 
ATOM     18  C   UNL A   1      45.310  29.315  27.962  1.00  0.00     0.028 A 
ATOM     19  C   UNL A   1      44.067  29.946  28.151  1.00  0.00     0.041 A 
BRANCH  19  20
ATOM     20  N   UNL A   1      43.925  30.849  29.214  1.00  0.00    -0.326 N 
ATOM     21  C   UNL A   1      44.138  32.203  29.389  1.00  0.00     0.227 C 
ATOM     22  H   UNL A   1      43.594  30.415  30.032  1.00  0.00     0.169 HD
ATOM     23  O   UNL A   1      43.789  32.631  30.507  1.00  0.00    -0.274 OA
BRANCH  21  24
ATOM     24  C   UNL A   1      44.728  33.198  28.358  1.00  0.00     0.079 C 
ATOM     25  C   UNL A   1      44.204  32.937  26.894  1.00  0.00     0.013 C 
ATOM     26  C   UNL A   1      44.260  34.663  28.098  1.00  0.00     0.013 C 
ATOM     27  C   UNL A   1      44.447  34.418  26.599  1.00  0.00     0.002 C 
ENDBRANCH  21  24
ENDBRANCH  19  20
ENDBRANCH  12  14
ENDBRANCH   9  10
ENDBRANCH   3   5
ENDBRANCH   2   3
ENDBRANCH   1   2
BRANCH   1  28
ATOM     28  C   UNL A   1      41.472  21.505  27.018  1.00  0.00     0.275 C 
BRANCH  28  29
ATOM     29  O   UNL A   1      41.015  22.363  25.954  1.00  0.00    -0.458 OA
BRANCH  29  30
ATOM     30  C   UNL A   1      39.741  22.803  26.101  1.00  0.00     0.338 C 
ATOM     31  O   UNL A   1      38.724  22.182  25.834  1.00  0.00    -0.246 OA
BRANCH  30  32
ATOM     32  C   UNL A   1      39.696  24.117  26.766  1.00  0.00     0.060 A 
ATOM     33  C   UNL A   1      40.521  25.127  26.265  1.00  0.00     0.016 A 
ATOM     34  C   UNL A   1      39.016  24.305  27.966  1.00  0.00     0.016 A 
ATOM     35  C   UNL A   1      40.727  26.304  26.966  1.00  0.00     0.010 A 
ATOM     36  C   UNL A   1      39.214  25.495  28.677  1.00  0.00     0.010 A 
ATOM     37  C   UNL A   1      40.099  26.481  28.197  1.00  0.00    -0.014 A 
BRANCH  37  38
ATOM     38  C   UNL A   1      40.485  27.631  29.041  1.00  0.00     0.031 A 
ATOM     39  C   UNL A   1      41.781  27.568  29.797  1.00  0.00     0.074 A 
ATOM     40  C   UNL A   1      39.710  28.729  29.096  1.00  0.00     0.049 A 
ATOM     41  N   UNL A   1      42.235  28.366  30.726  1.00  0.00    -0.248 NA
ATOM     42  C   UNL A   1      42.688  26.458  29.458  1.00  0.00     0.031 C 
ATOM     43  C   UNL A   1      38.493  28.948  28.313  1.00  0.00     0.029 A 
ATOM     44  N   UNL A   1      39.831  29.864  29.854  1.00  0.00    -0.354 N 
ATOM     45  C   UNL A   1      43.453  27.827  31.119  1.00  0.00     0.074 A 
ATOM     46  C   UNL A   1      43.673  26.639  30.324  1.00  0.00     0.031 C 
ATOM     47  C   UNL A   1      37.969  30.138  28.646  1.00  0.00     0.029 A 
ATOM     48  C   UNL A   1      38.773  30.729  29.712  1.00  0.00     0.049 A 
ATOM     49  H   UNL A   1      40.600  30.043  30.442  1.00  0.00     0.167 HD
ATOM     50  C   UNL A   1      44.304  28.282  32.070  1.00  0.00     0.031 A 
ATOM     51  C   UNL A   1      38.460  31.842  30.404  1.00  0.00     0.031 A 
ATOM     52  C   UNL A   1      44.066  29.470  32.845  1.00  0.00     0.049 A 
ATOM     53  C   UNL A   1      39.371  32.280  31.519  1.00  0.00     0.074 A 
ATOM     54  C   UNL A   1      44.847  30.015  33.848  1.00  0.00     0.029 A 
ATOM     55  N   UNL A   1      42.965  30.301  32.697  1.00  0.00    -0.354 N 
ATOM     56  N   UNL A   1      40.493  31.734  31.929  1.00  0.00    -0.248 NA
ATOM     57  C   UNL A   1      38.974  33.477  32.271  1.00  0.00     0.031 C 
ATOM     58  C   UNL A   1      44.193  31.150  34.338  1.00  0.00     0.029 A 
ATOM     59  C   UNL A   1      43.037  31.346  33.599  1.00  0.00     0.049 A 
ATOM     60  H   UNL A   1      42.240  30.166  32.045  1.00  0.00     0.167 HD
ATOM     61  C   UNL A   1      40.952  32.541  32.963  1.00  0.00     0.074 A 
ATOM     62  C   UNL A   1      39.988  33.613  33.114  1.00  0.00     0.031 C 
ATOM     63  C   UNL A   1      42.072  32.410  33.717  1.00  0.00     0.031 A 
BRANCH  50  64
ATOM     64  C   UNL A   1      45.526  27.456  32.366  1.00  0.00    -0.014 A 
ATOM     65  C   UNL A   1      45.597  26.620  33.494  1.00  0.00     0.010 A 
ATOM     66  C   UNL A   1      46.618  27.502  31.479  1.00  0.00     0.010 A 
ATOM     67  C   UNL A   1      46.752  25.873  33.750  1.00  0.00     0.020 A 
ATOM     68  C   UNL A   1      47.764  26.738  31.717  1.00  0.00     0.020 A 
ATOM     69  C   UNL A   1      47.830  25.941  32.860  1.00  0.00     0.054 A 
BRANCH  69  70
ATOM     70  S   UNL A   1      49.311  24.953  33.207  1.00  0.00     0.124 S 
ATOM     71  O   UNL A   1      48.732  23.692  33.664  1.00  0.00    -0.237 OA
ATOM     72  O   UNL A   1      49.976  24.903  31.907  1.00  0.00    -0.237 OA
ATOM     73  O   UNL A   1      50.012  25.723  34.232  1.00  0.00    -0.744 OA
ENDBRANCH  69  70
ENDBRANCH  50  64
BRANCH  51  74
ATOM     74  C   UNL A   1      37.206  32.580  30.096  1.00  0.00    -0.014 A 
ATOM     75  C   UNL A   1      36.038  32.354  30.844  1.00  0.00     0.010 A 
ATOM     76  C   UNL A   1      37.180  33.532  29.058  1.00  0.00     0.010 A 
ATOM     77  C   UNL A   1      34.865  33.056  30.553  1.00  0.00     0.020 A 
ATOM     78  C   UNL A   1      36.017  34.256  28.783  1.00  0.00     0.020 A 
ATOM     79  C   UNL A   1      34.862  34.006  29.526  1.00  0.00     0.054 A 
BRANCH  79  80
ATOM     80  S   UNL A   1      33.343  34.945  29.206  1.00  0.00     0.124 S 
ATOM     81  O   UNL A   1      33.869  36.218  28.726  1.00  0.00    -0.237 OA
ATOM     82  O   UNL A   1      32.668  34.121  28.207  1.00  0.00    -0.237 OA
ATOM     83  O   UNL A   1      32.686  34.989  30.512  1.00  0.00    -0.744 OA
ENDBRANCH  79  80
ENDBRANCH  51  74
BRANCH  63  84
ATOM     84  C   UNL A   1      42.354  33.483  34.731  1.00  0.00    -0.014 A 
ATOM     85  C   UNL A   1      43.000  34.680  34.373  1.00  0.00     0.010 A 
ATOM     86  C   UNL A   1      41.886  33.320  36.049  1.00  0.00     0.010 A 
ATOM     87  C   UNL A   1      43.187  35.688  35.323  1.00  0.00     0.020 A 
ATOM     88  C   UNL A   1      42.049  34.336  36.992  1.00  0.00     0.020 A 
ATOM     89  C   UNL A   1      42.706  35.511  36.625  1.00  0.00     0.054 A 
BRANCH  89  90
ATOM     90  S   UNL A   1      42.899  36.863  37.819  1.00  0.00     0.124 S 
ATOM     91  O   UNL A   1      41.514  37.141  38.187  1.00  0.00    -0.237 OA
ATOM     92  O   UNL A   1      43.718  36.255  38.864  1.00  0.00    -0.237 OA
ATOM     93  O   UNL A   1      43.562  37.912  37.049  1.00  0.00    -0.744 OA
ENDBRANCH  89  90
ENDBRANCH  63  84
ENDBRANCH  37  38
ENDBRANCH  30  32
ENDBRANCH  29  30
ENDBRANCH  28  29
ENDBRANCH   1  28
TORSDOF 18
ENDMDL
MODEL 2
REMARK VINA RESULT:      -8.8      5.183     11.673
REMARK SMILES CC1(C)[C@H](C(=O)OCCOC(=O)c2ccc(-c3c4nc(c(-c5ccc(S(=O)(=O)[O-])cc5)c5ccc([nH]5)c(-c5ccc(S(=O)(=O)[O-])cc5)c5nc(c(-c6ccc(S(=O)(=O)[O-])cc6)c6ccc3[nH]6)C=C5)C=C4)cc2)[C@@H]1C(=O)Nc1ccc(NC(=O)C2CCC2)cc1
REMARK SMILES IDX 8 1 7 2 5 3 6 4 4 5 1 6 2 7 3 8 73 9 74 10 75 11 76 12 77 14
REMARK SMILES IDX 78 15 89 16 79 17 88 18 80 19 81 20 82 21 83 23 84 24 85 25
REMARK SMILES IDX 87 26 86 27 9 28 10 29 11 30 12 31 13 32 14 33 72 34 15 35
REMARK SMILES IDX 71 36 16 37 17 38 18 39 65 40 19 41 70 42 64 43 66 44 20 45
REMARK SMILES IDX 69 46 63 47 62 48 21 50 51 51 32 52 50 53 33 54 36 55 49 56
REMARK SMILES IDX 67 57 34 58 35 59 48 61 68 62 37 63 22 64 23 65 31 66 24 67
REMARK SMILES IDX 30 68 25 69 26 70 27 71 28 72 29 73 52 74 53 75 61 76 54 77
REMARK SMILES IDX 60 78 55 79 56 80 57 81 58 82 59 83 38 84 39 85 47 86 40 87
REMARK SMILES IDX 46 88 41 89 42 90 43 91 44 92 45 93
REMARK H PARENT 76 13 81 22 66 49 36 60
REMARK Flexibility Score: inf
ROOT
ATOM      1  C   UNL A   1      37.881  21.140  25.406  1.00  0.00     0.274 C 
ENDROOT
BRANCH   1   2
ATOM      2  O   UNL A   1      36.913  20.874  24.369  1.00  0.00    -0.462 OA
BRANCH   2   3
ATOM      3  C   UNL A   1      35.636  20.738  24.819  1.00  0.00     0.310 C 
ATOM      4  O   UNL A   1      35.093  19.665  24.996  1.00  0.00    -0.252 OA
BRANCH   3   5
ATOM      5  C   UNL A   1      34.938  21.967  25.255  1.00  0.00     0.118 C 
ATOM      6  C   UNL A   1      35.099  24.486  25.444  1.00  0.00     0.013 C 
ATOM      7  C   UNL A   1      34.840  23.290  24.554  1.00  0.00    -0.009 C 
ATOM      8  C   UNL A   1      35.424  23.445  23.173  1.00  0.00     0.013 C 
ATOM      9  C   UNL A   1      33.578  22.433  24.815  1.00  0.00     0.100 C 
BRANCH   9  10
ATOM     10  C   UNL A   1      32.757  21.935  23.691  1.00  0.00     0.228 C 
ATOM     11  O   UNL A   1      32.744  20.732  23.437  1.00  0.00    -0.274 OA
ATOM     12  N   UNL A   1      32.051  22.788  22.876  1.00  0.00    -0.326 N 
ATOM     13  H   UNL A   1      31.781  22.428  22.001  1.00  0.00     0.169 HD
BRANCH  12  14
ATOM     14  C   UNL A   1      31.674  24.104  23.147  1.00  0.00     0.041 A 
ATOM     15  C   UNL A   1      32.256  25.064  22.333  1.00  0.00     0.028 A 
ATOM     16  C   UNL A   1      30.729  24.482  24.099  1.00  0.00     0.028 A 
ATOM     17  C   UNL A   1      31.781  26.370  22.367  1.00  0.00     0.028 A 
ATOM     18  C   UNL A   1      30.359  25.838  24.206  1.00  0.00     0.028 A 
ATOM     19  C   UNL A   1      30.866  26.797  23.311  1.00  0.00     0.041 A 
BRANCH  19  20
ATOM     20  N   UNL A   1      30.356  28.102  23.362  1.00  0.00    -0.326 N 
ATOM     21  C   UNL A   1      30.690  29.262  24.032  1.00  0.00     0.227 C 
ATOM     22  H   UNL A   1      29.571  28.220  22.780  1.00  0.00     0.169 HD
ATOM     23  O   UNL A   1      30.002  30.251  23.709  1.00  0.00    -0.274 OA
BRANCH  21  24
ATOM     24  C   UNL A   1      31.809  29.444  25.088  1.00  0.00     0.079 C 
ATOM     25  C   UNL A   1      31.561  30.686  26.027  1.00  0.00     0.013 C 
ATOM     26  C   UNL A   1      31.968  28.660  26.427  1.00  0.00     0.013 C 
ATOM     27  C   UNL A   1      32.378  29.970  27.104  1.00  0.00     0.002 C 
ENDBRANCH  21  24
ENDBRANCH  19  20
ENDBRANCH  12  14
ENDBRANCH   9  10
ENDBRANCH   3   5
ENDBRANCH   2   3
ENDBRANCH   1   2
BRANCH   1  28
ATOM     28  C   UNL A   1      38.986  20.079  25.551  1.00  0.00     0.275 C 
BRANCH  28  29
ATOM     29  O   UNL A   1      39.981  20.399  26.542  1.00  0.00    -0.458 OA
BRANCH  29  30
ATOM     30  C   UNL A   1      41.237  20.003  26.220  1.00  0.00     0.338 C 
ATOM     31  O   UNL A   1      41.556  18.934  25.724  1.00  0.00    -0.246 OA
BRANCH  30  32
ATOM     32  C   UNL A   1      42.213  21.089  26.417  1.00  0.00     0.060 A 
ATOM     33  C   UNL A   1      42.542  21.436  27.730  1.00  0.00     0.016 A 
ATOM     34  C   UNL A   1      42.649  21.880  25.358  1.00  0.00     0.016 A 
ATOM     35  C   UNL A   1      43.252  22.592  28.013  1.00  0.00     0.010 A 
ATOM     36  C   UNL A   1      43.374  23.045  25.637  1.00  0.00     0.010 A 
ATOM     37  C   UNL A   1      43.644  23.423  26.967  1.00  0.00    -0.014 A 
BRANCH  37  38
ATOM     38  C   UNL A   1      44.206  24.754  27.279  1.00  0.00     0.031 A 
ATOM     39  C   UNL A   1      43.278  25.838  27.747  1.00  0.00     0.074 A 
ATOM     40  C   UNL A   1      45.530  24.975  27.188  1.00  0.00     0.049 A 
ATOM     41  N   UNL A   1      43.510  27.113  27.904  1.00  0.00    -0.248 NA
ATOM     42  C   UNL A   1      41.904  25.428  28.083  1.00  0.00     0.031 C 
ATOM     43  C   UNL A   1      46.538  23.966  26.861  1.00  0.00     0.029 A 
ATOM     44  N   UNL A   1      46.251  26.129  27.354  1.00  0.00    -0.354 N 
ATOM     45  C   UNL A   1      42.302  27.667  28.307  1.00  0.00     0.074 A 
ATOM     46  C   UNL A   1      41.340  26.589  28.378  1.00  0.00     0.031 C 
ATOM     47  C   UNL A   1      47.747  24.550  26.832  1.00  0.00     0.029 A 
ATOM     48  C   UNL A   1      47.587  25.982  27.069  1.00  0.00     0.049 A 
ATOM     49  H   UNL A   1      45.852  26.979  27.650  1.00  0.00     0.167 HD
ATOM     50  C   UNL A   1      42.022  28.964  28.580  1.00  0.00     0.031 A 
ATOM     51  C   UNL A   1      48.559  26.908  26.956  1.00  0.00     0.031 A 
ATOM     52  C   UNL A   1      42.998  30.018  28.508  1.00  0.00     0.049 A 
ATOM     53  C   UNL A   1      48.209  28.354  27.174  1.00  0.00     0.074 A 
ATOM     54  C   UNL A   1      42.825  31.370  28.743  1.00  0.00     0.029 A 
ATOM     55  N   UNL A   1      44.334  29.835  28.181  1.00  0.00    -0.354 N 
ATOM     56  N   UNL A   1      47.050  28.882  27.497  1.00  0.00    -0.248 NA
ATOM     57  C   UNL A   1      49.291  29.334  27.006  1.00  0.00     0.031 C 
ATOM     58  C   UNL A   1      44.047  32.010  28.512  1.00  0.00     0.029 A 
ATOM     59  C   UNL A   1      44.994  31.049  28.193  1.00  0.00     0.049 A 
ATOM     60  H   UNL A   1      44.750  28.967  27.971  1.00  0.00     0.167 HD
ATOM     61  C   UNL A   1      47.273  30.250  27.604  1.00  0.00     0.074 A 
ATOM     62  C   UNL A   1      48.675  30.468  27.313  1.00  0.00     0.031 C 
ATOM     63  C   UNL A   1      46.397  31.236  27.917  1.00  0.00     0.031 A 
BRANCH  50  64
ATOM     64  C   UNL A   1      40.598  29.315  28.914  1.00  0.00    -0.014 A 
ATOM     65  C   UNL A   1      40.188  29.556  30.237  1.00  0.00     0.010 A 
ATOM     66  C   UNL A   1      39.657  29.430  27.874  1.00  0.00     0.010 A 
ATOM     67  C   UNL A   1      38.853  29.867  30.518  1.00  0.00     0.020 A 
ATOM     68  C   UNL A   1      38.328  29.767  28.148  1.00  0.00     0.020 A 
ATOM     69  C   UNL A   1      37.931  29.967  29.470  1.00  0.00     0.054 A 
BRANCH  69  70
ATOM     70  S   UNL A   1      36.210  30.387  29.859  1.00  0.00     0.124 S 
ATOM     71  O   UNL A   1      36.249  31.848  29.860  1.00  0.00    -0.237 OA
ATOM     72  O   UNL A   1      35.473  29.779  28.754  1.00  0.00    -0.237 OA
ATOM     73  O   UNL A   1      35.988  29.771  31.165  1.00  0.00    -0.744 OA
ENDBRANCH  69  70
ENDBRANCH  50  64
BRANCH  51  74
ATOM     74  C   UNL A   1      49.935  26.496  26.569  1.00  0.00    -0.014 A 
ATOM     75  C   UNL A   1      50.859  26.075  27.540  1.00  0.00     0.010 A 
ATOM     76  C   UNL A   1      50.324  26.505  25.215  1.00  0.00     0.010 A 
ATOM     77  C   UNL A   1      52.148  25.682  27.168  1.00  0.00     0.020 A 
ATOM     78  C   UNL A   1      51.602  26.086  24.836  1.00  0.00     0.020 A 
ATOM     79  C   UNL A   1      52.510  25.687  25.817  1.00  0.00     0.054 A 
BRANCH  79  80
ATOM     80  S   UNL A   1      54.170  25.118  25.355  1.00  0.00     0.124 S 
ATOM     81  O   UNL A   1      54.880  25.186  26.628  1.00  0.00    -0.237 OA
ATOM     82  O   UNL A   1      53.912  23.775  24.844  1.00  0.00    -0.237 OA
ATOM     83  O   UNL A   1      54.596  26.088  24.347  1.00  0.00    -0.744 OA
ENDBRANCH  79  80
ENDBRANCH  51  74
BRANCH  63  84
ATOM     84  C   UNL A   1      46.937  32.635  28.028  1.00  0.00    -0.014 A 
ATOM     85  C   UNL A   1      47.476  33.120  29.233  1.00  0.00     0.010 A 
ATOM     86  C   UNL A   1      46.981  33.445  26.878  1.00  0.00     0.010 A 
ATOM     87  C   UNL A   1      48.034  34.399  29.287  1.00  0.00     0.020 A 
ATOM     88  C   UNL A   1      47.562  34.714  26.923  1.00  0.00     0.020 A 
ATOM     89  C   UNL A   1      48.077  35.187  28.131  1.00  0.00     0.054 A 
BRANCH  89  90
ATOM     90  S   UNL A   1      48.870  36.816  28.211  1.00  0.00     0.124 S 
ATOM     91  O   UNL A   1      47.887  37.665  27.545  1.00  0.00    -0.237 OA
ATOM     92  O   UNL A   1      49.017  37.031  29.648  1.00  0.00    -0.237 OA
ATOM     93  O   UNL A   1      50.124  36.626  27.485  1.00  0.00    -0.744 OA
ENDBRANCH  89  90
ENDBRANCH  63  84
ENDBRANCH  37  38
ENDBRANCH  30  32
ENDBRANCH  29  30
ENDBRANCH  28  29
ENDBRANCH   1  28
TORSDOF 18
ENDMDL
MODEL 3
REMARK VINA RESULT:      -8.6      4.856     11.783
REMARK SMILES CC1(C)[C@H](C(=O)OCCOC(=O)c2ccc(-c3c4nc(c(-c5ccc(S(=O)(=O)[O-])cc5)c5ccc([nH]5)c(-c5ccc(S(=O)(=O)[O-])cc5)c5nc(c(-c6ccc(S(=O)(=O)[O-])cc6)c6ccc3[nH]6)C=C5)C=C4)cc2)[C@@H]1C(=O)Nc1ccc(NC(=O)C2CCC2)cc1
REMARK SMILES IDX 8 1 7 2 5 3 6 4 4 5 1 6 2 7 3 8 73 9 74 10 75 11 76 12 77 14
REMARK SMILES IDX 78 15 89 16 79 17 88 18 80 19 81 20 82 21 83 23 84 24 85 25
REMARK SMILES IDX 87 26 86 27 9 28 10 29 11 30 12 31 13 32 14 33 72 34 15 35
REMARK SMILES IDX 71 36 16 37 17 38 18 39 65 40 19 41 70 42 64 43 66 44 20 45
REMARK SMILES IDX 69 46 63 47 62 48 21 50 51 51 32 52 50 53 33 54 36 55 49 56
REMARK SMILES IDX 67 57 34 58 35 59 48 61 68 62 37 63 22 64 23 65 31 66 24 67
REMARK SMILES IDX 30 68 25 69 26 70 27 71 28 72 29 73 52 74 53 75 61 76 54 77
REMARK SMILES IDX 60 78 55 79 56 80 57 81 58 82 59 83 38 84 39 85 47 86 40 87
REMARK SMILES IDX 46 88 41 89 42 90 43 91 44 92 45 93
REMARK H PARENT 76 13 81 22 66 49 36 60
REMARK Flexibility Score: inf
ROOT
ATOM      1  C   UNL A   1      33.335  28.593  25.983  1.00  0.00     0.274 C 
ENDROOT
BRANCH   1   2
ATOM      2  O   UNL A   1      32.298  28.161  25.075  1.00  0.00    -0.462 OA
BRANCH   2   3
ATOM      3  C   UNL A   1      31.324  27.409  25.657  1.00  0.00     0.310 C 
ATOM      4  O   UNL A   1      31.136  27.359  26.857  1.00  0.00    -0.252 OA
BRANCH   3   5
ATOM      5  C   UNL A   1      30.356  26.743  24.759  1.00  0.00     0.118 C 
ATOM      6  C   UNL A   1      27.966  26.735  23.928  1.00  0.00     0.013 C 
ATOM      7  C   UNL A   1      29.340  27.364  23.847  1.00  0.00    -0.009 C 
ATOM      8  C   UNL A   1      29.294  28.862  23.694  1.00  0.00     0.013 C 
ATOM      9  C   UNL A   1      30.507  26.520  23.280  1.00  0.00     0.100 C 
BRANCH   9  10
ATOM     10  C   UNL A   1      31.494  27.121  22.358  1.00  0.00     0.228 C 
ATOM     11  O   UNL A   1      31.253  28.207  21.836  1.00  0.00    -0.274 OA
ATOM     12  N   UNL A   1      32.656  26.470  22.017  1.00  0.00    -0.326 N 
ATOM     13  H   UNL A   1      33.106  26.782  21.199  1.00  0.00     0.169 HD
BRANCH  12  14
ATOM     14  C   UNL A   1      33.272  25.418  22.697  1.00  0.00     0.041 A 
ATOM     15  C   UNL A   1      33.058  24.160  22.155  1.00  0.00     0.028 A 
ATOM     16  C   UNL A   1      34.114  25.565  23.797  1.00  0.00     0.028 A 
ATOM     17  C   UNL A   1      33.803  23.080  22.615  1.00  0.00     0.028 A 
ATOM     18  C   UNL A   1      34.759  24.431  24.331  1.00  0.00     0.028 A 
ATOM     19  C   UNL A   1      34.629  23.172  23.719  1.00  0.00     0.041 A 
BRANCH  19  20
ATOM     20  N   UNL A   1      35.404  22.106  24.197  1.00  0.00    -0.326 N 
ATOM     21  C   UNL A   1      35.338  21.250  25.279  1.00  0.00     0.227 C 
ATOM     22  H   UNL A   1      36.184  21.925  23.626  1.00  0.00     0.169 HD
ATOM     23  O   UNL A   1      36.213  20.361  25.277  1.00  0.00    -0.274 OA
BRANCH  21  24
ATOM     24  C   UNL A   1      34.305  21.279  26.433  1.00  0.00     0.079 C 
ATOM     25  C   UNL A   1      34.508  22.511  27.397  1.00  0.00     0.013 C 
ATOM     26  C   UNL A   1      32.830  21.779  26.358  1.00  0.00     0.013 C 
ATOM     27  C   UNL A   1      33.017  22.429  27.731  1.00  0.00     0.002 C 
ENDBRANCH  21  24
ENDBRANCH  19  20
ENDBRANCH  12  14
ENDBRANCH   9  10
ENDBRANCH   3   5
ENDBRANCH   2   3
ENDBRANCH   1   2
BRANCH   1  28
ATOM     28  C   UNL A   1      33.138  30.001  26.569  1.00  0.00     0.275 C 
BRANCH  28  29
ATOM     29  O   UNL A   1      33.598  30.142  27.927  1.00  0.00    -0.458 OA
BRANCH  29  30
ATOM     30  C   UNL A   1      34.681  30.944  28.069  1.00  0.00     0.338 C 
ATOM     31  O   UNL A   1      34.673  32.158  28.203  1.00  0.00    -0.246 OA
BRANCH  30  32
ATOM     32  C   UNL A   1      35.924  30.160  28.182  1.00  0.00     0.060 A 
ATOM     33  C   UNL A   1      36.253  29.642  29.437  1.00  0.00     0.016 A 
ATOM     34  C   UNL A   1      36.844  30.094  27.139  1.00  0.00     0.016 A 
ATOM     35  C   UNL A   1      37.507  29.110  29.691  1.00  0.00     0.010 A 
ATOM     36  C   UNL A   1      38.110  29.550  27.386  1.00  0.00     0.010 A 
ATOM     37  C   UNL A   1      38.457  29.092  28.672  1.00  0.00    -0.014 A 
BRANCH  37  38
ATOM     38  C   UNL A   1      39.852  28.727  28.997  1.00  0.00     0.031 A 
ATOM     39  C   UNL A   1      40.735  29.757  29.643  1.00  0.00     0.074 A 
ATOM     40  C   UNL A   1      40.307  27.484  28.759  1.00  0.00     0.049 A 
ATOM     41  N   UNL A   1      42.023  29.726  29.851  1.00  0.00    -0.248 NA
ATOM     42  C   UNL A   1      40.075  30.985  30.118  1.00  0.00     0.031 C 
ATOM     43  C   UNL A   1      39.506  26.371  28.248  1.00  0.00     0.029 A 
ATOM     44  N   UNL A   1      41.561  26.953  28.910  1.00  0.00    -0.354 N 
ATOM     45  C   UNL A   1      42.338  30.947  30.434  1.00  0.00     0.074 A 
ATOM     46  C   UNL A   1      41.106  31.694  30.552  1.00  0.00     0.031 C 
ATOM     47  C   UNL A   1      40.294  25.293  28.109  1.00  0.00     0.029 A 
ATOM     48  C   UNL A   1      41.665  25.661  28.455  1.00  0.00     0.049 A 
ATOM     49  H   UNL A   1      42.315  27.449  29.305  1.00  0.00     0.167 HD
ATOM     50  C   UNL A   1      43.553  31.404  30.821  1.00  0.00     0.031 A 
ATOM     51  C   UNL A   1      42.751  24.884  28.284  1.00  0.00     0.031 A 
ATOM     52  C   UNL A   1      44.764  30.639  30.698  1.00  0.00     0.049 A 
ATOM     53  C   UNL A   1      44.103  25.443  28.634  1.00  0.00     0.074 A 
ATOM     54  C   UNL A   1      46.054  31.007  31.038  1.00  0.00     0.029 A 
ATOM     55  N   UNL A   1      44.834  29.347  30.199  1.00  0.00    -0.354 N 
ATOM     56  N   UNL A   1      44.404  26.621  29.129  1.00  0.00    -0.248 NA
ATOM     57  C   UNL A   1      45.264  24.574  28.398  1.00  0.00     0.031 C 
ATOM     58  C   UNL A   1      46.908  29.952  30.700  1.00  0.00     0.029 A 
ATOM     59  C   UNL A   1      46.144  28.906  30.208  1.00  0.00     0.049 A 
ATOM     60  H   UNL A   1      44.063  28.820  29.885  1.00  0.00     0.167 HD
ATOM     61  C   UNL A   1      45.784  26.622  29.295  1.00  0.00     0.074 A 
ATOM     62  C   UNL A   1      46.258  25.327  28.850  1.00  0.00     0.031 C 
ATOM     63  C   UNL A   1      46.587  27.604  29.775  1.00  0.00     0.031 A 
BRANCH  50  64
ATOM     64  C   UNL A   1      43.633  32.811  31.348  1.00  0.00    -0.014 A 
ATOM     65  C   UNL A   1      43.725  33.917  30.485  1.00  0.00     0.010 A 
ATOM     66  C   UNL A   1      43.592  33.029  32.737  1.00  0.00     0.010 A 
ATOM     67  C   UNL A   1      43.813  35.213  31.004  1.00  0.00     0.020 A 
ATOM     68  C   UNL A   1      43.652  34.324  33.259  1.00  0.00     0.020 A 
ATOM     69  C   UNL A   1      43.780  35.407  32.389  1.00  0.00     0.054 A 
BRANCH  69  70
ATOM     70  S   UNL A   1      43.879  37.099  33.036  1.00  0.00     0.124 S 
ATOM     71  O   UNL A   1      43.821  37.894  31.812  1.00  0.00    -0.237 OA
ATOM     72  O   UNL A   1      42.701  37.184  33.896  1.00  0.00    -0.237 OA
ATOM     73  O   UNL A   1      45.161  37.128  33.737  1.00  0.00    -0.744 OA
ENDBRANCH  69  70
ENDBRANCH  50  64
BRANCH  51  74
ATOM     74  C   UNL A   1      42.605  23.521  27.705  1.00  0.00    -0.014 A 
ATOM     75  C   UNL A   1      42.985  23.259  26.379  1.00  0.00     0.010 A 
ATOM     76  C   UNL A   1      42.098  22.467  28.491  1.00  0.00     0.010 A 
ATOM     77  C   UNL A   1      42.851  21.974  25.844  1.00  0.00     0.020 A 
ATOM     78  C   UNL A   1      41.990  21.176  27.969  1.00  0.00     0.020 A 
ATOM     79  C   UNL A   1      42.357  20.939  26.644  1.00  0.00     0.054 A 
BRANCH  79  80
ATOM     80  S   UNL A   1      42.247  19.269  25.945  1.00  0.00     0.124 S 
ATOM     81  O   UNL A   1      42.787  18.451  27.026  1.00  0.00    -0.237 OA
ATOM     82  O   UNL A   1      40.815  19.125  25.696  1.00  0.00    -0.237 OA
ATOM     83  O   UNL A   1      43.075  19.345  24.742  1.00  0.00    -0.744 OA
ENDBRANCH  79  80
ENDBRANCH  51  74
BRANCH  63  84
ATOM     84  C   UNL A   1      48.053  27.299  29.908  1.00  0.00    -0.014 A 
ATOM     85  C   UNL A   1      48.975  27.685  28.920  1.00  0.00     0.010 A 
ATOM     86  C   UNL A   1      48.521  26.687  31.086  1.00  0.00     0.010 A 
ATOM     87  C   UNL A   1      50.340  27.449  29.103  1.00  0.00     0.020 A 
ATOM     88  C   UNL A   1      49.886  26.474  31.283  1.00  0.00     0.020 A 
ATOM     89  C   UNL A   1      50.787  26.849  30.286  1.00  0.00     0.054 A 
BRANCH  89  90
ATOM     90  S   UNL A   1      52.570  26.618  30.529  1.00  0.00     0.124 S 
ATOM     91  O   UNL A   1      53.009  26.221  29.194  1.00  0.00    -0.237 OA
ATOM     92  O   UNL A   1      53.008  27.940  30.968  1.00  0.00    -0.237 OA
ATOM     93  O   UNL A   1      52.647  25.573  31.547  1.00  0.00    -0.744 OA
ENDBRANCH  89  90
ENDBRANCH  63  84
ENDBRANCH  37  38
ENDBRANCH  30  32
ENDBRANCH  29  30
ENDBRANCH  28  29
ENDBRANCH   1  28
TORSDOF 18
ENDMDL
