MODEL 1
REMARK VINA RESULT:      -9.9      0.000      0.000
REMARK SMILES C[C@H](CNC(=O)c1ccc(Br)nc1)C(=O)OCCOC(=O)c1ccc(-c2c3nc(c(-c4ccc(S(=O)(=O)[O-])cc4)c4ccc([nH]4)c(-c4ccc(S(=O)(=O)[O-])cc4)c4nc(c(-c5ccc(S(=O)(=O)[O-])cc5)c5ccc2[nH]5)C=C4)C=C3)cc1
REMARK SMILES IDX 17 1 16 2 14 3 15 4 2 5 1 6 3 7 4 8 5 9 6 11 7 12 8 13 13 14
REMARK SMILES IDX 9 15 12 16 10 17 11 18 18 19 19 20 20 21 21 22 22 23 23 24
REMARK SMILES IDX 81 25 24 26 80 27 25 28 26 29 27 30 74 31 28 32 79 33 73 34
REMARK SMILES IDX 75 35 29 36 78 37 72 38 71 39 30 41 60 42 41 43 59 44 42 45
REMARK SMILES IDX 45 46 58 47 76 48 43 49 44 50 57 52 77 53 46 54 31 55 32 56
REMARK SMILES IDX 40 57 33 58 39 59 34 60 35 61 36 62 37 63 38 64 61 65 62 66
REMARK SMILES IDX 70 67 63 68 69 69 64 70 65 71 66 72 67 73 68 74 47 75 48 76
REMARK SMILES IDX 56 77 49 78 55 79 50 80 51 81 52 82 53 83 54 84
REMARK H PARENT 4 10 75 40 45 51
REMARK Flexibility Score: inf
ROOT
ATOM      1  C   UNL A   1      39.110  22.491  26.078  1.00  0.00     0.274 C 
ENDROOT
BRANCH   1   2
ATOM      2  O   UNL A   1      37.807  22.881  25.595  1.00  0.00    -0.462 OA
BRANCH   2   3
ATOM      3  C   UNL A   1      36.914  21.867  25.443  1.00  0.00     0.310 C 
ATOM      4  O   UNL A   1      37.212  20.721  25.130  1.00  0.00    -0.252 OA
BRANCH   3   5
ATOM      5  C   UNL A   1      35.474  22.304  25.626  1.00  0.00     0.115 C 
ATOM      6  C   UNL A   1      35.442  23.789  25.973  1.00  0.00     0.022 C 
BRANCH   5   7
ATOM      7  C   UNL A   1      34.689  21.454  26.633  1.00  0.00     0.131 C 
BRANCH   7   8
ATOM      8  N   UNL A   1      33.919  20.422  25.937  1.00  0.00    -0.351 N 
ATOM      9  C   UNL A   1      32.657  20.478  25.402  1.00  0.00     0.252 C 
ATOM     10  H   UNL A   1      34.377  19.555  25.839  1.00  0.00     0.163 HD
ATOM     11  O   UNL A   1      32.070  19.433  25.132  1.00  0.00    -0.269 OA
BRANCH   9  12
ATOM     12  C   UNL A   1      31.996  21.764  25.127  1.00  0.00     0.058 A 
ATOM     13  C   UNL A   1      31.277  22.452  26.103  1.00  0.00     0.018 A 
ATOM     14  C   UNL A   1      32.190  22.380  23.897  1.00  0.00     0.126 A 
ATOM     15  C   UNL A   1      30.752  23.709  25.799  1.00  0.00     0.037 A 
ATOM     16  N   UNL A   1      31.668  23.587  23.569  1.00  0.00    -0.249 NA
ATOM     17  C   UNL A   1      30.965  24.229  24.528  1.00  0.00     0.106 A 
ATOM     18  Br  UNL A   1      30.263  25.939  24.112  1.00  0.00    -0.029 Br
ENDBRANCH   9  12
ENDBRANCH   7   8
ENDBRANCH   5   7
ENDBRANCH   3   5
ENDBRANCH   2   3
ENDBRANCH   1   2
BRANCH   1  19
ATOM     19  C   UNL A   1      39.743  23.558  26.977  1.00  0.00     0.275 C 
BRANCH  19  20
ATOM     20  O   UNL A   1      39.201  24.868  26.726  1.00  0.00    -0.458 OA
BRANCH  20  21
ATOM     21  C   UNL A   1      40.111  25.868  26.780  1.00  0.00     0.338 C 
ATOM     22  O   UNL A   1      40.987  26.101  25.963  1.00  0.00    -0.246 OA
BRANCH  21  23
ATOM     23  C   UNL A   1      39.828  26.763  27.913  1.00  0.00     0.060 A 
ATOM     24  C   UNL A   1      40.441  28.018  27.920  1.00  0.00     0.016 A 
ATOM     25  C   UNL A   1      39.085  26.332  29.013  1.00  0.00     0.016 A 
ATOM     26  C   UNL A   1      40.366  28.828  29.047  1.00  0.00     0.010 A 
ATOM     27  C   UNL A   1      39.005  27.150  30.146  1.00  0.00     0.010 A 
ATOM     28  C   UNL A   1      39.677  28.384  30.181  1.00  0.00    -0.014 A 
BRANCH  28  29
ATOM     29  C   UNL A   1      39.776  29.175  31.432  1.00  0.00     0.031 A 
ATOM     30  C   UNL A   1      40.946  28.958  32.353  1.00  0.00     0.074 A 
ATOM     31  C   UNL A   1      38.867  30.129  31.703  1.00  0.00     0.049 A 
ATOM     32  N   UNL A   1      41.225  29.551  33.485  1.00  0.00    -0.248 NA
ATOM     33  C   UNL A   1      41.927  27.939  31.947  1.00  0.00     0.031 C 
ATOM     34  C   UNL A   1      37.717  30.465  30.864  1.00  0.00     0.029 A 
ATOM     35  N   UNL A   1      38.781  31.003  32.758  1.00  0.00    -0.354 N 
ATOM     36  C   UNL A   1      42.399  28.961  33.941  1.00  0.00     0.074 A 
ATOM     37  C   UNL A   1      42.770  27.953  32.971  1.00  0.00     0.031 C 
ATOM     38  C   UNL A   1      37.049  31.488  31.426  1.00  0.00     0.029 A 
ATOM     39  C   UNL A   1      37.708  31.858  32.676  1.00  0.00     0.049 A 
ATOM     40  H   UNL A   1      39.426  31.017  33.501  1.00  0.00     0.167 HD
ATOM     41  C   UNL A   1      43.107  29.237  35.062  1.00  0.00     0.031 A 
ATOM     42  C   UNL A   1      37.302  32.831  33.516  1.00  0.00     0.031 A 
ATOM     43  C   UNL A   1      42.753  30.257  36.013  1.00  0.00     0.049 A 
ATOM     44  C   UNL A   1      38.100  33.112  34.759  1.00  0.00     0.074 A 
ATOM     45  C   UNL A   1      43.412  30.619  37.175  1.00  0.00     0.029 A 
ATOM     46  N   UNL A   1      41.648  31.088  35.905  1.00  0.00    -0.354 N 
ATOM     47  N   UNL A   1      39.200  32.536  35.181  1.00  0.00    -0.248 NA
ATOM     48  C   UNL A   1      37.606  34.183  35.636  1.00  0.00     0.031 C 
ATOM     49  C   UNL A   1      42.687  31.649  37.787  1.00  0.00     0.029 A 
ATOM     50  C   UNL A   1      41.601  31.956  36.983  1.00  0.00     0.049 A 
ATOM     51  H   UNL A   1      40.994  31.065  35.170  1.00  0.00     0.167 HD
ATOM     52  C   UNL A   1      39.544  33.192  36.357  1.00  0.00     0.074 A 
ATOM     53  C   UNL A   1      38.541  34.214  36.576  1.00  0.00     0.031 C 
ATOM     54  C   UNL A   1      40.596  32.969  37.183  1.00  0.00     0.031 A 
BRANCH  41  55
ATOM     55  C   UNL A   1      44.321  28.390  35.336  1.00  0.00    -0.014 A 
ATOM     56  C   UNL A   1      44.242  27.230  36.126  1.00  0.00     0.010 A 
ATOM     57  C   UNL A   1      45.560  28.759  34.781  1.00  0.00     0.010 A 
ATOM     58  C   UNL A   1      45.390  26.475  36.390  1.00  0.00     0.020 A 
ATOM     59  C   UNL A   1      46.704  27.994  35.024  1.00  0.00     0.020 A 
ATOM     60  C   UNL A   1      46.616  26.867  35.844  1.00  0.00     0.054 A 
BRANCH  60  61
ATOM     61  S   UNL A   1      48.092  25.870  36.188  1.00  0.00     0.124 S 
ATOM     62  O   UNL A   1      47.637  24.525  35.843  1.00  0.00    -0.237 OA
ATOM     63  O   UNL A   1      49.090  26.445  35.290  1.00  0.00    -0.237 OA
ATOM     64  O   UNL A   1      48.338  26.097  37.610  1.00  0.00    -0.744 OA
ENDBRANCH  60  61
ENDBRANCH  41  55
BRANCH  42  65
ATOM     65  C   UNL A   1      36.078  33.615  33.204  1.00  0.00    -0.014 A 
ATOM     66  C   UNL A   1      36.177  34.922  32.695  1.00  0.00     0.010 A 
ATOM     67  C   UNL A   1      34.805  33.054  33.409  1.00  0.00     0.010 A 
ATOM     68  C   UNL A   1      35.025  35.660  32.411  1.00  0.00     0.020 A 
ATOM     69  C   UNL A   1      33.651  33.779  33.104  1.00  0.00     0.020 A 
ATOM     70  C   UNL A   1      33.768  35.083  32.618  1.00  0.00     0.054 A 
BRANCH  70  71
ATOM     71  S   UNL A   1      32.281  36.034  32.191  1.00  0.00     0.124 S 
ATOM     72  O   UNL A   1      31.220  35.065  32.440  1.00  0.00    -0.237 OA
ATOM     73  O   UNL A   1      32.343  37.160  33.120  1.00  0.00    -0.237 OA
ATOM     74  O   UNL A   1      32.495  36.384  30.788  1.00  0.00    -0.744 OA
ENDBRANCH  70  71
ENDBRANCH  42  65
BRANCH  54  75
ATOM     75  C   UNL A   1      40.735  33.874  38.376  1.00  0.00    -0.014 A 
ATOM     76  C   UNL A   1      40.179  33.530  39.620  1.00  0.00     0.010 A 
ATOM     77  C   UNL A   1      41.461  35.074  38.255  1.00  0.00     0.010 A 
ATOM     78  C   UNL A   1      40.312  34.388  40.715  1.00  0.00     0.020 A 
ATOM     79  C   UNL A   1      41.613  35.925  39.354  1.00  0.00     0.020 A 
ATOM     80  C   UNL A   1      41.023  35.585  40.573  1.00  0.00     0.054 A 
BRANCH  80  81
ATOM     81  S   UNL A   1      41.207  36.677  42.009  1.00  0.00     0.124 S 
ATOM     82  O   UNL A   1      42.502  37.300  41.752  1.00  0.00    -0.237 OA
ATOM     83  O   UNL A   1      40.050  37.564  41.894  1.00  0.00    -0.237 OA
ATOM     84  O   UNL A   1      41.168  35.761  43.146  1.00  0.00    -0.744 OA
ENDBRANCH  80  81
ENDBRANCH  54  75
ENDBRANCH  28  29
ENDBRANCH  21  23
ENDBRANCH  20  21
ENDBRANCH  19  20
ENDBRANCH   1  19
TORSDOF 17
ENDMDL
MODEL 2
REMARK VINA RESULT:      -9.8      6.754      8.966
REMARK SMILES C[C@H](CNC(=O)c1ccc(Br)nc1)C(=O)OCCOC(=O)c1ccc(-c2c3nc(c(-c4ccc(S(=O)(=O)[O-])cc4)c4ccc([nH]4)c(-c4ccc(S(=O)(=O)[O-])cc4)c4nc(c(-c5ccc(S(=O)(=O)[O-])cc5)c5ccc2[nH]5)C=C4)C=C3)cc1
REMARK SMILES IDX 17 1 16 2 14 3 15 4 2 5 1 6 3 7 4 8 5 9 6 11 7 12 8 13 13 14
REMARK SMILES IDX 9 15 12 16 10 17 11 18 18 19 19 20 20 21 21 22 22 23 23 24
REMARK SMILES IDX 81 25 24 26 80 27 25 28 26 29 27 30 74 31 28 32 79 33 73 34
REMARK SMILES IDX 75 35 29 36 78 37 72 38 71 39 30 41 60 42 41 43 59 44 42 45
REMARK SMILES IDX 45 46 58 47 76 48 43 49 44 50 57 52 77 53 46 54 31 55 32 56
REMARK SMILES IDX 40 57 33 58 39 59 34 60 35 61 36 62 37 63 38 64 61 65 62 66
REMARK SMILES IDX 70 67 63 68 69 69 64 70 65 71 66 72 67 73 68 74 47 75 48 76
REMARK SMILES IDX 56 77 49 78 55 79 50 80 51 81 52 82 53 83 54 84
REMARK H PARENT 4 10 75 40 45 51
REMARK Flexibility Score: inf
ROOT
ATOM      1  C   UNL A   1      38.882  21.614  25.910  1.00  0.00     0.274 C 
ENDROOT
BRANCH   1   2
ATOM      2  O   UNL A   1      37.697  21.863  25.123  1.00  0.00    -0.462 OA
BRANCH   2   3
ATOM      3  C   UNL A   1      37.098  23.065  25.337  1.00  0.00     0.310 C 
ATOM      4  O   UNL A   1      37.490  23.903  26.140  1.00  0.00    -0.252 OA
BRANCH   3   5
ATOM      5  C   UNL A   1      35.829  23.253  24.530  1.00  0.00     0.115 C 
ATOM      6  C   UNL A   1      35.045  24.431  25.098  1.00  0.00     0.022 C 
BRANCH   5   7
ATOM      7  C   UNL A   1      34.971  21.986  24.414  1.00  0.00     0.131 C 
BRANCH   7   8
ATOM      8  N   UNL A   1      33.642  22.316  23.900  1.00  0.00    -0.351 N 
ATOM      9  C   UNL A   1      32.614  21.488  23.525  1.00  0.00     0.252 C 
ATOM     10  H   UNL A   1      33.457  23.279  23.808  1.00  0.00     0.163 HD
ATOM     11  O   UNL A   1      31.699  21.936  22.840  1.00  0.00    -0.269 OA
BRANCH   9  12
ATOM     12  C   UNL A   1      32.574  20.077  23.943  1.00  0.00     0.058 A 
ATOM     13  C   UNL A   1      32.692  19.030  23.030  1.00  0.00     0.018 A 
ATOM     14  C   UNL A   1      32.540  19.768  25.297  1.00  0.00     0.126 A 
ATOM     15  C   UNL A   1      32.735  17.718  23.505  1.00  0.00     0.037 A 
ATOM     16  N   UNL A   1      32.554  18.503  25.780  1.00  0.00    -0.249 NA
ATOM     17  C   UNL A   1      32.657  17.504  24.876  1.00  0.00     0.106 A 
ATOM     18  Br  UNL A   1      32.725  15.726  25.526  1.00  0.00    -0.029 Br
ENDBRANCH   9  12
ENDBRANCH   7   8
ENDBRANCH   5   7
ENDBRANCH   3   5
ENDBRANCH   2   3
ENDBRANCH   1   2
BRANCH   1  19
ATOM     19  C   UNL A   1      39.448  20.208  25.683  1.00  0.00     0.275 C 
BRANCH  19  20
ATOM     20  O   UNL A   1      40.417  19.847  26.685  1.00  0.00    -0.458 OA
BRANCH  20  21
ATOM     21  C   UNL A   1      41.673  19.676  26.210  1.00  0.00     0.338 C 
ATOM     22  O   UNL A   1      42.092  18.713  25.588  1.00  0.00    -0.246 OA
BRANCH  21  23
ATOM     23  C   UNL A   1      42.474  20.893  26.418  1.00  0.00     0.060 A 
ATOM     24  C   UNL A   1      42.706  21.302  27.733  1.00  0.00     0.016 A 
ATOM     25  C   UNL A   1      42.874  21.692  25.346  1.00  0.00     0.016 A 
ATOM     26  C   UNL A   1      43.290  22.537  27.990  1.00  0.00     0.010 A 
ATOM     27  C   UNL A   1      43.466  22.934  25.604  1.00  0.00     0.010 A 
ATOM     28  C   UNL A   1      43.641  23.378  26.927  1.00  0.00    -0.014 A 
BRANCH  28  29
ATOM     29  C   UNL A   1      44.076  24.764  27.227  1.00  0.00     0.031 A 
ATOM     30  C   UNL A   1      45.509  25.155  26.985  1.00  0.00     0.074 A 
ATOM     31  C   UNL A   1      43.183  25.680  27.640  1.00  0.00     0.049 A 
ATOM     32  N   UNL A   1      46.089  26.314  27.170  1.00  0.00    -0.248 NA
ATOM     33  C   UNL A   1      46.405  24.107  26.471  1.00  0.00     0.031 C 
ATOM     34  C   UNL A   1      41.758  25.432  27.864  1.00  0.00     0.029 A 
ATOM     35  N   UNL A   1      43.342  27.012  27.929  1.00  0.00    -0.354 N 
ATOM     36  C   UNL A   1      47.423  26.128  26.820  1.00  0.00     0.074 A 
ATOM     37  C   UNL A   1      47.567  24.743  26.428  1.00  0.00     0.031 C 
ATOM     38  C   UNL A   1      41.168  26.580  28.236  1.00  0.00     0.029 A 
ATOM     39  C   UNL A   1      42.176  27.636  28.305  1.00  0.00     0.049 A 
ATOM     40  H   UNL A   1      44.207  27.476  27.873  1.00  0.00     0.167 HD
ATOM     41  C   UNL A   1      48.433  27.030  26.821  1.00  0.00     0.031 A 
ATOM     42  C   UNL A   1      41.948  28.914  28.665  1.00  0.00     0.031 A 
ATOM     43  C   UNL A   1      48.283  28.414  27.186  1.00  0.00     0.049 A 
ATOM     44  C   UNL A   1      43.088  29.894  28.666  1.00  0.00     0.074 A 
ATOM     45  C   UNL A   1      49.245  29.409  27.209  1.00  0.00     0.029 A 
ATOM     46  N   UNL A   1      47.091  29.002  27.580  1.00  0.00    -0.354 N 
ATOM     47  N   UNL A   1      44.344  29.699  28.345  1.00  0.00    -0.248 NA
ATOM     48  C   UNL A   1      42.775  31.273  29.069  1.00  0.00     0.031 C 
ATOM     49  C   UNL A   1      48.640  30.593  27.647  1.00  0.00     0.029 A 
ATOM     50  C   UNL A   1      47.293  30.344  27.857  1.00  0.00     0.049 A 
ATOM     51  H   UNL A   1      46.227  28.535  27.651  1.00  0.00     0.167 HD
ATOM     52  C   UNL A   1      44.967  30.934  28.482  1.00  0.00     0.074 A 
ATOM     53  C   UNL A   1      43.947  31.872  28.906  1.00  0.00     0.031 C 
ATOM     54  C   UNL A   1      46.266  31.264  28.275  1.00  0.00     0.031 A 
BRANCH  41  55
ATOM     55  C   UNL A   1      49.803  26.531  26.447  1.00  0.00    -0.014 A 
ATOM     56  C   UNL A   1      50.701  26.058  27.420  1.00  0.00     0.010 A 
ATOM     57  C   UNL A   1      50.190  26.524  25.095  1.00  0.00     0.010 A 
ATOM     58  C   UNL A   1      51.979  25.626  27.051  1.00  0.00     0.020 A 
ATOM     59  C   UNL A   1      51.458  26.071  24.720  1.00  0.00     0.020 A 
ATOM     60  C   UNL A   1      52.353  25.643  25.704  1.00  0.00     0.054 A 
BRANCH  60  61
ATOM     61  S   UNL A   1      54.011  25.068  25.242  1.00  0.00     0.124 S 
ATOM     62  O   UNL A   1      54.378  26.014  24.191  1.00  0.00    -0.237 OA
ATOM     63  O   UNL A   1      54.758  25.195  26.490  1.00  0.00    -0.237 OA
ATOM     64  O   UNL A   1      53.787  23.696  24.793  1.00  0.00    -0.744 OA
ENDBRANCH  60  61
ENDBRANCH  41  55
BRANCH  42  65
ATOM     65  C   UNL A   1      40.576  29.341  29.050  1.00  0.00    -0.014 A 
ATOM     66  C   UNL A   1      39.601  29.585  28.068  1.00  0.00     0.010 A 
ATOM     67  C   UNL A   1      40.238  29.498  30.406  1.00  0.00     0.010 A 
ATOM     68  C   UNL A   1      38.316  29.995  28.433  1.00  0.00     0.020 A 
ATOM     69  C   UNL A   1      38.948  29.885  30.777  1.00  0.00     0.020 A 
ATOM     70  C   UNL A   1      37.997  30.142  29.787  1.00  0.00     0.054 A 
BRANCH  70  71
ATOM     71  S   UNL A   1      36.308  30.620  30.247  1.00  0.00     0.124 S 
ATOM     72  O   UNL A   1      35.510  29.902  29.260  1.00  0.00    -0.237 OA
ATOM     73  O   UNL A   1      36.201  30.136  31.622  1.00  0.00    -0.237 OA
ATOM     74  O   UNL A   1      36.317  32.075  30.108  1.00  0.00    -0.744 OA
ENDBRANCH  70  71
ENDBRANCH  42  65
BRANCH  54  75
ATOM     75  C   UNL A   1      46.646  32.706  28.466  1.00  0.00    -0.014 A 
ATOM     76  C   UNL A   1      46.572  33.626  27.406  1.00  0.00     0.010 A 
ATOM     77  C   UNL A   1      47.055  33.152  29.737  1.00  0.00     0.010 A 
ATOM     78  C   UNL A   1      46.938  34.961  27.603  1.00  0.00     0.020 A 
ATOM     79  C   UNL A   1      47.402  34.490  29.943  1.00  0.00     0.020 A 
ATOM     80  C   UNL A   1      47.358  35.383  28.869  1.00  0.00     0.054 A 
BRANCH  80  81
ATOM     81  S   UNL A   1      47.807  37.123  29.114  1.00  0.00     0.124 S 
ATOM     82  O   UNL A   1      48.762  37.038  30.215  1.00  0.00    -0.237 OA
ATOM     83  O   UNL A   1      48.374  37.498  27.820  1.00  0.00    -0.237 OA
ATOM     84  O   UNL A   1      46.535  37.765  29.437  1.00  0.00    -0.744 OA
ENDBRANCH  80  81
ENDBRANCH  54  75
ENDBRANCH  28  29
ENDBRANCH  21  23
ENDBRANCH  20  21
ENDBRANCH  19  20
ENDBRANCH   1  19
TORSDOF 17
ENDMDL
MODEL 3
REMARK VINA RESULT:      -9.7      4.624     10.589
REMARK SMILES C[C@H](CNC(=O)c1ccc(Br)nc1)C(=O)OCCOC(=O)c1ccc(-c2c3nc(c(-c4ccc(S(=O)(=O)[O-])cc4)c4ccc([nH]4)c(-c4ccc(S(=O)(=O)[O-])cc4)c4nc(c(-c5ccc(S(=O)(=O)[O-])cc5)c5ccc2[nH]5)C=C4)C=C3)cc1
REMARK SMILES IDX 17 1 16 2 14 3 15 4 2 5 1 6 3 7 4 8 5 9 6 11 7 12 8 13 13 14
REMARK SMILES IDX 9 15 12 16 10 17 11 18 18 19 19 20 20 21 21 22 22 23 23 24
REMARK SMILES IDX 81 25 24 26 80 27 25 28 26 29 27 30 74 31 28 32 79 33 73 34
REMARK SMILES IDX 75 35 29 36 78 37 72 38 71 39 30 41 60 42 41 43 59 44 42 45
REMARK SMILES IDX 45 46 58 47 76 48 43 49 44 50 57 52 77 53 46 54 31 55 32 56
REMARK SMILES IDX 40 57 33 58 39 59 34 60 35 61 36 62 37 63 38 64 61 65 62 66
REMARK SMILES IDX 70 67 63 68 69 69 64 70 65 71 66 72 67 73 68 74 47 75 48 76
REMARK SMILES IDX 56 77 49 78 55 79 50 80 51 81 52 82 53 83 54 84
REMARK H PARENT 4 10 75 40 45 51
REMARK Flexibility Score: inf
ROOT
ATOM      1  C   UNL A   1      31.892  29.899  25.805  1.00  0.00     0.274 C 
ENDROOT
BRANCH   1   2
ATOM      2  O   UNL A   1      31.406  28.543  25.896  1.00  0.00    -0.462 OA
BRANCH   2   3
ATOM      3  C   UNL A   1      31.051  27.971  24.714  1.00  0.00     0.310 C 
ATOM      4  O   UNL A   1      30.239  27.060  24.600  1.00  0.00    -0.252 OA
BRANCH   3   5
ATOM      5  C   UNL A   1      31.817  28.521  23.529  1.00  0.00     0.115 C 
ATOM      6  C   UNL A   1      30.856  28.722  22.361  1.00  0.00     0.022 C 
BRANCH   5   7
ATOM      7  C   UNL A   1      33.041  27.684  23.136  1.00  0.00     0.131 C 
BRANCH   7   8
ATOM      8  N   UNL A   1      32.873  27.136  21.790  1.00  0.00    -0.351 N 
ATOM      9  C   UNL A   1      32.869  25.830  21.366  1.00  0.00     0.252 C 
ATOM     10  H   UNL A   1      32.744  27.806  21.080  1.00  0.00     0.163 HD
ATOM     11  O   UNL A   1      33.018  25.584  20.173  1.00  0.00    -0.269 OA
BRANCH   9  12
ATOM     12  C   UNL A   1      32.671  24.718  22.310  1.00  0.00     0.058 A 
ATOM     13  C   UNL A   1      31.446  24.483  22.932  1.00  0.00     0.018 A 
ATOM     14  C   UNL A   1      33.693  23.796  22.501  1.00  0.00     0.126 A 
ATOM     15  C   UNL A   1      31.304  23.359  23.746  1.00  0.00     0.037 A 
ATOM     16  N   UNL A   1      33.588  22.713  23.307  1.00  0.00    -0.249 NA
ATOM     17  C   UNL A   1      32.394  22.513  23.908  1.00  0.00     0.106 A 
ATOM     18  Br  UNL A   1      32.204  20.979  25.005  1.00  0.00    -0.029 Br
ENDBRANCH   9  12
ENDBRANCH   7   8
ENDBRANCH   5   7
ENDBRANCH   3   5
ENDBRANCH   2   3
ENDBRANCH   1   2
BRANCH   1  19
ATOM     19  C   UNL A   1      32.548  30.372  27.107  1.00  0.00     0.275 C 
BRANCH  19  20
ATOM     20  O   UNL A   1      33.935  30.710  26.923  1.00  0.00    -0.458 OA
BRANCH  20  21
ATOM     21  C   UNL A   1      34.563  31.123  28.048  1.00  0.00     0.338 C 
ATOM     22  O   UNL A   1      34.124  31.893  28.887  1.00  0.00    -0.246 OA
BRANCH  21  23
ATOM     23  C   UNL A   1      35.835  30.404  28.223  1.00  0.00     0.060 A 
ATOM     24  C   UNL A   1      36.131  29.906  29.494  1.00  0.00     0.016 A 
ATOM     25  C   UNL A   1      36.779  30.336  27.198  1.00  0.00     0.016 A 
ATOM     26  C   UNL A   1      37.391  29.388  29.768  1.00  0.00     0.010 A 
ATOM     27  C   UNL A   1      38.047  29.810  27.472  1.00  0.00     0.010 A 
ATOM     28  C   UNL A   1      38.370  29.370  28.768  1.00  0.00    -0.014 A 
BRANCH  28  29
ATOM     29  C   UNL A   1      39.759  28.998  29.134  1.00  0.00     0.031 A 
ATOM     30  C   UNL A   1      40.583  29.946  29.963  1.00  0.00     0.074 A 
ATOM     31  C   UNL A   1      40.250  27.793  28.791  1.00  0.00     0.049 A 
ATOM     32  N   UNL A   1      41.809  29.806  30.399  1.00  0.00    -0.248 NA
ATOM     33  C   UNL A   1      39.944  31.214  30.349  1.00  0.00     0.031 C 
ATOM     34  C   UNL A   1      39.530  26.772  28.031  1.00  0.00     0.029 A 
ATOM     35  N   UNL A   1      41.468  27.220  29.055  1.00  0.00    -0.354 N 
ATOM     36  C   UNL A   1      42.099  30.979  31.089  1.00  0.00     0.074 A 
ATOM     37  C   UNL A   1      40.927  31.823  30.998  1.00  0.00     0.031 C 
ATOM     38  C   UNL A   1      40.313  25.686  27.906  1.00  0.00     0.029 A 
ATOM     39  C   UNL A   1      41.598  25.948  28.552  1.00  0.00     0.049 A 
ATOM     40  H   UNL A   1      42.181  27.676  29.557  1.00  0.00     0.167 HD
ATOM     41  C   UNL A   1      43.236  31.320  31.741  1.00  0.00     0.031 A 
ATOM     42  C   UNL A   1      42.635  25.090  28.605  1.00  0.00     0.031 A 
ATOM     43  C   UNL A   1      44.391  30.470  31.853  1.00  0.00     0.049 A 
ATOM     44  C   UNL A   1      43.890  25.495  29.328  1.00  0.00     0.074 A 
ATOM     45  C   UNL A   1      45.588  30.721  32.502  1.00  0.00     0.029 A 
ATOM     46  N   UNL A   1      44.490  29.197  31.313  1.00  0.00    -0.354 N 
ATOM     47  N   UNL A   1      44.152  26.612  29.963  1.00  0.00    -0.248 NA
ATOM     48  C   UNL A   1      44.987  24.517  29.350  1.00  0.00     0.031 C 
ATOM     49  C   UNL A   1      46.423  29.611  32.327  1.00  0.00     0.029 A 
ATOM     50  C   UNL A   1      45.730  28.653  31.605  1.00  0.00     0.049 A 
ATOM     51  H   UNL A   1      43.783  28.745  30.797  1.00  0.00     0.167 HD
ATOM     52  C   UNL A   1      45.433  26.462  30.482  1.00  0.00     0.074 A 
ATOM     53  C   UNL A   1      45.889  25.142  30.095  1.00  0.00     0.031 C 
ATOM     54  C   UNL A   1      46.166  27.336  31.214  1.00  0.00     0.031 A 
BRANCH  41  55
ATOM     55  C   UNL A   1      43.293  32.693  32.355  1.00  0.00    -0.014 A 
ATOM     56  C   UNL A   1      42.968  32.906  33.706  1.00  0.00     0.010 A 
ATOM     57  C   UNL A   1      43.692  33.786  31.564  1.00  0.00     0.010 A 
ATOM     58  C   UNL A   1      43.001  34.197  34.246  1.00  0.00     0.020 A 
ATOM     59  C   UNL A   1      43.749  35.073  32.107  1.00  0.00     0.020 A 
ATOM     60  C   UNL A   1      43.384  35.274  33.440  1.00  0.00     0.054 A 
BRANCH  60  61
ATOM     61  S   UNL A   1      43.432  36.938  34.160  1.00  0.00     0.124 S 
ATOM     62  O   UNL A   1      42.111  37.041  34.774  1.00  0.00    -0.237 OA
ATOM     63  O   UNL A   1      44.554  36.858  35.091  1.00  0.00    -0.237 OA
ATOM     64  O   UNL A   1      43.649  37.807  33.005  1.00  0.00    -0.744 OA
ENDBRANCH  60  61
ENDBRANCH  41  55
BRANCH  42  65
ATOM     65  C   UNL A   1      42.528  23.757  27.956  1.00  0.00    -0.014 A 
ATOM     66  C   UNL A   1      42.692  23.624  26.566  1.00  0.00     0.010 A 
ATOM     67  C   UNL A   1      42.268  22.611  28.728  1.00  0.00     0.010 A 
ATOM     68  C   UNL A   1      42.583  22.370  25.958  1.00  0.00     0.020 A 
ATOM     69  C   UNL A   1      42.181  21.353  28.128  1.00  0.00     0.020 A 
ATOM     70  C   UNL A   1      42.327  21.242  26.743  1.00  0.00     0.054 A 
BRANCH  70  71
ATOM     71  S   UNL A   1      42.244  19.613  25.946  1.00  0.00     0.124 S 
ATOM     72  O   UNL A   1      40.874  19.590  25.446  1.00  0.00    -0.237 OA
ATOM     73  O   UNL A   1      43.289  19.701  24.928  1.00  0.00    -0.237 OA
ATOM     74  O   UNL A   1      42.530  18.685  27.039  1.00  0.00    -0.744 OA
ENDBRANCH  70  71
ENDBRANCH  42  65
BRANCH  54  75
ATOM     75  C   UNL A   1      47.521  26.876  31.676  1.00  0.00    -0.014 A 
ATOM     76  C   UNL A   1      47.685  26.209  32.902  1.00  0.00     0.010 A 
ATOM     77  C   UNL A   1      48.643  27.091  30.854  1.00  0.00     0.010 A 
ATOM     78  C   UNL A   1      48.955  25.796  33.317  1.00  0.00     0.020 A 
ATOM     79  C   UNL A   1      49.911  26.662  31.256  1.00  0.00     0.020 A 
ATOM     80  C   UNL A   1      50.061  26.032  32.494  1.00  0.00     0.054 A 
BRANCH  80  81
ATOM     81  S   UNL A   1      51.698  25.470  33.037  1.00  0.00     0.124 S 
ATOM     82  O   UNL A   1      51.417  24.964  34.377  1.00  0.00    -0.237 OA
ATOM     83  O   UNL A   1      52.040  24.455  32.041  1.00  0.00    -0.237 OA
ATOM     84  O   UNL A   1      52.514  26.681  32.984  1.00  0.00    -0.744 OA
ENDBRANCH  80  81
ENDBRANCH  54  75
ENDBRANCH  28  29
ENDBRANCH  21  23
ENDBRANCH  20  21
ENDBRANCH  19  20
ENDBRANCH   1  19
TORSDOF 17
ENDMDL
