MODEL 1
REMARK VINA RESULT:     -10.7      0.000      0.000
REMARK SMILES C[C@@H](Oc1ccccc1Cl)C(=O)N1CC[C@H](C(=O)OCCOC(=O)c2ccc(-c3c4nc(c(-c5ccc(S(=O)(=O)[O-])cc5)c5ccc([nH]5)c(-c5ccc(S(=O)(=O)[O-])cc5)c5nc(c(-c6ccc(S(=O)(=O)[O-])cc6)c6ccc3[nH]6)C=C5)C=C4)cc2)[C@@H]1C
REMARK SMILES IDX 20 1 19 2 17 3 18 4 16 5 13 6 14 7 85 8 15 9 86 10 11 11
REMARK SMILES IDX 12 12 2 13 1 14 3 15 4 16 5 17 9 18 6 19 8 20 10 21 7 22
REMARK SMILES IDX 21 23 22 24 23 25 24 26 25 27 26 28 84 29 27 30 83 31 28 32
REMARK SMILES IDX 29 33 30 34 77 35 31 36 82 37 76 38 78 39 32 40 81 41 75 42
REMARK SMILES IDX 74 43 33 45 63 46 44 47 62 48 45 49 48 50 61 51 79 52 46 53
REMARK SMILES IDX 47 54 60 56 80 57 49 58 34 59 35 60 43 61 36 62 42 63 37 64
REMARK SMILES IDX 38 65 39 66 40 67 41 68 64 69 65 70 73 71 66 72 72 73 67 74
REMARK SMILES IDX 68 75 69 76 70 77 71 78 50 79 51 80 59 81 52 82 58 83 53 84
REMARK SMILES IDX 54 85 55 86 56 87 57 88
REMARK H PARENT 78 44 48 55
REMARK Flexibility Score: inf
ROOT
ATOM      1  C   UNL A   1      36.288  20.746  25.130  1.00  0.00     0.274 C 
ENDROOT
BRANCH   1   2
ATOM      2  O   UNL A   1      35.401  21.602  25.877  1.00  0.00    -0.462 OA
BRANCH   2   3
ATOM      3  C   UNL A   1      34.171  21.801  25.340  1.00  0.00     0.311 C 
ATOM      4  O   UNL A   1      33.123  21.449  25.871  1.00  0.00    -0.252 OA
BRANCH   3   5
ATOM      5  C   UNL A   1      34.200  22.517  24.003  1.00  0.00     0.123 C 
ATOM      6  N   UNL A   1      33.451  24.655  23.293  1.00  0.00    -0.336 N 
ATOM      7  C   UNL A   1      32.303  23.773  23.222  1.00  0.00     0.121 C 
ATOM      8  C   UNL A   1      34.508  24.029  24.095  1.00  0.00     0.096 C 
ATOM      9  C   UNL A   1      32.941  22.401  23.133  1.00  0.00     0.039 C 
ATOM     10  C   UNL A   1      34.497  24.594  25.519  1.00  0.00     0.032 C 
BRANCH   6  11
ATOM     11  C   UNL A   1      33.485  25.820  22.553  1.00  0.00     0.263 C 
ATOM     12  O   UNL A   1      33.628  25.778  21.324  1.00  0.00    -0.271 OA
BRANCH  11  13
ATOM     13  C   UNL A   1      33.398  27.197  23.246  1.00  0.00     0.259 C 
ATOM     14  C   UNL A   1      33.920  28.345  22.394  1.00  0.00     0.064 C 
BRANCH  13  15
ATOM     15  O   UNL A   1      32.048  27.440  23.667  1.00  0.00    -0.479 OA
BRANCH  15  16
ATOM     16  C   UNL A   1      31.981  28.067  24.884  1.00  0.00     0.139 A 
ATOM     17  C   UNL A   1      32.402  29.395  25.000  1.00  0.00     0.048 A 
ATOM     18  C   UNL A   1      31.566  27.364  26.020  1.00  0.00     0.083 A 
ATOM     19  C   UNL A   1      32.345  30.038  26.237  1.00  0.00     0.004 A 
ATOM     20  C   UNL A   1      31.504  28.012  27.256  1.00  0.00     0.024 A 
ATOM     21  Cl  UNL A   1      31.112  25.702  25.935  1.00  0.00    -0.080 Cl
ATOM     22  C   UNL A   1      31.887  29.351  27.361  1.00  0.00     0.002 A 
ENDBRANCH  15  16
ENDBRANCH  13  15
ENDBRANCH  11  13
ENDBRANCH   6  11
ENDBRANCH   3   5
ENDBRANCH   2   3
ENDBRANCH   1   2
BRANCH   1  23
ATOM     23  C   UNL A   1      37.614  21.437  24.785  1.00  0.00     0.275 C 
BRANCH  23  24
ATOM     24  O   UNL A   1      38.045  22.353  25.810  1.00  0.00    -0.458 OA
BRANCH  24  25
ATOM     25  C   UNL A   1      39.302  22.144  26.270  1.00  0.00     0.338 C 
ATOM     26  O   UNL A   1      39.983  21.146  26.102  1.00  0.00    -0.246 OA
BRANCH  25  27
ATOM     27  C   UNL A   1      39.833  23.372  26.889  1.00  0.00     0.060 A 
ATOM     28  C   UNL A   1      39.431  24.592  26.338  1.00  0.00     0.016 A 
ATOM     29  C   UNL A   1      40.769  23.345  27.924  1.00  0.00     0.016 A 
ATOM     30  C   UNL A   1      39.963  25.787  26.801  1.00  0.00     0.010 A 
ATOM     31  C   UNL A   1      41.308  24.551  28.392  1.00  0.00     0.010 A 
ATOM     32  C   UNL A   1      40.916  25.777  27.824  1.00  0.00    -0.014 A 
BRANCH  32  33
ATOM     33  C   UNL A   1      41.531  27.060  28.233  1.00  0.00     0.031 A 
ATOM     34  C   UNL A   1      43.008  27.271  28.057  1.00  0.00     0.074 A 
ATOM     35  C   UNL A   1      40.750  28.061  28.680  1.00  0.00     0.049 A 
ATOM     36  N   UNL A   1      43.734  28.314  28.364  1.00  0.00    -0.248 NA
ATOM     37  C   UNL A   1      43.766  26.165  27.450  1.00  0.00     0.031 C 
ATOM     38  C   UNL A   1      39.294  27.997  28.823  1.00  0.00     0.029 A 
ATOM     39  N   UNL A   1      41.069  29.334  29.078  1.00  0.00    -0.354 N 
ATOM     40  C   UNL A   1      45.037  27.986  28.008  1.00  0.00     0.074 A 
ATOM     41  C   UNL A   1      45.003  26.641  27.473  1.00  0.00     0.031 C 
ATOM     42  C   UNL A   1      38.844  29.185  29.259  1.00  0.00     0.029 A 
ATOM     43  C   UNL A   1      39.981  30.076  29.471  1.00  0.00     0.049 A 
ATOM     44  H   UNL A   1      41.989  29.683  29.081  1.00  0.00     0.167 HD
ATOM     45  C   UNL A   1      46.158  28.737  28.119  1.00  0.00     0.031 A 
ATOM     46  C   UNL A   1      39.910  31.327  29.966  1.00  0.00     0.031 A 
ATOM     47  C   UNL A   1      46.185  30.075  28.650  1.00  0.00     0.049 A 
ATOM     48  C   UNL A   1      41.177  32.116  30.139  1.00  0.00     0.074 A 
ATOM     49  C   UNL A   1      47.272  30.915  28.817  1.00  0.00     0.029 A 
ATOM     50  N   UNL A   1      45.071  30.770  29.096  1.00  0.00    -0.354 N 
ATOM     51  N   UNL A   1      42.407  31.778  29.831  1.00  0.00    -0.248 NA
ATOM     52  C   UNL A   1      41.048  33.454  30.732  1.00  0.00     0.031 C 
ATOM     53  C   UNL A   1      46.820  32.104  29.402  1.00  0.00     0.029 A 
ATOM     54  C   UNL A   1      45.445  32.021  29.555  1.00  0.00     0.049 A 
ATOM     55  H   UNL A   1      44.149  30.425  29.085  1.00  0.00     0.167 HD
ATOM     56  C   UNL A   1      43.197  32.865  30.184  1.00  0.00     0.074 A 
ATOM     57  C   UNL A   1      42.305  33.879  30.709  1.00  0.00     0.031 C 
ATOM     58  C   UNL A   1      44.542  33.011  30.086  1.00  0.00     0.031 A 
BRANCH  45  59
ATOM     59  C   UNL A   1      47.457  28.105  27.699  1.00  0.00    -0.014 A 
ATOM     60  C   UNL A   1      48.264  27.411  28.618  1.00  0.00     0.010 A 
ATOM     61  C   UNL A   1      47.867  28.193  26.355  1.00  0.00     0.010 A 
ATOM     62  C   UNL A   1      49.477  26.851  28.209  1.00  0.00     0.020 A 
ATOM     63  C   UNL A   1      49.069  27.616  25.939  1.00  0.00     0.020 A 
ATOM     64  C   UNL A   1      49.877  26.964  26.873  1.00  0.00     0.054 A 
BRANCH  64  65
ATOM     65  S   UNL A   1      51.452  26.223  26.363  1.00  0.00     0.124 S 
ATOM     66  O   UNL A   1      52.418  27.041  27.093  1.00  0.00    -0.237 OA
ATOM     67  O   UNL A   1      51.325  24.843  26.824  1.00  0.00    -0.237 OA
ATOM     68  O   UNL A   1      51.462  26.394  24.912  1.00  0.00    -0.744 OA
ENDBRANCH  64  65
ENDBRANCH  45  59
BRANCH  46  69
ATOM     69  C   UNL A   1      38.594  31.891  30.365  1.00  0.00    -0.014 A 
ATOM     70  C   UNL A   1      38.010  31.555  31.598  1.00  0.00     0.010 A 
ATOM     71  C   UNL A   1      37.923  32.788  29.512  1.00  0.00     0.010 A 
ATOM     72  C   UNL A   1      36.776  32.097  31.968  1.00  0.00     0.020 A 
ATOM     73  C   UNL A   1      36.701  33.352  29.889  1.00  0.00     0.020 A 
ATOM     74  C   UNL A   1      36.130  32.993  31.111  1.00  0.00     0.054 A 
BRANCH  74  75
ATOM     75  S   UNL A   1      34.558  33.736  31.633  1.00  0.00     0.124 S 
ATOM     76  O   UNL A   1      33.854  33.879  30.362  1.00  0.00    -0.237 OA
ATOM     77  O   UNL A   1      34.018  32.732  32.546  1.00  0.00    -0.237 OA
ATOM     78  O   UNL A   1      34.967  34.987  32.268  1.00  0.00    -0.744 OA
ENDBRANCH  74  75
ENDBRANCH  46  69
BRANCH  58  79
ATOM     79  C   UNL A   1      45.123  34.321  30.543  1.00  0.00    -0.014 A 
ATOM     80  C   UNL A   1      45.246  35.405  29.657  1.00  0.00     0.010 A 
ATOM     81  C   UNL A   1      45.519  34.477  31.884  1.00  0.00     0.010 A 
ATOM     82  C   UNL A   1      45.789  36.616  30.097  1.00  0.00     0.020 A 
ATOM     83  C   UNL A   1      46.042  35.692  32.332  1.00  0.00     0.020 A 
ATOM     84  C   UNL A   1      46.188  36.749  31.430  1.00  0.00     0.054 A 
BRANCH  84  85
ATOM     85  S   UNL A   1      46.864  38.337  31.987  1.00  0.00     0.124 S 
ATOM     86  O   UNL A   1      46.573  39.207  30.852  1.00  0.00    -0.237 OA
ATOM     87  O   UNL A   1      46.096  38.608  33.201  1.00  0.00    -0.237 OA
ATOM     88  O   UNL A   1      48.280  38.052  32.207  1.00  0.00    -0.744 OA
ENDBRANCH  84  85
ENDBRANCH  58  79
ENDBRANCH  32  33
ENDBRANCH  25  27
ENDBRANCH  24  25
ENDBRANCH  23  24
ENDBRANCH   1  23
TORSDOF 18
ENDMDL
MODEL 2
REMARK VINA RESULT:     -10.5      4.334      9.788
REMARK SMILES C[C@@H](Oc1ccccc1Cl)C(=O)N1CC[C@H](C(=O)OCCOC(=O)c2ccc(-c3c4nc(c(-c5ccc(S(=O)(=O)[O-])cc5)c5ccc([nH]5)c(-c5ccc(S(=O)(=O)[O-])cc5)c5nc(c(-c6ccc(S(=O)(=O)[O-])cc6)c6ccc3[nH]6)C=C5)C=C4)cc2)[C@@H]1C
REMARK SMILES IDX 20 1 19 2 17 3 18 4 16 5 13 6 14 7 85 8 15 9 86 10 11 11
REMARK SMILES IDX 12 12 2 13 1 14 3 15 4 16 5 17 9 18 6 19 8 20 10 21 7 22
REMARK SMILES IDX 21 23 22 24 23 25 24 26 25 27 26 28 84 29 27 30 83 31 28 32
REMARK SMILES IDX 29 33 30 34 77 35 31 36 82 37 76 38 78 39 32 40 81 41 75 42
REMARK SMILES IDX 74 43 33 45 63 46 44 47 62 48 45 49 48 50 61 51 79 52 46 53
REMARK SMILES IDX 47 54 60 56 80 57 49 58 34 59 35 60 43 61 36 62 42 63 37 64
REMARK SMILES IDX 38 65 39 66 40 67 41 68 64 69 65 70 73 71 66 72 72 73 67 74
REMARK SMILES IDX 68 75 69 76 70 77 71 78 50 79 51 80 59 81 52 82 58 83 53 84
REMARK SMILES IDX 54 85 55 86 56 87 57 88
REMARK H PARENT 78 44 48 55
REMARK Flexibility Score: inf
ROOT
ATOM      1  C   UNL A   1      31.547  30.463  25.823  1.00  0.00     0.274 C 
ENDROOT
BRANCH   1   2
ATOM      2  O   UNL A   1      31.133  29.266  25.135  1.00  0.00    -0.462 OA
BRANCH   2   3
ATOM      3  C   UNL A   1      30.698  29.431  23.860  1.00  0.00     0.311 C 
ATOM      4  O   UNL A   1      29.698  30.072  23.551  1.00  0.00    -0.252 OA
BRANCH   3   5
ATOM      5  C   UNL A   1      31.573  28.749  22.826  1.00  0.00     0.123 C 
ATOM      6  N   UNL A   1      32.588  26.605  22.723  1.00  0.00    -0.336 N 
ATOM      7  C   UNL A   1      33.489  27.450  23.480  1.00  0.00     0.121 C 
ATOM      8  C   UNL A   1      31.272  27.246  22.626  1.00  0.00     0.096 C 
ATOM      9  C   UNL A   1      33.090  28.844  23.039  1.00  0.00     0.039 C 
ATOM     10  C   UNL A   1      30.313  26.647  23.660  1.00  0.00     0.032 C 
BRANCH   6  11
ATOM     11  C   UNL A   1      33.053  25.460  22.109  1.00  0.00     0.263 C 
ATOM     12  O   UNL A   1      33.448  25.495  20.935  1.00  0.00    -0.271 OA
BRANCH  11  13
ATOM     13  C   UNL A   1      33.041  24.106  22.850  1.00  0.00     0.259 C 
ATOM     14  C   UNL A   1      33.131  22.901  21.926  1.00  0.00     0.064 C 
BRANCH  13  15
ATOM     15  O   UNL A   1      34.089  24.085  23.830  1.00  0.00    -0.479 OA
BRANCH  15  16
ATOM     16  C   UNL A   1      33.677  23.565  25.030  1.00  0.00     0.139 A 
ATOM     17  C   UNL A   1      32.649  24.193  25.737  1.00  0.00     0.048 A 
ATOM     18  C   UNL A   1      34.329  22.458  25.583  1.00  0.00     0.083 A 
ATOM     19  C   UNL A   1      32.228  23.675  26.964  1.00  0.00     0.004 A 
ATOM     20  C   UNL A   1      33.904  21.938  26.806  1.00  0.00     0.024 A 
ATOM     21  Cl  UNL A   1      35.655  21.700  24.779  1.00  0.00    -0.080 Cl
ATOM     22  C   UNL A   1      32.848  22.543  27.492  1.00  0.00     0.002 A 
ENDBRANCH  15  16
ENDBRANCH  13  15
ENDBRANCH  11  13
ENDBRANCH   6  11
ENDBRANCH   3   5
ENDBRANCH   2   3
ENDBRANCH   1   2
BRANCH   1  23
ATOM     23  C   UNL A   1      32.411  30.158  27.054  1.00  0.00     0.275 C 
BRANCH  23  24
ATOM     24  O   UNL A   1      33.800  30.482  26.850  1.00  0.00    -0.458 OA
BRANCH  24  25
ATOM     25  C   UNL A   1      34.294  31.429  27.684  1.00  0.00     0.338 C 
ATOM     26  O   UNL A   1      33.702  32.408  28.108  1.00  0.00    -0.246 OA
BRANCH  25  27
ATOM     27  C   UNL A   1      35.633  31.042  28.165  1.00  0.00     0.060 A 
ATOM     28  C   UNL A   1      35.778  29.753  28.685  1.00  0.00     0.016 A 
ATOM     29  C   UNL A   1      36.705  31.935  28.194  1.00  0.00     0.016 A 
ATOM     30  C   UNL A   1      36.981  29.348  29.246  1.00  0.00     0.010 A 
ATOM     31  C   UNL A   1      37.920  31.527  28.760  1.00  0.00     0.010 A 
ATOM     32  C   UNL A   1      38.060  30.236  29.301  1.00  0.00    -0.014 A 
BRANCH  32  33
ATOM     33  C   UNL A   1      39.299  29.804  29.987  1.00  0.00     0.031 A 
ATOM     34  C   UNL A   1      39.717  30.473  31.266  1.00  0.00     0.074 A 
ATOM     35  C   UNL A   1      39.997  28.759  29.507  1.00  0.00     0.049 A 
ATOM     36  N   UNL A   1      40.770  30.249  32.007  1.00  0.00    -0.248 NA
ATOM     37  C   UNL A   1      38.830  31.529  31.781  1.00  0.00     0.031 C 
ATOM     38  C   UNL A   1      39.646  27.985  28.314  1.00  0.00     0.029 A 
ATOM     39  N   UNL A   1      41.136  28.155  29.974  1.00  0.00    -0.354 N 
ATOM     40  C   UNL A   1      40.686  31.146  33.065  1.00  0.00     0.074 A 
ATOM     41  C   UNL A   1      39.484  31.927  32.862  1.00  0.00     0.031 C 
ATOM     42  C   UNL A   1      40.541  26.997  28.155  1.00  0.00     0.029 A 
ATOM     43  C   UNL A   1      41.553  27.097  29.202  1.00  0.00     0.049 A 
ATOM     44  H   UNL A   1      41.610  28.451  30.785  1.00  0.00     0.167 HD
ATOM     45  C   UNL A   1      41.535  31.305  34.108  1.00  0.00     0.031 A 
ATOM     46  C   UNL A   1      42.640  26.308  29.316  1.00  0.00     0.031 A 
ATOM     47  C   UNL A   1      42.728  30.524  34.306  1.00  0.00     0.049 A 
ATOM     48  C   UNL A   1      43.600  26.547  30.447  1.00  0.00     0.074 A 
ATOM     49  C   UNL A   1      43.661  30.617  35.323  1.00  0.00     0.029 A 
ATOM     50  N   UNL A   1      43.149  29.502  33.468  1.00  0.00    -0.354 N 
ATOM     51  N   UNL A   1      43.525  27.425  31.420  1.00  0.00    -0.248 NA
ATOM     52  C   UNL A   1      44.795  25.695  30.492  1.00  0.00     0.031 C 
ATOM     53  C   UNL A   1      44.669  29.677  35.078  1.00  0.00     0.029 A 
ATOM     54  C   UNL A   1      44.339  28.968  33.934  1.00  0.00     0.049 A 
ATOM     55  H   UNL A   1      42.673  29.200  32.661  1.00  0.00     0.167 HD
ATOM     56  C   UNL A   1      44.658  27.222  32.199  1.00  0.00     0.074 A 
ATOM     57  C   UNL A   1      45.390  26.127  31.596  1.00  0.00     0.031 C 
ATOM     58  C   UNL A   1      45.058  27.886  33.312  1.00  0.00     0.031 A 
BRANCH  45  59
ATOM     59  C   UNL A   1      41.222  32.400  35.091  1.00  0.00    -0.014 A 
ATOM     60  C   UNL A   1      41.723  33.703  34.918  1.00  0.00     0.010 A 
ATOM     61  C   UNL A   1      40.399  32.123  36.198  1.00  0.00     0.010 A 
ATOM     62  C   UNL A   1      41.437  34.699  35.857  1.00  0.00     0.020 A 
ATOM     63  C   UNL A   1      40.094  33.120  37.127  1.00  0.00     0.020 A 
ATOM     64  C   UNL A   1      40.631  34.399  36.961  1.00  0.00     0.054 A 
BRANCH  64  65
ATOM     65  S   UNL A   1      40.268  35.709  38.162  1.00  0.00     0.124 S 
ATOM     66  O   UNL A   1      39.551  34.972  39.200  1.00  0.00    -0.237 OA
ATOM     67  O   UNL A   1      41.598  36.184  38.535  1.00  0.00    -0.237 OA
ATOM     68  O   UNL A   1      39.460  36.660  37.403  1.00  0.00    -0.744 OA
ENDBRANCH  64  65
ENDBRANCH  45  59
BRANCH  46  69
ATOM     69  C   UNL A   1      42.892  25.245  28.307  1.00  0.00    -0.014 A 
ATOM     70  C   UNL A   1      43.692  25.497  27.181  1.00  0.00     0.010 A 
ATOM     71  C   UNL A   1      42.339  23.962  28.482  1.00  0.00     0.010 A 
ATOM     72  C   UNL A   1      43.929  24.488  26.242  1.00  0.00     0.020 A 
ATOM     73  C   UNL A   1      42.594  22.944  27.560  1.00  0.00     0.020 A 
ATOM     74  C   UNL A   1      43.379  23.218  26.438  1.00  0.00     0.054 A 
BRANCH  74  75
ATOM     75  S   UNL A   1      43.747  21.903  25.242  1.00  0.00     0.124 S 
ATOM     76  O   UNL A   1      43.601  22.601  23.969  1.00  0.00    -0.237 OA
ATOM     77  O   UNL A   1      45.110  21.517  25.600  1.00  0.00    -0.237 OA
ATOM     78  O   UNL A   1      42.730  20.892  25.524  1.00  0.00    -0.744 OA
ENDBRANCH  74  75
ENDBRANCH  46  69
BRANCH  58  79
ATOM     79  C   UNL A   1      46.340  27.431  33.955  1.00  0.00    -0.014 A 
ATOM     80  C   UNL A   1      46.357  26.337  34.838  1.00  0.00     0.010 A 
ATOM     81  C   UNL A   1      47.545  28.086  33.645  1.00  0.00     0.010 A 
ATOM     82  C   UNL A   1      47.555  25.928  35.429  1.00  0.00     0.020 A 
ATOM     83  C   UNL A   1      48.748  27.665  34.216  1.00  0.00     0.020 A 
ATOM     84  C   UNL A   1      48.742  26.598  35.118  1.00  0.00     0.054 A 
BRANCH  84  85
ATOM     85  S   UNL A   1      50.291  26.032  35.873  1.00  0.00     0.124 S 
ATOM     86  O   UNL A   1      50.682  27.192  36.670  1.00  0.00    -0.237 OA
ATOM     87  O   UNL A   1      49.871  24.858  36.634  1.00  0.00    -0.237 OA
ATOM     88  O   UNL A   1      51.150  25.747  34.726  1.00  0.00    -0.744 OA
ENDBRANCH  84  85
ENDBRANCH  58  79
ENDBRANCH  32  33
ENDBRANCH  25  27
ENDBRANCH  24  25
ENDBRANCH  23  24
ENDBRANCH   1  23
TORSDOF 18
ENDMDL
MODEL 3
REMARK VINA RESULT:     -10.4      5.442      9.941
REMARK SMILES C[C@@H](Oc1ccccc1Cl)C(=O)N1CC[C@H](C(=O)OCCOC(=O)c2ccc(-c3c4nc(c(-c5ccc(S(=O)(=O)[O-])cc5)c5ccc([nH]5)c(-c5ccc(S(=O)(=O)[O-])cc5)c5nc(c(-c6ccc(S(=O)(=O)[O-])cc6)c6ccc3[nH]6)C=C5)C=C4)cc2)[C@@H]1C
REMARK SMILES IDX 20 1 19 2 17 3 18 4 16 5 13 6 14 7 85 8 15 9 86 10 11 11
REMARK SMILES IDX 12 12 2 13 1 14 3 15 4 16 5 17 9 18 6 19 8 20 10 21 7 22
REMARK SMILES IDX 21 23 22 24 23 25 24 26 25 27 26 28 84 29 27 30 83 31 28 32
REMARK SMILES IDX 29 33 30 34 77 35 31 36 82 37 76 38 78 39 32 40 81 41 75 42
REMARK SMILES IDX 74 43 33 45 63 46 44 47 62 48 45 49 48 50 61 51 79 52 46 53
REMARK SMILES IDX 47 54 60 56 80 57 49 58 34 59 35 60 43 61 36 62 42 63 37 64
REMARK SMILES IDX 38 65 39 66 40 67 41 68 64 69 65 70 73 71 66 72 72 73 67 74
REMARK SMILES IDX 68 75 69 76 70 77 71 78 50 79 51 80 59 81 52 82 58 83 53 84
REMARK SMILES IDX 54 85 55 86 56 87 57 88
REMARK H PARENT 78 44 48 55
REMARK Flexibility Score: inf
ROOT
ATOM      1  C   UNL A   1      39.528  22.561  26.872  1.00  0.00     0.274 C 
ENDROOT
BRANCH   1   2
ATOM      2  O   UNL A   1      38.274  22.697  26.175  1.00  0.00    -0.462 OA
BRANCH   2   3
ATOM      3  C   UNL A   1      37.800  21.576  25.573  1.00  0.00     0.311 C 
ATOM      4  O   UNL A   1      38.507  20.652  25.185  1.00  0.00    -0.252 OA
BRANCH   3   5
ATOM      5  C   UNL A   1      36.291  21.559  25.424  1.00  0.00     0.123 C 
ATOM      6  N   UNL A   1      34.744  23.056  24.425  1.00  0.00    -0.336 N 
ATOM      7  C   UNL A   1      34.983  23.548  25.766  1.00  0.00     0.121 C 
ATOM      8  C   UNL A   1      35.777  22.080  24.063  1.00  0.00     0.096 C 
ATOM      9  C   UNL A   1      35.486  22.316  26.490  1.00  0.00     0.039 C 
ATOM     10  C   UNL A   1      36.849  22.742  23.191  1.00  0.00     0.032 C 
BRANCH   6  11
ATOM     11  C   UNL A   1      33.599  23.414  23.742  1.00  0.00     0.263 C 
ATOM     12  O   UNL A   1      33.592  24.413  23.010  1.00  0.00    -0.271 OA
BRANCH  11  13
ATOM     13  C   UNL A   1      32.292  22.611  23.918  1.00  0.00     0.259 C 
ATOM     14  C   UNL A   1      31.032  23.445  23.740  1.00  0.00     0.064 C 
BRANCH  13  15
ATOM     15  O   UNL A   1      32.295  21.486  23.027  1.00  0.00    -0.479 OA
BRANCH  15  16
ATOM     16  C   UNL A   1      32.413  20.291  23.690  1.00  0.00     0.139 A 
ATOM     17  C   UNL A   1      32.636  20.286  25.069  1.00  0.00     0.048 A 
ATOM     18  C   UNL A   1      32.386  19.084  22.982  1.00  0.00     0.083 A 
ATOM     19  C   UNL A   1      32.766  19.075  25.750  1.00  0.00     0.004 A 
ATOM     20  C   UNL A   1      32.510  17.874  23.666  1.00  0.00     0.024 A 
ATOM     21  Cl  UNL A   1      32.191  19.050  21.268  1.00  0.00    -0.080 Cl
ATOM     22  C   UNL A   1      32.692  17.870  25.051  1.00  0.00     0.002 A 
ENDBRANCH  15  16
ENDBRANCH  13  15
ENDBRANCH  11  13
ENDBRANCH   6  11
ENDBRANCH   3   5
ENDBRANCH   2   3
ENDBRANCH   1   2
BRANCH   1  23
ATOM     23  C   UNL A   1      40.593  23.537  26.354  1.00  0.00     0.275 C 
BRANCH  23  24
ATOM     24  O   UNL A   1      40.090  24.879  26.208  1.00  0.00    -0.458 OA
BRANCH  24  25
ATOM     25  C   UNL A   1      41.043  25.836  26.092  1.00  0.00     0.338 C 
ATOM     26  O   UNL A   1      41.683  26.109  25.089  1.00  0.00    -0.246 OA
BRANCH  25  27
ATOM     27  C   UNL A   1      41.111  26.645  27.322  1.00  0.00     0.060 A 
ATOM     28  C   UNL A   1      40.199  26.344  28.337  1.00  0.00     0.016 A 
ATOM     29  C   UNL A   1      41.979  27.730  27.457  1.00  0.00     0.016 A 
ATOM     30  C   UNL A   1      40.135  27.122  29.484  1.00  0.00     0.010 A 
ATOM     31  C   UNL A   1      41.915  28.517  28.615  1.00  0.00     0.010 A 
ATOM     32  C   UNL A   1      40.984  28.225  29.628  1.00  0.00    -0.014 A 
BRANCH  32  33
ATOM     33  C   UNL A   1      40.829  29.088  30.821  1.00  0.00     0.031 A 
ATOM     34  C   UNL A   1      39.741  30.125  30.857  1.00  0.00     0.074 A 
ATOM     35  C   UNL A   1      41.606  28.881  31.899  1.00  0.00     0.049 A 
ATOM     36  N   UNL A   1      39.452  30.983  31.799  1.00  0.00    -0.248 NA
ATOM     37  C   UNL A   1      38.862  30.202  29.679  1.00  0.00     0.031 C 
ATOM     38  C   UNL A   1      42.645  27.854  32.008  1.00  0.00     0.029 A 
ATOM     39  N   UNL A   1      41.630  29.510  33.118  1.00  0.00    -0.354 N 
ATOM     40  C   UNL A   1      38.371  31.716  31.324  1.00  0.00     0.074 A 
ATOM     41  C   UNL A   1      38.065  31.210  30.003  1.00  0.00     0.031 C 
ATOM     42  C   UNL A   1      43.191  27.912  33.233  1.00  0.00     0.029 A 
ATOM     43  C   UNL A   1      42.578  29.007  33.977  1.00  0.00     0.049 A 
ATOM     44  H   UNL A   1      41.027  30.251  33.354  1.00  0.00     0.167 HD
ATOM     45  C   UNL A   1      37.698  32.721  31.933  1.00  0.00     0.031 A 
ATOM     46  C   UNL A   1      42.925  29.398  35.219  1.00  0.00     0.031 A 
ATOM     47  C   UNL A   1      38.006  33.219  33.249  1.00  0.00     0.049 A 
ATOM     48  C   UNL A   1      42.205  30.558  35.848  1.00  0.00     0.074 A 
ATOM     49  C   UNL A   1      37.392  34.242  33.949  1.00  0.00     0.029 A 
ATOM     50  N   UNL A   1      39.013  32.724  34.064  1.00  0.00    -0.354 N 
ATOM     51  N   UNL A   1      41.208  31.266  35.370  1.00  0.00    -0.248 NA
ATOM     52  C   UNL A   1      42.660  30.977  37.180  1.00  0.00     0.031 C 
ATOM     53  C   UNL A   1      38.055  34.394  35.172  1.00  0.00     0.029 A 
ATOM     54  C   UNL A   1      39.051  33.434  35.252  1.00  0.00     0.049 A 
ATOM     55  H   UNL A   1      39.612  31.979  33.832  1.00  0.00     0.167 HD
ATOM     56  C   UNL A   1      40.910  32.206  36.348  1.00  0.00     0.074 A 
ATOM     57  C   UNL A   1      41.818  31.965  37.451  1.00  0.00     0.031 C 
ATOM     58  C   UNL A   1      39.972  33.185  36.333  1.00  0.00     0.031 A 
BRANCH  45  59
ATOM     59  C   UNL A   1      36.589  33.378  31.158  1.00  0.00    -0.014 A 
ATOM     60  C   UNL A   1      36.827  33.978  29.908  1.00  0.00     0.010 A 
ATOM     61  C   UNL A   1      35.284  33.381  31.683  1.00  0.00     0.010 A 
ATOM     62  C   UNL A   1      35.785  34.602  29.216  1.00  0.00     0.020 A 
ATOM     63  C   UNL A   1      34.236  33.985  30.985  1.00  0.00     0.020 A 
ATOM     64  C   UNL A   1      34.497  34.610  29.763  1.00  0.00     0.054 A 
BRANCH  64  65
ATOM     65  S   UNL A   1      33.160  35.420  28.843  1.00  0.00     0.124 S 
ATOM     66  O   UNL A   1      33.897  36.380  28.025  1.00  0.00    -0.237 OA
ATOM     67  O   UNL A   1      32.550  34.311  28.114  1.00  0.00    -0.237 OA
ATOM     68  O   UNL A   1      32.326  36.006  29.891  1.00  0.00    -0.744 OA
ENDBRANCH  64  65
ENDBRANCH  45  59
BRANCH  46  69
ATOM     69  C   UNL A   1      44.033  28.707  35.930  1.00  0.00    -0.014 A 
ATOM     70  C   UNL A   1      45.359  29.156  35.806  1.00  0.00     0.010 A 
ATOM     71  C   UNL A   1      43.760  27.598  36.752  1.00  0.00     0.010 A 
ATOM     72  C   UNL A   1      46.392  28.504  36.485  1.00  0.00     0.020 A 
ATOM     73  C   UNL A   1      44.786  26.959  37.452  1.00  0.00     0.020 A 
ATOM     74  C   UNL A   1      46.099  27.410  37.304  1.00  0.00     0.054 A 
BRANCH  74  75
ATOM     75  S   UNL A   1      47.444  26.613  38.227  1.00  0.00     0.124 S 
ATOM     76  O   UNL A   1      48.539  27.561  38.046  1.00  0.00    -0.237 OA
ATOM     77  O   UNL A   1      46.898  26.527  39.579  1.00  0.00    -0.237 OA
ATOM     78  O   UNL A   1      47.608  25.328  37.549  1.00  0.00    -0.744 OA
ENDBRANCH  74  75
ENDBRANCH  46  69
BRANCH  58  79
ATOM     79  C   UNL A   1      39.873  34.056  37.556  1.00  0.00    -0.014 A 
ATOM     80  C   UNL A   1      40.571  35.274  37.633  1.00  0.00     0.010 A 
ATOM     81  C   UNL A   1      39.047  33.666  38.625  1.00  0.00     0.010 A 
ATOM     82  C   UNL A   1      40.471  36.072  38.776  1.00  0.00     0.020 A 
ATOM     83  C   UNL A   1      38.928  34.472  39.759  1.00  0.00     0.020 A 
ATOM     84  C   UNL A   1      39.654  35.663  39.834  1.00  0.00     0.054 A 
BRANCH  84  85
ATOM     85  S   UNL A   1      39.515  36.726  41.296  1.00  0.00     0.124 S 
ATOM     86  O   UNL A   1      38.967  37.954  40.728  1.00  0.00    -0.237 OA
ATOM     87  O   UNL A   1      38.608  35.973  42.160  1.00  0.00    -0.237 OA
ATOM     88  O   UNL A   1      40.889  36.824  41.784  1.00  0.00    -0.744 OA
ENDBRANCH  84  85
ENDBRANCH  58  79
ENDBRANCH  32  33
ENDBRANCH  25  27
ENDBRANCH  24  25
ENDBRANCH  23  24
ENDBRANCH   1  23
TORSDOF 18
ENDMDL
