MODEL 1
REMARK VINA RESULT:      -9.0      0.000      0.000
REMARK SMILES [NH3+][C@@H](Cc1ccc(F)cc1C(F)(F)F)C(=O)OCCOC(=O)c1ccc(-c2c3nc(c(-c4ccc(S(=O)(=O)[O-])cc4)c4ccc([nH]4)c(-c4ccc(S(=O)(=O)[O-])cc4)c4nc(c(-c5ccc(S(=O)(=O)[O-])cc5)c5ccc2[nH]5)C=C4)C=C3)cc1
REMARK SMILES IDX 18 1 17 2 15 3 16 4 2 5 1 6 3 10 4 11 5 12 10 13 6 14 9 15
REMARK SMILES IDX 7 16 8 17 11 18 12 19 13 20 14 21 19 22 20 23 21 24 22 25
REMARK SMILES IDX 23 26 24 27 82 28 25 29 81 30 26 31 27 32 28 33 75 34 29 35
REMARK SMILES IDX 80 36 74 37 76 38 30 39 79 40 73 41 72 42 31 44 61 45 42 46
REMARK SMILES IDX 60 47 43 48 46 49 59 50 77 51 44 52 45 53 58 55 78 56 47 57
REMARK SMILES IDX 32 58 33 59 41 60 34 61 40 62 35 63 36 64 37 65 38 66 39 67
REMARK SMILES IDX 62 68 63 69 71 70 64 71 70 72 65 73 66 74 67 75 68 76 69 77
REMARK SMILES IDX 48 78 49 79 57 80 50 81 56 82 51 83 52 84 53 85 54 86 55 87
REMARK H PARENT 1 7 1 8 1 9 76 43 46 54
REMARK Flexibility Score: inf
ROOT
ATOM      1  C   UNL A   1      33.071  34.227  28.093  1.00  0.00     0.274 C 
ENDROOT
BRANCH   1   2
ATOM      2  O   UNL A   1      32.744  34.266  29.493  1.00  0.00    -0.458 OA
BRANCH   2   3
ATOM      3  C   UNL A   1      33.191  35.353  30.189  1.00  0.00     0.365 C 
ATOM      4  O   UNL A   1      33.138  36.511  29.795  1.00  0.00    -0.245 OA
BRANCH   3   5
ATOM      5  C   UNL A   1      33.854  34.946  31.517  1.00  0.00     0.296 C 
BRANCH   5   6
ATOM      6  N   UNL A   1      32.868  34.847  32.613  1.00  0.00    -0.346 N 
ATOM      7  H   UNL A   1      31.929  34.970  32.236  1.00  0.00     0.345 HD
ATOM      8  H   UNL A   1      33.055  35.573  33.304  1.00  0.00     0.345 HD
ATOM      9  H   UNL A   1      32.941  33.931  33.054  1.00  0.00     0.345 HD
ENDBRANCH   5   6
BRANCH   5  10
ATOM     10  C   UNL A   1      34.740  33.707  31.327  1.00  0.00     0.113 C 
BRANCH  10  11
ATOM     11  C   UNL A   1      36.191  33.994  30.992  1.00  0.00    -0.029 A 
ATOM     12  C   UNL A   1      36.554  33.907  29.628  1.00  0.00     0.007 A 
ATOM     13  C   UNL A   1      37.184  34.302  31.950  1.00  0.00     0.062 A 
ATOM     14  C   UNL A   1      37.869  34.101  29.215  1.00  0.00     0.039 A 
ATOM     15  C   UNL A   1      38.510  34.489  31.507  1.00  0.00     0.052 A 
ATOM     16  C   UNL A   1      38.837  34.388  30.160  1.00  0.00     0.123 A 
ATOM     17  F   UNL A   1      40.106  34.567  29.774  1.00  0.00    -0.207 F 
BRANCH  13  18
ATOM     18  C   UNL A   1      36.959  34.412  33.445  1.00  0.00     0.416 C 
ATOM     19  F   UNL A   1      35.990  35.323  33.741  1.00  0.00    -0.166 F 
ATOM     20  F   UNL A   1      36.538  33.236  33.991  1.00  0.00    -0.166 F 
ATOM     21  F   UNL A   1      38.044  34.783  34.176  1.00  0.00    -0.166 F 
ENDBRANCH  13  18
ENDBRANCH  10  11
ENDBRANCH   5  10
ENDBRANCH   3   5
ENDBRANCH   2   3
ENDBRANCH   1   2
BRANCH   1  22
ATOM     22  C   UNL A   1      33.039  32.782  27.604  1.00  0.00     0.275 C 
BRANCH  22  23
ATOM     23  O   UNL A   1      34.372  32.243  27.630  1.00  0.00    -0.458 OA
BRANCH  23  24
ATOM     24  C   UNL A   1      34.466  30.893  27.544  1.00  0.00     0.338 C 
ATOM     25  O   UNL A   1      33.701  30.124  26.994  1.00  0.00    -0.246 OA
BRANCH  24  26
ATOM     26  C   UNL A   1      35.692  30.479  28.243  1.00  0.00     0.060 A 
ATOM     27  C   UNL A   1      36.931  30.797  27.688  1.00  0.00     0.016 A 
ATOM     28  C   UNL A   1      35.613  29.749  29.427  1.00  0.00     0.016 A 
ATOM     29  C   UNL A   1      38.106  30.398  28.317  1.00  0.00     0.010 A 
ATOM     30  C   UNL A   1      36.793  29.370  30.074  1.00  0.00     0.010 A 
ATOM     31  C   UNL A   1      38.048  29.692  29.525  1.00  0.00    -0.014 A 
BRANCH  31  32
ATOM     32  C   UNL A   1      39.297  29.280  30.209  1.00  0.00     0.031 A 
ATOM     33  C   UNL A   1      39.765  30.022  31.429  1.00  0.00     0.074 A 
ATOM     34  C   UNL A   1      40.017  28.248  29.725  1.00  0.00     0.049 A 
ATOM     35  N   UNL A   1      40.894  29.909  32.080  1.00  0.00    -0.248 NA
ATOM     36  C   UNL A   1      38.843  31.023  31.990  1.00  0.00     0.031 C 
ATOM     37  C   UNL A   1      39.644  27.420  28.575  1.00  0.00     0.029 A 
ATOM     38  N   UNL A   1      41.220  27.727  30.134  1.00  0.00    -0.354 N 
ATOM     39  C   UNL A   1      40.835  30.845  33.104  1.00  0.00     0.074 A 
ATOM     40  C   UNL A   1      39.560  31.519  32.990  1.00  0.00     0.031 C 
ATOM     41  C   UNL A   1      40.599  26.498  28.371  1.00  0.00     0.029 A 
ATOM     42  C   UNL A   1      41.677  26.707  29.332  1.00  0.00     0.049 A 
ATOM     43  H   UNL A   1      41.708  28.051  30.924  1.00  0.00     0.167 HD
ATOM     44  C   UNL A   1      41.765  31.119  34.050  1.00  0.00     0.031 A 
ATOM     45  C   UNL A   1      42.850  26.045  29.340  1.00  0.00     0.031 A 
ATOM     46  C   UNL A   1      43.026  30.433  34.166  1.00  0.00     0.049 A 
ATOM     47  C   UNL A   1      43.892  26.415  30.360  1.00  0.00     0.074 A 
ATOM     48  C   UNL A   1      44.025  30.624  35.105  1.00  0.00     0.029 A 
ATOM     49  N   UNL A   1      43.463  29.429  33.317  1.00  0.00    -0.354 N 
ATOM     50  N   UNL A   1      43.823  27.306  31.321  1.00  0.00    -0.248 NA
ATOM     51  C   UNL A   1      45.173  25.699  30.291  1.00  0.00     0.031 C 
ATOM     52  C   UNL A   1      45.087  29.769  34.794  1.00  0.00     0.029 A 
ATOM     53  C   UNL A   1      44.729  29.011  33.692  1.00  0.00     0.049 A 
ATOM     54  H   UNL A   1      42.950  29.066  32.559  1.00  0.00     0.167 HD
ATOM     55  C   UNL A   1      45.048  27.250  31.975  1.00  0.00     0.074 A 
ATOM     56  C   UNL A   1      45.829  26.222  31.318  1.00  0.00     0.031 C 
ATOM     57  C   UNL A   1      45.492  27.989  33.022  1.00  0.00     0.031 A 
BRANCH  44  58
ATOM     58  C   UNL A   1      41.477  32.233  35.017  1.00  0.00    -0.014 A 
ATOM     59  C   UNL A   1      41.856  33.558  34.740  1.00  0.00     0.010 A 
ATOM     60  C   UNL A   1      40.752  31.958  36.192  1.00  0.00     0.010 A 
ATOM     61  C   UNL A   1      41.530  34.587  35.629  1.00  0.00     0.020 A 
ATOM     62  C   UNL A   1      40.406  32.986  37.073  1.00  0.00     0.020 A 
ATOM     63  C   UNL A   1      40.806  34.294  36.790  1.00  0.00     0.054 A 
BRANCH  63  64
ATOM     64  S   UNL A   1      40.353  35.654  37.902  1.00  0.00     0.124 S 
ATOM     65  O   UNL A   1      41.636  35.983  38.516  1.00  0.00    -0.237 OA
ATOM     66  O   UNL A   1      39.820  36.657  36.983  1.00  0.00    -0.237 OA
ATOM     67  O   UNL A   1      39.369  35.054  38.801  1.00  0.00    -0.744 OA
ENDBRANCH  63  64
ENDBRANCH  44  58
BRANCH  45  68
ATOM     68  C   UNL A   1      43.134  25.012  28.307  1.00  0.00    -0.014 A 
ATOM     69  C   UNL A   1      42.897  23.651  28.564  1.00  0.00     0.010 A 
ATOM     70  C   UNL A   1      43.661  25.389  27.057  1.00  0.00     0.010 A 
ATOM     71  C   UNL A   1      43.202  22.685  27.601  1.00  0.00     0.020 A 
ATOM     72  C   UNL A   1      43.941  24.429  26.081  1.00  0.00     0.020 A 
ATOM     73  C   UNL A   1      43.723  23.080  26.366  1.00  0.00     0.054 A 
BRANCH  73  74
ATOM     74  S   UNL A   1      44.080  21.816  25.114  1.00  0.00     0.124 S 
ATOM     75  O   UNL A   1      43.931  22.568  23.873  1.00  0.00    -0.237 OA
ATOM     76  O   UNL A   1      45.443  21.412  25.449  1.00  0.00    -0.237 OA
ATOM     77  O   UNL A   1      43.060  20.798  25.358  1.00  0.00    -0.744 OA
ENDBRANCH  73  74
ENDBRANCH  45  68
BRANCH  57  78
ATOM     78  C   UNL A   1      46.876  27.699  33.531  1.00  0.00    -0.014 A 
ATOM     79  C   UNL A   1      47.989  28.408  33.045  1.00  0.00     0.010 A 
ATOM     80  C   UNL A   1      47.060  26.739  34.542  1.00  0.00     0.010 A 
ATOM     81  C   UNL A   1      49.267  28.140  33.539  1.00  0.00     0.020 A 
ATOM     82  C   UNL A   1      48.334  26.485  35.057  1.00  0.00     0.020 A 
ATOM     83  C   UNL A   1      49.432  27.179  34.541  1.00  0.00     0.054 A 
BRANCH  83  84
ATOM     84  S   UNL A   1      51.095  26.877  35.199  1.00  0.00     0.124 S 
ATOM     85  O   UNL A   1      51.853  26.581  33.987  1.00  0.00    -0.237 OA
ATOM     86  O   UNL A   1      51.420  28.145  35.849  1.00  0.00    -0.237 OA
ATOM     87  O   UNL A   1      50.908  25.750  36.109  1.00  0.00    -0.744 OA
ENDBRANCH  83  84
ENDBRANCH  57  78
ENDBRANCH  31  32
ENDBRANCH  24  26
ENDBRANCH  23  24
ENDBRANCH  22  23
ENDBRANCH   1  22
TORSDOF 18
ENDMDL
MODEL 2
REMARK VINA RESULT:      -9.0      4.251     11.788
REMARK SMILES [NH3+][C@@H](Cc1ccc(F)cc1C(F)(F)F)C(=O)OCCOC(=O)c1ccc(-c2c3nc(c(-c4ccc(S(=O)(=O)[O-])cc4)c4ccc([nH]4)c(-c4ccc(S(=O)(=O)[O-])cc4)c4nc(c(-c5ccc(S(=O)(=O)[O-])cc5)c5ccc2[nH]5)C=C4)C=C3)cc1
REMARK SMILES IDX 18 1 17 2 15 3 16 4 2 5 1 6 3 10 4 11 5 12 10 13 6 14 9 15
REMARK SMILES IDX 7 16 8 17 11 18 12 19 13 20 14 21 19 22 20 23 21 24 22 25
REMARK SMILES IDX 23 26 24 27 82 28 25 29 81 30 26 31 27 32 28 33 75 34 29 35
REMARK SMILES IDX 80 36 74 37 76 38 30 39 79 40 73 41 72 42 31 44 61 45 42 46
REMARK SMILES IDX 60 47 43 48 46 49 59 50 77 51 44 52 45 53 58 55 78 56 47 57
REMARK SMILES IDX 32 58 33 59 41 60 34 61 40 62 35 63 36 64 37 65 38 66 39 67
REMARK SMILES IDX 62 68 63 69 71 70 64 71 70 72 65 73 66 74 67 75 68 76 69 77
REMARK SMILES IDX 48 78 49 79 57 80 50 81 56 82 51 83 52 84 53 85 54 86 55 87
REMARK H PARENT 1 7 1 8 1 9 76 43 46 54
REMARK Flexibility Score: inf
ROOT
ATOM      1  C   UNL A   1      40.669  20.002  26.302  1.00  0.00     0.274 C 
ENDROOT
BRANCH   1   2
ATOM      2  O   UNL A   1      42.024  19.837  26.755  1.00  0.00    -0.458 OA
BRANCH   2   3
ATOM      3  C   UNL A   1      42.872  19.188  25.903  1.00  0.00     0.365 C 
ATOM      4  O   UNL A   1      42.830  17.992  25.644  1.00  0.00    -0.245 OA
BRANCH   3   5
ATOM      5  C   UNL A   1      43.957  20.130  25.353  1.00  0.00     0.296 C 
BRANCH   5   6
ATOM      6  N   UNL A   1      44.403  19.722  24.005  1.00  0.00    -0.346 N 
ATOM      7  H   UNL A   1      44.755  20.538  23.503  1.00  0.00     0.345 HD
ATOM      8  H   UNL A   1      43.616  19.322  23.494  1.00  0.00     0.345 HD
ATOM      9  H   UNL A   1      45.144  19.028  24.088  1.00  0.00     0.345 HD
ENDBRANCH   5   6
BRANCH   5  10
ATOM     10  C   UNL A   1      43.521  21.597  25.477  1.00  0.00     0.113 C 
BRANCH  10  11
ATOM     11  C   UNL A   1      44.410  22.465  26.346  1.00  0.00    -0.029 A 
ATOM     12  C   UNL A   1      43.992  22.663  27.681  1.00  0.00     0.007 A 
ATOM     13  C   UNL A   1      45.590  23.101  25.893  1.00  0.00     0.062 A 
ATOM     14  C   UNL A   1      44.705  23.482  28.551  1.00  0.00     0.039 A 
ATOM     15  C   UNL A   1      46.292  23.931  26.791  1.00  0.00     0.052 A 
ATOM     16  C   UNL A   1      45.850  24.113  28.096  1.00  0.00     0.123 A 
ATOM     17  F   UNL A   1      46.538  24.911  28.922  1.00  0.00    -0.207 F 
BRANCH  13  18
ATOM     18  C   UNL A   1      46.157  23.005  24.490  1.00  0.00     0.416 C 
ATOM     19  F   UNL A   1      46.787  21.815  24.285  1.00  0.00    -0.166 F 
ATOM     20  F   UNL A   1      45.188  23.080  23.535  1.00  0.00    -0.166 F 
ATOM     21  F   UNL A   1      47.066  23.961  24.159  1.00  0.00    -0.166 F 
ENDBRANCH  13  18
ENDBRANCH  10  11
ENDBRANCH   5  10
ENDBRANCH   3   5
ENDBRANCH   2   3
ENDBRANCH   1   2
BRANCH   1  22
ATOM     22  C   UNL A   1      40.082  21.274  26.907  1.00  0.00     0.275 C 
BRANCH  22  23
ATOM     23  O   UNL A   1      39.899  22.254  25.871  1.00  0.00    -0.458 OA
BRANCH  23  24
ATOM     24  C   UNL A   1      38.842  23.088  26.024  1.00  0.00     0.338 C 
ATOM     25  O   UNL A   1      37.694  22.913  25.664  1.00  0.00    -0.246 OA
BRANCH  24  26
ATOM     26  C   UNL A   1      39.312  24.290  26.729  1.00  0.00     0.060 A 
ATOM     27  C   UNL A   1      40.146  25.186  26.061  1.00  0.00     0.016 A 
ATOM     28  C   UNL A   1      38.954  24.512  28.056  1.00  0.00     0.016 A 
ATOM     29  C   UNL A   1      40.623  26.321  26.710  1.00  0.00     0.010 A 
ATOM     30  C   UNL A   1      39.412  25.665  28.702  1.00  0.00     0.010 A 
ATOM     31  C   UNL A   1      40.249  26.578  28.034  1.00  0.00    -0.014 A 
BRANCH  31  32
ATOM     32  C   UNL A   1      40.740  27.794  28.726  1.00  0.00     0.031 A 
ATOM     33  C   UNL A   1      42.129  27.823  29.298  1.00  0.00     0.074 A 
ATOM     34  C   UNL A   1      39.932  28.865  28.852  1.00  0.00     0.049 A 
ATOM     35  N   UNL A   1      42.689  28.730  30.056  1.00  0.00    -0.248 NA
ATOM     36  C   UNL A   1      43.003  26.683  28.974  1.00  0.00     0.031 C 
ATOM     37  C   UNL A   1      38.579  28.976  28.300  1.00  0.00     0.029 A 
ATOM     38  N   UNL A   1      40.128  30.063  29.494  1.00  0.00    -0.354 N 
ATOM     39  C   UNL A   1      43.966  28.256  30.330  1.00  0.00     0.074 A 
ATOM     40  C   UNL A   1      44.099  26.982  29.658  1.00  0.00     0.031 C 
ATOM     41  C   UNL A   1      38.067  30.173  28.630  1.00  0.00     0.029 A 
ATOM     42  C   UNL A   1      39.027  30.888  29.465  1.00  0.00     0.049 A 
ATOM     43  H   UNL A   1      40.973  30.307  29.934  1.00  0.00     0.167 HD
ATOM     44  C   UNL A   1      44.935  28.833  31.080  1.00  0.00     0.031 A 
ATOM     45  C   UNL A   1      38.799  32.065  30.078  1.00  0.00     0.031 A 
ATOM     46  C   UNL A   1      44.800  30.109  31.734  1.00  0.00     0.049 A 
ATOM     47  C   UNL A   1      39.869  32.651  30.959  1.00  0.00     0.074 A 
ATOM     48  C   UNL A   1      45.734  30.787  32.497  1.00  0.00     0.029 A 
ATOM     49  N   UNL A   1      43.660  30.897  31.705  1.00  0.00    -0.354 N 
ATOM     50  N   UNL A   1      41.070  32.190  31.213  1.00  0.00    -0.248 NA
ATOM     51  C   UNL A   1      39.548  33.910  31.645  1.00  0.00     0.031 C 
ATOM     52  C   UNL A   1      45.143  31.963  32.970  1.00  0.00     0.029 A 
ATOM     53  C   UNL A   1      43.857  32.041  32.461  1.00  0.00     0.049 A 
ATOM     54  H   UNL A   1      42.833  30.677  31.218  1.00  0.00     0.167 HD
ATOM     55  C   UNL A   1      41.651  33.107  32.080  1.00  0.00     0.074 A 
ATOM     56  C   UNL A   1      40.680  34.162  32.289  1.00  0.00     0.031 C 
ATOM     57  C   UNL A   1      42.877  33.077  32.659  1.00  0.00     0.031 A 
BRANCH  44  58
ATOM     58  C   UNL A   1      46.220  28.076  31.271  1.00  0.00    -0.014 A 
ATOM     59  C   UNL A   1      46.339  27.071  32.247  1.00  0.00     0.010 A 
ATOM     60  C   UNL A   1      47.305  28.329  30.411  1.00  0.00     0.010 A 
ATOM     61  C   UNL A   1      47.527  26.344  32.370  1.00  0.00     0.020 A 
ATOM     62  C   UNL A   1      48.486  27.590  30.517  1.00  0.00     0.020 A 
ATOM     63  C   UNL A   1      48.592  26.607  31.503  1.00  0.00     0.054 A 
BRANCH  63  64
ATOM     64  S   UNL A   1      50.104  25.615  31.652  1.00  0.00     0.124 S 
ATOM     65  O   UNL A   1      49.744  24.670  32.705  1.00  0.00    -0.237 OA
ATOM     66  O   UNL A   1      50.245  25.041  30.316  1.00  0.00    -0.237 OA
ATOM     67  O   UNL A   1      51.127  26.593  32.017  1.00  0.00    -0.744 OA
ENDBRANCH  63  64
ENDBRANCH  44  58
BRANCH  45  68
ATOM     68  C   UNL A   1      37.479  32.739  29.939  1.00  0.00    -0.014 A 
ATOM     69  C   UNL A   1      37.254  33.680  28.921  1.00  0.00     0.010 A 
ATOM     70  C   UNL A   1      36.439  32.447  30.842  1.00  0.00     0.010 A 
ATOM     71  C   UNL A   1      36.022  34.335  28.821  1.00  0.00     0.020 A 
ATOM     72  C   UNL A   1      35.197  33.077  30.729  1.00  0.00     0.020 A 
ATOM     73  C   UNL A   1      35.002  34.030  29.727  1.00  0.00     0.054 A 
BRANCH  73  74
ATOM     74  S   UNL A   1      33.398  34.862  29.562  1.00  0.00     0.124 S 
ATOM     75  O   UNL A   1      32.959  34.951  30.950  1.00  0.00    -0.237 OA
ATOM     76  O   UNL A   1      33.760  36.128  28.930  1.00  0.00    -0.237 OA
ATOM     77  O   UNL A   1      32.628  33.951  28.717  1.00  0.00    -0.744 OA
ENDBRANCH  73  74
ENDBRANCH  45  68
BRANCH  57  78
ATOM     78  C   UNL A   1      43.241  34.225  33.559  1.00  0.00    -0.014 A 
ATOM     79  C   UNL A   1      43.684  35.449  33.027  1.00  0.00     0.010 A 
ATOM     80  C   UNL A   1      43.092  34.094  34.951  1.00  0.00     0.010 A 
ATOM     81  C   UNL A   1      44.002  36.512  33.875  1.00  0.00     0.020 A 
ATOM     82  C   UNL A   1      43.386  35.163  35.801  1.00  0.00     0.020 A 
ATOM     83  C   UNL A   1      43.853  36.362  35.257  1.00  0.00     0.054 A 
BRANCH  83  84
ATOM     84  S   UNL A   1      44.231  37.770  36.336  1.00  0.00     0.124 S 
ATOM     85  O   UNL A   1      44.207  38.888  35.397  1.00  0.00    -0.237 OA
ATOM     86  O   UNL A   1      43.137  37.739  37.303  1.00  0.00    -0.237 OA
ATOM     87  O   UNL A   1      45.546  37.444  36.883  1.00  0.00    -0.744 OA
ENDBRANCH  83  84
ENDBRANCH  57  78
ENDBRANCH  31  32
ENDBRANCH  24  26
ENDBRANCH  23  24
ENDBRANCH  22  23
ENDBRANCH   1  22
TORSDOF 18
ENDMDL
MODEL 3
REMARK VINA RESULT:      -8.9      1.315      2.114
REMARK SMILES [NH3+][C@@H](Cc1ccc(F)cc1C(F)(F)F)C(=O)OCCOC(=O)c1ccc(-c2c3nc(c(-c4ccc(S(=O)(=O)[O-])cc4)c4ccc([nH]4)c(-c4ccc(S(=O)(=O)[O-])cc4)c4nc(c(-c5ccc(S(=O)(=O)[O-])cc5)c5ccc2[nH]5)C=C4)C=C3)cc1
REMARK SMILES IDX 18 1 17 2 15 3 16 4 2 5 1 6 3 10 4 11 5 12 10 13 6 14 9 15
REMARK SMILES IDX 7 16 8 17 11 18 12 19 13 20 14 21 19 22 20 23 21 24 22 25
REMARK SMILES IDX 23 26 24 27 82 28 25 29 81 30 26 31 27 32 28 33 75 34 29 35
REMARK SMILES IDX 80 36 74 37 76 38 30 39 79 40 73 41 72 42 31 44 61 45 42 46
REMARK SMILES IDX 60 47 43 48 46 49 59 50 77 51 44 52 45 53 58 55 78 56 47 57
REMARK SMILES IDX 32 58 33 59 41 60 34 61 40 62 35 63 36 64 37 65 38 66 39 67
REMARK SMILES IDX 62 68 63 69 71 70 64 71 70 72 65 73 66 74 67 75 68 76 69 77
REMARK SMILES IDX 48 78 49 79 57 80 50 81 56 82 51 83 52 84 53 85 54 86 55 87
REMARK H PARENT 1 7 1 8 1 9 76 43 46 54
REMARK Flexibility Score: inf
ROOT
ATOM      1  C   UNL A   1      33.933  34.512  28.693  1.00  0.00     0.274 C 
ENDROOT
BRANCH   1   2
ATOM      2  O   UNL A   1      33.220  34.590  29.939  1.00  0.00    -0.458 OA
BRANCH   2   3
ATOM      3  C   UNL A   1      33.254  35.796  30.581  1.00  0.00     0.365 C 
ATOM      4  O   UNL A   1      32.686  36.812  30.201  1.00  0.00    -0.245 OA
BRANCH   3   5
ATOM      5  C   UNL A   1      34.170  35.757  31.817  1.00  0.00     0.296 C 
BRANCH   5   6
ATOM      6  N   UNL A   1      34.298  37.088  32.445  1.00  0.00    -0.346 N 
ATOM      7  H   UNL A   1      35.277  37.264  32.671  1.00  0.00     0.345 HD
ATOM      8  H   UNL A   1      33.742  37.115  33.299  1.00  0.00     0.345 HD
ATOM      9  H   UNL A   1      33.964  37.802  31.799  1.00  0.00     0.345 HD
ENDBRANCH   5   6
BRANCH   5  10
ATOM     10  C   UNL A   1      33.753  34.627  32.770  1.00  0.00     0.113 C 
BRANCH  10  11
ATOM     11  C   UNL A   1      34.886  33.984  33.544  1.00  0.00    -0.029 A 
ATOM     12  C   UNL A   1      35.178  34.534  34.813  1.00  0.00     0.007 A 
ATOM     13  C   UNL A   1      35.672  32.910  33.063  1.00  0.00     0.062 A 
ATOM     14  C   UNL A   1      36.230  34.053  35.587  1.00  0.00     0.039 A 
ATOM     15  C   UNL A   1      36.736  32.444  33.864  1.00  0.00     0.052 A 
ATOM     16  C   UNL A   1      37.002  33.012  35.103  1.00  0.00     0.123 A 
ATOM     17  F   UNL A   1      38.022  32.549  35.836  1.00  0.00    -0.207 F 
BRANCH  13  18
ATOM     18  C   UNL A   1      35.499  32.227  31.720  1.00  0.00     0.416 C 
ATOM     19  F   UNL A   1      36.178  32.879  30.736  1.00  0.00    -0.166 F 
ATOM     20  F   UNL A   1      35.983  30.954  31.723  1.00  0.00    -0.166 F 
ATOM     21  F   UNL A   1      34.218  32.128  31.275  1.00  0.00    -0.166 F 
ENDBRANCH  13  18
ENDBRANCH  10  11
ENDBRANCH   5  10
ENDBRANCH   3   5
ENDBRANCH   2   3
ENDBRANCH   1   2
BRANCH   1  22
ATOM     22  C   UNL A   1      33.672  33.156  28.043  1.00  0.00     0.275 C 
BRANCH  22  23
ATOM     23  O   UNL A   1      34.925  32.560  27.667  1.00  0.00    -0.458 OA
BRANCH  23  24
ATOM     24  C   UNL A   1      34.936  31.207  27.582  1.00  0.00     0.338 C 
ATOM     25  O   UNL A   1      34.120  30.486  27.039  1.00  0.00    -0.246 OA
BRANCH  24  26
ATOM     26  C   UNL A   1      36.140  30.719  28.271  1.00  0.00     0.060 A 
ATOM     27  C   UNL A   1      37.302  31.489  28.235  1.00  0.00     0.016 A 
ATOM     28  C   UNL A   1      36.127  29.487  28.921  1.00  0.00     0.016 A 
ATOM     29  C   UNL A   1      38.462  31.041  28.859  1.00  0.00     0.010 A 
ATOM     30  C   UNL A   1      37.284  29.047  29.571  1.00  0.00     0.010 A 
ATOM     31  C   UNL A   1      38.459  29.820  29.546  1.00  0.00    -0.014 A 
BRANCH  31  32
ATOM     32  C   UNL A   1      39.688  29.346  30.228  1.00  0.00     0.031 A 
ATOM     33  C   UNL A   1      40.180  30.048  31.462  1.00  0.00     0.074 A 
ATOM     34  C   UNL A   1      40.366  28.293  29.730  1.00  0.00     0.049 A 
ATOM     35  N   UNL A   1      41.301  29.878  32.115  1.00  0.00    -0.248 NA
ATOM     36  C   UNL A   1      39.298  31.078  32.035  1.00  0.00     0.031 C 
ATOM     37  C   UNL A   1      39.965  27.499  28.566  1.00  0.00     0.029 A 
ATOM     38  N   UNL A   1      41.544  27.716  30.135  1.00  0.00    -0.354 N 
ATOM     39  C   UNL A   1      41.275  30.800  33.154  1.00  0.00     0.074 A 
ATOM     40  C   UNL A   1      40.029  31.528  33.045  1.00  0.00     0.031 C 
ATOM     41  C   UNL A   1      40.881  26.542  28.351  1.00  0.00     0.029 A 
ATOM     42  C   UNL A   1      41.962  26.691  29.319  1.00  0.00     0.049 A 
ATOM     43  H   UNL A   1      42.042  28.007  30.933  1.00  0.00     0.167 HD
ATOM     44  C   UNL A   1      42.211  31.020  34.108  1.00  0.00     0.031 A 
ATOM     45  C   UNL A   1      43.107  25.981  29.321  1.00  0.00     0.031 A 
ATOM     46  C   UNL A   1      43.443  30.281  34.218  1.00  0.00     0.049 A 
ATOM     47  C   UNL A   1      44.158  26.291  30.352  1.00  0.00     0.074 A 
ATOM     48  C   UNL A   1      44.444  30.415  35.164  1.00  0.00     0.029 A 
ATOM     49  N   UNL A   1      43.841  29.273  33.354  1.00  0.00    -0.354 N 
ATOM     50  N   UNL A   1      44.123  27.169  31.326  1.00  0.00    -0.248 NA
ATOM     51  C   UNL A   1      45.409  25.524  30.276  1.00  0.00     0.031 C 
ATOM     52  C   UNL A   1      45.471  29.522  34.844  1.00  0.00     0.029 A 
ATOM     53  C   UNL A   1      45.087  28.796  33.727  1.00  0.00     0.049 A 
ATOM     54  H   UNL A   1      43.317  28.944  32.589  1.00  0.00     0.167 HD
ATOM     55  C   UNL A   1      45.341  27.052  31.984  1.00  0.00     0.074 A 
ATOM     56  C   UNL A   1      46.082  26.002  31.314  1.00  0.00     0.031 C 
ATOM     57  C   UNL A   1      45.810  27.754  33.045  1.00  0.00     0.031 A 
BRANCH  44  58
ATOM     58  C   UNL A   1      41.966  32.130  35.091  1.00  0.00    -0.014 A 
ATOM     59  C   UNL A   1      41.311  31.894  36.313  1.00  0.00     0.010 A 
ATOM     60  C   UNL A   1      42.462  33.418  34.817  1.00  0.00     0.010 A 
ATOM     61  C   UNL A   1      41.143  32.931  37.235  1.00  0.00     0.020 A 
ATOM     62  C   UNL A   1      42.313  34.452  35.745  1.00  0.00     0.020 A 
ATOM     63  C   UNL A   1      41.646  34.203  36.946  1.00  0.00     0.054 A 
BRANCH  63  64
ATOM     64  S   UNL A   1      41.457  35.519  38.181  1.00  0.00     0.124 S 
ATOM     65  O   UNL A   1      40.468  36.387  37.549  1.00  0.00    -0.237 OA
ATOM     66  O   UNL A   1      40.991  34.790  39.358  1.00  0.00    -0.237 OA
ATOM     67  O   UNL A   1      42.800  36.084  38.294  1.00  0.00    -0.744 OA
ENDBRANCH  63  64
ENDBRANCH  44  58
BRANCH  45  68
ATOM     68  C   UNL A   1      43.353  24.953  28.273  1.00  0.00    -0.014 A 
ATOM     69  C   UNL A   1      42.953  23.619  28.463  1.00  0.00     0.010 A 
ATOM     70  C   UNL A   1      44.006  25.307  27.077  1.00  0.00     0.010 A 
ATOM     71  C   UNL A   1      43.222  22.654  27.488  1.00  0.00     0.020 A 
ATOM     72  C   UNL A   1      44.251  24.350  26.088  1.00  0.00     0.020 A 
ATOM     73  C   UNL A   1      43.871  23.026  26.307  1.00  0.00     0.054 A 
BRANCH  73  74
ATOM     74  S   UNL A   1      44.180  21.767  25.037  1.00  0.00     0.124 S 
ATOM     75  O   UNL A   1      43.144  20.781  25.329  1.00  0.00    -0.237 OA
ATOM     76  O   UNL A   1      44.008  22.517  23.796  1.00  0.00    -0.237 OA
ATOM     77  O   UNL A   1      45.550  21.338  25.310  1.00  0.00    -0.744 OA
ENDBRANCH  73  74
ENDBRANCH  45  68
BRANCH  57  78
ATOM     78  C   UNL A   1      47.179  27.399  33.554  1.00  0.00    -0.014 A 
ATOM     79  C   UNL A   1      47.354  26.387  34.514  1.00  0.00     0.010 A 
ATOM     80  C   UNL A   1      48.308  28.054  33.032  1.00  0.00     0.010 A 
ATOM     81  C   UNL A   1      48.633  26.056  34.965  1.00  0.00     0.020 A 
ATOM     82  C   UNL A   1      49.592  27.710  33.463  1.00  0.00     0.020 A 
ATOM     83  C   UNL A   1      49.745  26.721  34.438  1.00  0.00     0.054 A 
BRANCH  83  84
ATOM     84  S   UNL A   1      51.400  26.246  35.007  1.00  0.00     0.124 S 
ATOM     85  O   UNL A   1      51.649  25.031  34.237  1.00  0.00    -0.237 OA
ATOM     86  O   UNL A   1      52.213  27.402  34.637  1.00  0.00    -0.237 OA
ATOM     87  O   UNL A   1      51.228  26.049  36.445  1.00  0.00    -0.744 OA
ENDBRANCH  83  84
ENDBRANCH  57  78
ENDBRANCH  31  32
ENDBRANCH  24  26
ENDBRANCH  23  24
ENDBRANCH  22  23
ENDBRANCH   1  22
TORSDOF 18
ENDMDL
