MODEL 1
REMARK VINA RESULT:     -12.6      0.000      0.000
REMARK SMILES NS(=O)(=O)c1ccc(-n2nc(C(=O)OCCOC(=O)c3ccc(-c4c5nc(c(-c6ccc(S(=O)(=O)[O-])cc6)c6ccc([nH]6)c(-c6ccc(S(=O)(=O)[O-])cc6)c6nc(c(-c7ccc(S(=O)(=O)[O-])cc7)c7ccc4[nH]7)C=C6)C=C5)cc3)c(Cl)c2-c2ccc(Cl)cc2)cc1
REMARK SMILES IDX 15 1 14 2 12 3 13 4 11 5 9 6 10 7 82 8 80 9 81 10 8 11 5 12
REMARK SMILES IDX 6 13 91 14 7 15 90 16 2 17 3 18 4 19 1 20 83 23 84 24 89 25
REMARK SMILES IDX 85 26 88 27 86 28 87 29 16 30 17 31 18 32 19 33 20 34 21 35
REMARK SMILES IDX 79 36 22 37 78 38 23 39 24 40 25 41 72 42 26 43 77 44 71 45
REMARK SMILES IDX 73 46 27 47 76 48 70 49 69 50 28 52 58 53 39 54 57 55 40 56
REMARK SMILES IDX 43 57 56 58 74 59 41 60 42 61 55 63 75 64 44 65 29 66 30 67
REMARK SMILES IDX 38 68 31 69 37 70 32 71 33 72 34 73 35 74 36 75 59 76 60 77
REMARK SMILES IDX 68 78 61 79 67 80 62 81 63 82 64 83 65 84 66 85 45 86 46 87
REMARK SMILES IDX 54 88 47 89 53 90 48 91 49 92 50 93 51 94 52 95
REMARK H PARENT 1 21 1 22 73 51 43 62
REMARK Flexibility Score: inf
ROOT
ATOM      1  C   UNL A   1      36.730  22.272  24.071  1.00  0.00     0.275 C 
ENDROOT
BRANCH   1   2
ATOM      2  O   UNL A   1      35.318  22.473  24.226  1.00  0.00    -0.457 OA
BRANCH   2   3
ATOM      3  C   UNL A   1      34.631  23.152  23.257  1.00  0.00     0.360 C 
ATOM      4  O   UNL A   1      34.667  22.850  22.068  1.00  0.00    -0.244 OA
BRANCH   3   5
ATOM      5  C   UNL A   1      33.857  24.279  23.813  1.00  0.00     0.190 A 
ATOM      6  N   UNL A   1      32.347  25.799  24.004  1.00  0.00    -0.231 N 
ATOM      7  N   UNL A   1      32.666  24.680  23.306  1.00  0.00    -0.159 NA
ATOM      8  C   UNL A   1      33.317  26.139  24.926  1.00  0.00     0.094 A 
ATOM      9  C   UNL A   1      34.227  25.104  24.904  1.00  0.00     0.102 A 
ATOM     10  Cl  UNL A   1      35.584  24.963  25.935  1.00  0.00    -0.079 Cl
BRANCH   6  11
ATOM     11  C   UNL A   1      31.271  26.621  23.588  1.00  0.00     0.065 A 
ATOM     12  C   UNL A   1      29.227  28.410  22.984  1.00  0.00     0.082 A 
ATOM     13  C   UNL A   1      28.931  27.234  23.686  1.00  0.00     0.024 A 
ATOM     14  C   UNL A   1      30.533  28.674  22.554  1.00  0.00     0.024 A 
ATOM     15  C   UNL A   1      29.957  26.319  23.973  1.00  0.00     0.030 A 
ATOM     16  C   UNL A   1      31.559  27.788  22.870  1.00  0.00     0.030 A 
BRANCH  12  17
ATOM     17  S   UNL A   1      27.994  29.620  22.601  1.00  0.00     0.238 S 
ATOM     18  O   UNL A   1      28.034  29.871  21.174  1.00  0.00    -0.207 OA
ATOM     19  O   UNL A   1      28.085  30.683  23.570  1.00  0.00    -0.207 OA
BRANCH  17  20
ATOM     20  N   UNL A   1      26.523  28.865  22.873  1.00  0.00    -0.225 NA
ATOM     21  H   UNL A   1      26.610  27.870  22.672  1.00  0.00     0.137 HD
ATOM     22  H   UNL A   1      25.814  29.274  22.265  1.00  0.00     0.137 HD
ENDBRANCH  17  20
ENDBRANCH  12  17
ENDBRANCH   6  11
BRANCH   8  23
ATOM     23  C   UNL A   1      33.371  27.344  25.744  1.00  0.00     0.002 A 
ATOM     24  C   UNL A   1      32.281  27.617  26.586  1.00  0.00     0.012 A 
ATOM     25  C   UNL A   1      34.393  28.286  25.608  1.00  0.00     0.012 A 
ATOM     26  C   UNL A   1      32.184  28.839  27.245  1.00  0.00     0.021 A 
ATOM     27  C   UNL A   1      34.301  29.509  26.278  1.00  0.00     0.021 A 
ATOM     28  C   UNL A   1      33.190  29.785  27.079  1.00  0.00     0.041 A 
ATOM     29  Cl  UNL A   1      33.040  31.318  27.844  1.00  0.00    -0.084 Cl
ENDBRANCH   8  23
ENDBRANCH   3   5
ENDBRANCH   2   3
ENDBRANCH   1   2
BRANCH   1  30
ATOM     30  C   UNL A   1      37.313  21.546  25.273  1.00  0.00     0.275 C 
BRANCH  30  31
ATOM     31  O   UNL A   1      37.886  22.475  26.185  1.00  0.00    -0.458 OA
BRANCH  31  32
ATOM     32  C   UNL A   1      39.166  22.221  26.539  1.00  0.00     0.338 C 
ATOM     33  O   UNL A   1      39.674  21.132  26.745  1.00  0.00    -0.246 OA
BRANCH  32  34
ATOM     34  C   UNL A   1      39.828  23.489  26.835  1.00  0.00     0.060 A 
ATOM     35  C   UNL A   1      40.925  23.474  27.699  1.00  0.00     0.016 A 
ATOM     36  C   UNL A   1      39.174  24.675  26.476  1.00  0.00     0.016 A 
ATOM     37  C   UNL A   1      41.273  24.648  28.335  1.00  0.00     0.010 A 
ATOM     38  C   UNL A   1      39.499  25.833  27.131  1.00  0.00     0.010 A 
ATOM     39  C   UNL A   1      40.500  25.790  28.099  1.00  0.00    -0.014 A 
BRANCH  39  40
ATOM     40  C   UNL A   1      40.846  27.030  28.759  1.00  0.00     0.031 A 
ATOM     41  C   UNL A   1      42.046  27.651  28.153  1.00  0.00     0.074 A 
ATOM     42  C   UNL A   1      40.038  27.600  29.675  1.00  0.00     0.049 A 
ATOM     43  N   UNL A   1      43.232  27.724  28.657  1.00  0.00    -0.248 NA
ATOM     44  C   UNL A   1      41.982  28.019  26.724  1.00  0.00     0.031 C 
ATOM     45  C   UNL A   1      38.698  27.163  30.086  1.00  0.00     0.029 A 
ATOM     46  N   UNL A   1      40.193  28.768  30.350  1.00  0.00    -0.354 N 
ATOM     47  C   UNL A   1      43.989  28.397  27.705  1.00  0.00     0.074 A 
ATOM     48  C   UNL A   1      43.258  28.305  26.470  1.00  0.00     0.031 C 
ATOM     49  C   UNL A   1      38.080  28.172  30.743  1.00  0.00     0.029 A 
ATOM     50  C   UNL A   1      39.022  29.265  30.919  1.00  0.00     0.049 A 
ATOM     51  H   UNL A   1      41.060  29.226  30.432  1.00  0.00     0.167 HD
ATOM     52  C   UNL A   1      44.958  29.276  28.079  1.00  0.00     0.031 A 
ATOM     53  C   UNL A   1      38.842  30.506  31.442  1.00  0.00     0.031 A 
ATOM     54  C   UNL A   1      45.282  29.121  29.475  1.00  0.00     0.049 A 
ATOM     55  C   UNL A   1      40.192  31.049  31.728  1.00  0.00     0.074 A 
ATOM     56  C   UNL A   1      45.845  28.136  30.256  1.00  0.00     0.029 A 
ATOM     57  N   UNL A   1      44.598  29.964  30.316  1.00  0.00    -0.354 N 
ATOM     58  N   UNL A   1      40.988  30.543  32.625  1.00  0.00    -0.248 NA
ATOM     59  C   UNL A   1      40.834  31.885  30.725  1.00  0.00     0.031 C 
ATOM     60  C   UNL A   1      45.196  28.238  31.520  1.00  0.00     0.029 A 
ATOM     61  C   UNL A   1      44.313  29.321  31.489  1.00  0.00     0.049 A 
ATOM     62  H   UNL A   1      44.349  30.894  30.107  1.00  0.00     0.167 HD
ATOM     63  C   UNL A   1      42.251  30.621  32.058  1.00  0.00     0.074 A 
ATOM     64  C   UNL A   1      42.114  31.582  30.966  1.00  0.00     0.031 C 
ATOM     65  C   UNL A   1      43.197  29.678  32.343  1.00  0.00     0.031 A 
BRANCH  52  66
ATOM     66  C   UNL A   1      45.211  30.584  27.356  1.00  0.00    -0.014 A 
ATOM     67  C   UNL A   1      46.544  30.953  27.086  1.00  0.00     0.010 A 
ATOM     68  C   UNL A   1      44.232  31.587  27.195  1.00  0.00     0.010 A 
ATOM     69  C   UNL A   1      46.881  32.268  26.740  1.00  0.00     0.020 A 
ATOM     70  C   UNL A   1      44.551  32.890  26.810  1.00  0.00     0.020 A 
ATOM     71  C   UNL A   1      45.879  33.231  26.613  1.00  0.00     0.054 A 
BRANCH  71  72
ATOM     72  S   UNL A   1      46.328  34.942  26.245  1.00  0.00     0.124 S 
ATOM     73  O   UNL A   1      45.097  35.654  26.572  1.00  0.00    -0.237 OA
ATOM     74  O   UNL A   1      47.453  35.166  27.149  1.00  0.00    -0.237 OA
ATOM     75  O   UNL A   1      46.674  34.907  24.825  1.00  0.00    -0.744 OA
ENDBRANCH  71  72
ENDBRANCH  52  66
BRANCH  53  76
ATOM     76  C   UNL A   1      37.633  31.371  31.435  1.00  0.00    -0.014 A 
ATOM     77  C   UNL A   1      36.597  31.185  32.373  1.00  0.00     0.010 A 
ATOM     78  C   UNL A   1      37.640  32.575  30.702  1.00  0.00     0.010 A 
ATOM     79  C   UNL A   1      35.644  32.193  32.615  1.00  0.00     0.020 A 
ATOM     80  C   UNL A   1      36.692  33.582  30.936  1.00  0.00     0.020 A 
ATOM     81  C   UNL A   1      35.712  33.396  31.909  1.00  0.00     0.054 A 
BRANCH  81  82
ATOM     82  S   UNL A   1      34.594  34.764  32.354  1.00  0.00     0.124 S 
ATOM     83  O   UNL A   1      35.387  35.510  33.326  1.00  0.00    -0.237 OA
ATOM     84  O   UNL A   1      34.377  35.429  31.072  1.00  0.00    -0.237 OA
ATOM     85  O   UNL A   1      33.421  34.084  32.901  1.00  0.00    -0.744 OA
ENDBRANCH  81  82
ENDBRANCH  53  76
BRANCH  65  86
ATOM     86  C   UNL A   1      42.988  28.824  33.572  1.00  0.00    -0.014 A 
ATOM     87  C   UNL A   1      43.386  29.182  34.875  1.00  0.00     0.010 A 
ATOM     88  C   UNL A   1      42.243  27.646  33.396  1.00  0.00     0.010 A 
ATOM     89  C   UNL A   1      43.064  28.361  35.969  1.00  0.00     0.020 A 
ATOM     90  C   UNL A   1      41.904  26.837  34.479  1.00  0.00     0.020 A 
ATOM     91  C   UNL A   1      42.325  27.192  35.761  1.00  0.00     0.054 A 
BRANCH  91  92
ATOM     92  S   UNL A   1      41.879  26.144  37.174  1.00  0.00     0.124 S 
ATOM     93  O   UNL A   1      41.844  24.810  36.583  1.00  0.00    -0.237 OA
ATOM     94  O   UNL A   1      42.970  26.387  38.116  1.00  0.00    -0.237 OA
ATOM     95  O   UNL A   1      40.581  26.666  37.599  1.00  0.00    -0.744 OA
ENDBRANCH  91  92
ENDBRANCH  65  86
ENDBRANCH  39  40
ENDBRANCH  32  34
ENDBRANCH  31  32
ENDBRANCH  30  31
ENDBRANCH   1  30
TORSDOF 18
ENDMDL
MODEL 2
REMARK VINA RESULT:     -12.5      3.221      9.553
REMARK SMILES NS(=O)(=O)c1ccc(-n2nc(C(=O)OCCOC(=O)c3ccc(-c4c5nc(c(-c6ccc(S(=O)(=O)[O-])cc6)c6ccc([nH]6)c(-c6ccc(S(=O)(=O)[O-])cc6)c6nc(c(-c7ccc(S(=O)(=O)[O-])cc7)c7ccc4[nH]7)C=C6)C=C5)cc3)c(Cl)c2-c2ccc(Cl)cc2)cc1
REMARK SMILES IDX 15 1 14 2 12 3 13 4 11 5 9 6 10 7 82 8 80 9 81 10 8 11 5 12
REMARK SMILES IDX 6 13 91 14 7 15 90 16 2 17 3 18 4 19 1 20 83 23 84 24 89 25
REMARK SMILES IDX 85 26 88 27 86 28 87 29 16 30 17 31 18 32 19 33 20 34 21 35
REMARK SMILES IDX 79 36 22 37 78 38 23 39 24 40 25 41 72 42 26 43 77 44 71 45
REMARK SMILES IDX 73 46 27 47 76 48 70 49 69 50 28 52 58 53 39 54 57 55 40 56
REMARK SMILES IDX 43 57 56 58 74 59 41 60 42 61 55 63 75 64 44 65 29 66 30 67
REMARK SMILES IDX 38 68 31 69 37 70 32 71 33 72 34 73 35 74 36 75 59 76 60 77
REMARK SMILES IDX 68 78 61 79 67 80 62 81 63 82 64 83 65 84 66 85 45 86 46 87
REMARK SMILES IDX 54 88 47 89 53 90 48 91 49 92 50 93 51 94 52 95
REMARK H PARENT 1 21 1 22 73 51 43 62
REMARK Flexibility Score: inf
ROOT
ATOM      1  C   UNL A   1      32.093  29.535  25.592  1.00  0.00     0.275 C 
ENDROOT
BRANCH   1   2
ATOM      2  O   UNL A   1      31.787  28.171  25.913  1.00  0.00    -0.457 OA
BRANCH   2   3
ATOM      3  C   UNL A   1      31.264  27.359  24.943  1.00  0.00     0.360 C 
ATOM      4  O   UNL A   1      30.200  27.586  24.376  1.00  0.00    -0.244 OA
BRANCH   3   5
ATOM      5  C   UNL A   1      32.128  26.193  24.672  1.00  0.00     0.190 A 
ATOM      6  N   UNL A   1      32.723  24.170  24.246  1.00  0.00    -0.231 N 
ATOM      7  N   UNL A   1      31.645  24.995  24.262  1.00  0.00    -0.159 NA
ATOM      8  C   UNL A   1      33.877  24.804  24.660  1.00  0.00     0.094 A 
ATOM      9  C   UNL A   1      33.536  26.131  24.813  1.00  0.00     0.102 A 
ATOM     10  Cl  UNL A   1      34.624  27.389  25.213  1.00  0.00    -0.079 Cl
BRANCH   6  11
ATOM     11  C   UNL A   1      32.554  22.773  24.083  1.00  0.00     0.065 A 
ATOM     12  C   UNL A   1      32.506  20.007  23.780  1.00  0.00     0.082 A 
ATOM     13  C   UNL A   1      32.368  20.829  22.653  1.00  0.00     0.024 A 
ATOM     14  C   UNL A   1      32.631  20.566  25.057  1.00  0.00     0.024 A 
ATOM     15  C   UNL A   1      32.371  22.225  22.806  1.00  0.00     0.030 A 
ATOM     16  C   UNL A   1      32.672  21.950  25.208  1.00  0.00     0.030 A 
BRANCH  12  17
ATOM     17  S   UNL A   1      32.532  18.242  23.668  1.00  0.00     0.238 S 
ATOM     18  O   UNL A   1      32.235  17.871  22.298  1.00  0.00    -0.207 OA
ATOM     19  O   UNL A   1      31.796  17.706  24.784  1.00  0.00    -0.207 OA
BRANCH  17  20
ATOM     20  N   UNL A   1      34.130  17.799  23.906  1.00  0.00    -0.225 NA
ATOM     21  H   UNL A   1      34.201  17.221  24.743  1.00  0.00     0.137 HD
ATOM     22  H   UNL A   1      34.700  18.636  24.023  1.00  0.00     0.137 HD
ENDBRANCH  17  20
ENDBRANCH  12  17
ENDBRANCH   6  11
BRANCH   8  23
ATOM     23  C   UNL A   1      35.180  24.196  24.895  1.00  0.00     0.002 A 
ATOM     24  C   UNL A   1      35.770  23.478  23.842  1.00  0.00     0.012 A 
ATOM     25  C   UNL A   1      35.778  24.190  26.157  1.00  0.00     0.012 A 
ATOM     26  C   UNL A   1      36.916  22.718  24.059  1.00  0.00     0.021 A 
ATOM     27  C   UNL A   1      36.934  23.434  26.372  1.00  0.00     0.021 A 
ATOM     28  C   UNL A   1      37.487  22.690  25.328  1.00  0.00     0.041 A 
ATOM     29  Cl  UNL A   1      38.866  21.702  25.609  1.00  0.00    -0.084 Cl
ENDBRANCH   8  23
ENDBRANCH   3   5
ENDBRANCH   2   3
ENDBRANCH   1   2
BRANCH   1  30
ATOM     30  C   UNL A   1      32.575  30.290  26.820  1.00  0.00     0.275 C 
BRANCH  30  31
ATOM     31  O   UNL A   1      33.997  30.339  26.848  1.00  0.00    -0.458 OA
BRANCH  31  32
ATOM     32  C   UNL A   1      34.524  31.372  27.542  1.00  0.00     0.338 C 
ATOM     33  O   UNL A   1      34.197  32.545  27.487  1.00  0.00    -0.246 OA
BRANCH  32  34
ATOM     34  C   UNL A   1      35.710  30.898  28.252  1.00  0.00     0.060 A 
ATOM     35  C   UNL A   1      36.640  31.846  28.687  1.00  0.00     0.016 A 
ATOM     36  C   UNL A   1      35.999  29.528  28.215  1.00  0.00     0.016 A 
ATOM     37  C   UNL A   1      37.930  31.427  28.940  1.00  0.00     0.010 A 
ATOM     38  C   UNL A   1      37.287  29.118  28.435  1.00  0.00     0.010 A 
ATOM     39  C   UNL A   1      38.249  30.081  28.730  1.00  0.00    -0.014 A 
BRANCH  39  40
ATOM     40  C   UNL A   1      39.598  29.624  28.985  1.00  0.00     0.031 A 
ATOM     41  C   UNL A   1      39.895  29.593  30.436  1.00  0.00     0.074 A 
ATOM     42  C   UNL A   1      40.376  29.119  28.008  1.00  0.00     0.049 A 
ATOM     43  N   UNL A   1      40.660  30.395  31.097  1.00  0.00    -0.248 NA
ATOM     44  C   UNL A   1      39.061  28.724  31.291  1.00  0.00     0.031 C 
ATOM     45  C   UNL A   1      40.009  28.859  26.611  1.00  0.00     0.029 A 
ATOM     46  N   UNL A   1      41.635  28.613  28.086  1.00  0.00    -0.354 N 
ATOM     47  C   UNL A   1      40.605  29.945  32.411  1.00  0.00     0.074 A 
ATOM     48  C   UNL A   1      39.431  29.121  32.508  1.00  0.00     0.031 C 
ATOM     49  C   UNL A   1      40.926  28.035  26.051  1.00  0.00     0.029 A 
ATOM     50  C   UNL A   1      42.008  27.825  26.999  1.00  0.00     0.049 A 
ATOM     51  H   UNL A   1      42.235  28.790  28.846  1.00  0.00     0.167 HD
ATOM     52  C   UNL A   1      41.709  29.985  33.208  1.00  0.00     0.031 A 
ATOM     53  C   UNL A   1      43.100  27.021  26.922  1.00  0.00     0.031 A 
ATOM     54  C   UNL A   1      42.727  30.828  32.634  1.00  0.00     0.049 A 
ATOM     55  C   UNL A   1      44.044  27.483  27.968  1.00  0.00     0.074 A 
ATOM     56  C   UNL A   1      42.857  32.170  32.354  1.00  0.00     0.029 A 
ATOM     57  N   UNL A   1      43.657  30.162  31.874  1.00  0.00    -0.354 N 
ATOM     58  N   UNL A   1      44.624  28.648  27.941  1.00  0.00    -0.248 NA
ATOM     59  C   UNL A   1      44.019  26.830  29.269  1.00  0.00     0.031 C 
ATOM     60  C   UNL A   1      43.649  32.234  31.171  1.00  0.00     0.029 A 
ATOM     61  C   UNL A   1      44.031  30.938  30.812  1.00  0.00     0.049 A 
ATOM     62  H   UNL A   1      44.004  29.259  32.064  1.00  0.00     0.167 HD
ATOM     63  C   UNL A   1      44.634  29.067  29.262  1.00  0.00     0.074 A 
ATOM     64  C   UNL A   1      44.389  27.856  30.042  1.00  0.00     0.031 C 
ATOM     65  C   UNL A   1      44.542  30.395  29.569  1.00  0.00     0.031 A 
BRANCH  52  66
ATOM     66  C   UNL A   1      42.062  28.880  34.184  1.00  0.00    -0.014 A 
ATOM     67  C   UNL A   1      42.330  27.595  33.672  1.00  0.00     0.010 A 
ATOM     68  C   UNL A   1      41.859  28.977  35.577  1.00  0.00     0.010 A 
ATOM     69  C   UNL A   1      42.328  26.465  34.500  1.00  0.00     0.020 A 
ATOM     70  C   UNL A   1      41.895  27.863  36.418  1.00  0.00     0.020 A 
ATOM     71  C   UNL A   1      42.100  26.608  35.869  1.00  0.00     0.054 A 
BRANCH  71  72
ATOM     72  S   UNL A   1      42.020  25.139  36.918  1.00  0.00     0.124 S 
ATOM     73  O   UNL A   1      42.186  24.064  35.945  1.00  0.00    -0.237 OA
ATOM     74  O   UNL A   1      43.141  25.351  37.829  1.00  0.00    -0.237 OA
ATOM     75  O   UNL A   1      40.697  25.230  37.533  1.00  0.00    -0.744 OA
ENDBRANCH  71  72
ENDBRANCH  52  66
BRANCH  53  76
ATOM     76  C   UNL A   1      43.269  25.714  26.234  1.00  0.00    -0.014 A 
ATOM     77  C   UNL A   1      44.262  25.530  25.250  1.00  0.00     0.010 A 
ATOM     78  C   UNL A   1      42.656  24.561  26.764  1.00  0.00     0.010 A 
ATOM     79  C   UNL A   1      44.671  24.240  24.861  1.00  0.00     0.020 A 
ATOM     80  C   UNL A   1      43.057  23.273  26.379  1.00  0.00     0.020 A 
ATOM     81  C   UNL A   1      44.080  23.118  25.446  1.00  0.00     0.054 A 
BRANCH  81  82
ATOM     82  S   UNL A   1      44.738  21.460  25.078  1.00  0.00     0.124 S 
ATOM     83  O   UNL A   1      44.752  21.448  23.618  1.00  0.00    -0.237 OA
ATOM     84  O   UNL A   1      46.048  21.486  25.722  1.00  0.00    -0.237 OA
ATOM     85  O   UNL A   1      43.766  20.560  25.695  1.00  0.00    -0.744 OA
ENDBRANCH  81  82
ENDBRANCH  53  76
BRANCH  65  86
ATOM     86  C   UNL A   1      44.850  31.389  28.474  1.00  0.00    -0.014 A 
ATOM     87  C   UNL A   1      43.911  31.869  27.539  1.00  0.00     0.010 A 
ATOM     88  C   UNL A   1      46.140  31.945  28.477  1.00  0.00     0.010 A 
ATOM     89  C   UNL A   1      44.270  32.864  26.615  1.00  0.00     0.020 A 
ATOM     90  C   UNL A   1      46.497  32.947  27.576  1.00  0.00     0.020 A 
ATOM     91  C   UNL A   1      45.564  33.395  26.640  1.00  0.00     0.054 A 
BRANCH  91  92
ATOM     92  S   UNL A   1      46.025  34.703  25.470  1.00  0.00     0.124 S 
ATOM     93  O   UNL A   1      47.449  34.455  25.259  1.00  0.00    -0.237 OA
ATOM     94  O   UNL A   1      45.162  34.432  24.322  1.00  0.00    -0.237 OA
ATOM     95  O   UNL A   1      45.713  35.939  26.187  1.00  0.00    -0.744 OA
ENDBRANCH  91  92
ENDBRANCH  65  86
ENDBRANCH  39  40
ENDBRANCH  32  34
ENDBRANCH  31  32
ENDBRANCH  30  31
ENDBRANCH   1  30
TORSDOF 18
ENDMDL
MODEL 3
REMARK VINA RESULT:     -12.0      3.270      7.649
REMARK SMILES NS(=O)(=O)c1ccc(-n2nc(C(=O)OCCOC(=O)c3ccc(-c4c5nc(c(-c6ccc(S(=O)(=O)[O-])cc6)c6ccc([nH]6)c(-c6ccc(S(=O)(=O)[O-])cc6)c6nc(c(-c7ccc(S(=O)(=O)[O-])cc7)c7ccc4[nH]7)C=C6)C=C5)cc3)c(Cl)c2-c2ccc(Cl)cc2)cc1
REMARK SMILES IDX 15 1 14 2 12 3 13 4 11 5 9 6 10 7 82 8 80 9 81 10 8 11 5 12
REMARK SMILES IDX 6 13 91 14 7 15 90 16 2 17 3 18 4 19 1 20 83 23 84 24 89 25
REMARK SMILES IDX 85 26 88 27 86 28 87 29 16 30 17 31 18 32 19 33 20 34 21 35
REMARK SMILES IDX 79 36 22 37 78 38 23 39 24 40 25 41 72 42 26 43 77 44 71 45
REMARK SMILES IDX 73 46 27 47 76 48 70 49 69 50 28 52 58 53 39 54 57 55 40 56
REMARK SMILES IDX 43 57 56 58 74 59 41 60 42 61 55 63 75 64 44 65 29 66 30 67
REMARK SMILES IDX 38 68 31 69 37 70 32 71 33 72 34 73 35 74 36 75 59 76 60 77
REMARK SMILES IDX 68 78 61 79 67 80 62 81 63 82 64 83 65 84 66 85 45 86 46 87
REMARK SMILES IDX 54 88 47 89 53 90 48 91 49 92 50 93 51 94 52 95
REMARK H PARENT 1 21 1 22 73 51 43 62
REMARK Flexibility Score: inf
ROOT
ATOM      1  C   UNL A   1      34.802  21.522  24.287  1.00  0.00     0.275 C 
ENDROOT
BRANCH   1   2
ATOM      2  O   UNL A   1      33.433  21.611  24.702  1.00  0.00    -0.457 OA
BRANCH   2   3
ATOM      3  C   UNL A   1      32.510  22.147  23.844  1.00  0.00     0.360 C 
ATOM      4  O   UNL A   1      32.082  21.554  22.859  1.00  0.00    -0.244 OA
BRANCH   3   5
ATOM      5  C   UNL A   1      32.105  23.509  24.246  1.00  0.00     0.190 A 
ATOM      6  N   UNL A   1      31.145  25.432  24.195  1.00  0.00    -0.231 N 
ATOM      7  N   UNL A   1      31.128  24.205  23.616  1.00  0.00    -0.159 NA
ATOM      8  C   UNL A   1      32.125  25.546  25.160  1.00  0.00     0.094 A 
ATOM      9  C   UNL A   1      32.662  24.284  25.293  1.00  0.00     0.102 A 
ATOM     10  Cl  UNL A   1      33.852  23.833  26.436  1.00  0.00    -0.079 Cl
BRANCH   6  11
ATOM     11  C   UNL A   1      30.406  26.501  23.631  1.00  0.00     0.065 A 
ATOM     12  C   UNL A   1      29.052  28.762  22.735  1.00  0.00     0.082 A 
ATOM     13  C   UNL A   1      28.357  27.778  23.451  1.00  0.00     0.024 A 
ATOM     14  C   UNL A   1      30.410  28.599  22.437  1.00  0.00     0.024 A 
ATOM     15  C   UNL A   1      29.033  26.626  23.886  1.00  0.00     0.030 A 
ATOM     16  C   UNL A   1      31.092  27.476  22.899  1.00  0.00     0.030 A 
BRANCH  12  17
ATOM     17  S   UNL A   1      28.277  30.249  22.171  1.00  0.00     0.238 S 
ATOM     18  O   UNL A   1      27.315  30.666  23.172  1.00  0.00    -0.207 OA
ATOM     19  O   UNL A   1      27.917  30.075  20.786  1.00  0.00    -0.207 OA
BRANCH  17  20
ATOM     20  N   UNL A   1      29.476  31.419  22.198  1.00  0.00    -0.225 NA
ATOM     21  H   UNL A   1      29.817  31.579  21.251  1.00  0.00     0.137 HD
ATOM     22  H   UNL A   1      30.245  31.103  22.787  1.00  0.00     0.137 HD
ENDBRANCH  17  20
ENDBRANCH  12  17
ENDBRANCH   6  11
BRANCH   8  23
ATOM     23  C   UNL A   1      32.516  26.751  25.881  1.00  0.00     0.002 A 
ATOM     24  C   UNL A   1      31.567  27.351  26.724  1.00  0.00     0.012 A 
ATOM     25  C   UNL A   1      33.737  27.389  25.650  1.00  0.00     0.012 A 
ATOM     26  C   UNL A   1      31.810  28.600  27.288  1.00  0.00     0.021 A 
ATOM     27  C   UNL A   1      33.985  28.639  26.225  1.00  0.00     0.021 A 
ATOM     28  C   UNL A   1      33.015  29.244  27.026  1.00  0.00     0.041 A 
ATOM     29  Cl  UNL A   1      33.289  30.814  27.674  1.00  0.00    -0.084 Cl
ENDBRANCH   8  23
ENDBRANCH   3   5
ENDBRANCH   2   3
ENDBRANCH   1   2
BRANCH   1  30
ATOM     30  C   UNL A   1      35.630  20.750  25.303  1.00  0.00     0.275 C 
BRANCH  30  31
ATOM     31  O   UNL A   1      36.720  21.542  25.761  1.00  0.00    -0.458 OA
BRANCH  31  32
ATOM     32  C   UNL A   1      37.947  21.057  25.469  1.00  0.00     0.338 C 
ATOM     33  O   UNL A   1      38.230  19.928  25.105  1.00  0.00    -0.246 OA
BRANCH  32  34
ATOM     34  C   UNL A   1      38.945  22.056  25.846  1.00  0.00     0.060 A 
ATOM     35  C   UNL A   1      40.173  21.608  26.338  1.00  0.00     0.016 A 
ATOM     36  C   UNL A   1      38.531  23.389  25.967  1.00  0.00     0.016 A 
ATOM     37  C   UNL A   1      40.928  22.475  27.099  1.00  0.00     0.010 A 
ATOM     38  C   UNL A   1      39.266  24.240  26.749  1.00  0.00     0.010 A 
ATOM     39  C   UNL A   1      40.420  23.753  27.358  1.00  0.00    -0.014 A 
BRANCH  39  40
ATOM     40  C   UNL A   1      41.195  24.676  28.158  1.00  0.00     0.031 A 
ATOM     41  C   UNL A   1      40.528  25.993  28.267  1.00  0.00     0.074 A 
ATOM     42  C   UNL A   1      42.281  24.280  28.852  1.00  0.00     0.049 A 
ATOM     43  N   UNL A   1      40.875  27.098  27.698  1.00  0.00    -0.248 NA
ATOM     44  C   UNL A   1      39.186  26.035  28.883  1.00  0.00     0.031 C 
ATOM     45  C   UNL A   1      42.801  22.916  29.004  1.00  0.00     0.029 A 
ATOM     46  N   UNL A   1      43.086  25.002  29.675  1.00  0.00    -0.354 N 
ATOM     47  C   UNL A   1      39.934  28.032  28.118  1.00  0.00     0.074 A 
ATOM     48  C   UNL A   1      38.806  27.281  28.599  1.00  0.00     0.031 C 
ATOM     49  C   UNL A   1      43.670  22.880  30.042  1.00  0.00     0.029 A 
ATOM     50  C   UNL A   1      43.870  24.233  30.534  1.00  0.00     0.049 A 
ATOM     51  H   UNL A   1      43.116  25.986  29.665  1.00  0.00     0.167 HD
ATOM     52  C   UNL A   1      40.296  29.319  28.374  1.00  0.00     0.031 A 
ATOM     53  C   UNL A   1      44.580  24.686  31.600  1.00  0.00     0.031 A 
ATOM     54  C   UNL A   1      41.600  29.604  27.832  1.00  0.00     0.049 A 
ATOM     55  C   UNL A   1      44.757  26.145  31.406  1.00  0.00     0.074 A 
ATOM     56  C   UNL A   1      42.154  29.678  26.573  1.00  0.00     0.029 A 
ATOM     57  N   UNL A   1      42.635  29.442  28.722  1.00  0.00    -0.354 N 
ATOM     58  N   UNL A   1      45.461  26.656  30.437  1.00  0.00    -0.248 NA
ATOM     59  C   UNL A   1      43.804  27.052  32.029  1.00  0.00     0.031 C 
ATOM     60  C   UNL A   1      43.495  29.221  26.722  1.00  0.00     0.029 A 
ATOM     61  C   UNL A   1      43.733  28.950  28.073  1.00  0.00     0.049 A 
ATOM     62  H   UNL A   1      42.593  29.650  29.684  1.00  0.00     0.167 HD
ATOM     63  C   UNL A   1      44.748  27.775  30.037  1.00  0.00     0.074 A 
ATOM     64  C   UNL A   1      43.829  28.050  31.139  1.00  0.00     0.031 C 
ATOM     65  C   UNL A   1      44.770  28.180  28.733  1.00  0.00     0.031 A 
BRANCH  52  66
ATOM     66  C   UNL A   1      39.735  30.120  29.533  1.00  0.00    -0.014 A 
ATOM     67  C   UNL A   1      38.637  30.969  29.291  1.00  0.00     0.010 A 
ATOM     68  C   UNL A   1      40.411  30.293  30.759  1.00  0.00     0.010 A 
ATOM     69  C   UNL A   1      38.281  31.977  30.197  1.00  0.00     0.020 A 
ATOM     70  C   UNL A   1      40.040  31.267  31.688  1.00  0.00     0.020 A 
ATOM     71  C   UNL A   1      38.994  32.124  31.387  1.00  0.00     0.054 A 
BRANCH  71  72
ATOM     72  S   UNL A   1      38.581  33.475  32.514  1.00  0.00     0.124 S 
ATOM     73  O   UNL A   1      37.358  32.982  33.140  1.00  0.00    -0.237 OA
ATOM     74  O   UNL A   1      39.760  33.529  33.373  1.00  0.00    -0.237 OA
ATOM     75  O   UNL A   1      38.411  34.622  31.624  1.00  0.00    -0.744 OA
ENDBRANCH  71  72
ENDBRANCH  52  66
BRANCH  53  76
ATOM     76  C   UNL A   1      44.855  24.028  32.904  1.00  0.00    -0.014 A 
ATOM     77  C   UNL A   1      43.982  23.053  33.428  1.00  0.00     0.010 A 
ATOM     78  C   UNL A   1      46.134  24.137  33.486  1.00  0.00     0.010 A 
ATOM     79  C   UNL A   1      44.398  22.177  34.449  1.00  0.00     0.020 A 
ATOM     80  C   UNL A   1      46.554  23.270  34.505  1.00  0.00     0.020 A 
ATOM     81  C   UNL A   1      45.691  22.277  34.966  1.00  0.00     0.054 A 
BRANCH  81  82
ATOM     82  S   UNL A   1      46.284  21.028  36.151  1.00  0.00     0.124 S 
ATOM     83  O   UNL A   1      47.710  20.960  35.845  1.00  0.00    -0.237 OA
ATOM     84  O   UNL A   1      45.944  21.624  37.440  1.00  0.00    -0.237 OA
ATOM     85  O   UNL A   1      45.518  19.833  35.804  1.00  0.00    -0.744 OA
ENDBRANCH  81  82
ENDBRANCH  53  76
BRANCH  65  86
ATOM     86  C   UNL A   1      45.883  27.658  27.855  1.00  0.00    -0.014 A 
ATOM     87  C   UNL A   1      45.850  26.433  27.161  1.00  0.00     0.010 A 
ATOM     88  C   UNL A   1      46.971  28.522  27.643  1.00  0.00     0.010 A 
ATOM     89  C   UNL A   1      46.897  26.076  26.295  1.00  0.00     0.020 A 
ATOM     90  C   UNL A   1      48.003  28.183  26.771  1.00  0.00     0.020 A 
ATOM     91  C   UNL A   1      47.969  26.956  26.108  1.00  0.00     0.054 A 
BRANCH  91  92
ATOM     92  S   UNL A   1      49.309  26.515  24.967  1.00  0.00     0.124 S 
ATOM     93  O   UNL A   1      48.607  25.774  23.922  1.00  0.00    -0.237 OA
ATOM     94  O   UNL A   1      49.838  27.817  24.568  1.00  0.00    -0.237 OA
ATOM     95  O   UNL A   1      50.217  25.714  25.788  1.00  0.00    -0.744 OA
ENDBRANCH  91  92
ENDBRANCH  65  86
ENDBRANCH  39  40
ENDBRANCH  32  34
ENDBRANCH  31  32
ENDBRANCH  30  31
ENDBRANCH   1  30
TORSDOF 18
ENDMDL
