MODEL 1
REMARK VINA RESULT:     -15.3      0.000      0.000
REMARK SMILES Cc1cccc(CC(=O)N2CCC3(CCC(=O)N([C@H](C)C(=O)OCCOC(=O)c4ccc(-c5c6nc(c(-c7ccc(S(=O)(=O)[O-])cc7)c7ccc([nH]7)c(-c7ccc(S(=O)(=O)[O-])cc7)c7nc(c(-c8ccc(S(=O)(=O)[O-])cc8)c8ccc5[nH]8)C=C7)C=C6)cc4)C3)CC2)c1
REMARK SMILES IDX 24 1 23 2 21 3 22 4 19 5 20 6 18 7 8 8 9 9 10 10 11 11 91 12
REMARK SMILES IDX 12 13 90 14 13 15 14 16 89 17 15 18 16 19 17 20 7 21 6 22
REMARK SMILES IDX 1 23 2 24 3 25 92 26 4 27 5 28 25 29 26 30 27 31 28 32 29 33
REMARK SMILES IDX 30 34 88 35 31 36 87 37 32 38 33 39 34 40 81 41 35 42 86 43
REMARK SMILES IDX 80 44 82 45 36 46 85 47 79 48 78 49 37 51 67 52 48 53 66 54
REMARK SMILES IDX 49 55 52 56 65 57 83 58 50 59 51 60 64 62 84 63 53 64 38 65
REMARK SMILES IDX 39 66 47 67 40 68 46 69 41 70 42 71 43 72 44 73 45 74 68 75
REMARK SMILES IDX 69 76 77 77 70 78 76 79 71 80 72 81 73 82 74 83 75 84 54 85
REMARK SMILES IDX 55 86 63 87 56 88 62 89 57 90 58 91 59 92 60 93 61 94
REMARK H PARENT 82 50 52 61
REMARK Flexibility Score: inf
ROOT
ATOM      1  C   UNL A   1      47.533  27.085  25.915  1.00  0.00     0.274 C 
ENDROOT
BRANCH   1   2
ATOM      2  O   UNL A   1      47.483  25.429  26.109  1.00  0.00    -0.461 OA
BRANCH   2   3
ATOM      3  C   UNL A   1      46.780  24.693  27.118  1.00  0.00     0.328 C 
ATOM      4  O   UNL A   1      47.242  24.594  28.253  1.00  0.00    -0.250 OA
BRANCH   3   5
ATOM      5  C   UNL A   1      45.289  23.941  26.643  1.00  0.00     0.192 C 
ATOM      6  C   UNL A   1      45.559  22.491  26.163  1.00  0.00     0.044 C 
BRANCH   5   7
ATOM      7  N   UNL A   1      43.862  23.854  27.332  1.00  0.00    -0.329 N 
ATOM      8  C   UNL A   1      37.625  21.872  25.080  1.00  0.00     0.226 C 
ATOM      9  O   UNL A   1      37.468  20.644  25.076  1.00  0.00    -0.275 OA
ATOM     10  N   UNL A   1      38.730  22.460  25.704  1.00  0.00    -0.342 N 
ATOM     11  C   UNL A   1      39.789  21.576  26.183  1.00  0.00     0.120 C 
ATOM     12  C   UNL A   1      38.727  23.804  26.284  1.00  0.00     0.120 C 
ATOM     13  C   UNL A   1      41.171  22.230  26.099  1.00  0.00     0.030 C 
ATOM     14  C   UNL A   1      40.111  24.468  26.288  1.00  0.00     0.030 C 
ATOM     15  C   UNL A   1      41.263  23.570  26.855  1.00  0.00    -0.008 C 
ATOM     16  C   UNL A   1      41.139  23.474  28.377  1.00  0.00     0.019 C 
ATOM     17  C   UNL A   1      42.635  24.240  26.580  1.00  0.00     0.127 C 
ATOM     18  C   UNL A   1      42.343  22.781  28.996  1.00  0.00     0.101 C 
ATOM     19  C   UNL A   1      43.730  23.286  28.587  1.00  0.00     0.223 C 
ATOM     20  O   UNL A   1      44.696  23.070  29.315  1.00  0.00    -0.275 OA
BRANCH   8  21
ATOM     21  C   UNL A   1      36.679  22.730  24.246  1.00  0.00     0.135 C 
BRANCH  21  22
ATOM     22  C   UNL A   1      35.462  23.293  24.935  1.00  0.00    -0.038 A 
ATOM     23  C   UNL A   1      33.367  22.445  28.009  1.00  0.00     0.044 C 
ATOM     24  C   UNL A   1      33.870  23.147  26.781  1.00  0.00    -0.051 A 
ATOM     25  C   UNL A   1      33.143  24.198  26.219  1.00  0.00     0.003 A 
ATOM     26  C   UNL A   1      35.042  22.723  26.150  1.00  0.00     0.007 A 
ATOM     27  C   UNL A   1      33.585  24.817  25.047  1.00  0.00     0.001 A 
ATOM     28  C   UNL A   1      34.740  24.367  24.405  1.00  0.00     0.004 A 
ENDBRANCH  21  22
ENDBRANCH   8  21
ENDBRANCH   5   7
ENDBRANCH   3   5
ENDBRANCH   2   3
ENDBRANCH   1   2
BRANCH   1  29
ATOM     29  C   UNL A   1      46.182  28.149  25.059  1.00  0.00     0.275 C 
BRANCH  29  30
ATOM     30  O   UNL A   1      44.650  28.897  25.873  1.00  0.00    -0.458 OA
BRANCH  30  31
ATOM     31  C   UNL A   1      43.075  28.607  26.481  1.00  0.00     0.338 C 
ATOM     32  O   UNL A   1      42.246  29.382  25.977  1.00  0.00    -0.246 OA
BRANCH  31  33
ATOM     33  C   UNL A   1      42.356  27.573  27.886  1.00  0.00     0.060 A 
ATOM     34  C   UNL A   1      41.002  27.156  27.877  1.00  0.00     0.016 A 
ATOM     35  C   UNL A   1      42.703  27.596  29.290  1.00  0.00     0.016 A 
ATOM     36  C   UNL A   1      40.069  27.363  29.085  1.00  0.00     0.010 A 
ATOM     37  C   UNL A   1      41.838  27.912  30.395  1.00  0.00     0.010 A 
ATOM     38  C   UNL A   1      40.481  27.977  30.307  1.00  0.00    -0.014 A 
BRANCH  38  39
ATOM     39  C   UNL A   1      39.853  29.076  31.230  1.00  0.00     0.031 A 
ATOM     40  C   UNL A   1      38.706  29.937  30.822  1.00  0.00     0.074 A 
ATOM     41  C   UNL A   1      39.820  29.121  32.605  1.00  0.00     0.049 A 
ATOM     42  N   UNL A   1      38.807  31.132  30.336  1.00  0.00    -0.248 NA
ATOM     43  C   UNL A   1      37.328  29.571  31.227  1.00  0.00     0.031 C 
ATOM     44  C   UNL A   1      39.521  30.249  33.509  1.00  0.00     0.029 A 
ATOM     45  N   UNL A   1      40.301  28.235  33.527  1.00  0.00    -0.354 N 
ATOM     46  C   UNL A   1      37.618  31.767  30.687  1.00  0.00     0.074 A 
ATOM     47  C   UNL A   1      36.669  30.718  31.039  1.00  0.00     0.031 C 
ATOM     48  C   UNL A   1      40.317  30.143  34.603  1.00  0.00     0.029 A 
ATOM     49  C   UNL A   1      41.071  28.906  34.487  1.00  0.00     0.049 A 
ATOM     50  H   UNL A   1      40.131  27.266  33.519  1.00  0.00     0.167 HD
ATOM     51  C   UNL A   1      37.581  33.012  31.260  1.00  0.00     0.031 A 
ATOM     52  C   UNL A   1      42.422  28.682  34.374  1.00  0.00     0.031 A 
ATOM     53  C   UNL A   1      38.849  33.378  31.907  1.00  0.00     0.049 A 
ATOM     54  C   UNL A   1      43.027  29.844  33.497  1.00  0.00     0.074 A 
ATOM     55  C   UNL A   1      39.184  33.690  33.219  1.00  0.00     0.029 A 
ATOM     56  N   UNL A   1      40.058  33.164  31.258  1.00  0.00    -0.354 N 
ATOM     57  N   UNL A   1      42.381  30.954  33.236  1.00  0.00    -0.248 NA
ATOM     58  C   UNL A   1      44.329  29.851  32.810  1.00  0.00     0.031 C 
ATOM     59  C   UNL A   1      40.586  33.531  33.377  1.00  0.00     0.029 A 
ATOM     60  C   UNL A   1      41.106  33.132  32.164  1.00  0.00     0.049 A 
ATOM     61  H   UNL A   1      40.158  33.049  30.285  1.00  0.00     0.167 HD
ATOM     62  C   UNL A   1      43.027  31.698  32.275  1.00  0.00     0.074 A 
ATOM     63  C   UNL A   1      44.289  31.005  32.104  1.00  0.00     0.031 C 
ATOM     64  C   UNL A   1      42.447  32.799  31.698  1.00  0.00     0.031 A 
BRANCH  51  65
ATOM     65  C   UNL A   1      36.263  33.730  31.508  1.00  0.00    -0.014 A 
ATOM     66  C   UNL A   1      35.996  34.385  32.727  1.00  0.00     0.010 A 
ATOM     67  C   UNL A   1      35.293  33.891  30.491  1.00  0.00     0.010 A 
ATOM     68  C   UNL A   1      34.818  35.116  32.943  1.00  0.00     0.020 A 
ATOM     69  C   UNL A   1      34.104  34.613  30.696  1.00  0.00     0.020 A 
ATOM     70  C   UNL A   1      33.876  35.228  31.924  1.00  0.00     0.054 A 
BRANCH  70  71
ATOM     71  S   UNL A   1      32.394  36.228  32.220  1.00  0.00     0.124 S 
ATOM     72  O   UNL A   1      32.839  37.152  33.260  1.00  0.00    -0.237 OA
ATOM     73  O   UNL A   1      32.155  36.828  30.910  1.00  0.00    -0.237 OA
ATOM     74  O   UNL A   1      31.394  35.252  32.646  1.00  0.00    -0.744 OA
ENDBRANCH  70  71
ENDBRANCH  51  65
BRANCH  52  75
ATOM     75  C   UNL A   1      42.590  27.139  34.137  1.00  0.00    -0.014 A 
ATOM     76  C   UNL A   1      43.637  26.628  33.366  1.00  0.00     0.010 A 
ATOM     77  C   UNL A   1      42.473  26.377  35.252  1.00  0.00     0.010 A 
ATOM     78  C   UNL A   1      44.673  25.675  33.924  1.00  0.00     0.020 A 
ATOM     79  C   UNL A   1      43.706  25.724  35.799  1.00  0.00     0.020 A 
ATOM     80  C   UNL A   1      44.856  25.155  35.333  1.00  0.00     0.054 A 
BRANCH  80  81
ATOM     81  S   UNL A   1      45.910  23.280  36.359  1.00  0.00     0.124 S 
ATOM     82  O   UNL A   1      47.367  23.207  36.137  1.00  0.00    -0.237 OA
ATOM     83  O   UNL A   1      45.674  23.338  37.770  1.00  0.00    -0.237 OA
ATOM     84  O   UNL A   1      45.462  22.013  35.768  1.00  0.00    -0.744 OA
ENDBRANCH  80  81
ENDBRANCH  52  75
BRANCH  64  85
ATOM     85  C   UNL A   1      43.044  33.755  30.684  1.00  0.00    -0.014 A 
ATOM     86  C   UNL A   1      43.552  35.032  30.953  1.00  0.00     0.010 A 
ATOM     87  C   UNL A   1      43.190  33.275  29.352  1.00  0.00     0.010 A 
ATOM     88  C   UNL A   1      44.118  35.811  29.921  1.00  0.00     0.020 A 
ATOM     89  C   UNL A   1      43.779  34.023  28.334  1.00  0.00     0.020 A 
ATOM     90  C   UNL A   1      44.211  35.308  28.618  1.00  0.00     0.054 A 
BRANCH  90  91
ATOM     91  S   UNL A   1      44.915  36.320  27.289  1.00  0.00     0.124 S 
ATOM     92  O   UNL A   1      45.116  35.330  26.234  1.00  0.00    -0.237 OA
ATOM     93  O   UNL A   1      43.865  37.303  27.036  1.00  0.00    -0.237 OA
ATOM     94  O   UNL A   1      46.138  36.862  27.876  1.00  0.00    -0.744 OA
ENDBRANCH  90  91
ENDBRANCH  64  85
ENDBRANCH  38  39
ENDBRANCH  31  33
ENDBRANCH  30  31
ENDBRANCH  29  30
ENDBRANCH   1  29
TORSDOF 17
ENDMDL
MODEL 2
REMARK VINA RESULT:     -14.8      4.066      7.424
REMARK SMILES Cc1cccc(CC(=O)N2CCC3(CCC(=O)N([C@H](C)C(=O)OCCOC(=O)c4ccc(-c5c6nc(c(-c7ccc(S(=O)(=O)[O-])cc7)c7ccc([nH]7)c(-c7ccc(S(=O)(=O)[O-])cc7)c7nc(c(-c8ccc(S(=O)(=O)[O-])cc8)c8ccc5[nH]8)C=C7)C=C6)cc4)C3)CC2)c1
REMARK SMILES IDX 24 1 23 2 21 3 22 4 19 5 20 6 18 7 8 8 9 9 10 10 11 11 91 12
REMARK SMILES IDX 12 13 90 14 13 15 14 16 89 17 15 18 16 19 17 20 7 21 6 22
REMARK SMILES IDX 1 23 2 24 3 25 92 26 4 27 5 28 25 29 26 30 27 31 28 32 29 33
REMARK SMILES IDX 30 34 88 35 31 36 87 37 32 38 33 39 34 40 81 41 35 42 86 43
REMARK SMILES IDX 80 44 82 45 36 46 85 47 79 48 78 49 37 51 67 52 48 53 66 54
REMARK SMILES IDX 49 55 52 56 65 57 83 58 50 59 51 60 64 62 84 63 53 64 38 65
REMARK SMILES IDX 39 66 47 67 40 68 46 69 41 70 42 71 43 72 44 73 45 74 68 75
REMARK SMILES IDX 69 76 77 77 70 78 76 79 71 80 72 81 73 82 74 83 75 84 54 85
REMARK SMILES IDX 55 86 63 87 56 88 62 89 57 90 58 91 59 92 60 93 61 94
REMARK H PARENT 82 50 52 61
REMARK Flexibility Score: inf
ROOT
ATOM      1  C   UNL A   1      37.050  23.220  25.006  1.00  0.00     0.274 C 
ENDROOT
BRANCH   1   2
ATOM      2  O   UNL A   1      36.470  21.825  24.298  1.00  0.00    -0.461 OA
BRANCH   2   3
ATOM      3  C   UNL A   1      35.765  20.755  24.938  1.00  0.00     0.328 C 
ATOM      4  O   UNL A   1      36.251  19.626  24.980  1.00  0.00    -0.250 OA
BRANCH   3   5
ATOM      5  C   UNL A   1      34.207  21.130  25.605  1.00  0.00     0.192 C 
ATOM      6  C   UNL A   1      34.334  21.394  27.129  1.00  0.00     0.044 C 
BRANCH   5   7
ATOM      7  N   UNL A   1      33.049  22.113  25.145  1.00  0.00    -0.329 N 
ATOM      8  C   UNL A   1      32.632  28.996  24.549  1.00  0.00     0.226 C 
ATOM      9  O   UNL A   1      33.135  29.434  23.505  1.00  0.00    -0.275 OA
ATOM     10  N   UNL A   1      32.429  27.626  24.738  1.00  0.00    -0.342 N 
ATOM     11  C   UNL A   1      33.001  26.713  23.751  1.00  0.00     0.120 C 
ATOM     12  C   UNL A   1      31.368  27.059  25.572  1.00  0.00     0.120 C 
ATOM     13  C   UNL A   1      33.424  25.379  24.373  1.00  0.00     0.030 C 
ATOM     14  C   UNL A   1      31.723  25.684  26.157  1.00  0.00     0.030 C 
ATOM     15  C   UNL A   1      32.280  24.657  25.113  1.00  0.00    -0.008 C 
ATOM     16  C   UNL A   1      31.140  24.153  24.226  1.00  0.00     0.019 C 
ATOM     17  C   UNL A   1      32.833  23.408  25.849  1.00  0.00     0.127 C 
ATOM     18  C   UNL A   1      31.589  23.009  23.331  1.00  0.00     0.101 C 
ATOM     19  C   UNL A   1      32.324  21.843  23.998  1.00  0.00     0.223 C 
ATOM     20  O   UNL A   1      32.354  20.746  23.446  1.00  0.00    -0.275 OA
BRANCH   8  21
ATOM     21  C   UNL A   1      32.390  29.965  25.703  1.00  0.00     0.135 C 
BRANCH  21  22
ATOM     22  C   UNL A   1      33.517  30.174  26.682  1.00  0.00    -0.038 A 
ATOM     23  C   UNL A   1      34.656  32.928  29.063  1.00  0.00     0.044 C 
ATOM     24  C   UNL A   1      34.597  31.623  28.324  1.00  0.00    -0.051 A 
ATOM     25  C   UNL A   1      35.637  30.698  28.436  1.00  0.00     0.003 A 
ATOM     26  C   UNL A   1      33.529  31.338  27.470  1.00  0.00     0.007 A 
ATOM     27  C   UNL A   1      35.606  29.506  27.707  1.00  0.00     0.001 A 
ATOM     28  C   UNL A   1      34.550  29.243  26.832  1.00  0.00     0.004 A 
ENDBRANCH  21  22
ENDBRANCH   8  21
ENDBRANCH   5   7
ENDBRANCH   3   5
ENDBRANCH   2   3
ENDBRANCH   1   2
BRANCH   1  29
ATOM     29  C   UNL A   1      38.495  23.314  26.268  1.00  0.00     0.275 C 
BRANCH  29  30
ATOM     30  O   UNL A   1      39.496  24.849  26.726  1.00  0.00    -0.458 OA
BRANCH  30  31
ATOM     31  C   UNL A   1      39.749  26.095  27.875  1.00  0.00     0.338 C 
ATOM     32  O   UNL A   1      40.538  25.736  28.764  1.00  0.00    -0.246 OA
BRANCH  31  33
ATOM     33  C   UNL A   1      38.942  27.761  28.236  1.00  0.00     0.060 A 
ATOM     34  C   UNL A   1      39.469  28.966  27.708  1.00  0.00     0.016 A 
ATOM     35  C   UNL A   1      38.239  28.182  29.427  1.00  0.00     0.016 A 
ATOM     36  C   UNL A   1      39.741  30.200  28.588  1.00  0.00     0.010 A 
ATOM     37  C   UNL A   1      38.585  29.269  30.304  1.00  0.00     0.010 A 
ATOM     38  C   UNL A   1      39.484  30.243  29.992  1.00  0.00    -0.014 A 
BRANCH  38  39
ATOM     39  C   UNL A   1      40.309  30.742  31.227  1.00  0.00     0.031 A 
ATOM     40  C   UNL A   1      39.731  31.571  32.322  1.00  0.00     0.074 A 
ATOM     41  C   UNL A   1      41.414  30.162  31.808  1.00  0.00     0.049 A 
ATOM     42  N   UNL A   1      39.807  32.862  32.399  1.00  0.00    -0.248 NA
ATOM     43  C   UNL A   1      39.264  30.925  33.572  1.00  0.00     0.031 C 
ATOM     44  C   UNL A   1      42.391  30.728  32.758  1.00  0.00     0.029 A 
ATOM     45  N   UNL A   1      42.076  29.010  31.487  1.00  0.00    -0.354 N 
ATOM     46  C   UNL A   1      39.739  33.147  33.761  1.00  0.00     0.074 A 
ATOM     47  C   UNL A   1      39.198  31.961  34.413  1.00  0.00     0.031 C 
ATOM     48  C   UNL A   1      43.617  30.225  32.461  1.00  0.00     0.029 A 
ATOM     49  C   UNL A   1      43.453  29.255  31.392  1.00  0.00     0.049 A 
ATOM     50  H   UNL A   1      41.649  28.136  31.343  1.00  0.00     0.167 HD
ATOM     51  C   UNL A   1      40.618  33.992  34.389  1.00  0.00     0.031 A 
ATOM     52  C   UNL A   1      43.934  29.244  30.105  1.00  0.00     0.031 A 
ATOM     53  C   UNL A   1      41.877  34.156  33.647  1.00  0.00     0.049 A 
ATOM     54  C   UNL A   1      43.927  30.731  29.581  1.00  0.00     0.074 A 
ATOM     55  C   UNL A   1      43.202  33.880  33.962  1.00  0.00     0.029 A 
ATOM     56  N   UNL A   1      41.862  34.380  32.276  1.00  0.00    -0.354 N 
ATOM     57  N   UNL A   1      43.795  31.768  30.371  1.00  0.00    -0.248 NA
ATOM     58  C   UNL A   1      44.004  31.178  28.180  1.00  0.00     0.031 C 
ATOM     59  C   UNL A   1      43.947  33.810  32.756  1.00  0.00     0.029 A 
ATOM     60  C   UNL A   1      43.083  34.053  31.709  1.00  0.00     0.049 A 
ATOM     61  H   UNL A   1      41.088  34.725  31.774  1.00  0.00     0.167 HD
ATOM     62  C   UNL A   1      43.595  32.926  29.654  1.00  0.00     0.074 A 
ATOM     63  C   UNL A   1      43.822  32.515  28.282  1.00  0.00     0.031 C 
ATOM     64  C   UNL A   1      43.237  34.103  30.260  1.00  0.00     0.031 A 
BRANCH  51  65
ATOM     65  C   UNL A   1      40.434  34.384  35.847  1.00  0.00    -0.014 A 
ATOM     66  C   UNL A   1      40.925  33.581  36.896  1.00  0.00     0.010 A 
ATOM     67  C   UNL A   1      39.881  35.630  36.225  1.00  0.00     0.010 A 
ATOM     68  C   UNL A   1      40.831  33.966  38.242  1.00  0.00     0.020 A 
ATOM     69  C   UNL A   1      39.774  36.025  37.570  1.00  0.00     0.020 A 
ATOM     70  C   UNL A   1      40.256  35.189  38.573  1.00  0.00     0.054 A 
BRANCH  70  71
ATOM     71  S   UNL A   1      40.205  35.679  40.318  1.00  0.00     0.124 S 
ATOM     72  O   UNL A   1      38.906  35.170  40.750  1.00  0.00    -0.237 OA
ATOM     73  O   UNL A   1      41.365  34.985  40.872  1.00  0.00    -0.237 OA
ATOM     74  O   UNL A   1      40.316  37.135  40.274  1.00  0.00    -0.744 OA
ENDBRANCH  70  71
ENDBRANCH  51  65
BRANCH  52  75
ATOM     75  C   UNL A   1      43.285  27.997  29.406  1.00  0.00    -0.014 A 
ATOM     76  C   UNL A   1      42.920  28.022  28.058  1.00  0.00     0.010 A 
ATOM     77  C   UNL A   1      43.906  26.819  29.656  1.00  0.00     0.010 A 
ATOM     78  C   UNL A   1      43.509  27.076  27.034  1.00  0.00     0.020 A 
ATOM     79  C   UNL A   1      44.673  26.171  28.544  1.00  0.00     0.020 A 
ATOM     80  C   UNL A   1      44.588  26.026  27.189  1.00  0.00     0.054 A 
BRANCH  80  81
ATOM     81  S   UNL A   1      45.264  24.058  26.027  1.00  0.00     0.124 S 
ATOM     82  O   UNL A   1      46.636  23.614  26.337  1.00  0.00    -0.237 OA
ATOM     83  O   UNL A   1      44.362  22.998  26.361  1.00  0.00    -0.237 OA
ATOM     84  O   UNL A   1      45.350  24.284  24.579  1.00  0.00    -0.744 OA
ENDBRANCH  80  81
ENDBRANCH  52  75
BRANCH  64  85
ATOM     85  C   UNL A   1      43.045  35.467  29.627  1.00  0.00    -0.014 A 
ATOM     86  C   UNL A   1      43.888  36.574  29.780  1.00  0.00     0.010 A 
ATOM     87  C   UNL A   1      41.959  35.609  28.718  1.00  0.00     0.010 A 
ATOM     88  C   UNL A   1      43.615  37.782  29.104  1.00  0.00     0.020 A 
ATOM     89  C   UNL A   1      41.702  36.787  28.019  1.00  0.00     0.020 A 
ATOM     90  C   UNL A   1      42.516  37.885  28.243  1.00  0.00     0.054 A 
BRANCH  90  91
ATOM     91  S   UNL A   1      42.154  39.446  27.395  1.00  0.00     0.124 S 
ATOM     92  O   UNL A   1      41.278  39.001  26.313  1.00  0.00    -0.237 OA
ATOM     93  O   UNL A   1      41.511  40.242  28.436  1.00  0.00    -0.237 OA
ATOM     94  O   UNL A   1      43.468  39.926  26.975  1.00  0.00    -0.744 OA
ENDBRANCH  90  91
ENDBRANCH  64  85
ENDBRANCH  38  39
ENDBRANCH  31  33
ENDBRANCH  30  31
ENDBRANCH  29  30
ENDBRANCH   1  29
TORSDOF 17
ENDMDL
MODEL 3
REMARK VINA RESULT:     -14.7      5.068     11.242
REMARK SMILES Cc1cccc(CC(=O)N2CCC3(CCC(=O)N([C@H](C)C(=O)OCCOC(=O)c4ccc(-c5c6nc(c(-c7ccc(S(=O)(=O)[O-])cc7)c7ccc([nH]7)c(-c7ccc(S(=O)(=O)[O-])cc7)c7nc(c(-c8ccc(S(=O)(=O)[O-])cc8)c8ccc5[nH]8)C=C7)C=C6)cc4)C3)CC2)c1
REMARK SMILES IDX 24 1 23 2 21 3 22 4 19 5 20 6 18 7 8 8 9 9 10 10 11 11 91 12
REMARK SMILES IDX 12 13 90 14 13 15 14 16 89 17 15 18 16 19 17 20 7 21 6 22
REMARK SMILES IDX 1 23 2 24 3 25 92 26 4 27 5 28 25 29 26 30 27 31 28 32 29 33
REMARK SMILES IDX 30 34 88 35 31 36 87 37 32 38 33 39 34 40 81 41 35 42 86 43
REMARK SMILES IDX 80 44 82 45 36 46 85 47 79 48 78 49 37 51 67 52 48 53 66 54
REMARK SMILES IDX 49 55 52 56 65 57 83 58 50 59 51 60 64 62 84 63 53 64 38 65
REMARK SMILES IDX 39 66 47 67 40 68 46 69 41 70 42 71 43 72 44 73 45 74 68 75
REMARK SMILES IDX 69 76 77 77 70 78 76 79 71 80 72 81 73 82 74 83 75 84 54 85
REMARK SMILES IDX 55 86 63 87 56 88 62 89 57 90 58 91 59 92 60 93 61 94
REMARK H PARENT 82 50 52 61
REMARK Flexibility Score: inf
ROOT
ATOM      1  C   UNL A   1      33.976  28.297  26.728  1.00  0.00     0.274 C 
ENDROOT
BRANCH   1   2
ATOM      2  O   UNL A   1      32.333  28.578  26.648  1.00  0.00    -0.461 OA
BRANCH   2   3
ATOM      3  C   UNL A   1      31.630  29.345  25.663  1.00  0.00     0.328 C 
ATOM      4  O   UNL A   1      31.494  30.559  25.801  1.00  0.00    -0.250 OA
BRANCH   3   5
ATOM      5  C   UNL A   1      30.970  28.474  24.315  1.00  0.00     0.192 C 
ATOM      6  C   UNL A   1      31.083  29.330  23.027  1.00  0.00     0.044 C 
BRANCH   5   7
ATOM      7  N   UNL A   1      31.160  26.985  23.800  1.00  0.00    -0.329 N 
ATOM      8  C   UNL A   1      35.524  21.896  25.520  1.00  0.00     0.226 C 
ATOM      9  O   UNL A   1      35.189  21.281  26.540  1.00  0.00    -0.275 OA
ATOM     10  N   UNL A   1      34.659  22.804  24.902  1.00  0.00    -0.342 N 
ATOM     11  C   UNL A   1      33.423  23.147  25.602  1.00  0.00     0.120 C 
ATOM     12  C   UNL A   1      34.671  23.108  23.470  1.00  0.00     0.120 C 
ATOM     13  C   UNL A   1      32.982  24.587  25.327  1.00  0.00     0.030 C 
ATOM     14  C   UNL A   1      34.164  24.520  23.143  1.00  0.00     0.030 C 
ATOM     15  C   UNL A   1      32.806  24.899  23.828  1.00  0.00    -0.008 C 
ATOM     16  C   UNL A   1      31.657  24.164  23.135  1.00  0.00     0.019 C 
ATOM     17  C   UNL A   1      32.525  26.412  23.632  1.00  0.00     0.127 C 
ATOM     18  C   UNL A   1      30.303  24.648  23.628  1.00  0.00     0.101 C 
ATOM     19  C   UNL A   1      30.061  26.160  23.640  1.00  0.00     0.223 C 
ATOM     20  O   UNL A   1      28.911  26.593  23.632  1.00  0.00    -0.275 OA
BRANCH   8  21
ATOM     21  C   UNL A   1      36.967  21.776  25.038  1.00  0.00     0.135 C 
BRANCH  21  22
ATOM     22  C   UNL A   1      38.024  22.514  25.820  1.00  0.00    -0.038 A 
ATOM     23  C   UNL A   1      41.281  21.639  27.603  1.00  0.00     0.044 C 
ATOM     24  C   UNL A   1      40.131  22.430  27.051  1.00  0.00    -0.051 A 
ATOM     25  C   UNL A   1      39.976  23.778  27.382  1.00  0.00     0.003 A 
ATOM     26  C   UNL A   1      39.168  21.816  26.246  1.00  0.00     0.007 A 
ATOM     27  C   UNL A   1      38.876  24.500  26.910  1.00  0.00     0.001 A 
ATOM     28  C   UNL A   1      37.902  23.872  26.132  1.00  0.00     0.004 A 
ENDBRANCH  21  22
ENDBRANCH   8  21
ENDBRANCH   5   7
ENDBRANCH   3   5
ENDBRANCH   2   3
ENDBRANCH   1   2
BRANCH   1  29
ATOM     29  C   UNL A   1      35.322  29.631  27.040  1.00  0.00     0.275 C 
BRANCH  29  30
ATOM     30  O   UNL A   1      36.349  29.853  28.610  1.00  0.00    -0.458 OA
BRANCH  30  31
ATOM     31  C   UNL A   1      37.720  29.340  29.499  1.00  0.00     0.338 C 
ATOM     32  O   UNL A   1      38.715  29.217  28.766  1.00  0.00    -0.246 OA
BRANCH  31  33
ATOM     33  C   UNL A   1      38.012  28.695  31.248  1.00  0.00     0.060 A 
ATOM     34  C   UNL A   1      37.294  29.213  32.355  1.00  0.00     0.016 A 
ATOM     35  C   UNL A   1      39.238  28.198  31.832  1.00  0.00     0.016 A 
ATOM     36  C   UNL A   1      37.995  29.683  33.643  1.00  0.00     0.010 A 
ATOM     37  C   UNL A   1      39.940  28.731  32.967  1.00  0.00     0.010 A 
ATOM     38  C   UNL A   1      39.409  29.634  33.838  1.00  0.00    -0.014 A 
BRANCH  38  39
ATOM     39  C   UNL A   1      40.461  30.655  34.389  1.00  0.00     0.031 A 
ATOM     40  C   UNL A   1      41.591  30.273  35.282  1.00  0.00     0.074 A 
ATOM     41  C   UNL A   1      40.879  31.839  33.825  1.00  0.00     0.049 A 
ATOM     42  N   UNL A   1      41.585  30.367  36.573  1.00  0.00    -0.248 NA
ATOM     43  C   UNL A   1      42.934  30.018  34.707  1.00  0.00     0.031 C 
ATOM     44  C   UNL A   1      41.622  32.964  34.426  1.00  0.00     0.029 A 
ATOM     45  N   UNL A   1      40.515  32.433  32.649  1.00  0.00    -0.354 N 
ATOM     46  C   UNL A   1      42.922  30.529  36.929  1.00  0.00     0.074 A 
ATOM     47  C   UNL A   1      43.717  30.099  35.787  1.00  0.00     0.031 C 
ATOM     48  C   UNL A   1      41.153  34.120  33.890  1.00  0.00     0.029 A 
ATOM     49  C   UNL A   1      40.179  33.776  32.869  1.00  0.00     0.049 A 
ATOM     50  H   UNL A   1      40.492  31.982  31.774  1.00  0.00     0.167 HD
ATOM     51  C   UNL A   1      43.348  31.505  37.794  1.00  0.00     0.031 A 
ATOM     52  C   UNL A   1      38.832  34.035  32.784  1.00  0.00     0.031 A 
ATOM     53  C   UNL A   1      42.400  32.623  37.902  1.00  0.00     0.049 A 
ATOM     54  C   UNL A   1      38.238  33.947  34.242  1.00  0.00     0.074 A 
ATOM     55  C   UNL A   1      42.504  33.980  37.624  1.00  0.00     0.029 A 
ATOM     56  N   UNL A   1      41.040  32.380  38.054  1.00  0.00    -0.354 N 
ATOM     57  N   UNL A   1      38.982  33.955  35.321  1.00  0.00    -0.248 NA
ATOM     58  C   UNL A   1      36.822  33.792  34.615  1.00  0.00     0.031 C 
ATOM     59  C   UNL A   1      41.196  34.514  37.481  1.00  0.00     0.029 A 
ATOM     60  C   UNL A   1      40.297  33.487  37.682  1.00  0.00     0.049 A 
ATOM     61  H   UNL A   1      40.656  31.535  38.383  1.00  0.00     0.167 HD
ATOM     62  C   UNL A   1      38.248  33.643  36.442  1.00  0.00     0.074 A 
ATOM     63  C   UNL A   1      36.881  33.636  35.957  1.00  0.00     0.031 C 
ATOM     64  C   UNL A   1      38.841  33.398  37.654  1.00  0.00     0.031 A 
BRANCH  51  65
ATOM     65  C   UNL A   1      44.794  31.570  38.264  1.00  0.00    -0.014 A 
ATOM     66  C   UNL A   1      45.285  30.705  39.262  1.00  0.00     0.010 A 
ATOM     67  C   UNL A   1      45.749  32.405  37.639  1.00  0.00     0.010 A 
ATOM     68  C   UNL A   1      46.633  30.700  39.652  1.00  0.00     0.020 A 
ATOM     69  C   UNL A   1      47.101  32.416  38.025  1.00  0.00     0.020 A 
ATOM     70  C   UNL A   1      47.537  31.556  39.030  1.00  0.00     0.054 A 
BRANCH  70  71
ATOM     71  S   UNL A   1      49.281  31.481  39.519  1.00  0.00     0.124 S 
ATOM     72  O   UNL A   1      49.972  31.778  38.267  1.00  0.00    -0.237 OA
ATOM     73  O   UNL A   1      49.364  32.520  40.542  1.00  0.00    -0.237 OA
ATOM     74  O   UNL A   1      49.447  30.115  40.009  1.00  0.00    -0.744 OA
ENDBRANCH  70  71
ENDBRANCH  51  65
BRANCH  52  75
ATOM     75  C   UNL A   1      38.319  33.271  31.512  1.00  0.00    -0.014 A 
ATOM     76  C   UNL A   1      37.284  32.337  31.588  1.00  0.00     0.010 A 
ATOM     77  C   UNL A   1      38.105  34.055  30.428  1.00  0.00     0.010 A 
ATOM     78  C   UNL A   1      35.983  32.495  30.829  1.00  0.00     0.020 A 
ATOM     79  C   UNL A   1      36.690  34.300  29.997  1.00  0.00     0.020 A 
ATOM     80  C   UNL A   1      35.503  33.628  29.950  1.00  0.00     0.054 A 
BRANCH  80  81
ATOM     81  S   UNL A   1      33.899  33.905  28.209  1.00  0.00     0.124 S 
ATOM     82  O   UNL A   1      32.664  34.595  28.628  1.00  0.00    -0.237 OA
ATOM     83  O   UNL A   1      34.498  34.659  27.151  1.00  0.00    -0.237 OA
ATOM     84  O   UNL A   1      33.370  32.616  27.747  1.00  0.00    -0.744 OA
ENDBRANCH  80  81
ENDBRANCH  52  75
BRANCH  64  85
ATOM     85  C   UNL A   1      38.177  33.110  38.986  1.00  0.00    -0.014 A 
ATOM     86  C   UNL A   1      38.249  33.907  40.134  1.00  0.00     0.010 A 
ATOM     87  C   UNL A   1      37.324  31.972  39.049  1.00  0.00     0.010 A 
ATOM     88  C   UNL A   1      37.551  33.544  41.305  1.00  0.00     0.020 A 
ATOM     89  C   UNL A   1      36.603  31.623  40.190  1.00  0.00     0.020 A 
ATOM     90  C   UNL A   1      36.748  32.397  41.330  1.00  0.00     0.054 A 
BRANCH  90  91
ATOM     91  S   UNL A   1      35.872  31.919  42.843  1.00  0.00     0.124 S 
ATOM     92  O   UNL A   1      36.744  30.874  43.375  1.00  0.00    -0.237 OA
ATOM     93  O   UNL A   1      35.841  33.161  43.609  1.00  0.00    -0.237 OA
ATOM     94  O   UNL A   1      34.572  31.460  42.361  1.00  0.00    -0.744 OA
ENDBRANCH  90  91
ENDBRANCH  64  85
ENDBRANCH  38  39
ENDBRANCH  31  33
ENDBRANCH  30  31
ENDBRANCH  29  30
ENDBRANCH   1  29
TORSDOF 17
ENDMDL
