MODEL 1
REMARK VINA RESULT:      -9.9      0.000      0.000
REMARK SMILES C[C@H](CC(=O)OCCOC(=O)c1ccc(-c2c3nc(c(-c4ccc(S(=O)(=O)[O-])cc4)c4ccc([nH]4)c(-c4ccc(S(=O)(=O)[O-])cc4)c4nc(c(-c5ccc(S(=O)(=O)[O-])cc5)c5ccc2[nH]5)C=C4)C=C3)cc1)N1C(=O)CCCC1=O
REMARK SMILES IDX 8 1 7 2 6 3 4 4 5 5 3 6 2 7 1 8 72 9 73 10 78 11 74 12 75 13
REMARK SMILES IDX 77 14 79 15 76 16 9 17 10 18 11 19 12 20 13 21 71 22 14 23
REMARK SMILES IDX 70 24 15 25 16 26 17 27 64 28 18 29 69 30 63 31 65 32 19 33
REMARK SMILES IDX 68 34 62 35 61 36 20 38 50 39 31 40 49 41 32 42 35 43 48 44
REMARK SMILES IDX 66 45 33 46 34 47 47 49 67 50 36 51 21 52 22 53 30 54 23 55
REMARK SMILES IDX 29 56 24 57 25 58 26 59 27 60 28 61 51 62 52 63 60 64 53 65
REMARK SMILES IDX 59 66 54 67 55 68 56 69 57 70 58 71 37 72 38 73 46 74 39 75
REMARK SMILES IDX 45 76 40 77 41 78 42 79 43 80 44 81
REMARK H PARENT 65 37 35 48
REMARK Flexibility Score: inf
ROOT
ATOM      1  C   UNL A   1      32.666  29.819  27.319  1.00  0.00     0.275 C 
ENDROOT
BRANCH   1   2
ATOM      2  C   UNL A   1      32.322  28.365  27.637  1.00  0.00     0.274 C 
BRANCH   2   3
ATOM      3  O   UNL A   1      32.337  27.549  26.447  1.00  0.00    -0.462 OA
BRANCH   3   4
ATOM      4  C   UNL A   1      31.144  27.057  26.040  1.00  0.00     0.308 C 
ATOM      5  O   UNL A   1      30.490  26.225  26.658  1.00  0.00    -0.252 OA
BRANCH   4   6
ATOM      6  C   UNL A   1      30.730  27.532  24.668  1.00  0.00     0.148 C 
BRANCH   6   7
ATOM      7  C   UNL A   1      31.216  28.898  24.150  1.00  0.00     0.101 C 
ATOM      8  C   UNL A   1      32.497  28.827  23.317  1.00  0.00     0.032 C 
BRANCH   7   9
ATOM      9  N   UNL A   1      30.108  29.719  23.611  1.00  0.00    -0.279 N 
ATOM     10  C   UNL A   1      29.881  30.939  24.260  1.00  0.00     0.229 C 
ATOM     11  C   UNL A   1      29.326  29.259  22.551  1.00  0.00     0.229 C 
ATOM     12  O   UNL A   1      30.551  31.353  25.205  1.00  0.00    -0.274 OA
ATOM     13  C   UNL A   1      28.754  31.776  23.715  1.00  0.00     0.101 C 
ATOM     14  C   UNL A   1      27.973  29.910  22.344  1.00  0.00     0.101 C 
ATOM     15  O   UNL A   1      29.671  28.385  21.758  1.00  0.00    -0.274 OA
ATOM     16  C   UNL A   1      27.581  30.864  23.448  1.00  0.00     0.020 C 
ENDBRANCH   7   9
ENDBRANCH   6   7
ENDBRANCH   4   6
ENDBRANCH   3   4
ENDBRANCH   2   3
ENDBRANCH   1   2
BRANCH   1  17
ATOM     17  O   UNL A   1      34.072  29.926  27.045  1.00  0.00    -0.458 OA
BRANCH  17  18
ATOM     18  C   UNL A   1      34.765  30.766  27.843  1.00  0.00     0.338 C 
ATOM     19  O   UNL A   1      34.439  31.877  28.219  1.00  0.00    -0.246 OA
BRANCH  18  20
ATOM     20  C   UNL A   1      36.051  30.146  28.194  1.00  0.00     0.060 A 
ATOM     21  C   UNL A   1      36.272  29.648  29.480  1.00  0.00     0.016 A 
ATOM     22  C   UNL A   1      37.078  30.164  27.252  1.00  0.00     0.016 A 
ATOM     23  C   UNL A   1      37.541  29.201  29.841  1.00  0.00     0.010 A 
ATOM     24  C   UNL A   1      38.337  29.677  27.601  1.00  0.00     0.010 A 
ATOM     25  C   UNL A   1      38.585  29.219  28.906  1.00  0.00    -0.014 A 
BRANCH  25  26
ATOM     26  C   UNL A   1      39.954  28.804  29.297  1.00  0.00     0.031 A 
ATOM     27  C   UNL A   1      40.848  29.769  30.023  1.00  0.00     0.074 A 
ATOM     28  C   UNL A   1      40.394  27.573  28.981  1.00  0.00     0.049 A 
ATOM     29  N   UNL A   1      42.108  29.640  30.352  1.00  0.00    -0.248 NA
ATOM     30  C   UNL A   1      40.251  31.053  30.426  1.00  0.00     0.031 C 
ATOM     31  C   UNL A   1      39.610  26.542  28.295  1.00  0.00     0.029 A 
ATOM     32  N   UNL A   1      41.615  26.983  29.186  1.00  0.00    -0.354 N 
ATOM     33  C   UNL A   1      42.464  30.834  30.968  1.00  0.00     0.074 A 
ATOM     34  C   UNL A   1      41.289  31.679  30.963  1.00  0.00     0.031 C 
ATOM     35  C   UNL A   1      40.372  25.446  28.138  1.00  0.00     0.029 A 
ATOM     36  C   UNL A   1      41.704  25.713  28.670  1.00  0.00     0.049 A 
ATOM     37  H   UNL A   1      42.356  27.427  29.658  1.00  0.00     0.167 HD
ATOM     38  C   UNL A   1      43.663  31.193  31.486  1.00  0.00     0.031 A 
ATOM     39  C   UNL A   1      42.751  24.867  28.605  1.00  0.00     0.031 A 
ATOM     40  C   UNL A   1      44.825  30.343  31.497  1.00  0.00     0.049 A 
ATOM     41  C   UNL A   1      44.072  25.292  29.182  1.00  0.00     0.074 A 
ATOM     42  C   UNL A   1      46.082  30.611  32.010  1.00  0.00     0.029 A 
ATOM     43  N   UNL A   1      44.870  29.059  30.977  1.00  0.00    -0.354 N 
ATOM     44  N   UNL A   1      44.392  26.427  29.756  1.00  0.00    -0.248 NA
ATOM     45  C   UNL A   1      45.170  24.320  29.108  1.00  0.00     0.031 C 
ATOM     46  C   UNL A   1      46.898  29.498  31.770  1.00  0.00     0.029 A 
ATOM     47  C   UNL A   1      46.136  28.524  31.147  1.00  0.00     0.049 A 
ATOM     48  H   UNL A   1      44.114  28.596  30.549  1.00  0.00     0.167 HD
ATOM     49  C   UNL A   1      45.726  26.299  30.126  1.00  0.00     0.074 A 
ATOM     50  C   UNL A   1      46.145  24.971  29.727  1.00  0.00     0.031 C 
ATOM     51  C   UNL A   1      46.533  27.201  30.740  1.00  0.00     0.031 A 
BRANCH  38  52
ATOM     52  C   UNL A   1      43.787  32.582  32.052  1.00  0.00    -0.014 A 
ATOM     53  C   UNL A   1      44.142  33.672  31.239  1.00  0.00     0.010 A 
ATOM     54  C   UNL A   1      43.504  32.803  33.412  1.00  0.00     0.010 A 
ATOM     55  C   UNL A   1      44.242  34.956  31.783  1.00  0.00     0.020 A 
ATOM     56  C   UNL A   1      43.582  34.089  33.955  1.00  0.00     0.020 A 
ATOM     57  C   UNL A   1      43.966  35.156  33.140  1.00  0.00     0.054 A 
BRANCH  57  58
ATOM     58  S   UNL A   1      44.074  36.836  33.818  1.00  0.00     0.124 S 
ATOM     59  O   UNL A   1      44.447  37.611  32.639  1.00  0.00    -0.237 OA
ATOM     60  O   UNL A   1      42.723  37.069  34.321  1.00  0.00    -0.237 OA
ATOM     61  O   UNL A   1      45.107  36.727  34.846  1.00  0.00    -0.744 OA
ENDBRANCH  57  58
ENDBRANCH  38  52
BRANCH  39  62
ATOM     62  C   UNL A   1      42.592  23.544  27.947  1.00  0.00    -0.014 A 
ATOM     63  C   UNL A   1      43.151  23.299  26.682  1.00  0.00     0.010 A 
ATOM     64  C   UNL A   1      41.893  22.512  28.600  1.00  0.00     0.010 A 
ATOM     65  C   UNL A   1      43.002  22.050  26.073  1.00  0.00     0.020 A 
ATOM     66  C   UNL A   1      41.761  21.255  28.004  1.00  0.00     0.020 A 
ATOM     67  C   UNL A   1      42.307  21.035  26.738  1.00  0.00     0.054 A 
BRANCH  67  68
ATOM     68  S   UNL A   1      42.172  19.402  25.960  1.00  0.00     0.124 S 
ATOM     69  O   UNL A   1      42.722  18.529  26.992  1.00  0.00    -0.237 OA
ATOM     70  O   UNL A   1      40.736  19.277  25.724  1.00  0.00    -0.237 OA
ATOM     71  O   UNL A   1      42.982  19.534  24.751  1.00  0.00    -0.744 OA
ENDBRANCH  67  68
ENDBRANCH  39  62
BRANCH  51  72
ATOM     72  C   UNL A   1      47.937  26.760  31.045  1.00  0.00    -0.014 A 
ATOM     73  C   UNL A   1      48.233  26.025  32.205  1.00  0.00     0.010 A 
ATOM     74  C   UNL A   1      48.972  27.074  30.144  1.00  0.00     0.010 A 
ATOM     75  C   UNL A   1      49.548  25.645  32.482  1.00  0.00     0.020 A 
ATOM     76  C   UNL A   1      50.284  26.677  30.408  1.00  0.00     0.020 A 
ATOM     77  C   UNL A   1      50.568  25.982  31.586  1.00  0.00     0.054 A 
BRANCH  77  78
ATOM     78  S   UNL A   1      52.268  25.469  31.955  1.00  0.00     0.124 S 
ATOM     79  O   UNL A   1      52.096  24.051  32.258  1.00  0.00    -0.237 OA
ATOM     80  O   UNL A   1      52.974  25.764  30.711  1.00  0.00    -0.237 OA
ATOM     81  O   UNL A   1      52.641  26.309  33.090  1.00  0.00    -0.744 OA
ENDBRANCH  77  78
ENDBRANCH  51  72
ENDBRANCH  25  26
ENDBRANCH  18  20
ENDBRANCH  17  18
ENDBRANCH   1  17
TORSDOF 16
ENDMDL
MODEL 2
REMARK VINA RESULT:      -9.9      4.737     10.684
REMARK SMILES C[C@H](CC(=O)OCCOC(=O)c1ccc(-c2c3nc(c(-c4ccc(S(=O)(=O)[O-])cc4)c4ccc([nH]4)c(-c4ccc(S(=O)(=O)[O-])cc4)c4nc(c(-c5ccc(S(=O)(=O)[O-])cc5)c5ccc2[nH]5)C=C4)C=C3)cc1)N1C(=O)CCCC1=O
REMARK SMILES IDX 8 1 7 2 6 3 4 4 5 5 3 6 2 7 1 8 72 9 73 10 78 11 74 12 75 13
REMARK SMILES IDX 77 14 79 15 76 16 9 17 10 18 11 19 12 20 13 21 71 22 14 23
REMARK SMILES IDX 70 24 15 25 16 26 17 27 64 28 18 29 69 30 63 31 65 32 19 33
REMARK SMILES IDX 68 34 62 35 61 36 20 38 50 39 31 40 49 41 32 42 35 43 48 44
REMARK SMILES IDX 66 45 33 46 34 47 47 49 67 50 36 51 21 52 22 53 30 54 23 55
REMARK SMILES IDX 29 56 24 57 25 58 26 59 27 60 28 61 51 62 52 63 60 64 53 65
REMARK SMILES IDX 59 66 54 67 55 68 56 69 57 70 58 71 37 72 38 73 46 74 39 75
REMARK SMILES IDX 45 76 40 77 41 78 42 79 43 80 44 81
REMARK H PARENT 65 37 35 48
REMARK Flexibility Score: inf
ROOT
ATOM      1  C   UNL A   1      39.085  22.661  26.481  1.00  0.00     0.275 C 
ENDROOT
BRANCH   1   2
ATOM      2  C   UNL A   1      38.279  22.260  25.247  1.00  0.00     0.274 C 
BRANCH   2   3
ATOM      3  O   UNL A   1      36.865  22.462  25.455  1.00  0.00    -0.462 OA
BRANCH   3   4
ATOM      4  C   UNL A   1      36.187  23.053  24.444  1.00  0.00     0.308 C 
ATOM      5  O   UNL A   1      36.358  22.802  23.256  1.00  0.00    -0.252 OA
BRANCH   4   6
ATOM      6  C   UNL A   1      35.272  24.163  24.897  1.00  0.00     0.148 C 
BRANCH   6   7
ATOM      7  C   UNL A   1      33.915  24.373  24.200  1.00  0.00     0.101 C 
ATOM      8  C   UNL A   1      32.779  23.530  24.784  1.00  0.00     0.032 C 
BRANCH   7   9
ATOM      9  N   UNL A   1      33.629  25.803  23.947  1.00  0.00    -0.279 N 
ATOM     10  C   UNL A   1      33.607  26.192  22.602  1.00  0.00     0.229 C 
ATOM     11  C   UNL A   1      33.443  26.694  25.004  1.00  0.00     0.229 C 
ATOM     12  O   UNL A   1      33.783  25.423  21.657  1.00  0.00    -0.274 OA
ATOM     13  C   UNL A   1      33.318  27.646  22.341  1.00  0.00     0.101 C 
ATOM     14  C   UNL A   1      33.600  28.173  24.710  1.00  0.00     0.101 C 
ATOM     15  O   UNL A   1      33.134  26.364  26.148  1.00  0.00    -0.274 OA
ATOM     16  C   UNL A   1      34.120  28.465  23.323  1.00  0.00     0.020 C 
ENDBRANCH   7   9
ENDBRANCH   6   7
ENDBRANCH   4   6
ENDBRANCH   3   4
ENDBRANCH   2   3
ENDBRANCH   1   2
BRANCH   1  17
ATOM     17  O   UNL A   1      39.314  24.080  26.458  1.00  0.00    -0.458 OA
BRANCH  17  18
ATOM     18  C   UNL A   1      40.550  24.482  26.824  1.00  0.00     0.338 C 
ATOM     19  O   UNL A   1      41.618  23.984  26.518  1.00  0.00    -0.246 OA
BRANCH  18  20
ATOM     20  C   UNL A   1      40.435  25.645  27.715  1.00  0.00     0.060 A 
ATOM     21  C   UNL A   1      41.420  26.636  27.722  1.00  0.00     0.016 A 
ATOM     22  C   UNL A   1      39.381  25.684  28.626  1.00  0.00     0.016 A 
ATOM     23  C   UNL A   1      41.375  27.652  28.674  1.00  0.00     0.010 A 
ATOM     24  C   UNL A   1      39.312  26.725  29.551  1.00  0.00     0.010 A 
ATOM     25  C   UNL A   1      40.324  27.699  29.601  1.00  0.00    -0.014 A 
BRANCH  25  26
ATOM     26  C   UNL A   1      40.298  28.740  30.657  1.00  0.00     0.031 A 
ATOM     27  C   UNL A   1      41.224  28.630  31.836  1.00  0.00     0.074 A 
ATOM     28  C   UNL A   1      39.431  29.765  30.564  1.00  0.00     0.049 A 
ATOM     29  N   UNL A   1      41.278  29.370  32.914  1.00  0.00    -0.248 NA
ATOM     30  C   UNL A   1      42.213  27.540  31.804  1.00  0.00     0.031 C 
ATOM     31  C   UNL A   1      38.498  29.988  29.456  1.00  0.00     0.029 A 
ATOM     32  N   UNL A   1      39.188  30.806  31.422  1.00  0.00    -0.354 N 
ATOM     33  C   UNL A   1      42.281  28.817  33.703  1.00  0.00     0.074 A 
ATOM     34  C   UNL A   1      42.805  27.676  32.983  1.00  0.00     0.031 C 
ATOM     35  C   UNL A   1      37.785  31.099  29.704  1.00  0.00     0.029 A 
ATOM     36  C   UNL A   1      38.177  31.637  31.002  1.00  0.00     0.049 A 
ATOM     37  H   UNL A   1      39.689  30.945  32.258  1.00  0.00     0.167 HD
ATOM     38  C   UNL A   1      42.720  29.223  34.918  1.00  0.00     0.031 A 
ATOM     39  C   UNL A   1      37.609  32.698  31.609  1.00  0.00     0.031 A 
ATOM     40  C   UNL A   1      42.202  30.365  35.624  1.00  0.00     0.049 A 
ATOM     41  C   UNL A   1      38.112  33.124  32.960  1.00  0.00     0.074 A 
ATOM     42  C   UNL A   1      42.589  30.865  36.855  1.00  0.00     0.029 A 
ATOM     43  N   UNL A   1      41.189  31.189  35.159  1.00  0.00    -0.354 N 
ATOM     44  N   UNL A   1      39.057  32.587  33.693  1.00  0.00    -0.248 NA
ATOM     45  C   UNL A   1      37.475  34.303  33.560  1.00  0.00     0.031 C 
ATOM     46  C   UNL A   1      41.786  31.974  37.149  1.00  0.00     0.029 A 
ATOM     47  C   UNL A   1      40.930  32.188  36.082  1.00  0.00     0.049 A 
ATOM     48  H   UNL A   1      40.721  31.079  34.299  1.00  0.00     0.167 HD
ATOM     49  C   UNL A   1      39.139  33.373  34.837  1.00  0.00     0.074 A 
ATOM     50  C   UNL A   1      38.161  34.431  34.689  1.00  0.00     0.031 C 
ATOM     51  C   UNL A   1      39.950  33.230  35.915  1.00  0.00     0.031 A 
BRANCH  38  52
ATOM     52  C   UNL A   1      43.793  28.401  35.579  1.00  0.00    -0.014 A 
ATOM     53  C   UNL A   1      43.473  27.327  36.427  1.00  0.00     0.010 A 
ATOM     54  C   UNL A   1      45.145  28.684  35.312  1.00  0.00     0.010 A 
ATOM     55  C   UNL A   1      44.486  26.570  37.023  1.00  0.00     0.020 A 
ATOM     56  C   UNL A   1      46.161  27.916  35.888  1.00  0.00     0.020 A 
ATOM     57  C   UNL A   1      45.824  26.872  36.753  1.00  0.00     0.054 A 
BRANCH  57  58
ATOM     58  S   UNL A   1      47.123  25.858  37.515  1.00  0.00     0.124 S 
ATOM     59  O   UNL A   1      48.320  26.645  37.235  1.00  0.00    -0.237 OA
ATOM     60  O   UNL A   1      46.716  25.810  38.916  1.00  0.00    -0.237 OA
ATOM     61  O   UNL A   1      47.031  24.587  36.800  1.00  0.00    -0.744 OA
ENDBRANCH  57  58
ENDBRANCH  38  52
BRANCH  39  62
ATOM     62  C   UNL A   1      36.487  33.413  30.948  1.00  0.00    -0.014 A 
ATOM     63  C   UNL A   1      35.275  33.627  31.625  1.00  0.00     0.010 A 
ATOM     64  C   UNL A   1      36.636  33.902  29.637  1.00  0.00     0.010 A 
ATOM     65  C   UNL A   1      34.225  34.305  30.998  1.00  0.00     0.020 A 
ATOM     66  C   UNL A   1      35.599  34.600  29.015  1.00  0.00     0.020 A 
ATOM     67  C   UNL A   1      34.393  34.788  29.697  1.00  0.00     0.054 A 
BRANCH  67  68
ATOM     68  S   UNL A   1      33.044  35.717  28.918  1.00  0.00     0.124 S 
ATOM     69  O   UNL A   1      33.772  36.723  28.151  1.00  0.00    -0.237 OA
ATOM     70  O   UNL A   1      32.362  34.693  28.131  1.00  0.00    -0.237 OA
ATOM     71  O   UNL A   1      32.281  36.225  30.057  1.00  0.00    -0.744 OA
ENDBRANCH  67  68
ENDBRANCH  39  62
BRANCH  51  72
ATOM     72  C   UNL A   1      39.831  34.267  36.998  1.00  0.00    -0.014 A 
ATOM     73  C   UNL A   1      39.121  34.003  38.181  1.00  0.00     0.010 A 
ATOM     74  C   UNL A   1      40.457  35.516  36.832  1.00  0.00     0.010 A 
ATOM     75  C   UNL A   1      39.002  34.987  39.165  1.00  0.00     0.020 A 
ATOM     76  C   UNL A   1      40.358  36.494  37.823  1.00  0.00     0.020 A 
ATOM     77  C   UNL A   1      39.614  36.231  38.976  1.00  0.00     0.054 A 
BRANCH  77  78
ATOM     78  S   UNL A   1      39.462  37.493  40.270  1.00  0.00     0.124 S 
ATOM     79  O   UNL A   1      38.752  36.765  41.318  1.00  0.00    -0.237 OA
ATOM     80  O   UNL A   1      40.852  37.824  40.567  1.00  0.00    -0.237 OA
ATOM     81  O   UNL A   1      38.698  38.557  39.623  1.00  0.00    -0.744 OA
ENDBRANCH  77  78
ENDBRANCH  51  72
ENDBRANCH  25  26
ENDBRANCH  18  20
ENDBRANCH  17  18
ENDBRANCH   1  17
TORSDOF 16
ENDMDL
MODEL 3
REMARK VINA RESULT:      -9.7      3.136      9.594
REMARK SMILES C[C@H](CC(=O)OCCOC(=O)c1ccc(-c2c3nc(c(-c4ccc(S(=O)(=O)[O-])cc4)c4ccc([nH]4)c(-c4ccc(S(=O)(=O)[O-])cc4)c4nc(c(-c5ccc(S(=O)(=O)[O-])cc5)c5ccc2[nH]5)C=C4)C=C3)cc1)N1C(=O)CCCC1=O
REMARK SMILES IDX 8 1 7 2 6 3 4 4 5 5 3 6 2 7 1 8 72 9 73 10 78 11 74 12 75 13
REMARK SMILES IDX 77 14 79 15 76 16 9 17 10 18 11 19 12 20 13 21 71 22 14 23
REMARK SMILES IDX 70 24 15 25 16 26 17 27 64 28 18 29 69 30 63 31 65 32 19 33
REMARK SMILES IDX 68 34 62 35 61 36 20 38 50 39 31 40 49 41 32 42 35 43 48 44
REMARK SMILES IDX 66 45 33 46 34 47 47 49 67 50 36 51 21 52 22 53 30 54 23 55
REMARK SMILES IDX 29 56 24 57 25 58 26 59 27 60 28 61 51 62 52 63 60 64 53 65
REMARK SMILES IDX 59 66 54 67 55 68 56 69 57 70 58 71 37 72 38 73 46 74 39 75
REMARK SMILES IDX 45 76 40 77 41 78 42 79 43 80 44 81
REMARK H PARENT 65 37 35 48
REMARK Flexibility Score: inf
ROOT
ATOM      1  C   UNL A   1      37.385  21.777  25.054  1.00  0.00     0.275 C 
ENDROOT
BRANCH   1   2
ATOM      2  C   UNL A   1      35.942  21.401  25.385  1.00  0.00     0.274 C 
BRANCH   2   3
ATOM      3  O   UNL A   1      35.177  22.556  25.791  1.00  0.00    -0.462 OA
BRANCH   3   4
ATOM      4  C   UNL A   1      34.256  22.356  26.762  1.00  0.00     0.308 C 
ATOM      5  O   UNL A   1      34.368  21.533  27.664  1.00  0.00    -0.252 OA
BRANCH   4   6
ATOM      6  C   UNL A   1      32.992  23.157  26.572  1.00  0.00     0.148 C 
BRANCH   6   7
ATOM      7  C   UNL A   1      32.702  23.823  25.214  1.00  0.00     0.101 C 
ATOM      8  C   UNL A   1      31.502  23.229  24.474  1.00  0.00     0.032 C 
BRANCH   7   9
ATOM      9  N   UNL A   1      32.786  25.300  25.283  1.00  0.00    -0.279 N 
ATOM     10  C   UNL A   1      33.617  25.909  24.335  1.00  0.00     0.229 C 
ATOM     11  C   UNL A   1      32.104  26.009  26.272  1.00  0.00     0.229 C 
ATOM     12  O   UNL A   1      34.237  25.297  23.466  1.00  0.00    -0.274 OA
ATOM     13  C   UNL A   1      33.706  27.410  24.404  1.00  0.00     0.101 C 
ATOM     14  C   UNL A   1      32.568  27.422  26.567  1.00  0.00     0.101 C 
ATOM     15  O   UNL A   1      31.137  25.579  26.899  1.00  0.00    -0.274 OA
ATOM     16  C   UNL A   1      33.845  27.804  25.855  1.00  0.00     0.020 C 
ENDBRANCH   7   9
ENDBRANCH   6   7
ENDBRANCH   4   6
ENDBRANCH   3   4
ENDBRANCH   2   3
ENDBRANCH   1   2
BRANCH   1  17
ATOM     17  O   UNL A   1      37.759  22.939  25.813  1.00  0.00    -0.458 OA
BRANCH  17  18
ATOM     18  C   UNL A   1      39.002  22.923  26.339  1.00  0.00     0.338 C 
ATOM     19  O   UNL A   1      39.775  21.985  26.397  1.00  0.00    -0.246 OA
BRANCH  18  20
ATOM     20  C   UNL A   1      39.307  24.249  26.895  1.00  0.00     0.060 A 
ATOM     21  C   UNL A   1      40.052  25.173  26.159  1.00  0.00     0.016 A 
ATOM     22  C   UNL A   1      38.933  24.522  28.209  1.00  0.00     0.016 A 
ATOM     23  C   UNL A   1      40.460  26.365  26.754  1.00  0.00     0.010 A 
ATOM     24  C   UNL A   1      39.305  25.734  28.790  1.00  0.00     0.010 A 
ATOM     25  C   UNL A   1      40.096  26.650  28.077  1.00  0.00    -0.014 A 
BRANCH  25  26
ATOM     26  C   UNL A   1      40.577  27.886  28.741  1.00  0.00     0.031 A 
ATOM     27  C   UNL A   1      41.969  27.938  29.305  1.00  0.00     0.074 A 
ATOM     28  C   UNL A   1      39.757  28.947  28.851  1.00  0.00     0.049 A 
ATOM     29  N   UNL A   1      42.536  28.878  30.016  1.00  0.00    -0.248 NA
ATOM     30  C   UNL A   1      42.835  26.776  29.044  1.00  0.00     0.031 C 
ATOM     31  C   UNL A   1      38.391  29.022  28.324  1.00  0.00     0.029 A 
ATOM     32  N   UNL A   1      39.950  30.163  29.454  1.00  0.00    -0.354 N 
ATOM     33  C   UNL A   1      43.810  28.410  30.317  1.00  0.00     0.074 A 
ATOM     34  C   UNL A   1      43.931  27.099  29.716  1.00  0.00     0.031 C 
ATOM     35  C   UNL A   1      37.872  30.223  28.628  1.00  0.00     0.029 A 
ATOM     36  C   UNL A   1      38.846  30.981  29.405  1.00  0.00     0.049 A 
ATOM     37  H   UNL A   1      40.797  30.426  29.881  1.00  0.00     0.167 HD
ATOM     38  C   UNL A   1      44.787  29.017  31.032  1.00  0.00     0.031 A 
ATOM     39  C   UNL A   1      38.633  32.194  29.951  1.00  0.00     0.031 A 
ATOM     40  C   UNL A   1      44.665  30.326  31.618  1.00  0.00     0.049 A 
ATOM     41  C   UNL A   1      39.732  32.844  30.744  1.00  0.00     0.074 A 
ATOM     42  C   UNL A   1      45.602  31.032  32.351  1.00  0.00     0.029 A 
ATOM     43  N   UNL A   1      43.536  31.126  31.533  1.00  0.00    -0.354 N 
ATOM     44  N   UNL A   1      40.928  32.384  31.023  1.00  0.00    -0.248 NA
ATOM     45  C   UNL A   1      39.452  34.177  31.292  1.00  0.00     0.031 C 
ATOM     46  C   UNL A   1      45.028  32.250  32.737  1.00  0.00     0.029 A 
ATOM     47  C   UNL A   1      43.750  32.317  32.208  1.00  0.00     0.049 A 
ATOM     48  H   UNL A   1      42.705  30.885  31.064  1.00  0.00     0.167 HD
ATOM     49  C   UNL A   1      41.551  33.380  31.765  1.00  0.00     0.074 A 
ATOM     50  C   UNL A   1      40.606  34.472  31.877  1.00  0.00     0.031 C 
ATOM     51  C   UNL A   1      42.794  33.390  32.309  1.00  0.00     0.031 A 
BRANCH  38  52
ATOM     52  C   UNL A   1      46.065  28.253  31.251  1.00  0.00    -0.014 A 
ATOM     53  C   UNL A   1      46.223  27.395  32.354  1.00  0.00     0.010 A 
ATOM     54  C   UNL A   1      47.108  28.364  30.314  1.00  0.00     0.010 A 
ATOM     55  C   UNL A   1      47.415  26.687  32.533  1.00  0.00     0.020 A 
ATOM     56  C   UNL A   1      48.293  27.641  30.478  1.00  0.00     0.020 A 
ATOM     57  C   UNL A   1      48.445  26.818  31.596  1.00  0.00     0.054 A 
BRANCH  57  58
ATOM     58  S   UNL A   1      49.972  25.866  31.833  1.00  0.00     0.124 S 
ATOM     59  O   UNL A   1      50.807  26.817  32.560  1.00  0.00    -0.237 OA
ATOM     60  O   UNL A   1      49.518  24.713  32.604  1.00  0.00    -0.237 OA
ATOM     61  O   UNL A   1      50.408  25.568  30.471  1.00  0.00    -0.744 OA
ENDBRANCH  57  58
ENDBRANCH  38  52
BRANCH  39  62
ATOM     62  C   UNL A   1      37.314  32.859  29.780  1.00  0.00    -0.014 A 
ATOM     63  C   UNL A   1      36.304  32.707  30.744  1.00  0.00     0.010 A 
ATOM     64  C   UNL A   1      37.073  33.667  28.653  1.00  0.00     0.010 A 
ATOM     65  C   UNL A   1      35.069  33.340  30.578  1.00  0.00     0.020 A 
ATOM     66  C   UNL A   1      35.848  34.320  28.496  1.00  0.00     0.020 A 
ATOM     67  C   UNL A   1      34.848  34.143  29.455  1.00  0.00     0.054 A 
BRANCH  67  68
ATOM     68  S   UNL A   1      33.261  35.005  29.283  1.00  0.00     0.124 S 
ATOM     69  O   UNL A   1      32.750  34.974  30.651  1.00  0.00    -0.237 OA
ATOM     70  O   UNL A   1      33.662  36.319  28.787  1.00  0.00    -0.237 OA
ATOM     71  O   UNL A   1      32.530  34.183  28.321  1.00  0.00    -0.744 OA
ENDBRANCH  67  68
ENDBRANCH  39  62
BRANCH  51  72
ATOM     72  C   UNL A   1      43.207  34.636  33.041  1.00  0.00    -0.014 A 
ATOM     73  C   UNL A   1      43.932  35.652  32.395  1.00  0.00     0.010 A 
ATOM     74  C   UNL A   1      42.846  34.798  34.390  1.00  0.00     0.010 A 
ATOM     75  C   UNL A   1      44.327  36.792  33.098  1.00  0.00     0.020 A 
ATOM     76  C   UNL A   1      43.221  35.946  35.091  1.00  0.00     0.020 A 
ATOM     77  C   UNL A   1      43.976  36.928  34.445  1.00  0.00     0.054 A 
BRANCH  77  78
ATOM     78  S   UNL A   1      44.486  38.421  35.341  1.00  0.00     0.124 S 
ATOM     79  O   UNL A   1      43.693  39.454  34.679  1.00  0.00    -0.237 OA
ATOM     80  O   UNL A   1      44.103  38.122  36.718  1.00  0.00    -0.237 OA
ATOM     81  O   UNL A   1      45.925  38.490  35.102  1.00  0.00    -0.744 OA
ENDBRANCH  77  78
ENDBRANCH  51  72
ENDBRANCH  25  26
ENDBRANCH  18  20
ENDBRANCH  17  18
ENDBRANCH   1  17
TORSDOF 16
ENDMDL
