MODEL 1
REMARK VINA RESULT:     -10.9      0.000      0.000
REMARK SMILES O=C(Cc1csc(NC(=O)[C@H]2CC(=O)N(C3CC3)C2)n1)OCCOC(=O)c1ccc(-c2c3nc(c(-c4ccc(S(=O)(=O)[O-])cc4)c4ccc([nH]4)c(-c4ccc(S(=O)(=O)[O-])cc4)c4nc(c(-c5ccc(S(=O)(=O)[O-])cc5)c5ccc2[nH]5)C=C4)C=C3)cc1
REMARK SMILES IDX 22 1 21 2 2 3 1 4 3 5 4 6 5 7 20 8 6 9 7 10 8 11 9 12 10 14
REMARK SMILES IDX 11 15 12 16 19 17 13 18 15 19 14 20 16 21 17 22 18 23 23 24
REMARK SMILES IDX 24 25 25 26 26 27 27 28 28 29 86 30 29 31 85 32 30 33 31 34
REMARK SMILES IDX 32 35 79 36 33 37 84 38 78 39 80 40 34 41 83 42 77 43 76 44
REMARK SMILES IDX 35 46 65 47 46 48 64 49 47 50 50 51 63 52 81 53 48 54 49 55
REMARK SMILES IDX 62 57 82 58 51 59 36 60 37 61 45 62 38 63 44 64 39 65 40 66
REMARK SMILES IDX 41 67 42 68 43 69 66 70 67 71 75 72 68 73 74 74 69 75 70 76
REMARK SMILES IDX 71 77 72 78 73 79 52 80 53 81 61 82 54 83 60 84 55 85 56 86
REMARK SMILES IDX 57 87 58 88 59 89
REMARK H PARENT 8 13 80 45 50 56
REMARK Flexibility Score: inf
ROOT
ATOM      1  C   UNL A   1      33.660  31.266  27.640  1.00  0.00     0.274 C 
ENDROOT
BRANCH   1   2
ATOM      2  O   UNL A   1      33.404  29.857  27.487  1.00  0.00    -0.462 OA
BRANCH   2   3
ATOM      3  C   UNL A   1      32.404  29.361  26.708  1.00  0.00     0.312 C 
ATOM      4  O   UNL A   1      31.807  28.346  27.056  1.00  0.00    -0.252 OA
BRANCH   3   5
ATOM      5  C   UNL A   1      32.184  29.993  25.356  1.00  0.00     0.179 C 
BRANCH   5   6
ATOM      6  C   UNL A   1      31.571  29.124  24.321  1.00  0.00     0.065 A 
ATOM      7  C   UNL A   1      30.233  29.098  23.975  1.00  0.00     0.093 A 
ATOM      8  N   UNL A   1      32.383  28.371  23.486  1.00  0.00    -0.224 NA
ATOM      9  S   UNL A   1      29.994  28.061  22.651  1.00  0.00    -0.105 S 
ATOM     10  C   UNL A   1      31.667  27.771  22.563  1.00  0.00     0.189 A 
BRANCH  10  11
ATOM     11  N   UNL A   1      32.264  27.050  21.564  1.00  0.00    -0.302 N 
ATOM     12  C   UNL A   1      32.707  25.767  21.462  1.00  0.00     0.231 C 
ATOM     13  H   UNL A   1      32.403  27.572  20.742  1.00  0.00     0.172 HD
ATOM     14  O   UNL A   1      33.103  25.389  20.357  1.00  0.00    -0.274 OA
BRANCH  12  15
ATOM     15  C   UNL A   1      32.859  24.869  22.666  1.00  0.00     0.107 C 
ATOM     16  C   UNL A   1      33.165  23.401  22.371  1.00  0.00     0.115 C 
ATOM     17  C   UNL A   1      34.090  25.308  23.436  1.00  0.00     0.133 C 
ATOM     18  C   UNL A   1      33.953  22.982  23.594  1.00  0.00     0.223 C 
ATOM     19  N   UNL A   1      34.460  24.142  24.187  1.00  0.00    -0.339 N 
ATOM     20  O   UNL A   1      34.122  21.826  23.949  1.00  0.00    -0.275 OA
BRANCH  19  21
ATOM     21  C   UNL A   1      35.357  24.248  25.295  1.00  0.00     0.085 C 
ATOM     22  C   UNL A   1      35.642  23.132  26.257  1.00  0.00     0.027 C 
ATOM     23  C   UNL A   1      36.697  23.569  25.280  1.00  0.00     0.027 C 
ENDBRANCH  19  21
ENDBRANCH  12  15
ENDBRANCH  10  11
ENDBRANCH   5   6
ENDBRANCH   3   5
ENDBRANCH   2   3
ENDBRANCH   1   2
BRANCH   1  24
ATOM     24  C   UNL A   1      35.036  31.548  28.247  1.00  0.00     0.275 C 
BRANCH  24  25
ATOM     25  O   UNL A   1      35.755  30.325  28.478  1.00  0.00    -0.458 OA
BRANCH  25  26
ATOM     26  C   UNL A   1      36.412  30.248  29.666  1.00  0.00     0.338 C 
ATOM     27  O   UNL A   1      35.914  30.295  30.776  1.00  0.00    -0.246 OA
BRANCH  26  28
ATOM     28  C   UNL A   1      37.819  29.861  29.409  1.00  0.00     0.060 A 
ATOM     29  C   UNL A   1      38.222  29.709  28.075  1.00  0.00     0.016 A 
ATOM     30  C   UNL A   1      38.747  29.725  30.446  1.00  0.00     0.016 A 
ATOM     31  C   UNL A   1      39.554  29.416  27.775  1.00  0.00     0.010 A 
ATOM     32  C   UNL A   1      40.076  29.414  30.143  1.00  0.00     0.010 A 
ATOM     33  C   UNL A   1      40.484  29.247  28.808  1.00  0.00    -0.014 A 
BRANCH  33  34
ATOM     34  C   UNL A   1      41.854  28.761  28.513  1.00  0.00     0.031 A 
ATOM     35  C   UNL A   1      42.977  29.758  28.461  1.00  0.00     0.074 A 
ATOM     36  C   UNL A   1      42.093  27.460  28.264  1.00  0.00     0.049 A 
ATOM     37  N   UNL A   1      44.237  29.568  28.171  1.00  0.00    -0.248 NA
ATOM     38  C   UNL A   1      42.631  31.155  28.772  1.00  0.00     0.031 C 
ATOM     39  C   UNL A   1      41.100  26.388  28.304  1.00  0.00     0.029 A 
ATOM     40  N   UNL A   1      43.258  26.826  27.905  1.00  0.00    -0.354 N 
ATOM     41  C   UNL A   1      44.836  30.817  28.260  1.00  0.00     0.074 A 
ATOM     42  C   UNL A   1      43.799  31.763  28.613  1.00  0.00     0.031 C 
ATOM     43  C   UNL A   1      41.693  25.232  27.958  1.00  0.00     0.029 A 
ATOM     44  C   UNL A   1      43.100  25.485  27.648  1.00  0.00     0.049 A 
ATOM     45  H   UNL A   1      44.125  27.288  27.839  1.00  0.00     0.167 HD
ATOM     46  C   UNL A   1      46.133  31.151  28.067  1.00  0.00     0.031 A 
ATOM     47  C   UNL A   1      43.982  24.573  27.190  1.00  0.00     0.031 A 
ATOM     48  C   UNL A   1      47.164  30.221  27.699  1.00  0.00     0.049 A 
ATOM     49  C   UNL A   1      45.403  24.987  26.903  1.00  0.00     0.074 A 
ATOM     50  C   UNL A   1      48.516  30.464  27.527  1.00  0.00     0.029 A 
ATOM     51  N   UNL A   1      46.958  28.879  27.423  1.00  0.00    -0.354 N 
ATOM     52  N   UNL A   1      45.970  26.158  27.065  1.00  0.00    -0.248 NA
ATOM     53  C   UNL A   1      46.304  23.953  26.367  1.00  0.00     0.031 C 
ATOM     54  C   UNL A   1      49.118  29.280  27.089  1.00  0.00     0.029 A 
ATOM     55  C   UNL A   1      48.150  28.290  27.039  1.00  0.00     0.049 A 
ATOM     56  H   UNL A   1      46.094  28.415  27.491  1.00  0.00     0.167 HD
ATOM     57  C   UNL A   1      47.296  25.995  26.675  1.00  0.00     0.074 A 
ATOM     58  C   UNL A   1      47.453  24.612  26.278  1.00  0.00     0.031 C 
ATOM     59  C   UNL A   1      48.295  26.911  26.648  1.00  0.00     0.031 A 
BRANCH  46  60
ATOM     60  C   UNL A   1      46.505  32.599  28.216  1.00  0.00    -0.014 A 
ATOM     61  C   UNL A   1      46.866  33.128  29.467  1.00  0.00     0.010 A 
ATOM     62  C   UNL A   1      46.534  33.427  27.081  1.00  0.00     0.010 A 
ATOM     63  C   UNL A   1      47.223  34.473  29.585  1.00  0.00     0.020 A 
ATOM     64  C   UNL A   1      46.910  34.767  27.190  1.00  0.00     0.020 A 
ATOM     65  C   UNL A   1      47.238  35.286  28.445  1.00  0.00     0.054 A 
BRANCH  65  66
ATOM     66  S   UNL A   1      47.730  37.022  28.621  1.00  0.00     0.124 S 
ATOM     67  O   UNL A   1      48.283  37.042  29.973  1.00  0.00    -0.237 OA
ATOM     68  O   UNL A   1      48.702  37.192  27.543  1.00  0.00    -0.237 OA
ATOM     69  O   UNL A   1      46.479  37.756  28.449  1.00  0.00    -0.744 OA
ENDBRANCH  65  66
ENDBRANCH  46  60
BRANCH  47  70
ATOM     70  C   UNL A   1      43.544  23.175  26.925  1.00  0.00    -0.014 A 
ATOM     71  C   UNL A   1      42.983  22.392  27.948  1.00  0.00     0.010 A 
ATOM     72  C   UNL A   1      43.724  22.609  25.649  1.00  0.00     0.010 A 
ATOM     73  C   UNL A   1      42.639  21.058  27.708  1.00  0.00     0.020 A 
ATOM     74  C   UNL A   1      43.358  21.285  25.400  1.00  0.00     0.020 A 
ATOM     75  C   UNL A   1      42.832  20.512  26.436  1.00  0.00     0.054 A 
BRANCH  75  76
ATOM     76  S   UNL A   1      42.362  18.785  26.138  1.00  0.00     0.124 S 
ATOM     77  O   UNL A   1      43.324  18.383  25.118  1.00  0.00    -0.237 OA
ATOM     78  O   UNL A   1      42.541  18.176  27.453  1.00  0.00    -0.237 OA
ATOM     79  O   UNL A   1      40.975  18.886  25.688  1.00  0.00    -0.744 OA
ENDBRANCH  75  76
ENDBRANCH  47  70
BRANCH  59  80
ATOM     80  C   UNL A   1      49.658  26.457  26.196  1.00  0.00    -0.014 A 
ATOM     81  C   UNL A   1      50.096  26.686  24.881  1.00  0.00     0.010 A 
ATOM     82  C   UNL A   1      50.544  25.881  27.126  1.00  0.00     0.010 A 
ATOM     83  C   UNL A   1      51.395  26.337  24.499  1.00  0.00     0.020 A 
ATOM     84  C   UNL A   1      51.850  25.553  26.755  1.00  0.00     0.020 A 
ATOM     85  C   UNL A   1      52.266  25.776  25.440  1.00  0.00     0.054 A 
BRANCH  85  86
ATOM     86  S   UNL A   1      53.972  25.408  24.944  1.00  0.00     0.124 S 
ATOM     87  O   UNL A   1      54.074  26.108  23.666  1.00  0.00    -0.237 OA
ATOM     88  O   UNL A   1      54.756  25.978  26.037  1.00  0.00    -0.237 OA
ATOM     89  O   UNL A   1      54.001  23.950  24.860  1.00  0.00    -0.744 OA
ENDBRANCH  85  86
ENDBRANCH  59  80
ENDBRANCH  33  34
ENDBRANCH  26  28
ENDBRANCH  25  26
ENDBRANCH  24  25
ENDBRANCH   1  24
TORSDOF 18
ENDMDL
MODEL 2
REMARK VINA RESULT:     -10.9      6.357     12.174
REMARK SMILES O=C(Cc1csc(NC(=O)[C@H]2CC(=O)N(C3CC3)C2)n1)OCCOC(=O)c1ccc(-c2c3nc(c(-c4ccc(S(=O)(=O)[O-])cc4)c4ccc([nH]4)c(-c4ccc(S(=O)(=O)[O-])cc4)c4nc(c(-c5ccc(S(=O)(=O)[O-])cc5)c5ccc2[nH]5)C=C4)C=C3)cc1
REMARK SMILES IDX 22 1 21 2 2 3 1 4 3 5 4 6 5 7 20 8 6 9 7 10 8 11 9 12 10 14
REMARK SMILES IDX 11 15 12 16 19 17 13 18 15 19 14 20 16 21 17 22 18 23 23 24
REMARK SMILES IDX 24 25 25 26 26 27 27 28 28 29 86 30 29 31 85 32 30 33 31 34
REMARK SMILES IDX 32 35 79 36 33 37 84 38 78 39 80 40 34 41 83 42 77 43 76 44
REMARK SMILES IDX 35 46 65 47 46 48 64 49 47 50 50 51 63 52 81 53 48 54 49 55
REMARK SMILES IDX 62 57 82 58 51 59 36 60 37 61 45 62 38 63 44 64 39 65 40 66
REMARK SMILES IDX 41 67 42 68 43 69 66 70 67 71 75 72 68 73 74 74 69 75 70 76
REMARK SMILES IDX 71 77 72 78 73 79 52 80 53 81 61 82 54 83 60 84 55 85 56 86
REMARK SMILES IDX 57 87 58 88 59 89
REMARK H PARENT 8 13 80 45 50 56
REMARK Flexibility Score: inf
ROOT
ATOM      1  C   UNL A   1      39.420  21.294  26.038  1.00  0.00     0.274 C 
ENDROOT
BRANCH   1   2
ATOM      2  O   UNL A   1      38.183  22.030  25.981  1.00  0.00    -0.462 OA
BRANCH   2   3
ATOM      3  C   UNL A   1      37.226  21.808  25.039  1.00  0.00     0.312 C 
ATOM      4  O   UNL A   1      36.860  22.730  24.315  1.00  0.00    -0.252 OA
BRANCH   3   5
ATOM      5  C   UNL A   1      36.534  20.468  25.038  1.00  0.00     0.179 C 
BRANCH   5   6
ATOM      6  C   UNL A   1      35.050  20.500  25.072  1.00  0.00     0.065 A 
ATOM      7  C   UNL A   1      34.207  19.604  24.443  1.00  0.00     0.093 A 
ATOM      8  N   UNL A   1      34.401  21.382  25.923  1.00  0.00    -0.224 NA
ATOM      9  S   UNL A   1      32.594  19.930  24.863  1.00  0.00    -0.105 S 
ATOM     10  C   UNL A   1      33.105  21.174  25.903  1.00  0.00     0.189 A 
BRANCH  10  11
ATOM     11  N   UNL A   1      32.266  21.860  26.739  1.00  0.00    -0.302 N 
ATOM     12  C   UNL A   1      31.647  23.071  26.668  1.00  0.00     0.231 C 
ATOM     13  H   UNL A   1      32.068  21.374  27.571  1.00  0.00     0.172 HD
ATOM     14  O   UNL A   1      30.846  23.352  27.564  1.00  0.00    -0.274 OA
BRANCH  12  15
ATOM     15  C   UNL A   1      32.018  24.106  25.634  1.00  0.00     0.107 C 
ATOM     16  C   UNL A   1      31.051  24.255  24.461  1.00  0.00     0.115 C 
ATOM     17  C   UNL A   1      31.951  25.475  26.284  1.00  0.00     0.133 C 
ATOM     18  C   UNL A   1      31.228  25.709  24.076  1.00  0.00     0.223 C 
ATOM     19  N   UNL A   1      31.775  26.373  25.179  1.00  0.00    -0.339 N 
ATOM     20  O   UNL A   1      30.911  26.186  22.998  1.00  0.00    -0.275 OA
BRANCH  19  21
ATOM     21  C   UNL A   1      32.013  27.773  25.337  1.00  0.00     0.085 C 
ATOM     22  C   UNL A   1      32.088  28.470  26.664  1.00  0.00     0.027 C 
ATOM     23  C   UNL A   1      33.332  28.287  25.841  1.00  0.00     0.027 C 
ENDBRANCH  19  21
ENDBRANCH  12  15
ENDBRANCH  10  11
ENDBRANCH   5   6
ENDBRANCH   3   5
ENDBRANCH   2   3
ENDBRANCH   1   2
BRANCH   1  24
ATOM     24  C   UNL A   1      40.587  22.148  26.539  1.00  0.00     0.275 C 
BRANCH  24  25
ATOM     25  O   UNL A   1      40.216  23.536  26.603  1.00  0.00    -0.458 OA
BRANCH  25  26
ATOM     26  C   UNL A   1      41.241  24.421  26.486  1.00  0.00     0.338 C 
ATOM     27  O   UNL A   1      42.070  24.459  25.596  1.00  0.00    -0.246 OA
BRANCH  26  28
ATOM     28  C   UNL A   1      41.061  25.494  27.493  1.00  0.00     0.060 A 
ATOM     29  C   UNL A   1      41.978  26.554  27.490  1.00  0.00     0.016 A 
ATOM     30  C   UNL A   1      39.975  25.504  28.373  1.00  0.00     0.016 A 
ATOM     31  C   UNL A   1      41.812  27.626  28.370  1.00  0.00     0.010 A 
ATOM     32  C   UNL A   1      39.822  26.570  29.265  1.00  0.00     0.010 A 
ATOM     33  C   UNL A   1      40.745  27.630  29.276  1.00  0.00    -0.014 A 
BRANCH  33  34
ATOM     34  C   UNL A   1      40.660  28.667  30.332  1.00  0.00     0.031 A 
ATOM     35  C   UNL A   1      41.565  28.556  31.527  1.00  0.00     0.074 A 
ATOM     36  C   UNL A   1      39.772  29.675  30.249  1.00  0.00     0.049 A 
ATOM     37  N   UNL A   1      41.627  29.314  32.590  1.00  0.00    -0.248 NA
ATOM     38  C   UNL A   1      42.523  27.438  31.524  1.00  0.00     0.031 C 
ATOM     39  C   UNL A   1      38.853  29.912  29.137  1.00  0.00     0.029 A 
ATOM     40  N   UNL A   1      39.488  30.682  31.140  1.00  0.00    -0.354 N 
ATOM     41  C   UNL A   1      42.625  28.767  33.385  1.00  0.00     0.074 A 
ATOM     42  C   UNL A   1      43.130  27.601  32.691  1.00  0.00     0.031 C 
ATOM     43  C   UNL A   1      38.090  30.981  29.423  1.00  0.00     0.029 A 
ATOM     44  C   UNL A   1      38.447  31.490  30.747  1.00  0.00     0.049 A 
ATOM     45  H   UNL A   1      39.983  30.814  31.981  1.00  0.00     0.167 HD
ATOM     46  C   UNL A   1      43.083  29.193  34.584  1.00  0.00     0.031 A 
ATOM     47  C   UNL A   1      37.836  32.504  31.392  1.00  0.00     0.031 A 
ATOM     48  C   UNL A   1      42.574  30.339  35.286  1.00  0.00     0.049 A 
ATOM     49  C   UNL A   1      38.311  32.910  32.765  1.00  0.00     0.074 A 
ATOM     50  C   UNL A   1      43.010  30.872  36.486  1.00  0.00     0.029 A 
ATOM     51  N   UNL A   1      41.504  31.113  34.867  1.00  0.00    -0.354 N 
ATOM     52  N   UNL A   1      39.307  32.428  33.470  1.00  0.00    -0.248 NA
ATOM     53  C   UNL A   1      37.576  33.997  33.431  1.00  0.00     0.031 C 
ATOM     54  C   UNL A   1      42.165  31.934  36.823  1.00  0.00     0.029 A 
ATOM     55  C   UNL A   1      41.236  32.093  35.806  1.00  0.00     0.049 A 
ATOM     56  H   UNL A   1      41.009  30.985  34.026  1.00  0.00     0.167 HD
ATOM     57  C   UNL A   1      39.332  33.168  34.648  1.00  0.00     0.074 A 
ATOM     58  C   UNL A   1      38.260  34.137  34.560  1.00  0.00     0.031 C 
ATOM     59  C   UNL A   1      40.168  33.055  35.709  1.00  0.00     0.031 A 
BRANCH  46  60
ATOM     60  C   UNL A   1      44.173  28.391  35.234  1.00  0.00    -0.014 A 
ATOM     61  C   UNL A   1      43.871  27.315  36.088  1.00  0.00     0.010 A 
ATOM     62  C   UNL A   1      45.517  28.691  34.951  1.00  0.00     0.010 A 
ATOM     63  C   UNL A   1      44.898  26.571  36.672  1.00  0.00     0.020 A 
ATOM     64  C   UNL A   1      46.547  27.936  35.517  1.00  0.00     0.020 A 
ATOM     65  C   UNL A   1      46.230  26.889  36.386  1.00  0.00     0.054 A 
BRANCH  65  66
ATOM     66  S   UNL A   1      47.544  25.891  37.137  1.00  0.00     0.124 S 
ATOM     67  O   UNL A   1      47.208  24.550  36.665  1.00  0.00    -0.237 OA
ATOM     68  O   UNL A   1      48.757  26.472  36.565  1.00  0.00    -0.237 OA
ATOM     69  O   UNL A   1      47.368  26.108  38.570  1.00  0.00    -0.744 OA
ENDBRANCH  65  66
ENDBRANCH  46  60
BRANCH  47  70
ATOM     70  C   UNL A   1      36.670  33.191  30.774  1.00  0.00    -0.014 A 
ATOM     71  C   UNL A   1      36.833  34.004  29.639  1.00  0.00     0.010 A 
ATOM     72  C   UNL A   1      35.390  33.062  31.347  1.00  0.00     0.010 A 
ATOM     73  C   UNL A   1      35.743  34.699  29.106  1.00  0.00     0.020 A 
ATOM     74  C   UNL A   1      34.296  33.736  30.802  1.00  0.00     0.020 A 
ATOM     75  C   UNL A   1      34.482  34.564  29.694  1.00  0.00     0.054 A 
BRANCH  75  76
ATOM     76  S   UNL A   1      33.076  35.459  28.977  1.00  0.00     0.124 S 
ATOM     77  O   UNL A   1      33.744  36.516  28.224  1.00  0.00    -0.237 OA
ATOM     78  O   UNL A   1      32.419  34.430  28.177  1.00  0.00    -0.237 OA
ATOM     79  O   UNL A   1      32.326  35.904  30.149  1.00  0.00    -0.744 OA
ENDBRANCH  75  76
ENDBRANCH  47  70
BRANCH  59  80
ATOM     80  C   UNL A   1      39.984  34.008  36.859  1.00  0.00    -0.014 A 
ATOM     81  C   UNL A   1      40.538  35.298  36.824  1.00  0.00     0.010 A 
ATOM     82  C   UNL A   1      39.165  33.641  37.943  1.00  0.00     0.010 A 
ATOM     83  C   UNL A   1      40.287  36.203  37.860  1.00  0.00     0.020 A 
ATOM     84  C   UNL A   1      38.892  34.550  38.969  1.00  0.00     0.020 A 
ATOM     85  C   UNL A   1      39.461  35.824  38.925  1.00  0.00     0.054 A 
BRANCH  85  86
ATOM     86  S   UNL A   1      39.082  37.042  40.215  1.00  0.00     0.124 S 
ATOM     87  O   UNL A   1      40.404  37.311  40.775  1.00  0.00    -0.237 OA
ATOM     88  O   UNL A   1      38.486  38.139  39.458  1.00  0.00    -0.237 OA
ATOM     89  O   UNL A   1      38.162  36.333  41.101  1.00  0.00    -0.744 OA
ENDBRANCH  85  86
ENDBRANCH  59  80
ENDBRANCH  33  34
ENDBRANCH  26  28
ENDBRANCH  25  26
ENDBRANCH  24  25
ENDBRANCH   1  24
TORSDOF 18
ENDMDL
MODEL 3
REMARK VINA RESULT:     -10.9      3.099      4.062
REMARK SMILES O=C(Cc1csc(NC(=O)[C@H]2CC(=O)N(C3CC3)C2)n1)OCCOC(=O)c1ccc(-c2c3nc(c(-c4ccc(S(=O)(=O)[O-])cc4)c4ccc([nH]4)c(-c4ccc(S(=O)(=O)[O-])cc4)c4nc(c(-c5ccc(S(=O)(=O)[O-])cc5)c5ccc2[nH]5)C=C4)C=C3)cc1
REMARK SMILES IDX 22 1 21 2 2 3 1 4 3 5 4 6 5 7 20 8 6 9 7 10 8 11 9 12 10 14
REMARK SMILES IDX 11 15 12 16 19 17 13 18 15 19 14 20 16 21 17 22 18 23 23 24
REMARK SMILES IDX 24 25 25 26 26 27 27 28 28 29 86 30 29 31 85 32 30 33 31 34
REMARK SMILES IDX 32 35 79 36 33 37 84 38 78 39 80 40 34 41 83 42 77 43 76 44
REMARK SMILES IDX 35 46 65 47 46 48 64 49 47 50 50 51 63 52 81 53 48 54 49 55
REMARK SMILES IDX 62 57 82 58 51 59 36 60 37 61 45 62 38 63 44 64 39 65 40 66
REMARK SMILES IDX 41 67 42 68 43 69 66 70 67 71 75 72 68 73 74 74 69 75 70 76
REMARK SMILES IDX 71 77 72 78 73 79 52 80 53 81 61 82 54 83 60 84 55 85 56 86
REMARK SMILES IDX 57 87 58 88 59 89
REMARK H PARENT 8 13 80 45 50 56
REMARK Flexibility Score: inf
ROOT
ATOM      1  C   UNL A   1      32.143  29.898  25.517  1.00  0.00     0.274 C 
ENDROOT
BRANCH   1   2
ATOM      2  O   UNL A   1      33.271  29.356  24.804  1.00  0.00    -0.462 OA
BRANCH   2   3
ATOM      3  C   UNL A   1      33.147  28.570  23.700  1.00  0.00     0.312 C 
ATOM      4  O   UNL A   1      34.137  28.320  23.016  1.00  0.00    -0.252 OA
BRANCH   3   5
ATOM      5  C   UNL A   1      31.757  28.175  23.267  1.00  0.00     0.179 C 
BRANCH   5   6
ATOM      6  C   UNL A   1      31.340  26.789  23.597  1.00  0.00     0.065 A 
ATOM      7  C   UNL A   1      30.977  25.816  22.686  1.00  0.00     0.093 A 
ATOM      8  N   UNL A   1      31.463  26.325  24.898  1.00  0.00    -0.224 NA
ATOM      9  S   UNL A   1      30.712  24.340  23.485  1.00  0.00    -0.105 S 
ATOM     10  C   UNL A   1      31.165  25.049  24.963  1.00  0.00     0.189 A 
BRANCH  10  11
ATOM     11  N   UNL A   1      31.309  24.348  26.130  1.00  0.00    -0.302 N 
ATOM     12  C   UNL A   1      32.157  23.365  26.542  1.00  0.00     0.231 C 
ATOM     13  H   UNL A   1      30.660  24.610  26.821  1.00  0.00     0.172 HD
ATOM     14  O   UNL A   1      32.094  23.019  27.724  1.00  0.00    -0.274 OA
BRANCH  12  15
ATOM     15  C   UNL A   1      33.041  22.608  25.580  1.00  0.00     0.107 C 
ATOM     16  C   UNL A   1      34.431  22.240  26.097  1.00  0.00     0.115 C 
ATOM     17  C   UNL A   1      32.419  21.248  25.328  1.00  0.00     0.133 C 
ATOM     18  C   UNL A   1      34.738  20.972  25.330  1.00  0.00     0.223 C 
ATOM     19  N   UNL A   1      33.521  20.441  24.889  1.00  0.00    -0.339 N 
ATOM     20  O   UNL A   1      35.856  20.509  25.172  1.00  0.00    -0.275 OA
BRANCH  19  21
ATOM     21  C   UNL A   1      33.290  19.197  24.225  1.00  0.00     0.085 C 
ATOM     22  C   UNL A   1      34.019  17.924  24.543  1.00  0.00     0.027 C 
ATOM     23  C   UNL A   1      32.570  18.070  24.910  1.00  0.00     0.027 C 
ENDBRANCH  19  21
ENDBRANCH  12  15
ENDBRANCH  10  11
ENDBRANCH   5   6
ENDBRANCH   3   5
ENDBRANCH   2   3
ENDBRANCH   1   2
BRANCH   1  24
ATOM     24  C   UNL A   1      32.507  30.348  26.934  1.00  0.00     0.275 C 
BRANCH  24  25
ATOM     25  O   UNL A   1      33.867  30.001  27.248  1.00  0.00    -0.458 OA
BRANCH  25  26
ATOM     26  C   UNL A   1      34.523  30.879  28.053  1.00  0.00     0.338 C 
ATOM     27  O   UNL A   1      34.038  31.830  28.639  1.00  0.00    -0.246 OA
BRANCH  26  28
ATOM     28  C   UNL A   1      35.891  30.365  28.303  1.00  0.00     0.060 A 
ATOM     29  C   UNL A   1      36.205  29.946  29.604  1.00  0.00     0.016 A 
ATOM     30  C   UNL A   1      36.824  30.222  27.272  1.00  0.00     0.016 A 
ATOM     31  C   UNL A   1      37.454  29.387  29.877  1.00  0.00     0.010 A 
ATOM     32  C   UNL A   1      38.081  29.679  27.553  1.00  0.00     0.010 A 
ATOM     33  C   UNL A   1      38.407  29.269  28.857  1.00  0.00    -0.014 A 
BRANCH  33  34
ATOM     34  C   UNL A   1      39.794  28.846  29.170  1.00  0.00     0.031 A 
ATOM     35  C   UNL A   1      40.736  29.852  29.771  1.00  0.00     0.074 A 
ATOM     36  C   UNL A   1      40.221  27.600  28.897  1.00  0.00     0.049 A 
ATOM     37  N   UNL A   1      42.000  29.720  30.076  1.00  0.00    -0.248 NA
ATOM     38  C   UNL A   1      40.178  31.183  30.062  1.00  0.00     0.031 C 
ATOM     39  C   UNL A   1      39.405  26.524  28.335  1.00  0.00     0.029 A 
ATOM     40  N   UNL A   1      41.467  27.039  29.040  1.00  0.00    -0.354 N 
ATOM     41  C   UNL A   1      42.393  30.948  30.590  1.00  0.00     0.074 A 
ATOM     42  C   UNL A   1      41.238  31.820  30.540  1.00  0.00     0.031 C 
ATOM     43  C   UNL A   1      40.179  25.438  28.159  1.00  0.00     0.029 A 
ATOM     44  C   UNL A   1      41.548  25.749  28.570  1.00  0.00     0.049 A 
ATOM     45  H   UNL A   1      42.229  27.514  29.442  1.00  0.00     0.167 HD
ATOM     46  C   UNL A   1      43.605  31.320  31.063  1.00  0.00     0.031 A 
ATOM     47  C   UNL A   1      42.610  24.924  28.461  1.00  0.00     0.031 A 
ATOM     48  C   UNL A   1      44.759  30.466  31.100  1.00  0.00     0.049 A 
ATOM     49  C   UNL A   1      43.969  25.391  28.919  1.00  0.00     0.074 A 
ATOM     50  C   UNL A   1      46.017  30.746  31.605  1.00  0.00     0.029 A 
ATOM     51  N   UNL A   1      44.807  29.178  30.591  1.00  0.00    -0.354 N 
ATOM     52  N   UNL A   1      44.306  26.531  29.473  1.00  0.00    -0.248 NA
ATOM     53  C   UNL A   1      45.092  24.458  28.734  1.00  0.00     0.031 C 
ATOM     54  C   UNL A   1      46.842  29.646  31.348  1.00  0.00     0.029 A 
ATOM     55  C   UNL A   1      46.084  28.665  30.730  1.00  0.00     0.049 A 
ATOM     56  H   UNL A   1      44.045  28.700  30.191  1.00  0.00     0.167 HD
ATOM     57  C   UNL A   1      45.672  26.441  29.724  1.00  0.00     0.074 A 
ATOM     58  C   UNL A   1      46.100  25.134  29.272  1.00  0.00     0.031 C 
ATOM     59  C   UNL A   1      46.499  27.361  30.279  1.00  0.00     0.031 A 
BRANCH  46  60
ATOM     60  C   UNL A   1      43.753  32.733  31.550  1.00  0.00    -0.014 A 
ATOM     61  C   UNL A   1      44.113  33.769  30.670  1.00  0.00     0.010 A 
ATOM     62  C   UNL A   1      43.487  33.034  32.897  1.00  0.00     0.010 A 
ATOM     63  C   UNL A   1      44.232  35.079  31.137  1.00  0.00     0.020 A 
ATOM     64  C   UNL A   1      43.584  34.346  33.364  1.00  0.00     0.020 A 
ATOM     65  C   UNL A   1      43.971  35.359  32.484  1.00  0.00     0.054 A 
BRANCH  65  66
ATOM     66  S   UNL A   1      44.108  37.072  33.059  1.00  0.00     0.124 S 
ATOM     67  O   UNL A   1      45.421  37.069  33.701  1.00  0.00    -0.237 OA
ATOM     68  O   UNL A   1      44.019  37.837  31.818  1.00  0.00    -0.237 OA
ATOM     69  O   UNL A   1      42.973  37.226  33.965  1.00  0.00    -0.744 OA
ENDBRANCH  65  66
ENDBRANCH  46  60
BRANCH  47  70
ATOM     70  C   UNL A   1      42.451  23.577  27.848  1.00  0.00    -0.014 A 
ATOM     71  C   UNL A   1      42.222  22.446  28.649  1.00  0.00     0.010 A 
ATOM     72  C   UNL A   1      42.570  23.418  26.454  1.00  0.00     0.010 A 
ATOM     73  C   UNL A   1      42.143  21.175  28.070  1.00  0.00     0.020 A 
ATOM     74  C   UNL A   1      42.467  22.154  25.871  1.00  0.00     0.020 A 
ATOM     75  C   UNL A   1      42.271  21.036  26.685  1.00  0.00     0.054 A 
BRANCH  75  76
ATOM     76  S   UNL A   1      42.147  19.382  25.951  1.00  0.00     0.124 S 
ATOM     77  O   UNL A   1      40.716  19.279  25.680  1.00  0.00    -0.237 OA
ATOM     78  O   UNL A   1      43.007  19.492  24.776  1.00  0.00    -0.237 OA
ATOM     79  O   UNL A   1      42.651  18.506  27.005  1.00  0.00    -0.744 OA
ENDBRANCH  75  76
ENDBRANCH  47  70
BRANCH  59  80
ATOM     80  C   UNL A   1      47.948  26.993  30.455  1.00  0.00    -0.014 A 
ATOM     81  C   UNL A   1      48.906  27.348  29.491  1.00  0.00     0.010 A 
ATOM     82  C   UNL A   1      48.369  26.370  31.645  1.00  0.00     0.010 A 
ATOM     83  C   UNL A   1      50.260  27.077  29.707  1.00  0.00     0.020 A 
ATOM     84  C   UNL A   1      49.724  26.119  31.876  1.00  0.00     0.020 A 
ATOM     85  C   UNL A   1      50.661  26.468  30.902  1.00  0.00     0.054 A 
BRANCH  85  86
ATOM     86  S   UNL A   1      52.431  26.201  31.197  1.00  0.00     0.124 S 
ATOM     87  O   UNL A   1      52.958  26.130  29.836  1.00  0.00    -0.237 OA
ATOM     88  O   UNL A   1      52.815  27.388  31.957  1.00  0.00    -0.237 OA
ATOM     89  O   UNL A   1      52.473  24.949  31.947  1.00  0.00    -0.744 OA
ENDBRANCH  85  86
ENDBRANCH  59  80
ENDBRANCH  33  34
ENDBRANCH  26  28
ENDBRANCH  25  26
ENDBRANCH  24  25
ENDBRANCH   1  24
TORSDOF 18
ENDMDL
