MODEL 1
REMARK VINA RESULT:     -11.3      0.000      0.000
REMARK SMILES Cc1ccc(C)c(-c2csc(C(=O)OCCOC(=O)c3ccc(-c4c5nc(c(-c6ccc(S(=O)(=O)[O-])cc6)c6ccc([nH]6)c(-c6ccc(S(=O)(=O)[O-])cc6)c6nc(c(-c7ccc(S(=O)(=O)[O-])cc7)c7ccc4[nH]7)C=C6)C=C5)cc3)n2)c1
REMARK SMILES IDX 16 1 15 2 14 3 12 4 13 5 11 6 8 7 9 8 80 9 10 10 7 11 1 12
REMARK SMILES IDX 2 13 3 14 81 15 4 16 5 17 6 18 17 19 18 20 19 21 20 22 21 23
REMARK SMILES IDX 79 24 22 25 78 26 23 27 24 28 25 29 72 30 26 31 77 32 71 33
REMARK SMILES IDX 73 34 27 35 76 36 70 37 69 38 28 40 58 41 39 42 57 43 40 44
REMARK SMILES IDX 43 45 56 46 74 47 41 48 42 49 55 51 75 52 44 53 29 54 30 55
REMARK SMILES IDX 38 56 31 57 37 58 32 59 33 60 34 61 35 62 36 63 59 64 60 65
REMARK SMILES IDX 68 66 61 67 67 68 62 69 63 70 64 71 65 72 66 73 45 74 46 75
REMARK SMILES IDX 54 76 47 77 53 78 48 79 49 80 50 81 51 82 52 83
REMARK H PARENT 73 39 43 50
REMARK Flexibility Score: inf
ROOT
ATOM      1  C   UNL A   1      40.425  19.781  26.287  1.00  0.00     0.275 C 
ENDROOT
BRANCH   1   2
ATOM      2  C   UNL A   1      41.840  19.191  26.274  1.00  0.00     0.275 C 
BRANCH   2   3
ATOM      3  O   UNL A   1      42.626  19.619  25.165  1.00  0.00    -0.457 OA
BRANCH   3   4
ATOM      4  C   UNL A   1      43.920  19.212  25.177  1.00  0.00     0.367 C 
ATOM      5  O   UNL A   1      44.283  18.030  25.155  1.00  0.00    -0.243 OA
BRANCH   4   6
ATOM      6  C   UNL A   1      44.774  20.365  25.146  1.00  0.00     0.202 A 
ATOM      7  C   UNL A   1      45.505  22.372  25.629  1.00  0.00     0.082 A 
ATOM      8  C   UNL A   1      46.443  22.038  24.672  1.00  0.00     0.096 A 
ATOM      9  N   UNL A   1      44.564  21.411  25.914  1.00  0.00    -0.230 NA
ATOM     10  S   UNL A   1      46.110  20.457  24.082  1.00  0.00    -0.115 S 
BRANCH   7  11
ATOM     11  C   UNL A   1      45.399  23.672  26.251  1.00  0.00     0.004 A 
ATOM     12  C   UNL A   1      47.035  25.482  29.181  1.00  0.00     0.044 C 
ATOM     13  C   UNL A   1      46.140  25.175  28.017  1.00  0.00    -0.050 A 
ATOM     14  C   UNL A   1      45.110  26.055  27.672  1.00  0.00     0.004 A 
ATOM     15  C   UNL A   1      46.279  23.982  27.300  1.00  0.00     0.014 A 
ATOM     16  C   UNL A   1      44.233  25.751  26.628  1.00  0.00     0.004 A 
ATOM     17  C   UNL A   1      44.356  24.552  25.912  1.00  0.00    -0.042 A 
ATOM     18  C   UNL A   1      43.337  24.252  24.844  1.00  0.00     0.045 C 
ENDBRANCH   7  11
ENDBRANCH   4   6
ENDBRANCH   3   4
ENDBRANCH   2   3
ENDBRANCH   1   2
BRANCH   1  19
ATOM     19  O   UNL A   1      40.227  21.067  26.945  1.00  0.00    -0.458 OA
BRANCH  19  20
ATOM     20  C   UNL A   1      39.549  22.171  26.547  1.00  0.00     0.338 C 
ATOM     21  O   UNL A   1      38.507  22.079  25.909  1.00  0.00    -0.246 OA
BRANCH  20  22
ATOM     22  C   UNL A   1      40.035  23.493  26.974  1.00  0.00     0.060 A 
ATOM     23  C   UNL A   1      39.322  24.634  26.590  1.00  0.00     0.016 A 
ATOM     24  C   UNL A   1      41.144  23.603  27.806  1.00  0.00     0.016 A 
ATOM     25  C   UNL A   1      39.651  25.873  27.141  1.00  0.00     0.010 A 
ATOM     26  C   UNL A   1      41.401  24.815  28.426  1.00  0.00     0.010 A 
ATOM     27  C   UNL A   1      40.672  25.965  28.094  1.00  0.00    -0.014 A 
BRANCH  27  28
ATOM     28  C   UNL A   1      40.923  27.246  28.772  1.00  0.00     0.031 A 
ATOM     29  C   UNL A   1      42.002  28.135  28.236  1.00  0.00     0.074 A 
ATOM     30  C   UNL A   1      40.123  27.774  29.722  1.00  0.00     0.049 A 
ATOM     31  N   UNL A   1      43.082  28.520  28.838  1.00  0.00    -0.248 NA
ATOM     32  C   UNL A   1      41.864  28.668  26.873  1.00  0.00     0.031 C 
ATOM     33  C   UNL A   1      38.840  27.267  30.218  1.00  0.00     0.029 A 
ATOM     34  N   UNL A   1      40.239  28.980  30.354  1.00  0.00    -0.354 N 
ATOM     35  C   UNL A   1      43.673  29.486  28.024  1.00  0.00     0.074 A 
ATOM     36  C   UNL A   1      42.935  29.462  26.783  1.00  0.00     0.031 C 
ATOM     37  C   UNL A   1      38.177  28.265  30.838  1.00  0.00     0.029 A 
ATOM     38  C   UNL A   1      39.066  29.405  30.956  1.00  0.00     0.049 A 
ATOM     39  H   UNL A   1      41.076  29.497  30.379  1.00  0.00     0.167 HD
ATOM     40  C   UNL A   1      44.608  30.365  28.489  1.00  0.00     0.031 A 
ATOM     41  C   UNL A   1      38.816  30.613  31.509  1.00  0.00     0.031 A 
ATOM     42  C   UNL A   1      45.105  30.003  29.790  1.00  0.00     0.049 A 
ATOM     43  C   UNL A   1      40.111  31.213  31.894  1.00  0.00     0.074 A 
ATOM     44  C   UNL A   1      45.707  28.891  30.347  1.00  0.00     0.029 A 
ATOM     45  N   UNL A   1      44.713  30.779  30.857  1.00  0.00    -0.354 N 
ATOM     46  N   UNL A   1      40.875  30.721  32.828  1.00  0.00    -0.248 NA
ATOM     47  C   UNL A   1      40.751  32.175  31.013  1.00  0.00     0.031 C 
ATOM     48  C   UNL A   1      45.197  28.824  31.679  1.00  0.00     0.029 A 
ATOM     49  C   UNL A   1      44.346  29.917  31.856  1.00  0.00     0.049 A 
ATOM     50  H   UNL A   1      44.698  31.763  30.894  1.00  0.00     0.167 HD
ATOM     51  C   UNL A   1      42.169  30.967  32.397  1.00  0.00     0.074 A 
ATOM     52  C   UNL A   1      42.026  31.993  31.370  1.00  0.00     0.031 C 
ATOM     53  C   UNL A   1      43.192  30.115  32.709  1.00  0.00     0.031 A 
BRANCH  40  54
ATOM     54  C   UNL A   1      44.838  31.759  27.943  1.00  0.00    -0.014 A 
ATOM     55  C   UNL A   1      46.157  32.157  27.627  1.00  0.00     0.010 A 
ATOM     56  C   UNL A   1      43.865  32.775  28.023  1.00  0.00     0.010 A 
ATOM     57  C   UNL A   1      46.503  33.510  27.502  1.00  0.00     0.020 A 
ATOM     58  C   UNL A   1      44.193  34.126  27.852  1.00  0.00     0.020 A 
ATOM     59  C   UNL A   1      45.519  34.487  27.643  1.00  0.00     0.054 A 
BRANCH  59  60
ATOM     60  S   UNL A   1      45.998  36.234  27.644  1.00  0.00     0.124 S 
ATOM     61  O   UNL A   1      44.872  36.848  26.945  1.00  0.00    -0.237 OA
ATOM     62  O   UNL A   1      46.097  36.535  29.069  1.00  0.00    -0.237 OA
ATOM     63  O   UNL A   1      47.267  36.239  26.922  1.00  0.00    -0.744 OA
ENDBRANCH  59  60
ENDBRANCH  40  54
BRANCH  41  64
ATOM     64  C   UNL A   1      37.523  31.327  31.559  1.00  0.00    -0.014 A 
ATOM     65  C   UNL A   1      36.772  31.392  32.744  1.00  0.00     0.010 A 
ATOM     66  C   UNL A   1      37.141  32.162  30.487  1.00  0.00     0.010 A 
ATOM     67  C   UNL A   1      35.708  32.299  32.870  1.00  0.00     0.020 A 
ATOM     68  C   UNL A   1      36.074  33.058  30.599  1.00  0.00     0.020 A 
ATOM     69  C   UNL A   1      35.378  33.139  31.802  1.00  0.00     0.054 A 
BRANCH  69  70
ATOM     70  S   UNL A   1      34.123  34.430  32.036  1.00  0.00     0.124 S 
ATOM     71  O   UNL A   1      33.565  34.568  30.695  1.00  0.00    -0.237 OA
ATOM     72  O   UNL A   1      33.237  33.836  33.033  1.00  0.00    -0.237 OA
ATOM     73  O   UNL A   1      34.896  35.579  32.508  1.00  0.00    -0.744 OA
ENDBRANCH  69  70
ENDBRANCH  41  64
BRANCH  53  74
ATOM     74  C   UNL A   1      42.984  29.101  33.813  1.00  0.00    -0.014 A 
ATOM     75  C   UNL A   1      43.283  29.356  35.166  1.00  0.00     0.010 A 
ATOM     76  C   UNL A   1      42.340  27.891  33.492  1.00  0.00     0.010 A 
ATOM     77  C   UNL A   1      42.993  28.411  36.160  1.00  0.00     0.020 A 
ATOM     78  C   UNL A   1      42.027  26.954  34.482  1.00  0.00     0.020 A 
ATOM     79  C   UNL A   1      42.370  27.211  35.810  1.00  0.00     0.054 A 
BRANCH  79  80
ATOM     80  S   UNL A   1      41.967  26.012  37.109  1.00  0.00     0.124 S 
ATOM     81  O   UNL A   1      40.590  26.360  37.446  1.00  0.00    -0.237 OA
ATOM     82  O   UNL A   1      42.144  24.727  36.434  1.00  0.00    -0.237 OA
ATOM     83  O   UNL A   1      42.949  26.291  38.156  1.00  0.00    -0.744 OA
ENDBRANCH  79  80
ENDBRANCH  53  74
ENDBRANCH  27  28
ENDBRANCH  20  22
ENDBRANCH  19  20
ENDBRANCH   1  19
TORSDOF 15
ENDMDL
MODEL 2
REMARK VINA RESULT:     -11.2      1.490      2.018
REMARK SMILES Cc1ccc(C)c(-c2csc(C(=O)OCCOC(=O)c3ccc(-c4c5nc(c(-c6ccc(S(=O)(=O)[O-])cc6)c6ccc([nH]6)c(-c6ccc(S(=O)(=O)[O-])cc6)c6nc(c(-c7ccc(S(=O)(=O)[O-])cc7)c7ccc4[nH]7)C=C6)C=C5)cc3)n2)c1
REMARK SMILES IDX 16 1 15 2 14 3 12 4 13 5 11 6 8 7 9 8 80 9 10 10 7 11 1 12
REMARK SMILES IDX 2 13 3 14 81 15 4 16 5 17 6 18 17 19 18 20 19 21 20 22 21 23
REMARK SMILES IDX 79 24 22 25 78 26 23 27 24 28 25 29 72 30 26 31 77 32 71 33
REMARK SMILES IDX 73 34 27 35 76 36 70 37 69 38 28 40 58 41 39 42 57 43 40 44
REMARK SMILES IDX 43 45 56 46 74 47 41 48 42 49 55 51 75 52 44 53 29 54 30 55
REMARK SMILES IDX 38 56 31 57 37 58 32 59 33 60 34 61 35 62 36 63 59 64 60 65
REMARK SMILES IDX 68 66 61 67 67 68 62 69 63 70 64 71 65 72 66 73 45 74 46 75
REMARK SMILES IDX 54 76 47 77 53 78 48 79 49 80 50 81 51 82 52 83
REMARK H PARENT 73 39 43 50
REMARK Flexibility Score: inf
ROOT
ATOM      1  C   UNL A   1      42.776  19.248  25.710  1.00  0.00     0.275 C 
ENDROOT
BRANCH   1   2
ATOM      2  C   UNL A   1      44.080  18.811  25.032  1.00  0.00     0.275 C 
BRANCH   2   3
ATOM      3  O   UNL A   1      44.607  19.781  24.130  1.00  0.00    -0.457 OA
BRANCH   3   4
ATOM      4  C   UNL A   1      45.814  20.297  24.470  1.00  0.00     0.367 C 
ATOM      5  O   UNL A   1      46.874  19.659  24.472  1.00  0.00    -0.243 OA
BRANCH   4   6
ATOM      6  C   UNL A   1      45.664  21.696  24.749  1.00  0.00     0.202 A 
ATOM      7  C   UNL A   1      45.970  23.618  25.754  1.00  0.00     0.082 A 
ATOM      8  C   UNL A   1      44.998  24.011  24.855  1.00  0.00     0.096 A 
ATOM      9  N   UNL A   1      46.364  22.302  25.681  1.00  0.00    -0.230 NA
ATOM     10  S   UNL A   1      44.538  22.660  23.895  1.00  0.00    -0.115 S 
BRANCH   7  11
ATOM     11  C   UNL A   1      46.502  24.459  26.802  1.00  0.00     0.004 A 
ATOM     12  C   UNL A   1      45.718  25.146  30.469  1.00  0.00     0.044 C 
ATOM     13  C   UNL A   1      46.346  25.220  29.109  1.00  0.00    -0.050 A 
ATOM     14  C   UNL A   1      47.293  26.208  28.826  1.00  0.00     0.004 A 
ATOM     15  C   UNL A   1      45.955  24.345  28.089  1.00  0.00     0.014 A 
ATOM     16  C   UNL A   1      47.841  26.323  27.546  1.00  0.00     0.004 A 
ATOM     17  C   UNL A   1      47.445  25.461  26.514  1.00  0.00    -0.042 A 
ATOM     18  C   UNL A   1      48.022  25.681  25.140  1.00  0.00     0.045 C 
ENDBRANCH   7  11
ENDBRANCH   4   6
ENDBRANCH   3   4
ENDBRANCH   2   3
ENDBRANCH   1   2
BRANCH   1  19
ATOM     19  O   UNL A   1      42.503  20.676  25.808  1.00  0.00    -0.458 OA
BRANCH  19  20
ATOM     20  C   UNL A   1      41.599  21.356  26.556  1.00  0.00     0.338 C 
ATOM     21  O   UNL A   1      40.541  20.840  26.896  1.00  0.00    -0.246 OA
BRANCH  20  22
ATOM     22  C   UNL A   1      41.947  22.703  27.035  1.00  0.00     0.060 A 
ATOM     23  C   UNL A   1      41.567  23.814  26.272  1.00  0.00     0.016 A 
ATOM     24  C   UNL A   1      42.579  22.876  28.261  1.00  0.00     0.016 A 
ATOM     25  C   UNL A   1      41.713  25.097  26.799  1.00  0.00     0.010 A 
ATOM     26  C   UNL A   1      42.628  24.143  28.820  1.00  0.00     0.010 A 
ATOM     27  C   UNL A   1      42.211  25.268  28.096  1.00  0.00    -0.014 A 
BRANCH  27  28
ATOM     28  C   UNL A   1      42.235  26.610  28.697  1.00  0.00     0.031 A 
ATOM     29  C   UNL A   1      43.361  27.530  28.339  1.00  0.00     0.074 A 
ATOM     30  C   UNL A   1      41.213  27.151  29.394  1.00  0.00     0.049 A 
ATOM     31  N   UNL A   1      44.254  28.033  29.132  1.00  0.00    -0.248 NA
ATOM     32  C   UNL A   1      43.512  27.949  26.939  1.00  0.00     0.031 C 
ATOM     33  C   UNL A   1      39.878  26.594  29.632  1.00  0.00     0.029 A 
ATOM     34  N   UNL A   1      41.120  28.405  29.927  1.00  0.00    -0.354 N 
ATOM     35  C   UNL A   1      44.965  28.975  28.389  1.00  0.00     0.074 A 
ATOM     36  C   UNL A   1      44.533  28.807  27.021  1.00  0.00     0.031 C 
ATOM     37  C   UNL A   1      39.041  27.587  29.998  1.00  0.00     0.029 A 
ATOM     38  C   UNL A   1      39.820  28.791  30.211  1.00  0.00     0.049 A 
ATOM     39  H   UNL A   1      41.902  28.980  30.093  1.00  0.00     0.167 HD
ATOM     40  C   UNL A   1      45.724  29.948  28.971  1.00  0.00     0.031 A 
ATOM     41  C   UNL A   1      39.389  30.016  30.585  1.00  0.00     0.031 A 
ATOM     42  C   UNL A   1      45.927  29.720  30.378  1.00  0.00     0.049 A 
ATOM     43  C   UNL A   1      40.529  30.732  31.196  1.00  0.00     0.074 A 
ATOM     44  C   UNL A   1      46.442  28.697  31.151  1.00  0.00     0.029 A 
ATOM     45  N   UNL A   1      45.262  30.543  31.257  1.00  0.00    -0.354 N 
ATOM     46  N   UNL A   1      41.084  30.366  32.317  1.00  0.00    -0.248 NA
ATOM     47  C   UNL A   1      41.304  31.668  30.399  1.00  0.00     0.031 C 
ATOM     48  C   UNL A   1      45.645  28.693  32.335  1.00  0.00     0.029 A 
ATOM     49  C   UNL A   1      44.721  29.735  32.221  1.00  0.00     0.049 A 
ATOM     50  H   UNL A   1      45.190  31.524  31.203  1.00  0.00     0.167 HD
ATOM     51  C   UNL A   1      42.427  30.668  32.166  1.00  0.00     0.074 A 
ATOM     52  C   UNL A   1      42.471  31.602  31.047  1.00  0.00     0.031 C 
ATOM     53  C   UNL A   1      43.394  29.915  32.773  1.00  0.00     0.031 A 
BRANCH  40  54
ATOM     54  C   UNL A   1      46.001  31.311  28.370  1.00  0.00    -0.014 A 
ATOM     55  C   UNL A   1      44.910  32.166  28.091  1.00  0.00     0.010 A 
ATOM     56  C   UNL A   1      47.241  31.647  27.792  1.00  0.00     0.010 A 
ATOM     57  C   UNL A   1      45.032  33.240  27.198  1.00  0.00     0.020 A 
ATOM     58  C   UNL A   1      47.383  32.746  26.936  1.00  0.00     0.020 A 
ATOM     59  C   UNL A   1      46.265  33.505  26.605  1.00  0.00     0.054 A 
BRANCH  59  60
ATOM     60  S   UNL A   1      46.380  34.788  25.331  1.00  0.00     0.124 S 
ATOM     61  O   UNL A   1      45.348  34.361  24.390  1.00  0.00    -0.237 OA
ATOM     62  O   UNL A   1      46.087  36.006  26.082  1.00  0.00    -0.237 OA
ATOM     63  O   UNL A   1      47.755  34.671  24.855  1.00  0.00    -0.744 OA
ENDBRANCH  59  60
ENDBRANCH  40  54
BRANCH  41  64
ATOM     64  C   UNL A   1      38.084  30.640  30.282  1.00  0.00    -0.014 A 
ATOM     65  C   UNL A   1      37.294  31.207  31.295  1.00  0.00     0.010 A 
ATOM     66  C   UNL A   1      37.724  30.897  28.941  1.00  0.00     0.010 A 
ATOM     67  C   UNL A   1      36.213  32.044  30.979  1.00  0.00     0.020 A 
ATOM     68  C   UNL A   1      36.641  31.718  28.617  1.00  0.00     0.020 A 
ATOM     69  C   UNL A   1      35.904  32.308  29.641  1.00  0.00     0.054 A 
BRANCH  69  70
ATOM     70  S   UNL A   1      34.623  33.531  29.244  1.00  0.00     0.124 S 
ATOM     71  O   UNL A   1      33.792  32.811  28.285  1.00  0.00    -0.237 OA
ATOM     72  O   UNL A   1      34.013  33.786  30.546  1.00  0.00    -0.237 OA
ATOM     73  O   UNL A   1      35.380  34.654  28.689  1.00  0.00    -0.744 OA
ENDBRANCH  69  70
ENDBRANCH  41  64
BRANCH  53  74
ATOM     74  C   UNL A   1      42.991  28.974  33.887  1.00  0.00    -0.014 A 
ATOM     75  C   UNL A   1      42.968  29.346  35.247  1.00  0.00     0.010 A 
ATOM     76  C   UNL A   1      42.491  27.705  33.538  1.00  0.00     0.010 A 
ATOM     77  C   UNL A   1      42.508  28.461  36.230  1.00  0.00     0.020 A 
ATOM     78  C   UNL A   1      42.008  26.825  34.512  1.00  0.00     0.020 A 
ATOM     79  C   UNL A   1      42.034  27.201  35.856  1.00  0.00     0.054 A 
BRANCH  79  80
ATOM     80  S   UNL A   1      41.405  26.077  37.134  1.00  0.00     0.124 S 
ATOM     81  O   UNL A   1      40.225  26.783  37.624  1.00  0.00    -0.237 OA
ATOM     82  O   UNL A   1      41.139  24.849  36.386  1.00  0.00    -0.237 OA
ATOM     83  O   UNL A   1      42.511  25.983  38.087  1.00  0.00    -0.744 OA
ENDBRANCH  79  80
ENDBRANCH  53  74
ENDBRANCH  27  28
ENDBRANCH  20  22
ENDBRANCH  19  20
ENDBRANCH   1  19
TORSDOF 15
ENDMDL
MODEL 3
REMARK VINA RESULT:     -10.8      3.288      5.559
REMARK SMILES Cc1ccc(C)c(-c2csc(C(=O)OCCOC(=O)c3ccc(-c4c5nc(c(-c6ccc(S(=O)(=O)[O-])cc6)c6ccc([nH]6)c(-c6ccc(S(=O)(=O)[O-])cc6)c6nc(c(-c7ccc(S(=O)(=O)[O-])cc7)c7ccc4[nH]7)C=C6)C=C5)cc3)n2)c1
REMARK SMILES IDX 16 1 15 2 14 3 12 4 13 5 11 6 8 7 9 8 80 9 10 10 7 11 1 12
REMARK SMILES IDX 2 13 3 14 81 15 4 16 5 17 6 18 17 19 18 20 19 21 20 22 21 23
REMARK SMILES IDX 79 24 22 25 78 26 23 27 24 28 25 29 72 30 26 31 77 32 71 33
REMARK SMILES IDX 73 34 27 35 76 36 70 37 69 38 28 40 58 41 39 42 57 43 40 44
REMARK SMILES IDX 43 45 56 46 74 47 41 48 42 49 55 51 75 52 44 53 29 54 30 55
REMARK SMILES IDX 38 56 31 57 37 58 32 59 33 60 34 61 35 62 36 63 59 64 60 65
REMARK SMILES IDX 68 66 61 67 67 68 62 69 63 70 64 71 65 72 66 73 45 74 46 75
REMARK SMILES IDX 54 76 47 77 53 78 48 79 49 80 50 81 51 82 52 83
REMARK H PARENT 73 39 43 50
REMARK Flexibility Score: inf
ROOT
ATOM      1  C   UNL A   1      37.582  20.861  25.029  1.00  0.00     0.275 C 
ENDROOT
BRANCH   1   2
ATOM      2  C   UNL A   1      36.062  20.661  25.004  1.00  0.00     0.275 C 
BRANCH   2   3
ATOM      3  O   UNL A   1      35.357  21.724  24.368  1.00  0.00    -0.457 OA
BRANCH   3   4
ATOM      4  C   UNL A   1      34.129  21.995  24.878  1.00  0.00     0.367 C 
ATOM      5  O   UNL A   1      33.466  21.207  25.562  1.00  0.00    -0.243 OA
BRANCH   4   6
ATOM      6  C   UNL A   1      33.776  23.348  24.555  1.00  0.00     0.202 A 
ATOM      7  C   UNL A   1      33.265  25.453  24.878  1.00  0.00     0.082 A 
ATOM      8  C   UNL A   1      33.114  25.415  23.506  1.00  0.00     0.096 A 
ATOM      9  N   UNL A   1      33.662  24.279  25.475  1.00  0.00    -0.230 NA
ATOM     10  S   UNL A   1      33.456  23.826  22.944  1.00  0.00    -0.115 S 
BRANCH   7  11
ATOM     11  C   UNL A   1      32.939  26.592  25.705  1.00  0.00     0.004 A 
ATOM     12  C   UNL A   1      34.856  29.393  27.441  1.00  0.00     0.044 C 
ATOM     13  C   UNL A   1      33.739  28.504  26.982  1.00  0.00    -0.050 A 
ATOM     14  C   UNL A   1      32.451  28.674  27.497  1.00  0.00     0.004 A 
ATOM     15  C   UNL A   1      33.977  27.459  26.083  1.00  0.00     0.014 A 
ATOM     16  C   UNL A   1      31.415  27.814  27.122  1.00  0.00     0.004 A 
ATOM     17  C   UNL A   1      31.646  26.755  26.233  1.00  0.00    -0.042 A 
ATOM     18  C   UNL A   1      30.504  25.823  25.922  1.00  0.00     0.045 C 
ENDBRANCH   7  11
ENDBRANCH   4   6
ENDBRANCH   3   4
ENDBRANCH   2   3
ENDBRANCH   1   2
BRANCH   1  19
ATOM     19  O   UNL A   1      38.122  21.887  25.913  1.00  0.00    -0.458 OA
BRANCH  19  20
ATOM     20  C   UNL A   1      39.333  21.994  26.511  1.00  0.00     0.338 C 
ATOM     21  O   UNL A   1      40.051  21.013  26.670  1.00  0.00    -0.246 OA
BRANCH  20  22
ATOM     22  C   UNL A   1      39.821  23.330  26.889  1.00  0.00     0.060 A 
ATOM     23  C   UNL A   1      39.023  24.447  26.613  1.00  0.00     0.016 A 
ATOM     24  C   UNL A   1      41.022  23.477  27.574  1.00  0.00     0.016 A 
ATOM     25  C   UNL A   1      39.374  25.693  27.133  1.00  0.00     0.010 A 
ATOM     26  C   UNL A   1      41.311  24.693  28.172  1.00  0.00     0.010 A 
ATOM     27  C   UNL A   1      40.504  25.816  27.950  1.00  0.00    -0.014 A 
BRANCH  27  28
ATOM     28  C   UNL A   1      40.792  27.101  28.606  1.00  0.00     0.031 A 
ATOM     29  C   UNL A   1      41.847  27.982  28.012  1.00  0.00     0.074 A 
ATOM     30  C   UNL A   1      40.041  27.639  29.589  1.00  0.00     0.049 A 
ATOM     31  N   UNL A   1      42.956  28.367  28.560  1.00  0.00    -0.248 NA
ATOM     32  C   UNL A   1      41.646  28.506  26.654  1.00  0.00     0.031 C 
ATOM     33  C   UNL A   1      38.781  27.140  30.149  1.00  0.00     0.029 A 
ATOM     34  N   UNL A   1      40.191  28.848  30.206  1.00  0.00    -0.354 N 
ATOM     35  C   UNL A   1      43.511  29.325  27.711  1.00  0.00     0.074 A 
ATOM     36  C   UNL A   1      42.715  29.295  26.507  1.00  0.00     0.031 C 
ATOM     37  C   UNL A   1      38.152  28.145  30.793  1.00  0.00     0.029 A 
ATOM     38  C   UNL A   1      39.050  29.282  30.861  1.00  0.00     0.049 A 
ATOM     39  H   UNL A   1      41.031  29.362  30.188  1.00  0.00     0.167 HD
ATOM     40  C   UNL A   1      44.471  30.203  28.124  1.00  0.00     0.031 A 
ATOM     41  C   UNL A   1      38.831  30.494  31.417  1.00  0.00     0.031 A 
ATOM     42  C   UNL A   1      45.028  29.847  29.403  1.00  0.00     0.049 A 
ATOM     43  C   UNL A   1      40.145  31.092  31.735  1.00  0.00     0.074 A 
ATOM     44  C   UNL A   1      45.652  28.737  29.938  1.00  0.00     0.029 A 
ATOM     45  N   UNL A   1      44.691  30.632  30.482  1.00  0.00    -0.354 N 
ATOM     46  N   UNL A   1      40.952  30.604  32.635  1.00  0.00    -0.248 NA
ATOM     47  C   UNL A   1      40.746  32.046  30.818  1.00  0.00     0.031 C 
ATOM     48  C   UNL A   1      45.207  28.681  31.293  1.00  0.00     0.029 A 
ATOM     49  C   UNL A   1      44.369  29.779  31.504  1.00  0.00     0.049 A 
ATOM     50  H   UNL A   1      44.682  31.616  30.512  1.00  0.00     0.167 HD
ATOM     51  C   UNL A   1      42.224  30.841  32.141  1.00  0.00     0.074 A 
ATOM     52  C   UNL A   1      42.036  31.861  31.115  1.00  0.00     0.031 C 
ATOM     53  C   UNL A   1      43.258  29.987  32.410  1.00  0.00     0.031 A 
BRANCH  40  54
ATOM     54  C   UNL A   1      44.680  31.592  27.558  1.00  0.00    -0.014 A 
ATOM     55  C   UNL A   1      45.937  31.918  26.999  1.00  0.00     0.010 A 
ATOM     56  C   UNL A   1      43.806  32.662  27.834  1.00  0.00     0.010 A 
ATOM     57  C   UNL A   1      46.337  33.249  26.824  1.00  0.00     0.020 A 
ATOM     58  C   UNL A   1      44.180  33.995  27.617  1.00  0.00     0.020 A 
ATOM     59  C   UNL A   1      45.462  34.280  27.161  1.00  0.00     0.054 A 
BRANCH  59  60
ATOM     60  S   UNL A   1      46.041  35.996  27.087  1.00  0.00     0.124 S 
ATOM     61  O   UNL A   1      44.780  36.729  27.029  1.00  0.00    -0.237 OA
ATOM     62  O   UNL A   1      46.794  36.129  28.331  1.00  0.00    -0.237 OA
ATOM     63  O   UNL A   1      46.846  36.029  25.870  1.00  0.00    -0.744 OA
ENDBRANCH  59  60
ENDBRANCH  40  54
BRANCH  41  64
ATOM     64  C   UNL A   1      37.545  31.214  31.524  1.00  0.00    -0.014 A 
ATOM     65  C   UNL A   1      36.902  31.378  32.762  1.00  0.00     0.010 A 
ATOM     66  C   UNL A   1      37.065  31.961  30.426  1.00  0.00     0.010 A 
ATOM     67  C   UNL A   1      35.850  32.295  32.908  1.00  0.00     0.020 A 
ATOM     68  C   UNL A   1      36.009  32.866  30.560  1.00  0.00     0.020 A 
ATOM     69  C   UNL A   1      35.422  33.047  31.809  1.00  0.00     0.054 A 
BRANCH  69  70
ATOM     70  S   UNL A   1      34.188  34.356  32.048  1.00  0.00     0.124 S 
ATOM     71  O   UNL A   1      33.271  33.748  33.006  1.00  0.00    -0.237 OA
ATOM     72  O   UNL A   1      34.994  35.463  32.555  1.00  0.00    -0.237 OA
ATOM     73  O   UNL A   1      33.640  34.560  30.707  1.00  0.00    -0.744 OA
ENDBRANCH  69  70
ENDBRANCH  41  64
BRANCH  53  74
ATOM     74  C   UNL A   1      43.099  28.981  33.529  1.00  0.00    -0.014 A 
ATOM     75  C   UNL A   1      43.720  29.117  34.787  1.00  0.00     0.010 A 
ATOM     76  C   UNL A   1      42.185  27.926  33.351  1.00  0.00     0.010 A 
ATOM     77  C   UNL A   1      43.473  28.199  35.816  1.00  0.00     0.020 A 
ATOM     78  C   UNL A   1      41.916  27.020  34.382  1.00  0.00     0.020 A 
ATOM     79  C   UNL A   1      42.574  27.152  35.605  1.00  0.00     0.054 A 
BRANCH  79  80
ATOM     80  S   UNL A   1      42.234  25.991  36.957  1.00  0.00     0.124 S 
ATOM     81  O   UNL A   1      43.031  26.538  38.052  1.00  0.00    -0.237 OA
ATOM     82  O   UNL A   1      40.785  26.094  37.120  1.00  0.00    -0.237 OA
ATOM     83  O   UNL A   1      42.699  24.706  36.436  1.00  0.00    -0.744 OA
ENDBRANCH  79  80
ENDBRANCH  53  74
ENDBRANCH  27  28
ENDBRANCH  20  22
ENDBRANCH  19  20
ENDBRANCH   1  19
TORSDOF 15
ENDMDL
