MODEL 1
REMARK VINA RESULT:     -11.0      0.000      0.000
REMARK SMILES C=C(C(=O)OCCOC(=O)c1ccc(-c2c3nc(c(-c4ccc(S(=O)(=O)[O-])cc4)c4ccc([nH]4)c(-c4ccc(S(=O)(=O)[O-])cc4)c4nc(c(-c5ccc(S(=O)(=O)[O-])cc5)c5ccc2[nH]5)C=C4)C=C3)cc1)[C@@H]1CC[C@]2(C)CCCC(=C)[C@H]2[C@H]1O
REMARK SMILES IDX 7 1 6 2 5 3 3 4 4 5 2 6 1 7 71 8 72 9 82 10 73 11 81 12
REMARK SMILES IDX 74 13 79 14 75 15 76 16 78 17 80 18 77 19 83 20 8 22 9 23
REMARK SMILES IDX 10 24 11 25 12 26 70 27 13 28 69 29 14 30 15 31 16 32 63 33
REMARK SMILES IDX 17 34 68 35 62 36 64 37 18 38 67 39 61 40 60 41 19 43 49 44
REMARK SMILES IDX 30 45 48 46 31 47 34 48 47 49 65 50 32 51 33 52 46 54 66 55
REMARK SMILES IDX 35 56 20 57 21 58 29 59 22 60 28 61 23 62 24 63 25 64 26 65
REMARK SMILES IDX 27 66 50 67 51 68 59 69 52 70 58 71 53 72 54 73 55 74 56 75
REMARK SMILES IDX 57 76 36 77 37 78 45 79 38 80 44 81 39 82 40 83 41 84 42 85
REMARK SMILES IDX 43 86
REMARK H PARENT 83 21 64 42 34 53
REMARK Flexibility Score: inf
ROOT
ATOM      1  C   UNL A   1      32.471  30.904  27.089  1.00  0.00     0.275 C 
ENDROOT
BRANCH   1   2
ATOM      2  C   UNL A   1      31.789  30.438  25.805  1.00  0.00     0.275 C 
BRANCH   2   3
ATOM      3  O   UNL A   1      32.159  29.085  25.476  1.00  0.00    -0.459 OA
BRANCH   3   4
ATOM      4  C   UNL A   1      31.488  28.484  24.458  1.00  0.00     0.333 C 
ATOM      5  O   UNL A   1      30.555  28.961  23.830  1.00  0.00    -0.247 OA
BRANCH   4   6
ATOM      6  C   UNL A   1      31.991  27.096  24.248  1.00  0.00     0.036 C 
ATOM      7  C   UNL A   1      33.337  27.001  24.269  1.00  0.00     0.020 C 
BRANCH   6   8
ATOM      8  C   UNL A   1      31.001  25.924  24.288  1.00  0.00     0.055 C 
ATOM      9  C   UNL A   1      30.555  25.516  25.709  1.00  0.00     0.012 C 
ATOM     10  C   UNL A   1      31.418  24.627  23.532  1.00  0.00     0.129 C 
ATOM     11  C   UNL A   1      31.651  24.755  26.468  1.00  0.00     0.008 C 
ATOM     12  C   UNL A   1      32.420  23.717  24.289  1.00  0.00     0.050 C 
ATOM     13  C   UNL A   1      32.077  23.438  25.782  1.00  0.00    -0.024 C 
ATOM     14  C   UNL A   1      32.864  22.392  23.671  1.00  0.00    -0.071 C 
ATOM     15  C   UNL A   1      30.956  22.388  25.982  1.00  0.00     0.012 C 
ATOM     16  C   UNL A   1      33.379  22.906  26.465  1.00  0.00     0.008 C 
ATOM     17  C   UNL A   1      34.161  21.883  24.252  1.00  0.00     0.031 C 
ATOM     18  C   UNL A   1      32.178  21.641  22.799  1.00  0.00     0.008 C 
ATOM     19  C   UNL A   1      34.011  21.691  25.763  1.00  0.00     0.005 C 
BRANCH  10  20
ATOM     20  O   UNL A   1      30.226  23.959  23.106  1.00  0.00    -0.392 OA
ATOM     21  H   UNL A   1      30.456  23.264  22.469  1.00  0.00     0.211 HD
ENDBRANCH  10  20
ENDBRANCH   6   8
ENDBRANCH   4   6
ENDBRANCH   3   4
ENDBRANCH   2   3
ENDBRANCH   1   2
BRANCH   1  22
ATOM     22  O   UNL A   1      33.737  30.241  27.255  1.00  0.00    -0.458 OA
BRANCH  22  23
ATOM     23  C   UNL A   1      34.538  30.810  28.181  1.00  0.00     0.338 C 
ATOM     24  O   UNL A   1      34.286  31.780  28.877  1.00  0.00    -0.246 OA
BRANCH  23  25
ATOM     25  C   UNL A   1      35.794  30.058  28.305  1.00  0.00     0.060 A 
ATOM     26  C   UNL A   1      36.172  29.596  29.560  1.00  0.00     0.016 A 
ATOM     27  C   UNL A   1      36.704  30.059  27.254  1.00  0.00     0.016 A 
ATOM     28  C   UNL A   1      37.510  29.321  29.815  1.00  0.00     0.010 A 
ATOM     29  C   UNL A   1      38.010  29.609  27.480  1.00  0.00     0.010 A 
ATOM     30  C   UNL A   1      38.451  29.294  28.778  1.00  0.00    -0.014 A 
BRANCH  30  31
ATOM     31  C   UNL A   1      39.879  28.953  29.051  1.00  0.00     0.031 A 
ATOM     32  C   UNL A   1      40.849  30.001  29.548  1.00  0.00     0.074 A 
ATOM     33  C   UNL A   1      40.319  27.695  28.841  1.00  0.00     0.049 A 
ATOM     34  N   UNL A   1      42.149  29.934  29.691  1.00  0.00    -0.248 NA
ATOM     35  C   UNL A   1      40.284  31.299  29.944  1.00  0.00     0.031 C 
ATOM     36  C   UNL A   1      39.494  26.551  28.437  1.00  0.00     0.029 A 
ATOM     37  N   UNL A   1      41.585  27.167  28.919  1.00  0.00    -0.354 N 
ATOM     38  C   UNL A   1      42.550  31.178  30.174  1.00  0.00     0.074 A 
ATOM     39  C   UNL A   1      41.358  31.983  30.305  1.00  0.00     0.031 C 
ATOM     40  C   UNL A   1      40.265  25.466  28.314  1.00  0.00     0.029 A 
ATOM     41  C   UNL A   1      41.653  25.858  28.503  1.00  0.00     0.049 A 
ATOM     42  H   UNL A   1      42.365  27.674  29.240  1.00  0.00     0.167 HD
ATOM     43  C   UNL A   1      43.799  31.623  30.452  1.00  0.00     0.031 A 
ATOM     44  C   UNL A   1      42.707  25.075  28.210  1.00  0.00     0.031 A 
ATOM     45  C   UNL A   1      44.988  30.841  30.238  1.00  0.00     0.049 A 
ATOM     46  C   UNL A   1      44.088  25.635  28.357  1.00  0.00     0.074 A 
ATOM     47  C   UNL A   1      46.308  31.207  30.435  1.00  0.00     0.029 A 
ATOM     48  N   UNL A   1      45.001  29.544  29.746  1.00  0.00    -0.354 N 
ATOM     49  N   UNL A   1      44.451  26.821  28.782  1.00  0.00    -0.248 NA
ATOM     50  C   UNL A   1      45.200  24.757  27.977  1.00  0.00     0.031 C 
ATOM     51  C   UNL A   1      47.119  30.163  29.981  1.00  0.00     0.029 A 
ATOM     52  C   UNL A   1      46.305  29.112  29.588  1.00  0.00     0.049 A 
ATOM     53  H   UNL A   1      44.200  29.010  29.540  1.00  0.00     0.167 HD
ATOM     54  C   UNL A   1      45.839  26.822  28.749  1.00  0.00     0.074 A 
ATOM     55  C   UNL A   1      46.248  25.518  28.266  1.00  0.00     0.031 C 
ATOM     56  C   UNL A   1      46.696  27.812  29.101  1.00  0.00     0.031 A 
BRANCH  43  57
ATOM     57  C   UNL A   1      43.948  33.052  30.915  1.00  0.00    -0.014 A 
ATOM     58  C   UNL A   1      43.995  33.391  32.279  1.00  0.00     0.010 A 
ATOM     59  C   UNL A   1      44.061  34.078  29.956  1.00  0.00     0.010 A 
ATOM     60  C   UNL A   1      44.109  34.729  32.674  1.00  0.00     0.020 A 
ATOM     61  C   UNL A   1      44.201  35.413  30.346  1.00  0.00     0.020 A 
ATOM     62  C   UNL A   1      44.205  35.733  31.704  1.00  0.00     0.054 A 
BRANCH  62  63
ATOM     63  S   UNL A   1      44.344  37.460  32.242  1.00  0.00     0.124 S 
ATOM     64  O   UNL A   1      45.731  37.523  32.698  1.00  0.00    -0.237 OA
ATOM     65  O   UNL A   1      44.050  38.202  31.019  1.00  0.00    -0.237 OA
ATOM     66  O   UNL A   1      43.339  37.578  33.297  1.00  0.00    -0.744 OA
ENDBRANCH  62  63
ENDBRANCH  43  57
BRANCH  44  67
ATOM     67  C   UNL A   1      42.465  23.710  27.666  1.00  0.00    -0.014 A 
ATOM     68  C   UNL A   1      42.462  23.478  26.281  1.00  0.00     0.010 A 
ATOM     69  C   UNL A   1      42.315  22.617  28.544  1.00  0.00     0.010 A 
ATOM     70  C   UNL A   1      42.325  22.178  25.785  1.00  0.00     0.020 A 
ATOM     71  C   UNL A   1      42.213  21.314  28.052  1.00  0.00     0.020 A 
ATOM     72  C   UNL A   1      42.213  21.104  26.672  1.00  0.00     0.054 A 
BRANCH  72  73
ATOM     73  S   UNL A   1      42.129  19.420  26.003  1.00  0.00     0.124 S 
ATOM     74  O   UNL A   1      42.653  18.627  27.111  1.00  0.00    -0.237 OA
ATOM     75  O   UNL A   1      40.703  19.262  25.728  1.00  0.00    -0.237 OA
ATOM     76  O   UNL A   1      42.982  19.478  24.817  1.00  0.00    -0.744 OA
ENDBRANCH  72  73
ENDBRANCH  44  67
BRANCH  56  77
ATOM     77  C   UNL A   1      48.167  27.510  29.034  1.00  0.00    -0.014 A 
ATOM     78  C   UNL A   1      48.915  27.737  27.865  1.00  0.00     0.010 A 
ATOM     79  C   UNL A   1      48.821  27.050  30.192  1.00  0.00     0.010 A 
ATOM     80  C   UNL A   1      50.289  27.487  27.852  1.00  0.00     0.020 A 
ATOM     81  C   UNL A   1      50.199  26.830  30.191  1.00  0.00     0.020 A 
ATOM     82  C   UNL A   1      50.923  27.040  29.016  1.00  0.00     0.054 A 
BRANCH  82  83
ATOM     83  S   UNL A   1      52.717  26.782  28.991  1.00  0.00     0.124 S 
ATOM     84  O   UNL A   1      52.890  25.969  27.790  1.00  0.00    -0.237 OA
ATOM     85  O   UNL A   1      53.234  28.146  28.906  1.00  0.00    -0.237 OA
ATOM     86  O   UNL A   1      52.989  26.096  30.252  1.00  0.00    -0.744 OA
ENDBRANCH  82  83
ENDBRANCH  56  77
ENDBRANCH  30  31
ENDBRANCH  23  25
ENDBRANCH  22  23
ENDBRANCH   1  22
TORSDOF 16
ENDMDL
MODEL 2
REMARK VINA RESULT:     -11.0      5.666     11.273
REMARK SMILES C=C(C(=O)OCCOC(=O)c1ccc(-c2c3nc(c(-c4ccc(S(=O)(=O)[O-])cc4)c4ccc([nH]4)c(-c4ccc(S(=O)(=O)[O-])cc4)c4nc(c(-c5ccc(S(=O)(=O)[O-])cc5)c5ccc2[nH]5)C=C4)C=C3)cc1)[C@@H]1CC[C@]2(C)CCCC(=C)[C@H]2[C@H]1O
REMARK SMILES IDX 7 1 6 2 5 3 3 4 4 5 2 6 1 7 71 8 72 9 82 10 73 11 81 12
REMARK SMILES IDX 74 13 79 14 75 15 76 16 78 17 80 18 77 19 83 20 8 22 9 23
REMARK SMILES IDX 10 24 11 25 12 26 70 27 13 28 69 29 14 30 15 31 16 32 63 33
REMARK SMILES IDX 17 34 68 35 62 36 64 37 18 38 67 39 61 40 60 41 19 43 49 44
REMARK SMILES IDX 30 45 48 46 31 47 34 48 47 49 65 50 32 51 33 52 46 54 66 55
REMARK SMILES IDX 35 56 20 57 21 58 29 59 22 60 28 61 23 62 24 63 25 64 26 65
REMARK SMILES IDX 27 66 50 67 51 68 59 69 52 70 58 71 53 72 54 73 55 74 56 75
REMARK SMILES IDX 57 76 36 77 37 78 45 79 38 80 44 81 39 82 40 83 41 84 42 85
REMARK SMILES IDX 43 86
REMARK H PARENT 83 21 64 42 34 53
REMARK Flexibility Score: inf
ROOT
ATOM      1  C   UNL A   1      40.113  23.452  27.224  1.00  0.00     0.275 C 
ENDROOT
BRANCH   1   2
ATOM      2  C   UNL A   1      39.324  22.333  26.548  1.00  0.00     0.275 C 
BRANCH   2   3
ATOM      3  O   UNL A   1      38.166  22.849  25.863  1.00  0.00    -0.459 OA
BRANCH   3   4
ATOM      4  C   UNL A   1      37.421  21.968  25.144  1.00  0.00     0.333 C 
ATOM      5  O   UNL A   1      37.599  20.760  25.079  1.00  0.00    -0.247 OA
BRANCH   4   6
ATOM      6  C   UNL A   1      36.380  22.686  24.355  1.00  0.00     0.036 C 
ATOM      7  C   UNL A   1      36.743  22.930  23.079  1.00  0.00     0.020 C 
BRANCH   6   8
ATOM      8  C   UNL A   1      34.969  22.844  24.941  1.00  0.00     0.055 C 
ATOM      9  C   UNL A   1      33.833  22.413  23.988  1.00  0.00     0.012 C 
ATOM     10  C   UNL A   1      34.601  24.244  25.514  1.00  0.00     0.129 C 
ATOM     11  C   UNL A   1      33.597  23.431  22.865  1.00  0.00     0.008 C 
ATOM     12  C   UNL A   1      34.206  25.307  24.455  1.00  0.00     0.050 C 
ATOM     13  C   UNL A   1      33.190  24.831  23.375  1.00  0.00    -0.024 C 
ATOM     14  C   UNL A   1      33.774  26.703  24.900  1.00  0.00    -0.071 C 
ATOM     15  C   UNL A   1      31.724  24.771  23.876  1.00  0.00     0.012 C 
ATOM     16  C   UNL A   1      33.264  25.848  22.189  1.00  0.00     0.008 C 
ATOM     17  C   UNL A   1      33.905  27.731  23.801  1.00  0.00     0.031 C 
ATOM     18  C   UNL A   1      33.216  27.039  26.070  1.00  0.00     0.008 C 
ATOM     19  C   UNL A   1      33.052  27.315  22.600  1.00  0.00     0.005 C 
BRANCH  10  20
ATOM     20  O   UNL A   1      33.629  24.059  26.548  1.00  0.00    -0.392 OA
ATOM     21  H   UNL A   1      33.608  24.845  27.117  1.00  0.00     0.211 HD
ENDBRANCH  10  20
ENDBRANCH   6   8
ENDBRANCH   4   6
ENDBRANCH   3   4
ENDBRANCH   2   3
ENDBRANCH   1   2
BRANCH   1  22
ATOM     22  O   UNL A   1      39.276  24.602  27.435  1.00  0.00    -0.458 OA
BRANCH  22  23
ATOM     23  C   UNL A   1      39.842  25.770  27.065  1.00  0.00     0.338 C 
ATOM     24  O   UNL A   1      40.446  26.000  26.030  1.00  0.00    -0.246 OA
BRANCH  23  25
ATOM     25  C   UNL A   1      39.592  26.805  28.076  1.00  0.00     0.060 A 
ATOM     26  C   UNL A   1      40.109  28.079  27.867  1.00  0.00     0.016 A 
ATOM     27  C   UNL A   1      39.100  26.444  29.325  1.00  0.00     0.016 A 
ATOM     28  C   UNL A   1      40.315  28.921  28.952  1.00  0.00     0.010 A 
ATOM     29  C   UNL A   1      39.151  27.369  30.374  1.00  0.00     0.010 A 
ATOM     30  C   UNL A   1      39.817  28.599  30.220  1.00  0.00    -0.014 A 
BRANCH  30  31
ATOM     31  C   UNL A   1      40.002  29.530  31.373  1.00  0.00     0.031 A 
ATOM     32  C   UNL A   1      41.145  29.348  32.346  1.00  0.00     0.074 A 
ATOM     33  C   UNL A   1      39.132  30.544  31.562  1.00  0.00     0.049 A 
ATOM     34  N   UNL A   1      41.378  29.953  33.484  1.00  0.00    -0.248 NA
ATOM     35  C   UNL A   1      42.171  28.355  31.992  1.00  0.00     0.031 C 
ATOM     36  C   UNL A   1      38.023  30.902  30.671  1.00  0.00     0.029 A 
ATOM     37  N   UNL A   1      39.032  31.455  32.586  1.00  0.00    -0.354 N 
ATOM     38  C   UNL A   1      42.558  29.403  33.981  1.00  0.00     0.074 A 
ATOM     39  C   UNL A   1      43.000  28.417  33.023  1.00  0.00     0.031 C 
ATOM     40  C   UNL A   1      37.367  31.952  31.177  1.00  0.00     0.029 A 
ATOM     41  C   UNL A   1      37.923  32.262  32.485  1.00  0.00     0.049 A 
ATOM     42  H   UNL A   1      39.687  31.524  33.317  1.00  0.00     0.167 HD
ATOM     43  C   UNL A   1      43.199  29.669  35.144  1.00  0.00     0.031 A 
ATOM     44  C   UNL A   1      37.349  33.095  33.372  1.00  0.00     0.031 A 
ATOM     45  C   UNL A   1      42.705  30.592  36.132  1.00  0.00     0.049 A 
ATOM     46  C   UNL A   1      37.973  33.253  34.724  1.00  0.00     0.074 A 
ATOM     47  C   UNL A   1      43.244  30.902  37.369  1.00  0.00     0.029 A 
ATOM     48  N   UNL A   1      41.537  31.330  36.007  1.00  0.00    -0.354 N 
ATOM     49  N   UNL A   1      39.067  32.703  35.192  1.00  0.00    -0.248 NA
ATOM     50  C   UNL A   1      37.281  34.133  35.672  1.00  0.00     0.031 C 
ATOM     51  C   UNL A   1      42.356  31.760  38.024  1.00  0.00     0.029 A 
ATOM     52  C   UNL A   1      41.313  32.057  37.162  1.00  0.00     0.049 A 
ATOM     53  H   UNL A   1      40.955  31.335  35.214  1.00  0.00     0.167 HD
ATOM     54  C   UNL A   1      39.214  33.196  36.482  1.00  0.00     0.074 A 
ATOM     55  C   UNL A   1      38.096  34.089  36.717  1.00  0.00     0.031 C 
ATOM     56  C   UNL A   1      40.193  32.939  37.383  1.00  0.00     0.031 A 
BRANCH  43  57
ATOM     57  C   UNL A   1      44.444  28.875  35.458  1.00  0.00    -0.014 A 
ATOM     58  C   UNL A   1      45.726  29.331  35.104  1.00  0.00     0.010 A 
ATOM     59  C   UNL A   1      44.324  27.647  36.138  1.00  0.00     0.010 A 
ATOM     60  C   UNL A   1      46.858  28.558  35.387  1.00  0.00     0.020 A 
ATOM     61  C   UNL A   1      45.454  26.884  36.447  1.00  0.00     0.020 A 
ATOM     62  C   UNL A   1      46.714  27.335  36.052  1.00  0.00     0.054 A 
BRANCH  62  63
ATOM     63  S   UNL A   1      48.195  26.348  36.400  1.00  0.00     0.124 S 
ATOM     64  O   UNL A   1      49.082  26.739  35.307  1.00  0.00    -0.237 OA
ATOM     65  O   UNL A   1      48.589  26.816  37.726  1.00  0.00    -0.237 OA
ATOM     66  O   UNL A   1      47.716  24.969  36.346  1.00  0.00    -0.744 OA
ENDBRANCH  62  63
ENDBRANCH  43  57
BRANCH  44  67
ATOM     67  C   UNL A   1      36.067  33.763  33.013  1.00  0.00    -0.014 A 
ATOM     68  C   UNL A   1      34.837  33.132  33.252  1.00  0.00     0.010 A 
ATOM     69  C   UNL A   1      36.076  35.077  32.502  1.00  0.00     0.010 A 
ATOM     70  C   UNL A   1      33.638  33.805  32.995  1.00  0.00     0.020 A 
ATOM     71  C   UNL A   1      34.882  35.765  32.279  1.00  0.00     0.020 A 
ATOM     72  C   UNL A   1      33.668  35.120  32.522  1.00  0.00     0.054 A 
BRANCH  72  73
ATOM     73  S   UNL A   1      32.101  36.002  32.287  1.00  0.00     0.124 S 
ATOM     74  O   UNL A   1      32.149  36.333  30.866  1.00  0.00    -0.237 OA
ATOM     75  O   UNL A   1      31.113  34.995  32.670  1.00  0.00    -0.237 OA
ATOM     76  O   UNL A   1      32.205  37.139  33.199  1.00  0.00    -0.744 OA
ENDBRANCH  72  73
ENDBRANCH  44  67
BRANCH  56  77
ATOM     77  C   UNL A   1      40.139  33.677  38.692  1.00  0.00    -0.014 A 
ATOM     78  C   UNL A   1      40.762  34.925  38.862  1.00  0.00     0.010 A 
ATOM     79  C   UNL A   1      39.389  33.130  39.751  1.00  0.00     0.010 A 
ATOM     80  C   UNL A   1      40.652  35.604  40.079  1.00  0.00     0.020 A 
ATOM     81  C   UNL A   1      39.252  33.820  40.956  1.00  0.00     0.020 A 
ATOM     82  C   UNL A   1      39.895  35.049  41.115  1.00  0.00     0.054 A 
BRANCH  82  83
ATOM     83  S   UNL A   1      39.718  35.978  42.661  1.00  0.00     0.124 S 
ATOM     84  O   UNL A   1      38.414  35.524  43.141  1.00  0.00    -0.237 OA
ATOM     85  O   UNL A   1      40.867  35.523  43.440  1.00  0.00    -0.237 OA
ATOM     86  O   UNL A   1      39.773  37.375  42.238  1.00  0.00    -0.744 OA
ENDBRANCH  82  83
ENDBRANCH  56  77
ENDBRANCH  30  31
ENDBRANCH  23  25
ENDBRANCH  22  23
ENDBRANCH   1  22
TORSDOF 16
ENDMDL
MODEL 3
REMARK VINA RESULT:     -10.9      4.554     11.630
REMARK SMILES C=C(C(=O)OCCOC(=O)c1ccc(-c2c3nc(c(-c4ccc(S(=O)(=O)[O-])cc4)c4ccc([nH]4)c(-c4ccc(S(=O)(=O)[O-])cc4)c4nc(c(-c5ccc(S(=O)(=O)[O-])cc5)c5ccc2[nH]5)C=C4)C=C3)cc1)[C@@H]1CC[C@]2(C)CCCC(=C)[C@H]2[C@H]1O
REMARK SMILES IDX 7 1 6 2 5 3 3 4 4 5 2 6 1 7 71 8 72 9 82 10 73 11 81 12
REMARK SMILES IDX 74 13 79 14 75 15 76 16 78 17 80 18 77 19 83 20 8 22 9 23
REMARK SMILES IDX 10 24 11 25 12 26 70 27 13 28 69 29 14 30 15 31 16 32 63 33
REMARK SMILES IDX 17 34 68 35 62 36 64 37 18 38 67 39 61 40 60 41 19 43 49 44
REMARK SMILES IDX 30 45 48 46 31 47 34 48 47 49 65 50 32 51 33 52 46 54 66 55
REMARK SMILES IDX 35 56 20 57 21 58 29 59 22 60 28 61 23 62 24 63 25 64 26 65
REMARK SMILES IDX 27 66 50 67 51 68 59 69 52 70 58 71 53 72 54 73 55 74 56 75
REMARK SMILES IDX 57 76 36 77 37 78 45 79 38 80 44 81 39 82 40 83 41 84 42 85
REMARK SMILES IDX 43 86
REMARK H PARENT 83 21 64 42 34 53
REMARK Flexibility Score: inf
ROOT
ATOM      1  C   UNL A   1      40.661  20.991  26.848  1.00  0.00     0.275 C 
ENDROOT
BRANCH   1   2
ATOM      2  C   UNL A   1      41.565  19.969  26.162  1.00  0.00     0.275 C 
BRANCH   2   3
ATOM      3  O   UNL A   1      42.955  20.230  26.439  1.00  0.00    -0.459 OA
BRANCH   3   4
ATOM      4  C   UNL A   1      43.792  20.346  25.374  1.00  0.00     0.333 C 
ATOM      5  O   UNL A   1      43.833  19.602  24.405  1.00  0.00    -0.247 OA
BRANCH   4   6
ATOM      6  C   UNL A   1      44.740  21.479  25.577  1.00  0.00     0.036 C 
ATOM      7  C   UNL A   1      45.786  21.466  24.725  1.00  0.00     0.020 C 
BRANCH   6   8
ATOM      8  C   UNL A   1      44.339  22.638  26.500  1.00  0.00     0.055 C 
ATOM      9  C   UNL A   1      43.631  23.807  25.781  1.00  0.00     0.012 C 
ATOM     10  C   UNL A   1      45.461  23.243  27.395  1.00  0.00     0.129 C 
ATOM     11  C   UNL A   1      44.604  24.660  24.956  1.00  0.00     0.008 C 
ATOM     12  C   UNL A   1      46.414  24.235  26.677  1.00  0.00     0.050 C 
ATOM     13  C   UNL A   1      45.718  25.317  25.800  1.00  0.00    -0.024 C 
ATOM     14  C   UNL A   1      47.523  24.932  27.463  1.00  0.00    -0.071 C 
ATOM     15  C   UNL A   1      45.103  26.483  26.615  1.00  0.00     0.012 C 
ATOM     16  C   UNL A   1      46.805  25.906  24.841  1.00  0.00     0.008 C 
ATOM     17  C   UNL A   1      48.631  25.448  26.576  1.00  0.00     0.031 C 
ATOM     18  C   UNL A   1      47.529  25.207  28.774  1.00  0.00     0.008 C 
ATOM     19  C   UNL A   1      48.060  26.435  25.556  1.00  0.00     0.005 C 
BRANCH  10  20
ATOM     20  O   UNL A   1      44.851  23.770  28.577  1.00  0.00    -0.392 OA
ATOM     21  H   UNL A   1      43.886  23.698  28.502  1.00  0.00     0.211 HD
ENDBRANCH  10  20
ENDBRANCH   6   8
ENDBRANCH   4   6
ENDBRANCH   3   4
ENDBRANCH   2   3
ENDBRANCH   1   2
BRANCH   1  22
ATOM     22  O   UNL A   1      40.605  22.207  26.083  1.00  0.00    -0.458 OA
BRANCH  22  23
ATOM     23  C   UNL A   1      39.384  22.783  26.054  1.00  0.00     0.338 C 
ATOM     24  O   UNL A   1      38.348  22.290  25.640  1.00  0.00    -0.246 OA
BRANCH  23  25
ATOM     25  C   UNL A   1      39.433  24.121  26.657  1.00  0.00     0.060 A 
ATOM     26  C   UNL A   1      40.254  25.083  26.078  1.00  0.00     0.016 A 
ATOM     27  C   UNL A   1      38.898  24.326  27.923  1.00  0.00     0.016 A 
ATOM     28  C   UNL A   1      40.696  26.155  26.842  1.00  0.00     0.010 A 
ATOM     29  C   UNL A   1      39.211  25.501  28.616  1.00  0.00     0.010 A 
ATOM     30  C   UNL A   1      40.165  26.404  28.113  1.00  0.00    -0.014 A 
BRANCH  30  31
ATOM     31  C   UNL A   1      40.612  27.585  28.910  1.00  0.00     0.031 A 
ATOM     32  C   UNL A   1      41.908  27.554  29.689  1.00  0.00     0.074 A 
ATOM     33  C   UNL A   1      39.846  28.695  28.951  1.00  0.00     0.049 A 
ATOM     34  N   UNL A   1      42.381  28.414  30.556  1.00  0.00    -0.248 NA
ATOM     35  C   UNL A   1      42.796  26.405  29.461  1.00  0.00     0.031 C 
ATOM     36  C   UNL A   1      38.608  28.912  28.195  1.00  0.00     0.029 A 
ATOM     37  N   UNL A   1      39.987  29.851  29.680  1.00  0.00    -0.354 N 
ATOM     38  C   UNL A   1      43.605  27.901  30.981  1.00  0.00     0.074 A 
ATOM     39  C   UNL A   1      43.808  26.656  30.278  1.00  0.00     0.031 C 
ATOM     40  C   UNL A   1      38.113  30.119  28.489  1.00  0.00     0.029 A 
ATOM     41  C   UNL A   1      38.921  30.709  29.545  1.00  0.00     0.049 A 
ATOM     42  H   UNL A   1      40.771  30.046  30.242  1.00  0.00     0.167 HD
ATOM     43  C   UNL A   1      44.468  28.401  31.898  1.00  0.00     0.031 A 
ATOM     44  C   UNL A   1      38.569  31.802  30.246  1.00  0.00     0.031 A 
ATOM     45  C   UNL A   1      44.217  29.599  32.656  1.00  0.00     0.049 A 
ATOM     46  C   UNL A   1      39.444  32.251  31.375  1.00  0.00     0.074 A 
ATOM     47  C   UNL A   1      44.995  30.171  33.647  1.00  0.00     0.029 A 
ATOM     48  N   UNL A   1      43.085  30.390  32.527  1.00  0.00    -0.354 N 
ATOM     49  N   UNL A   1      40.578  31.738  31.787  1.00  0.00    -0.248 NA
ATOM     50  C   UNL A   1      38.989  33.417  32.140  1.00  0.00     0.031 C 
ATOM     51  C   UNL A   1      44.292  31.258  34.176  1.00  0.00     0.029 A 
ATOM     52  C   UNL A   1      43.120  31.418  33.452  1.00  0.00     0.049 A 
ATOM     53  H   UNL A   1      42.364  30.243  31.874  1.00  0.00     0.167 HD
ATOM     54  C   UNL A   1      40.991  32.539  32.843  1.00  0.00     0.074 A 
ATOM     55  C   UNL A   1      39.985  33.571  33.003  1.00  0.00     0.031 C 
ATOM     56  C   UNL A   1      42.109  32.435  33.603  1.00  0.00     0.031 A 
BRANCH  43  57
ATOM     57  C   UNL A   1      45.707  27.598  32.208  1.00  0.00    -0.014 A 
ATOM     58  C   UNL A   1      46.938  27.858  31.579  1.00  0.00     0.010 A 
ATOM     59  C   UNL A   1      45.639  26.567  33.166  1.00  0.00     0.010 A 
ATOM     60  C   UNL A   1      48.063  27.077  31.871  1.00  0.00     0.020 A 
ATOM     61  C   UNL A   1      46.766  25.802  33.480  1.00  0.00     0.020 A 
ATOM     62  C   UNL A   1      47.968  26.049  32.816  1.00  0.00     0.054 A 
BRANCH  62  63
ATOM     63  S   UNL A   1      49.438  25.047  33.170  1.00  0.00     0.124 S 
ATOM     64  O   UNL A   1      49.937  24.759  31.828  1.00  0.00    -0.237 OA
ATOM     65  O   UNL A   1      50.261  25.954  33.966  1.00  0.00    -0.237 OA
ATOM     66  O   UNL A   1      48.908  23.894  33.895  1.00  0.00    -0.744 OA
ENDBRANCH  62  63
ENDBRANCH  43  57
BRANCH  44  67
ATOM     67  C   UNL A   1      37.277  32.476  29.935  1.00  0.00    -0.014 A 
ATOM     68  C   UNL A   1      36.113  32.166  30.655  1.00  0.00     0.010 A 
ATOM     69  C   UNL A   1      37.231  33.496  28.962  1.00  0.00     0.010 A 
ATOM     70  C   UNL A   1      34.929  32.869  30.416  1.00  0.00     0.020 A 
ATOM     71  C   UNL A   1      36.059  34.224  28.747  1.00  0.00     0.020 A 
ATOM     72  C   UNL A   1      34.912  33.902  29.473  1.00  0.00     0.054 A 
BRANCH  72  73
ATOM     73  S   UNL A   1      33.388  34.859  29.250  1.00  0.00     0.124 S 
ATOM     74  O   UNL A   1      33.900  36.132  28.752  1.00  0.00    -0.237 OA
ATOM     75  O   UNL A   1      32.648  34.052  28.283  1.00  0.00    -0.237 OA
ATOM     76  O   UNL A   1      32.807  34.899  30.591  1.00  0.00    -0.744 OA
ENDBRANCH  72  73
ENDBRANCH  44  67
BRANCH  56  77
ATOM     77  C   UNL A   1      42.341  33.496  34.642  1.00  0.00    -0.014 A 
ATOM     78  C   UNL A   1      42.981  34.708  34.329  1.00  0.00     0.010 A 
ATOM     79  C   UNL A   1      41.844  33.294  35.943  1.00  0.00     0.010 A 
ATOM     80  C   UNL A   1      43.139  35.691  35.310  1.00  0.00     0.020 A 
ATOM     81  C   UNL A   1      41.972  34.287  36.916  1.00  0.00     0.020 A 
ATOM     82  C   UNL A   1      42.629  35.476  36.594  1.00  0.00     0.054 A 
BRANCH  82  83
ATOM     83  S   UNL A   1      42.793  36.791  37.831  1.00  0.00     0.124 S 
ATOM     84  O   UNL A   1      41.398  37.075  38.158  1.00  0.00    -0.237 OA
ATOM     85  O   UNL A   1      43.567  36.142  38.887  1.00  0.00    -0.237 OA
ATOM     86  O   UNL A   1      43.494  37.856  37.117  1.00  0.00    -0.744 OA
ENDBRANCH  82  83
ENDBRANCH  56  77
ENDBRANCH  30  31
ENDBRANCH  23  25
ENDBRANCH  22  23
ENDBRANCH   1  22
TORSDOF 16
ENDMDL
