MODEL 1
REMARK VINA RESULT:     -11.7      0.000      0.000
REMARK SMILES C[C@@H](C(=O)OCCOC(=O)c1ccc(-c2c3nc(c(-c4ccc(S(=O)(=O)[O-])cc4)c4ccc([nH]4)c(-c4ccc(S(=O)(=O)[O-])cc4)c4nc(c(-c5ccc(S(=O)(=O)[O-])cc5)c5ccc2[nH]5)C=C4)C=C3)cc1)c1ccccc1-c1ccn(C(F)F)c(=O)c1
REMARK SMILES IDX 6 1 5 2 3 3 4 4 2 5 1 6 71 7 72 8 76 9 73 10 75 11 74 12
REMARK SMILES IDX 77 13 78 14 86 15 79 16 84 17 80 18 85 19 81 20 82 21 83 22
REMARK SMILES IDX 7 23 8 24 9 25 10 26 11 27 12 28 70 29 13 30 69 31 14 32
REMARK SMILES IDX 15 33 16 34 63 35 17 36 68 37 62 38 64 39 18 40 67 41 61 42
REMARK SMILES IDX 60 43 19 45 49 46 30 47 48 48 31 49 34 50 47 51 65 52 32 53
REMARK SMILES IDX 33 54 46 56 66 57 35 58 20 59 21 60 29 61 22 62 28 63 23 64
REMARK SMILES IDX 24 65 25 66 26 67 27 68 50 69 51 70 59 71 52 72 58 73 53 74
REMARK SMILES IDX 54 75 55 76 56 77 57 78 36 79 37 80 45 81 38 82 44 83 39 84
REMARK SMILES IDX 40 85 41 86 42 87 43 88
REMARK H PARENT 64 44 34 55
REMARK Flexibility Score: inf
ROOT
ATOM      1  C   UNL A   1      38.307  21.451  25.564  1.00  0.00     0.274 C 
ENDROOT
BRANCH   1   2
ATOM      2  O   UNL A   1      37.332  22.516  25.514  1.00  0.00    -0.462 OA
BRANCH   2   3
ATOM      3  C   UNL A   1      36.032  22.099  25.518  1.00  0.00     0.313 C 
ATOM      4  O   UNL A   1      35.529  21.596  26.511  1.00  0.00    -0.252 OA
BRANCH   3   5
ATOM      5  C   UNL A   1      35.333  22.238  24.153  1.00  0.00     0.127 C 
ATOM      6  C   UNL A   1      36.258  22.940  23.140  1.00  0.00     0.025 C 
BRANCH   5   7
ATOM      7  C   UNL A   1      33.922  22.870  24.224  1.00  0.00    -0.026 A 
ATOM      8  C   UNL A   1      33.780  24.278  24.273  1.00  0.00     0.005 A 
ATOM      9  C   UNL A   1      32.724  22.098  24.238  1.00  0.00    -0.014 A 
ATOM     10  C   UNL A   1      32.526  24.896  24.306  1.00  0.00     0.000 A 
ATOM     11  C   UNL A   1      31.469  22.740  24.289  1.00  0.00     0.009 A 
ATOM     12  C   UNL A   1      31.370  24.128  24.311  1.00  0.00     0.001 A 
BRANCH   9  13
ATOM     13  C   UNL A   1      32.695  20.619  24.209  1.00  0.00    -0.011 A 
ATOM     14  C   UNL A   1      32.932  19.803  25.381  1.00  0.00     0.027 A 
ATOM     15  C   UNL A   1      32.418  20.009  23.045  1.00  0.00     0.080 A 
ATOM     16  C   UNL A   1      33.159  18.492  25.259  1.00  0.00     0.095 A 
ATOM     17  C   UNL A   1      32.524  18.527  22.924  1.00  0.00     0.255 A 
ATOM     18  N   UNL A   1      33.032  17.869  24.034  1.00  0.00    -0.258 N 
ATOM     19  O   UNL A   1      32.227  18.002  21.855  1.00  0.00    -0.269 OA
BRANCH  18  20
ATOM     20  C   UNL A   1      33.337  16.471  23.899  1.00  0.00     0.451 C 
ATOM     21  F   UNL A   1      34.422  16.274  23.116  1.00  0.00    -0.185 F 
ATOM     22  F   UNL A   1      33.582  15.898  25.106  1.00  0.00    -0.185 F 
ENDBRANCH  18  20
ENDBRANCH   9  13
ENDBRANCH   5   7
ENDBRANCH   3   5
ENDBRANCH   2   3
ENDBRANCH   1   2
BRANCH   1  23
ATOM     23  C   UNL A   1      39.657  21.916  26.118  1.00  0.00     0.275 C 
BRANCH  23  24
ATOM     24  O   UNL A   1      39.531  23.137  26.875  1.00  0.00    -0.458 OA
BRANCH  24  25
ATOM     25  C   UNL A   1      40.620  23.940  26.887  1.00  0.00     0.338 C 
ATOM     26  O   UNL A   1      41.694  23.730  26.337  1.00  0.00    -0.246 OA
BRANCH  25  27
ATOM     27  C   UNL A   1      40.344  25.184  27.626  1.00  0.00     0.060 A 
ATOM     28  C   UNL A   1      41.294  26.196  27.602  1.00  0.00     0.016 A 
ATOM     29  C   UNL A   1      39.257  25.289  28.494  1.00  0.00     0.016 A 
ATOM     30  C   UNL A   1      41.221  27.260  28.493  1.00  0.00     0.010 A 
ATOM     31  C   UNL A   1      39.144  26.407  29.340  1.00  0.00     0.010 A 
ATOM     32  C   UNL A   1      40.154  27.386  29.385  1.00  0.00    -0.014 A 
BRANCH  32  33
ATOM     33  C   UNL A   1      40.183  28.470  30.415  1.00  0.00     0.031 A 
ATOM     34  C   UNL A   1      41.258  28.472  31.474  1.00  0.00     0.074 A 
ATOM     35  C   UNL A   1      39.328  29.515  30.362  1.00  0.00     0.049 A 
ATOM     36  N   UNL A   1      41.364  29.218  32.545  1.00  0.00    -0.248 NA
ATOM     37  C   UNL A   1      42.361  27.512  31.305  1.00  0.00     0.031 C 
ATOM     38  C   UNL A   1      38.310  29.736  29.332  1.00  0.00     0.029 A 
ATOM     39  N   UNL A   1      39.199  30.610  31.186  1.00  0.00    -0.354 N 
ATOM     40  C   UNL A   1      42.498  28.767  33.213  1.00  0.00     0.074 A 
ATOM     41  C   UNL A   1      43.056  27.694  32.419  1.00  0.00     0.031 C 
ATOM     42  C   UNL A   1      37.706  30.912  29.551  1.00  0.00     0.029 A 
ATOM     43  C   UNL A   1      38.205  31.480  30.799  1.00  0.00     0.049 A 
ATOM     44  H   UNL A   1      39.765  30.757  31.977  1.00  0.00     0.167 HD
ATOM     45  C   UNL A   1      43.020  29.197  34.388  1.00  0.00     0.031 A 
ATOM     46  C   UNL A   1      37.705  32.578  31.400  1.00  0.00     0.031 A 
ATOM     47  C   UNL A   1      42.497  30.299  35.154  1.00  0.00     0.049 A 
ATOM     48  C   UNL A   1      38.245  32.991  32.743  1.00  0.00     0.074 A 
ATOM     49  C   UNL A   1      42.940  30.789  36.370  1.00  0.00     0.029 A 
ATOM     50  N   UNL A   1      41.430  31.095  34.768  1.00  0.00    -0.354 N 
ATOM     51  N   UNL A   1      39.240  32.478  33.423  1.00  0.00    -0.248 NA
ATOM     52  C   UNL A   1      37.571  34.115  33.411  1.00  0.00     0.031 C 
ATOM     53  C   UNL A   1      42.114  31.854  36.741  1.00  0.00     0.029 A 
ATOM     54  C   UNL A   1      41.190  32.062  35.730  1.00  0.00     0.049 A 
ATOM     55  H   UNL A   1      40.919  30.990  33.933  1.00  0.00     0.167 HD
ATOM     56  C   UNL A   1      39.316  33.219  34.598  1.00  0.00     0.074 A 
ATOM     57  C   UNL A   1      38.285  34.232  34.524  1.00  0.00     0.031 C 
ATOM     58  C   UNL A   1      40.161  33.066  35.648  1.00  0.00     0.031 A 
BRANCH  45  59
ATOM     59  C   UNL A   1      44.178  28.423  34.960  1.00  0.00    -0.014 A 
ATOM     60  C   UNL A   1      45.505  28.866  34.836  1.00  0.00     0.010 A 
ATOM     61  C   UNL A   1      43.915  27.231  35.664  1.00  0.00     0.010 A 
ATOM     62  C   UNL A   1      46.553  28.110  35.373  1.00  0.00     0.020 A 
ATOM     63  C   UNL A   1      44.956  26.489  36.224  1.00  0.00     0.020 A 
ATOM     64  C   UNL A   1      46.272  26.922  36.058  1.00  0.00     0.054 A 
BRANCH  64  65
ATOM     65  S   UNL A   1      47.647  25.964  36.751  1.00  0.00     0.124 S 
ATOM     66  O   UNL A   1      48.575  27.019  37.153  1.00  0.00    -0.237 OA
ATOM     67  O   UNL A   1      47.012  25.237  37.847  1.00  0.00    -0.237 OA
ATOM     68  O   UNL A   1      48.092  25.136  35.633  1.00  0.00    -0.744 OA
ENDBRANCH  64  65
ENDBRANCH  45  59
BRANCH  46  69
ATOM     69  C   UNL A   1      36.565  33.315  30.783  1.00  0.00    -0.014 A 
ATOM     70  C   UNL A   1      36.670  33.862  29.492  1.00  0.00     0.010 A 
ATOM     71  C   UNL A   1      35.362  33.477  31.497  1.00  0.00     0.010 A 
ATOM     72  C   UNL A   1      35.596  34.563  28.931  1.00  0.00     0.020 A 
ATOM     73  C   UNL A   1      34.276  34.146  30.927  1.00  0.00     0.020 A 
ATOM     74  C   UNL A   1      34.405  34.696  29.652  1.00  0.00     0.054 A 
BRANCH  74  75
ATOM     75  S   UNL A   1      33.003  35.558  28.888  1.00  0.00     0.124 S 
ATOM     76  O   UNL A   1      32.220  35.955  30.053  1.00  0.00    -0.237 OA
ATOM     77  O   UNL A   1      33.655  36.645  28.163  1.00  0.00    -0.237 OA
ATOM     78  O   UNL A   1      32.395  34.533  28.042  1.00  0.00    -0.744 OA
ENDBRANCH  74  75
ENDBRANCH  46  69
BRANCH  58  79
ATOM     79  C   UNL A   1      40.028  34.035  36.791  1.00  0.00    -0.014 A 
ATOM     80  C   UNL A   1      40.701  35.269  36.782  1.00  0.00     0.010 A 
ATOM     81  C   UNL A   1      39.175  33.727  37.867  1.00  0.00     0.010 A 
ATOM     82  C   UNL A   1      40.546  36.166  37.843  1.00  0.00     0.020 A 
ATOM     83  C   UNL A   1      38.998  34.630  38.917  1.00  0.00     0.020 A 
ATOM     84  C   UNL A   1      39.696  35.840  38.905  1.00  0.00     0.054 A 
BRANCH  84  85
ATOM     85  S   UNL A   1      39.477  37.038  40.249  1.00  0.00     0.124 S 
ATOM     86  O   UNL A   1      39.039  38.230  39.527  1.00  0.00    -0.237 OA
ATOM     87  O   UNL A   1      38.463  36.402  41.087  1.00  0.00    -0.237 OA
ATOM     88  O   UNL A   1      40.806  37.128  40.851  1.00  0.00    -0.744 OA
ENDBRANCH  84  85
ENDBRANCH  58  79
ENDBRANCH  32  33
ENDBRANCH  25  27
ENDBRANCH  24  25
ENDBRANCH  23  24
ENDBRANCH   1  23
TORSDOF 17
ENDMDL
MODEL 2
REMARK VINA RESULT:     -11.2      2.672      3.659
REMARK SMILES C[C@@H](C(=O)OCCOC(=O)c1ccc(-c2c3nc(c(-c4ccc(S(=O)(=O)[O-])cc4)c4ccc([nH]4)c(-c4ccc(S(=O)(=O)[O-])cc4)c4nc(c(-c5ccc(S(=O)(=O)[O-])cc5)c5ccc2[nH]5)C=C4)C=C3)cc1)c1ccccc1-c1ccn(C(F)F)c(=O)c1
REMARK SMILES IDX 6 1 5 2 3 3 4 4 2 5 1 6 71 7 72 8 76 9 73 10 75 11 74 12
REMARK SMILES IDX 77 13 78 14 86 15 79 16 84 17 80 18 85 19 81 20 82 21 83 22
REMARK SMILES IDX 7 23 8 24 9 25 10 26 11 27 12 28 70 29 13 30 69 31 14 32
REMARK SMILES IDX 15 33 16 34 63 35 17 36 68 37 62 38 64 39 18 40 67 41 61 42
REMARK SMILES IDX 60 43 19 45 49 46 30 47 48 48 31 49 34 50 47 51 65 52 32 53
REMARK SMILES IDX 33 54 46 56 66 57 35 58 20 59 21 60 29 61 22 62 28 63 23 64
REMARK SMILES IDX 24 65 25 66 26 67 27 68 50 69 51 70 59 71 52 72 58 73 53 74
REMARK SMILES IDX 54 75 55 76 56 77 57 78 36 79 37 80 45 81 38 82 44 83 39 84
REMARK SMILES IDX 40 85 41 86 42 87 43 88
REMARK H PARENT 64 44 34 55
REMARK Flexibility Score: inf
ROOT
ATOM      1  C   UNL A   1      37.477  23.948  26.298  1.00  0.00     0.274 C 
ENDROOT
BRANCH   1   2
ATOM      2  O   UNL A   1      36.805  23.629  25.059  1.00  0.00    -0.462 OA
BRANCH   2   3
ATOM      3  C   UNL A   1      36.269  22.374  25.010  1.00  0.00     0.313 C 
ATOM      4  O   UNL A   1      36.892  21.434  24.540  1.00  0.00    -0.252 OA
BRANCH   3   5
ATOM      5  C   UNL A   1      34.811  22.304  25.500  1.00  0.00     0.127 C 
ATOM      6  C   UNL A   1      34.758  21.904  26.987  1.00  0.00     0.025 C 
BRANCH   5   7
ATOM      7  C   UNL A   1      33.881  21.445  24.608  1.00  0.00    -0.026 A 
ATOM      8  C   UNL A   1      33.913  20.033  24.711  1.00  0.00     0.005 A 
ATOM      9  C   UNL A   1      32.967  22.006  23.670  1.00  0.00    -0.014 A 
ATOM     10  C   UNL A   1      33.070  19.216  23.950  1.00  0.00     0.000 A 
ATOM     11  C   UNL A   1      32.139  21.164  22.899  1.00  0.00     0.009 A 
ATOM     12  C   UNL A   1      32.181  19.781  23.045  1.00  0.00     0.001 A 
BRANCH   9  13
ATOM     13  C   UNL A   1      32.821  23.458  23.428  1.00  0.00    -0.011 A 
ATOM     14  C   UNL A   1      32.335  24.380  24.433  1.00  0.00     0.027 A 
ATOM     15  C   UNL A   1      33.173  23.942  22.226  1.00  0.00     0.080 A 
ATOM     16  C   UNL A   1      31.969  25.620  24.095  1.00  0.00     0.095 A 
ATOM     17  C   UNL A   1      32.906  25.367  21.878  1.00  0.00     0.255 A 
ATOM     18  N   UNL A   1      32.180  26.089  22.813  1.00  0.00    -0.258 N 
ATOM     19  O   UNL A   1      33.275  25.783  20.784  1.00  0.00    -0.269 OA
BRANCH  18  20
ATOM     20  C   UNL A   1      31.729  27.401  22.441  1.00  0.00     0.451 C 
ATOM     21  F   UNL A   1      30.439  27.385  22.033  1.00  0.00    -0.185 F 
ATOM     22  F   UNL A   1      31.830  28.273  23.477  1.00  0.00    -0.185 F 
ENDBRANCH  18  20
ENDBRANCH   9  13
ENDBRANCH   5   7
ENDBRANCH   3   5
ENDBRANCH   2   3
ENDBRANCH   1   2
BRANCH   1  23
ATOM     23  C   UNL A   1      38.962  23.571  26.274  1.00  0.00     0.275 C 
BRANCH  23  24
ATOM     24  O   UNL A   1      39.722  24.334  27.232  1.00  0.00    -0.458 OA
BRANCH  24  25
ATOM     25  C   UNL A   1      40.054  25.590  26.858  1.00  0.00     0.338 C 
ATOM     26  O   UNL A   1      40.501  25.939  25.772  1.00  0.00    -0.246 OA
BRANCH  25  27
ATOM     27  C   UNL A   1      39.753  26.554  27.931  1.00  0.00     0.060 A 
ATOM     28  C   UNL A   1      40.259  27.842  27.829  1.00  0.00     0.016 A 
ATOM     29  C   UNL A   1      39.149  26.150  29.122  1.00  0.00     0.016 A 
ATOM     30  C   UNL A   1      40.250  28.698  28.923  1.00  0.00     0.010 A 
ATOM     31  C   UNL A   1      39.071  27.046  30.203  1.00  0.00     0.010 A 
ATOM     32  C   UNL A   1      39.666  28.320  30.134  1.00  0.00    -0.014 A 
BRANCH  32  33
ATOM     33  C   UNL A   1      39.796  29.216  31.324  1.00  0.00     0.031 A 
ATOM     34  C   UNL A   1      41.016  29.120  32.207  1.00  0.00     0.074 A 
ATOM     35  C   UNL A   1      38.894  30.190  31.574  1.00  0.00     0.049 A 
ATOM     36  N   UNL A   1      41.245  29.684  33.367  1.00  0.00    -0.248 NA
ATOM     37  C   UNL A   1      42.125  28.285  31.722  1.00  0.00     0.031 C 
ATOM     38  C   UNL A   1      37.724  30.505  30.749  1.00  0.00     0.029 A 
ATOM     39  N   UNL A   1      38.837  31.121  32.586  1.00  0.00    -0.354 N 
ATOM     40  C   UNL A   1      42.486  29.211  33.782  1.00  0.00     0.074 A 
ATOM     41  C   UNL A   1      42.969  28.329  32.743  1.00  0.00     0.031 C 
ATOM     42  C   UNL A   1      37.104  31.582  31.253  1.00  0.00     0.029 A 
ATOM     43  C   UNL A   1      37.756  31.968  32.500  1.00  0.00     0.049 A 
ATOM     44  H   UNL A   1      39.507  31.175  33.305  1.00  0.00     0.167 HD
ATOM     45  C   UNL A   1      43.156  29.477  34.930  1.00  0.00     0.031 A 
ATOM     46  C   UNL A   1      37.299  32.912  33.347  1.00  0.00     0.031 A 
ATOM     47  C   UNL A   1      42.700  30.395  35.942  1.00  0.00     0.049 A 
ATOM     48  C   UNL A   1      38.012  33.135  34.653  1.00  0.00     0.074 A 
ATOM     49  C   UNL A   1      43.296  30.706  37.152  1.00  0.00     0.029 A 
ATOM     50  N   UNL A   1      41.551  31.164  35.853  1.00  0.00    -0.354 N 
ATOM     51  N   UNL A   1      39.122  32.588  35.088  1.00  0.00    -0.248 NA
ATOM     52  C   UNL A   1      37.393  34.079  35.594  1.00  0.00     0.031 C 
ATOM     53  C   UNL A   1      42.484  31.632  37.815  1.00  0.00     0.029 A 
ATOM     54  C   UNL A   1      41.411  31.938  36.994  1.00  0.00     0.049 A 
ATOM     55  H   UNL A   1      40.927  31.162  35.092  1.00  0.00     0.167 HD
ATOM     56  C   UNL A   1      39.337  33.127  36.353  1.00  0.00     0.074 A 
ATOM     57  C   UNL A   1      38.258  34.061  36.601  1.00  0.00     0.031 C 
ATOM     58  C   UNL A   1      40.334  32.864  37.232  1.00  0.00     0.031 A 
BRANCH  45  59
ATOM     59  C   UNL A   1      44.421  28.704  35.192  1.00  0.00    -0.014 A 
ATOM     60  C   UNL A   1      45.684  29.195  34.822  1.00  0.00     0.010 A 
ATOM     61  C   UNL A   1      44.334  27.464  35.853  1.00  0.00     0.010 A 
ATOM     62  C   UNL A   1      46.835  28.440  35.073  1.00  0.00     0.020 A 
ATOM     63  C   UNL A   1      45.483  26.720  36.130  1.00  0.00     0.020 A 
ATOM     64  C   UNL A   1      46.726  27.204  35.720  1.00  0.00     0.054 A 
BRANCH  64  65
ATOM     65  S   UNL A   1      48.233  26.247  36.041  1.00  0.00     0.124 S 
ATOM     66  O   UNL A   1      48.847  26.201  34.717  1.00  0.00    -0.237 OA
ATOM     67  O   UNL A   1      48.930  27.067  37.028  1.00  0.00    -0.237 OA
ATOM     68  O   UNL A   1      47.733  24.968  36.540  1.00  0.00    -0.744 OA
ENDBRANCH  64  65
ENDBRANCH  45  59
BRANCH  46  69
ATOM     69  C   UNL A   1      36.046  33.657  33.033  1.00  0.00    -0.014 A 
ATOM     70  C   UNL A   1      34.784  33.076  33.251  1.00  0.00     0.010 A 
ATOM     71  C   UNL A   1      36.115  34.960  32.504  1.00  0.00     0.010 A 
ATOM     72  C   UNL A   1      33.616  33.782  32.939  1.00  0.00     0.020 A 
ATOM     73  C   UNL A   1      34.952  35.680  32.223  1.00  0.00     0.020 A 
ATOM     74  C   UNL A   1      33.709  35.082  32.431  1.00  0.00     0.054 A 
BRANCH  74  75
ATOM     75  S   UNL A   1      32.186  36.005  32.085  1.00  0.00     0.124 S 
ATOM     76  O   UNL A   1      32.286  36.226  30.646  1.00  0.00    -0.237 OA
ATOM     77  O   UNL A   1      31.146  35.073  32.512  1.00  0.00    -0.237 OA
ATOM     78  O   UNL A   1      32.318  37.201  32.914  1.00  0.00    -0.744 OA
ENDBRANCH  74  75
ENDBRANCH  46  69
BRANCH  58  79
ATOM     79  C   UNL A   1      40.327  33.617  38.535  1.00  0.00    -0.014 A 
ATOM     80  C   UNL A   1      39.686  33.098  39.673  1.00  0.00     0.010 A 
ATOM     81  C   UNL A   1      41.016  34.840  38.634  1.00  0.00     0.010 A 
ATOM     82  C   UNL A   1      39.710  33.802  40.881  1.00  0.00     0.020 A 
ATOM     83  C   UNL A   1      41.064  35.534  39.845  1.00  0.00     0.020 A 
ATOM     84  C   UNL A   1      40.399  35.017  40.958  1.00  0.00     0.054 A 
BRANCH  84  85
ATOM     85  S   UNL A   1      40.453  35.891  42.547  1.00  0.00     0.124 S 
ATOM     86  O   UNL A   1      40.056  34.844  43.484  1.00  0.00    -0.237 OA
ATOM     87  O   UNL A   1      41.848  36.317  42.633  1.00  0.00    -0.237 OA
ATOM     88  O   UNL A   1      39.487  36.974  42.378  1.00  0.00    -0.744 OA
ENDBRANCH  84  85
ENDBRANCH  58  79
ENDBRANCH  32  33
ENDBRANCH  25  27
ENDBRANCH  24  25
ENDBRANCH  23  24
ENDBRANCH   1  23
TORSDOF 17
ENDMDL
MODEL 3
REMARK VINA RESULT:     -11.2      6.302     10.557
REMARK SMILES C[C@@H](C(=O)OCCOC(=O)c1ccc(-c2c3nc(c(-c4ccc(S(=O)(=O)[O-])cc4)c4ccc([nH]4)c(-c4ccc(S(=O)(=O)[O-])cc4)c4nc(c(-c5ccc(S(=O)(=O)[O-])cc5)c5ccc2[nH]5)C=C4)C=C3)cc1)c1ccccc1-c1ccn(C(F)F)c(=O)c1
REMARK SMILES IDX 6 1 5 2 3 3 4 4 2 5 1 6 71 7 72 8 76 9 73 10 75 11 74 12
REMARK SMILES IDX 77 13 78 14 86 15 79 16 84 17 80 18 85 19 81 20 82 21 83 22
REMARK SMILES IDX 7 23 8 24 9 25 10 26 11 27 12 28 70 29 13 30 69 31 14 32
REMARK SMILES IDX 15 33 16 34 63 35 17 36 68 37 62 38 64 39 18 40 67 41 61 42
REMARK SMILES IDX 60 43 19 45 49 46 30 47 48 48 31 49 34 50 47 51 65 52 32 53
REMARK SMILES IDX 33 54 46 56 66 57 35 58 20 59 21 60 29 61 22 62 28 63 23 64
REMARK SMILES IDX 24 65 25 66 26 67 27 68 50 69 51 70 59 71 52 72 58 73 53 74
REMARK SMILES IDX 54 75 55 76 56 77 57 78 36 79 37 80 45 81 38 82 44 83 39 84
REMARK SMILES IDX 40 85 41 86 42 87 43 88
REMARK H PARENT 64 44 34 55
REMARK Flexibility Score: inf
ROOT
ATOM      1  C   UNL A   1      37.564  20.983  25.181  1.00  0.00     0.274 C 
ENDROOT
BRANCH   1   2
ATOM      2  O   UNL A   1      36.336  21.445  25.785  1.00  0.00    -0.462 OA
BRANCH   2   3
ATOM      3  C   UNL A   1      35.890  22.648  25.318  1.00  0.00     0.313 C 
ATOM      4  O   UNL A   1      36.351  23.701  25.731  1.00  0.00    -0.252 OA
BRANCH   3   5
ATOM      5  C   UNL A   1      34.718  22.532  24.326  1.00  0.00     0.127 C 
ATOM      6  C   UNL A   1      35.004  23.351  23.052  1.00  0.00     0.025 C 
BRANCH   5   7
ATOM      7  C   UNL A   1      33.331  22.836  24.942  1.00  0.00    -0.026 A 
ATOM      8  C   UNL A   1      33.015  24.152  25.355  1.00  0.00     0.005 A 
ATOM      9  C   UNL A   1      32.324  21.842  25.118  1.00  0.00    -0.014 A 
ATOM     10  C   UNL A   1      31.765  24.482  25.888  1.00  0.00     0.000 A 
ATOM     11  C   UNL A   1      31.076  22.191  25.674  1.00  0.00     0.009 A 
ATOM     12  C   UNL A   1      30.793  23.503  26.046  1.00  0.00     0.001 A 
BRANCH   9  13
ATOM     13  C   UNL A   1      32.497  20.419  24.756  1.00  0.00    -0.011 A 
ATOM     14  C   UNL A   1      32.942  19.414  25.699  1.00  0.00     0.027 A 
ATOM     15  C   UNL A   1      32.211  20.041  23.500  1.00  0.00     0.080 A 
ATOM     16  C   UNL A   1      33.337  18.211  25.272  1.00  0.00     0.095 A 
ATOM     17  C   UNL A   1      32.510  18.654  23.041  1.00  0.00     0.255 A 
ATOM     18  N   UNL A   1      33.195  17.857  23.945  1.00  0.00    -0.258 N 
ATOM     19  O   UNL A   1      32.200  18.334  21.897  1.00  0.00    -0.269 OA
BRANCH  18  20
ATOM     20  C   UNL A   1      33.678  16.585  23.481  1.00  0.00     0.451 C 
ATOM     21  F   UNL A   1      34.589  16.731  22.493  1.00  0.00    -0.185 F 
ATOM     22  F   UNL A   1      34.258  15.879  24.486  1.00  0.00    -0.185 F 
ENDBRANCH  18  20
ENDBRANCH   9  13
ENDBRANCH   5   7
ENDBRANCH   3   5
ENDBRANCH   2   3
ENDBRANCH   1   2
BRANCH   1  23
ATOM     23  C   UNL A   1      38.805  21.419  25.967  1.00  0.00     0.275 C 
BRANCH  23  24
ATOM     24  O   UNL A   1      39.919  20.532  25.742  1.00  0.00    -0.458 OA
BRANCH  24  25
ATOM     25  C   UNL A   1      40.753  20.354  26.791  1.00  0.00     0.338 C 
ATOM     26  O   UNL A   1      40.758  19.413  27.576  1.00  0.00    -0.246 OA
BRANCH  25  27
ATOM     27  C   UNL A   1      41.745  21.442  26.861  1.00  0.00     0.060 A 
ATOM     28  C   UNL A   1      42.278  21.776  28.098  1.00  0.00     0.016 A 
ATOM     29  C   UNL A   1      42.007  22.259  25.761  1.00  0.00     0.016 A 
ATOM     30  C   UNL A   1      42.990  22.958  28.269  1.00  0.00     0.010 A 
ATOM     31  C   UNL A   1      42.794  23.413  25.921  1.00  0.00     0.010 A 
ATOM     32  C   UNL A   1      43.257  23.805  27.191  1.00  0.00    -0.014 A 
BRANCH  32  33
ATOM     33  C   UNL A   1      43.908  25.128  27.441  1.00  0.00     0.031 A 
ATOM     34  C   UNL A   1      43.118  26.247  28.074  1.00  0.00     0.074 A 
ATOM     35  C   UNL A   1      45.225  25.320  27.209  1.00  0.00     0.049 A 
ATOM     36  N   UNL A   1      43.440  27.507  28.224  1.00  0.00    -0.248 NA
ATOM     37  C   UNL A   1      41.792  25.903  28.613  1.00  0.00     0.031 C 
ATOM     38  C   UNL A   1      46.164  24.306  26.720  1.00  0.00     0.029 A 
ATOM     39  N   UNL A   1      46.013  26.434  27.386  1.00  0.00    -0.354 N 
ATOM     40  C   UNL A   1      42.332  28.118  28.802  1.00  0.00     0.074 A 
ATOM     41  C   UNL A   1      41.334  27.088  28.992  1.00  0.00     0.031 C 
ATOM     42  C   UNL A   1      47.400  24.826  26.690  1.00  0.00     0.029 A 
ATOM     43  C   UNL A   1      47.332  26.240  27.044  1.00  0.00     0.049 A 
ATOM     44  H   UNL A   1      45.665  27.290  27.725  1.00  0.00     0.167 HD
ATOM     45  C   UNL A   1      42.156  29.421  29.132  1.00  0.00     0.031 A 
ATOM     46  C   UNL A   1      48.364  27.103  26.966  1.00  0.00     0.031 A 
ATOM     47  C   UNL A   1      43.165  30.438  28.992  1.00  0.00     0.049 A 
ATOM     48  C   UNL A   1      48.127  28.560  27.259  1.00  0.00     0.074 A 
ATOM     49  C   UNL A   1      43.070  31.790  29.271  1.00  0.00     0.029 A 
ATOM     50  N   UNL A   1      44.461  30.212  28.555  1.00  0.00    -0.354 N 
ATOM     51  N   UNL A   1      47.036  29.147  27.687  1.00  0.00    -0.248 NA
ATOM     52  C   UNL A   1      49.254  29.475  27.027  1.00  0.00     0.031 C 
ATOM     53  C   UNL A   1      44.295  32.390  28.961  1.00  0.00     0.029 A 
ATOM     54  C   UNL A   1      45.170  31.402  28.541  1.00  0.00     0.049 A 
ATOM     55  H   UNL A   1      44.825  29.335  28.293  1.00  0.00     0.167 HD
ATOM     56  C   UNL A   1      47.347  30.500  27.782  1.00  0.00     0.074 A 
ATOM     57  C   UNL A   1      48.734  30.640  27.392  1.00  0.00     0.031 C 
ATOM     58  C   UNL A   1      46.550  31.532  28.150  1.00  0.00     0.031 A 
BRANCH  45  59
ATOM     59  C   UNL A   1      40.790  29.840  29.607  1.00  0.00    -0.014 A 
ATOM     60  C   UNL A   1      39.729  30.072  28.716  1.00  0.00     0.010 A 
ATOM     61  C   UNL A   1      40.565  29.976  30.991  1.00  0.00     0.010 A 
ATOM     62  C   UNL A   1      38.478  30.471  29.198  1.00  0.00     0.020 A 
ATOM     63  C   UNL A   1      39.311  30.347  31.478  1.00  0.00     0.020 A 
ATOM     64  C   UNL A   1      38.279  30.613  30.577  1.00  0.00     0.054 A 
BRANCH  64  65
ATOM     65  S   UNL A   1      36.646  31.123  31.178  1.00  0.00     0.124 S 
ATOM     66  O   UNL A   1      36.908  32.486  31.636  1.00  0.00    -0.237 OA
ATOM     67  O   UNL A   1      35.813  31.013  29.984  1.00  0.00    -0.237 OA
ATOM     68  O   UNL A   1      36.347  30.159  32.234  1.00  0.00    -0.744 OA
ENDBRANCH  64  65
ENDBRANCH  45  59
BRANCH  46  69
ATOM     69  C   UNL A   1      49.700  26.633  26.500  1.00  0.00    -0.014 A 
ATOM     70  C   UNL A   1      50.628  26.082  27.401  1.00  0.00     0.010 A 
ATOM     71  C   UNL A   1      50.051  26.741  25.141  1.00  0.00     0.010 A 
ATOM     72  C   UNL A   1      51.884  25.657  26.953  1.00  0.00     0.020 A 
ATOM     73  C   UNL A   1      51.290  26.286  24.684  1.00  0.00     0.020 A 
ATOM     74  C   UNL A   1      52.204  25.758  25.595  1.00  0.00     0.054 A 
BRANCH  74  75
ATOM     75  S   UNL A   1      53.814  25.149  25.020  1.00  0.00     0.124 S 
ATOM     76  O   UNL A   1      53.555  23.723  24.850  1.00  0.00    -0.237 OA
ATOM     77  O   UNL A   1      54.018  25.907  23.789  1.00  0.00    -0.237 OA
ATOM     78  O   UNL A   1      54.718  25.496  26.114  1.00  0.00    -0.744 OA
ENDBRANCH  74  75
ENDBRANCH  46  69
BRANCH  58  79
ATOM     79  C   UNL A   1      47.164  32.906  28.181  1.00  0.00    -0.014 A 
ATOM     80  C   UNL A   1      47.815  33.387  29.330  1.00  0.00     0.010 A 
ATOM     81  C   UNL A   1      47.134  33.706  27.023  1.00  0.00     0.010 A 
ATOM     82  C   UNL A   1      48.401  34.657  29.330  1.00  0.00     0.020 A 
ATOM     83  C   UNL A   1      47.739  34.964  27.012  1.00  0.00     0.020 A 
ATOM     84  C   UNL A   1      48.357  35.438  28.171  1.00  0.00     0.054 A 
BRANCH  84  85
ATOM     85  S   UNL A   1      49.161  37.064  28.182  1.00  0.00     0.124 S 
ATOM     86  O   UNL A   1      50.149  36.923  27.116  1.00  0.00    -0.237 OA
ATOM     87  O   UNL A   1      48.053  37.973  27.898  1.00  0.00    -0.237 OA
ATOM     88  O   UNL A   1      49.712  37.168  29.532  1.00  0.00    -0.744 OA
ENDBRANCH  84  85
ENDBRANCH  58  79
ENDBRANCH  32  33
ENDBRANCH  25  27
ENDBRANCH  24  25
ENDBRANCH  23  24
ENDBRANCH   1  23
TORSDOF 17
ENDMDL
