MODEL 1
REMARK VINA RESULT:     -11.1      0.000      0.000
REMARK SMILES O=C(OCCOC(=O)c1cc(SCc2csc(-c3ccsc3)n2)ccn1)c1ccc(-c2c3nc(c(-c4ccc(S(=O)(=O)[O-])cc4)c4ccc([nH]4)c(-c4ccc(S(=O)(=O)[O-])cc4)c4nc(c(-c5ccc(S(=O)(=O)[O-])cc5)c5ccc2[nH]5)C=C4)C=C3)cc1
REMARK SMILES IDX 5 1 4 2 3 3 2 4 1 5 27 6 28 7 86 8 29 9 85 10 30 11 31 12
REMARK SMILES IDX 32 13 79 14 33 15 84 16 78 17 80 18 34 19 83 20 77 21 76 22
REMARK SMILES IDX 35 24 65 25 46 26 64 27 47 28 50 29 63 30 81 31 48 32 49 33
REMARK SMILES IDX 62 35 82 36 51 37 36 38 37 39 45 40 38 41 44 42 39 43 40 44
REMARK SMILES IDX 41 45 42 46 43 47 66 48 67 49 75 50 68 51 74 52 69 53 70 54
REMARK SMILES IDX 71 55 72 56 73 57 52 58 53 59 61 60 54 61 60 62 55 63 56 64
REMARK SMILES IDX 57 65 58 66 59 67 6 68 7 69 8 70 9 71 10 72 26 73 11 74
REMARK SMILES IDX 25 75 24 76 12 77 13 78 14 79 15 80 23 81 16 82 17 83 18 84
REMARK SMILES IDX 19 85 22 86 20 87 21 88
REMARK H PARENT 80 23 50 34
REMARK Flexibility Score: inf
ROOT
ATOM      1  C   UNL A   1      33.970  29.394  26.876  1.00  0.00     0.275 C 
ENDROOT
BRANCH   1   2
ATOM      2  C   UNL A   1      35.286  30.020  27.347  1.00  0.00     0.275 C 
BRANCH   2   3
ATOM      3  O   UNL A   1      35.365  30.093  28.783  1.00  0.00    -0.458 OA
BRANCH   3   4
ATOM      4  C   UNL A   1      36.355  29.743  29.639  1.00  0.00     0.338 C 
ATOM      5  O   UNL A   1      36.059  29.616  30.828  1.00  0.00    -0.246 OA
BRANCH   4   6
ATOM      6  C   UNL A   1      37.802  29.558  29.262  1.00  0.00     0.060 A 
ATOM      7  C   UNL A   1      38.331  29.530  27.975  1.00  0.00     0.016 A 
ATOM      8  C   UNL A   1      38.717  29.417  30.329  1.00  0.00     0.016 A 
ATOM      9  C   UNL A   1      39.703  29.343  27.758  1.00  0.00     0.010 A 
ATOM     10  C   UNL A   1      40.095  29.237  30.114  1.00  0.00     0.010 A 
ATOM     11  C   UNL A   1      40.600  29.169  28.817  1.00  0.00    -0.014 A 
BRANCH  11  12
ATOM     12  C   UNL A   1      42.018  28.784  28.554  1.00  0.00     0.031 A 
ATOM     13  C   UNL A   1      42.317  27.385  28.119  1.00  0.00     0.074 A 
ATOM     14  C   UNL A   1      43.022  29.683  28.535  1.00  0.00     0.049 A 
ATOM     15  N   UNL A   1      43.453  26.884  27.715  1.00  0.00    -0.248 NA
ATOM     16  C   UNL A   1      41.184  26.452  28.071  1.00  0.00     0.031 C 
ATOM     17  C   UNL A   1      42.815  31.096  28.752  1.00  0.00     0.029 A 
ATOM     18  N   UNL A   1      44.369  29.590  28.269  1.00  0.00    -0.354 N 
ATOM     19  C   UNL A   1      43.180  25.570  27.379  1.00  0.00     0.074 A 
ATOM     20  C   UNL A   1      41.770  25.351  27.630  1.00  0.00     0.031 C 
ATOM     21  C   UNL A   1      43.974  31.751  28.614  1.00  0.00     0.029 A 
ATOM     22  C   UNL A   1      45.023  30.805  28.305  1.00  0.00     0.049 A 
ATOM     23  H   UNL A   1      44.823  28.740  28.070  1.00  0.00     0.167 HD
ATOM     24  C   UNL A   1      44.033  24.630  26.912  1.00  0.00     0.031 A 
ATOM     25  C   UNL A   1      46.307  31.162  28.094  1.00  0.00     0.031 A 
ATOM     26  C   UNL A   1      45.442  24.842  26.726  1.00  0.00     0.049 A 
ATOM     27  C   UNL A   1      47.259  30.081  27.696  1.00  0.00     0.074 A 
ATOM     28  C   UNL A   1      46.410  23.919  26.375  1.00  0.00     0.029 A 
ATOM     29  N   UNL A   1      46.092  26.059  26.894  1.00  0.00    -0.354 N 
ATOM     30  N   UNL A   1      46.989  28.824  27.442  1.00  0.00    -0.248 NA
ATOM     31  C   UNL A   1      48.675  30.442  27.556  1.00  0.00     0.031 C 
ATOM     32  C   UNL A   1      47.652  24.562  26.395  1.00  0.00     0.029 A 
ATOM     33  C   UNL A   1      47.453  25.902  26.691  1.00  0.00     0.049 A 
ATOM     34  H   UNL A   1      45.650  26.909  27.125  1.00  0.00     0.167 HD
ATOM     35  C   UNL A   1      48.196  28.240  27.102  1.00  0.00     0.074 A 
ATOM     36  C   UNL A   1      49.199  29.287  27.165  1.00  0.00     0.031 C 
ATOM     37  C   UNL A   1      48.442  26.951  26.772  1.00  0.00     0.031 A 
BRANCH  24  38
ATOM     38  C   UNL A   1      43.446  23.263  26.716  1.00  0.00    -0.014 A 
ATOM     39  C   UNL A   1      42.910  22.531  27.791  1.00  0.00     0.010 A 
ATOM     40  C   UNL A   1      43.548  22.660  25.451  1.00  0.00     0.010 A 
ATOM     41  C   UNL A   1      42.561  21.189  27.619  1.00  0.00     0.020 A 
ATOM     42  C   UNL A   1      43.176  21.328  25.270  1.00  0.00     0.020 A 
ATOM     43  C   UNL A   1      42.716  20.592  26.363  1.00  0.00     0.054 A 
BRANCH  43  44
ATOM     44  S   UNL A   1      42.335  18.829  26.183  1.00  0.00     0.124 S 
ATOM     45  O   UNL A   1      43.296  18.420  25.161  1.00  0.00    -0.237 OA
ATOM     46  O   UNL A   1      42.585  18.307  27.523  1.00  0.00    -0.237 OA
ATOM     47  O   UNL A   1      40.936  18.819  25.762  1.00  0.00    -0.744 OA
ENDBRANCH  43  44
ENDBRANCH  24  38
BRANCH  25  48
ATOM     48  C   UNL A   1      46.737  32.588  28.260  1.00  0.00    -0.014 A 
ATOM     49  C   UNL A   1      47.111  33.105  29.514  1.00  0.00     0.010 A 
ATOM     50  C   UNL A   1      46.840  33.429  27.132  1.00  0.00     0.010 A 
ATOM     51  C   UNL A   1      47.585  34.419  29.633  1.00  0.00     0.020 A 
ATOM     52  C   UNL A   1      47.344  34.730  27.241  1.00  0.00     0.020 A 
ATOM     53  C   UNL A   1      47.711  35.221  28.494  1.00  0.00     0.054 A 
BRANCH  53  54
ATOM     54  S   UNL A   1      48.416  36.887  28.659  1.00  0.00     0.124 S 
ATOM     55  O   UNL A   1      47.221  37.721  28.725  1.00  0.00    -0.237 OA
ATOM     56  O   UNL A   1      49.184  36.782  29.898  1.00  0.00    -0.237 OA
ATOM     57  O   UNL A   1      49.221  37.042  27.449  1.00  0.00    -0.744 OA
ENDBRANCH  53  54
ENDBRANCH  25  48
BRANCH  37  58
ATOM     58  C   UNL A   1      49.862  26.589  26.450  1.00  0.00    -0.014 A 
ATOM     59  C   UNL A   1      50.725  26.101  27.446  1.00  0.00     0.010 A 
ATOM     60  C   UNL A   1      50.301  26.647  25.116  1.00  0.00     0.010 A 
ATOM     61  C   UNL A   1      52.011  25.676  27.109  1.00  0.00     0.020 A 
ATOM     62  C   UNL A   1      51.577  26.201  24.774  1.00  0.00     0.020 A 
ATOM     63  C   UNL A   1      52.425  25.718  25.775  1.00  0.00     0.054 A 
BRANCH  63  64
ATOM     64  S   UNL A   1      54.061  25.064  25.349  1.00  0.00     0.124 S 
ATOM     65  O   UNL A   1      54.741  25.081  26.641  1.00  0.00    -0.237 OA
ATOM     66  O   UNL A   1      53.747  23.739  24.820  1.00  0.00    -0.237 OA
ATOM     67  O   UNL A   1      54.569  26.018  24.365  1.00  0.00    -0.744 OA
ENDBRANCH  63  64
ENDBRANCH  37  58
ENDBRANCH  11  12
ENDBRANCH   4   6
ENDBRANCH   3   4
ENDBRANCH   2   3
ENDBRANCH   1   2
BRANCH   1  68
ATOM     68  O   UNL A   1      34.190  28.194  26.126  1.00  0.00    -0.457 OA
BRANCH  68  69
ATOM     69  C   UNL A   1      33.548  28.133  24.922  1.00  0.00     0.357 C 
ATOM     70  O   UNL A   1      33.921  28.609  23.871  1.00  0.00    -0.244 OA
BRANCH  69  71
ATOM     71  C   UNL A   1      32.338  27.299  25.120  1.00  0.00     0.149 A 
ATOM     72  C   UNL A   1      32.460  26.075  25.763  1.00  0.00     0.051 A 
ATOM     73  N   UNL A   1      31.185  27.792  24.597  1.00  0.00    -0.249 NA
ATOM     74  C   UNL A   1      31.325  25.295  25.872  1.00  0.00     0.012 A 
ATOM     75  C   UNL A   1      30.098  27.011  24.714  1.00  0.00     0.113 A 
ATOM     76  C   UNL A   1      30.116  25.786  25.354  1.00  0.00     0.035 A 
BRANCH  74  77
ATOM     77  S   UNL A   1      31.285  23.745  26.723  1.00  0.00    -0.120 SA
BRANCH  77  78
ATOM     78  C   UNL A   1      31.073  22.382  25.533  1.00  0.00     0.132 C 
BRANCH  78  79
ATOM     79  C   UNL A   1      32.173  21.482  25.019  1.00  0.00     0.062 A 
ATOM     80  C   UNL A   1      33.488  21.900  24.883  1.00  0.00     0.091 A 
ATOM     81  N   UNL A   1      32.036  20.086  24.947  1.00  0.00    -0.240 NA
ATOM     82  S   UNL A   1      34.558  20.566  24.896  1.00  0.00    -0.122 S 
ATOM     83  C   UNL A   1      33.215  19.487  24.961  1.00  0.00     0.124 A 
BRANCH  83  84
ATOM     84  C   UNL A   1      33.442  17.992  24.959  1.00  0.00     0.021 A 
ATOM     85  C   UNL A   1      34.620  17.320  24.530  1.00  0.00     0.023 A 
ATOM     86  C   UNL A   1      32.523  17.089  25.458  1.00  0.00     0.076 A 
ATOM     87  C   UNL A   1      34.597  15.963  24.772  1.00  0.00     0.065 A 
ATOM     88  S   UNL A   1      33.102  15.473  25.434  1.00  0.00    -0.152 S 
ENDBRANCH  83  84
ENDBRANCH  78  79
ENDBRANCH  77  78
ENDBRANCH  74  77
ENDBRANCH  69  71
ENDBRANCH  68  69
ENDBRANCH   1  68
TORSDOF 18
ENDMDL
MODEL 2
REMARK VINA RESULT:     -11.0      2.339      8.975
REMARK SMILES O=C(OCCOC(=O)c1cc(SCc2csc(-c3ccsc3)n2)ccn1)c1ccc(-c2c3nc(c(-c4ccc(S(=O)(=O)[O-])cc4)c4ccc([nH]4)c(-c4ccc(S(=O)(=O)[O-])cc4)c4nc(c(-c5ccc(S(=O)(=O)[O-])cc5)c5ccc2[nH]5)C=C4)C=C3)cc1
REMARK SMILES IDX 5 1 4 2 3 3 2 4 1 5 27 6 28 7 86 8 29 9 85 10 30 11 31 12
REMARK SMILES IDX 32 13 79 14 33 15 84 16 78 17 80 18 34 19 83 20 77 21 76 22
REMARK SMILES IDX 35 24 65 25 46 26 64 27 47 28 50 29 63 30 81 31 48 32 49 33
REMARK SMILES IDX 62 35 82 36 51 37 36 38 37 39 45 40 38 41 44 42 39 43 40 44
REMARK SMILES IDX 41 45 42 46 43 47 66 48 67 49 75 50 68 51 74 52 69 53 70 54
REMARK SMILES IDX 71 55 72 56 73 57 52 58 53 59 61 60 54 61 60 62 55 63 56 64
REMARK SMILES IDX 57 65 58 66 59 67 6 68 7 69 8 70 9 71 10 72 26 73 11 74
REMARK SMILES IDX 25 75 24 76 12 77 13 78 14 79 15 80 23 81 16 82 17 83 18 84
REMARK SMILES IDX 19 85 22 86 20 87 21 88
REMARK H PARENT 80 23 50 34
REMARK Flexibility Score: inf
ROOT
ATOM      1  C   UNL A   1      42.184  19.005  26.921  1.00  0.00     0.275 C 
ENDROOT
BRANCH   1   2
ATOM      2  C   UNL A   1      43.244  18.186  26.179  1.00  0.00     0.275 C 
BRANCH   2   3
ATOM      3  O   UNL A   1      43.564  18.753  24.895  1.00  0.00    -0.458 OA
BRANCH   3   4
ATOM      4  C   UNL A   1      44.596  19.536  24.500  1.00  0.00     0.338 C 
ATOM      5  O   UNL A   1      45.537  18.988  23.924  1.00  0.00    -0.246 OA
BRANCH   4   6
ATOM      6  C   UNL A   1      44.714  21.015  24.765  1.00  0.00     0.060 A 
ATOM      7  C   UNL A   1      44.570  22.042  23.837  1.00  0.00     0.016 A 
ATOM      8  C   UNL A   1      44.981  21.396  26.099  1.00  0.00     0.016 A 
ATOM      9  C   UNL A   1      44.712  23.385  24.213  1.00  0.00     0.010 A 
ATOM     10  C   UNL A   1      45.116  22.742  26.480  1.00  0.00     0.010 A 
ATOM     11  C   UNL A   1      45.010  23.755  25.528  1.00  0.00    -0.014 A 
BRANCH  11  12
ATOM     12  C   UNL A   1      45.342  25.172  25.860  1.00  0.00     0.031 A 
ATOM     13  C   UNL A   1      44.278  26.047  26.439  1.00  0.00     0.074 A 
ATOM     14  C   UNL A   1      46.601  25.651  25.810  1.00  0.00     0.049 A 
ATOM     15  N   UNL A   1      44.390  27.257  26.917  1.00  0.00    -0.248 NA
ATOM     16  C   UNL A   1      42.935  25.463  26.556  1.00  0.00     0.031 C 
ATOM     17  C   UNL A   1      47.738  24.837  25.448  1.00  0.00     0.029 A 
ATOM     18  N   UNL A   1      47.160  26.871  26.114  1.00  0.00    -0.354 N 
ATOM     19  C   UNL A   1      43.129  27.591  27.377  1.00  0.00     0.074 A 
ATOM     20  C   UNL A   1      42.266  26.456  27.119  1.00  0.00     0.031 C 
ATOM     21  C   UNL A   1      48.862  25.558  25.544  1.00  0.00     0.029 A 
ATOM     22  C   UNL A   1      48.533  26.901  25.971  1.00  0.00     0.049 A 
ATOM     23  H   UNL A   1      46.633  27.649  26.407  1.00  0.00     0.167 HD
ATOM     24  C   UNL A   1      42.727  28.746  27.955  1.00  0.00     0.031 A 
ATOM     25  C   UNL A   1      49.456  27.863  26.172  1.00  0.00     0.031 A 
ATOM     26  C   UNL A   1      43.578  29.888  28.151  1.00  0.00     0.049 A 
ATOM     27  C   UNL A   1      48.970  29.175  26.698  1.00  0.00     0.074 A 
ATOM     28  C   UNL A   1      43.235  31.145  28.614  1.00  0.00     0.029 A 
ATOM     29  N   UNL A   1      44.940  29.921  27.875  1.00  0.00    -0.354 N 
ATOM     30  N   UNL A   1      47.754  29.491  27.072  1.00  0.00    -0.248 NA
ATOM     31  C   UNL A   1      49.952  30.257  26.833  1.00  0.00     0.031 C 
ATOM     32  C   UNL A   1      44.373  31.955  28.557  1.00  0.00     0.029 A 
ATOM     33  C   UNL A   1      45.444  31.187  28.124  1.00  0.00     0.049 A 
ATOM     34  H   UNL A   1      45.470  29.156  27.550  1.00  0.00     0.167 HD
ATOM     35  C   UNL A   1      47.820  30.807  27.496  1.00  0.00     0.074 A 
ATOM     36  C   UNL A   1      49.203  31.224  27.350  1.00  0.00     0.031 C 
ATOM     37  C   UNL A   1      46.820  31.591  27.960  1.00  0.00     0.031 A 
BRANCH  24  38
ATOM     38  C   UNL A   1      41.264  28.836  28.275  1.00  0.00    -0.014 A 
ATOM     39  C   UNL A   1      40.310  29.129  27.283  1.00  0.00     0.010 A 
ATOM     40  C   UNL A   1      40.859  28.743  29.618  1.00  0.00     0.010 A 
ATOM     41  C   UNL A   1      38.990  29.409  27.643  1.00  0.00     0.020 A 
ATOM     42  C   UNL A   1      39.535  28.996  29.977  1.00  0.00     0.020 A 
ATOM     43  C   UNL A   1      38.617  29.360  28.991  1.00  0.00     0.054 A 
BRANCH  43  44
ATOM     44  S   UNL A   1      36.919  29.805  29.443  1.00  0.00     0.124 S 
ATOM     45  O   UNL A   1      37.008  31.261  29.535  1.00  0.00    -0.237 OA
ATOM     46  O   UNL A   1      36.142  29.294  28.318  1.00  0.00    -0.237 OA
ATOM     47  O   UNL A   1      36.706  29.113  30.712  1.00  0.00    -0.744 OA
ENDBRANCH  43  44
ENDBRANCH  24  38
BRANCH  25  48
ATOM     48  C   UNL A   1      50.901  27.605  25.873  1.00  0.00    -0.014 A 
ATOM     49  C   UNL A   1      51.426  27.760  24.577  1.00  0.00     0.010 A 
ATOM     50  C   UNL A   1      51.787  27.264  26.917  1.00  0.00     0.010 A 
ATOM     51  C   UNL A   1      52.797  27.591  24.335  1.00  0.00     0.020 A 
ATOM     52  C   UNL A   1      53.161  27.126  26.687  1.00  0.00     0.020 A 
ATOM     53  C   UNL A   1      53.659  27.286  25.394  1.00  0.00     0.054 A 
BRANCH  53  54
ATOM     54  S   UNL A   1      55.443  27.164  25.074  1.00  0.00     0.124 S 
ATOM     55  O   UNL A   1      55.912  28.496  25.441  1.00  0.00    -0.237 OA
ATOM     56  O   UNL A   1      55.849  26.080  25.966  1.00  0.00    -0.237 OA
ATOM     57  O   UNL A   1      55.517  26.846  23.649  1.00  0.00    -0.744 OA
ENDBRANCH  53  54
ENDBRANCH  25  48
BRANCH  37  58
ATOM     58  C   UNL A   1      47.178  32.995  28.347  1.00  0.00    -0.014 A 
ATOM     59  C   UNL A   1      47.102  34.044  27.414  1.00  0.00     0.010 A 
ATOM     60  C   UNL A   1      47.501  33.278  29.686  1.00  0.00     0.010 A 
ATOM     61  C   UNL A   1      47.343  35.357  27.818  1.00  0.00     0.020 A 
ATOM     62  C   UNL A   1      47.719  34.593  30.096  1.00  0.00     0.020 A 
ATOM     63  C   UNL A   1      47.639  35.625  29.158  1.00  0.00     0.054 A 
BRANCH  63  64
ATOM     64  S   UNL A   1      47.847  37.349  29.676  1.00  0.00     0.124 S 
ATOM     65  O   UNL A   1      47.346  38.079  28.515  1.00  0.00    -0.237 OA
ATOM     66  O   UNL A   1      47.014  37.425  30.874  1.00  0.00    -0.237 OA
ATOM     67  O   UNL A   1      49.284  37.468  29.915  1.00  0.00    -0.744 OA
ENDBRANCH  63  64
ENDBRANCH  37  58
ENDBRANCH  11  12
ENDBRANCH   4   6
ENDBRANCH   3   4
ENDBRANCH   2   3
ENDBRANCH   1   2
BRANCH   1  68
ATOM     68  O   UNL A   1      41.639  20.042  26.097  1.00  0.00    -0.457 OA
BRANCH  68  69
ATOM     69  C   UNL A   1      40.293  19.965  25.878  1.00  0.00     0.357 C 
ATOM     70  O   UNL A   1      39.663  18.986  25.541  1.00  0.00    -0.244 OA
BRANCH  69  71
ATOM     71  C   UNL A   1      39.726  21.294  26.212  1.00  0.00     0.149 A 
ATOM     72  C   UNL A   1      38.561  21.709  25.582  1.00  0.00     0.051 A 
ATOM     73  N   UNL A   1      40.439  22.039  27.096  1.00  0.00    -0.249 NA
ATOM     74  C   UNL A   1      38.096  22.978  25.867  1.00  0.00     0.012 A 
ATOM     75  C   UNL A   1      39.968  23.271  27.352  1.00  0.00     0.113 A 
ATOM     76  C   UNL A   1      38.806  23.765  26.789  1.00  0.00     0.035 A 
BRANCH  74  77
ATOM     77  S   UNL A   1      36.593  23.637  25.211  1.00  0.00    -0.120 SA
BRANCH  77  78
ATOM     78  C   UNL A   1      35.212  23.309  26.352  1.00  0.00     0.132 C 
BRANCH  78  79
ATOM     79  C   UNL A   1      34.126  22.277  26.148  1.00  0.00     0.062 A 
ATOM     80  C   UNL A   1      32.869  22.592  25.658  1.00  0.00     0.091 A 
ATOM     81  N   UNL A   1      34.390  20.897  26.124  1.00  0.00    -0.240 NA
ATOM     82  S   UNL A   1      32.120  21.218  24.966  1.00  0.00    -0.122 S 
ATOM     83  C   UNL A   1      33.454  20.242  25.460  1.00  0.00     0.124 A 
BRANCH  83  84
ATOM     84  C   UNL A   1      33.449  18.755  25.183  1.00  0.00     0.021 A 
ATOM     85  C   UNL A   1      32.541  17.801  25.723  1.00  0.00     0.023 A 
ATOM     86  C   UNL A   1      34.312  18.152  24.289  1.00  0.00     0.076 A 
ATOM     87  C   UNL A   1      32.688  16.540  25.185  1.00  0.00     0.065 A 
ATOM     88  S   UNL A   1      33.996  16.476  24.090  1.00  0.00    -0.152 S 
ENDBRANCH  83  84
ENDBRANCH  78  79
ENDBRANCH  77  78
ENDBRANCH  74  77
ENDBRANCH  69  71
ENDBRANCH  68  69
ENDBRANCH   1  68
TORSDOF 18
ENDMDL
MODEL 3
REMARK VINA RESULT:     -10.8      3.612      8.879
REMARK SMILES O=C(OCCOC(=O)c1cc(SCc2csc(-c3ccsc3)n2)ccn1)c1ccc(-c2c3nc(c(-c4ccc(S(=O)(=O)[O-])cc4)c4ccc([nH]4)c(-c4ccc(S(=O)(=O)[O-])cc4)c4nc(c(-c5ccc(S(=O)(=O)[O-])cc5)c5ccc2[nH]5)C=C4)C=C3)cc1
REMARK SMILES IDX 5 1 4 2 3 3 2 4 1 5 27 6 28 7 86 8 29 9 85 10 30 11 31 12
REMARK SMILES IDX 32 13 79 14 33 15 84 16 78 17 80 18 34 19 83 20 77 21 76 22
REMARK SMILES IDX 35 24 65 25 46 26 64 27 47 28 50 29 63 30 81 31 48 32 49 33
REMARK SMILES IDX 62 35 82 36 51 37 36 38 37 39 45 40 38 41 44 42 39 43 40 44
REMARK SMILES IDX 41 45 42 46 43 47 66 48 67 49 75 50 68 51 74 52 69 53 70 54
REMARK SMILES IDX 71 55 72 56 73 57 52 58 53 59 61 60 54 61 60 62 55 63 56 64
REMARK SMILES IDX 57 65 58 66 59 67 6 68 7 69 8 70 9 71 10 72 26 73 11 74
REMARK SMILES IDX 25 75 24 76 12 77 13 78 14 79 15 80 23 81 16 82 17 83 18 84
REMARK SMILES IDX 19 85 22 86 20 87 21 88
REMARK H PARENT 80 23 50 34
REMARK Flexibility Score: inf
ROOT
ATOM      1  C   UNL A   1      31.778  29.322  26.336  1.00  0.00     0.275 C 
ENDROOT
BRANCH   1   2
ATOM      2  C   UNL A   1      33.185  29.225  26.933  1.00  0.00     0.275 C 
BRANCH   2   3
ATOM      3  O   UNL A   1      33.489  30.346  27.784  1.00  0.00    -0.458 OA
BRANCH   3   4
ATOM      4  C   UNL A   1      34.648  31.015  27.995  1.00  0.00     0.338 C 
ATOM      5  O   UNL A   1      34.641  32.234  27.816  1.00  0.00    -0.246 OA
BRANCH   4   6
ATOM      6  C   UNL A   1      35.961  30.378  28.371  1.00  0.00     0.060 A 
ATOM      7  C   UNL A   1      36.267  29.746  29.572  1.00  0.00     0.016 A 
ATOM      8  C   UNL A   1      36.980  30.411  27.393  1.00  0.00     0.016 A 
ATOM      9  C   UNL A   1      37.536  29.197  29.801  1.00  0.00     0.010 A 
ATOM     10  C   UNL A   1      38.251  29.854  27.617  1.00  0.00     0.010 A 
ATOM     11  C   UNL A   1      38.552  29.263  28.843  1.00  0.00    -0.014 A 
BRANCH  11  12
ATOM     12  C   UNL A   1      39.943  28.842  29.182  1.00  0.00     0.031 A 
ATOM     13  C   UNL A   1      40.755  29.701  30.098  1.00  0.00     0.074 A 
ATOM     14  C   UNL A   1      40.443  27.641  28.829  1.00  0.00     0.049 A 
ATOM     15  N   UNL A   1      41.925  29.453  30.621  1.00  0.00    -0.248 NA
ATOM     16  C   UNL A   1      40.144  30.964  30.531  1.00  0.00     0.031 C 
ATOM     17  C   UNL A   1      39.677  26.653  28.106  1.00  0.00     0.029 A 
ATOM     18  N   UNL A   1      41.644  27.011  29.064  1.00  0.00    -0.354 N 
ATOM     19  C   UNL A   1      42.204  30.538  31.433  1.00  0.00     0.074 A 
ATOM     20  C   UNL A   1      41.080  31.446  31.332  1.00  0.00     0.031 C 
ATOM     21  C   UNL A   1      40.404  25.540  27.948  1.00  0.00     0.029 A 
ATOM     22  C   UNL A   1      41.704  25.730  28.553  1.00  0.00     0.049 A 
ATOM     23  H   UNL A   1      42.388  27.432  29.550  1.00  0.00     0.167 HD
ATOM     24  C   UNL A   1      43.304  30.757  32.188  1.00  0.00     0.031 A 
ATOM     25  C   UNL A   1      42.662  24.780  28.571  1.00  0.00     0.031 A 
ATOM     26  C   UNL A   1      44.439  29.877  32.234  1.00  0.00     0.049 A 
ATOM     27  C   UNL A   1      43.921  25.093  29.311  1.00  0.00     0.074 A 
ATOM     28  C   UNL A   1      45.651  30.071  32.871  1.00  0.00     0.029 A 
ATOM     29  N   UNL A   1      44.514  28.642  31.600  1.00  0.00    -0.354 N 
ATOM     30  N   UNL A   1      44.189  26.158  30.027  1.00  0.00    -0.248 NA
ATOM     31  C   UNL A   1      45.003  24.104  29.258  1.00  0.00     0.031 C 
ATOM     32  C   UNL A   1      46.480  28.986  32.570  1.00  0.00     0.029 A 
ATOM     33  C   UNL A   1      45.764  28.080  31.801  1.00  0.00     0.049 A 
ATOM     34  H   UNL A   1      43.784  28.227  31.083  1.00  0.00     0.167 HD
ATOM     35  C   UNL A   1      45.468  25.969  30.519  1.00  0.00     0.074 A 
ATOM     36  C   UNL A   1      45.916  24.676  30.034  1.00  0.00     0.031 C 
ATOM     37  C   UNL A   1      46.200  26.798  31.299  1.00  0.00     0.031 A 
BRANCH  24  38
ATOM     38  C   UNL A   1      43.347  32.077  32.902  1.00  0.00    -0.014 A 
ATOM     39  C   UNL A   1      44.026  33.184  32.361  1.00  0.00     0.010 A 
ATOM     40  C   UNL A   1      42.800  32.164  34.194  1.00  0.00     0.010 A 
ATOM     41  C   UNL A   1      44.224  34.330  33.136  1.00  0.00     0.020 A 
ATOM     42  C   UNL A   1      42.973  33.317  34.959  1.00  0.00     0.020 A 
ATOM     43  C   UNL A   1      43.713  34.379  34.437  1.00  0.00     0.054 A 
BRANCH  43  44
ATOM     44  S   UNL A   1      44.052  35.842  35.453  1.00  0.00     0.124 S 
ATOM     45  O   UNL A   1      44.030  35.280  36.801  1.00  0.00    -0.237 OA
ATOM     46  O   UNL A   1      45.364  36.269  34.973  1.00  0.00    -0.237 OA
ATOM     47  O   UNL A   1      42.950  36.746  35.136  1.00  0.00    -0.744 OA
ENDBRANCH  43  44
ENDBRANCH  24  38
BRANCH  25  48
ATOM     48  C   UNL A   1      42.449  23.473  27.869  1.00  0.00    -0.014 A 
ATOM     49  C   UNL A   1      43.019  23.210  26.610  1.00  0.00     0.010 A 
ATOM     50  C   UNL A   1      41.718  22.444  28.500  1.00  0.00     0.010 A 
ATOM     51  C   UNL A   1      42.873  21.953  26.006  1.00  0.00     0.020 A 
ATOM     52  C   UNL A   1      41.598  21.177  27.917  1.00  0.00     0.020 A 
ATOM     53  C   UNL A   1      42.173  20.939  26.669  1.00  0.00     0.054 A 
BRANCH  53  54
ATOM     54  S   UNL A   1      42.077  19.290  25.911  1.00  0.00     0.124 S 
ATOM     55  O   UNL A   1      40.646  19.150  25.663  1.00  0.00    -0.237 OA
ATOM     56  O   UNL A   1      42.914  19.442  24.724  1.00  0.00    -0.237 OA
ATOM     57  O   UNL A   1      42.623  18.406  26.940  1.00  0.00    -0.744 OA
ENDBRANCH  53  54
ENDBRANCH  25  48
BRANCH  37  58
ATOM     58  C   UNL A   1      47.574  26.338  31.684  1.00  0.00    -0.014 A 
ATOM     59  C   UNL A   1      47.775  25.534  32.819  1.00  0.00     0.010 A 
ATOM     60  C   UNL A   1      48.660  26.635  30.842  1.00  0.00     0.010 A 
ATOM     61  C   UNL A   1      49.045  25.033  33.106  1.00  0.00     0.020 A 
ATOM     62  C   UNL A   1      49.926  26.116  31.114  1.00  0.00     0.020 A 
ATOM     63  C   UNL A   1      50.110  25.318  32.246  1.00  0.00     0.054 A 
BRANCH  63  64
ATOM     64  S   UNL A   1      51.726  24.571  32.584  1.00  0.00     0.124 S 
ATOM     65  O   UNL A   1      51.449  23.149  32.406  1.00  0.00    -0.237 OA
ATOM     66  O   UNL A   1      52.579  25.179  31.565  1.00  0.00    -0.237 OA
ATOM     67  O   UNL A   1      52.016  24.983  33.957  1.00  0.00    -0.744 OA
ENDBRANCH  63  64
ENDBRANCH  37  58
ENDBRANCH  11  12
ENDBRANCH   4   6
ENDBRANCH   3   4
ENDBRANCH   2   3
ENDBRANCH   1   2
BRANCH   1  68
ATOM     68  O   UNL A   1      31.802  29.809  24.990  1.00  0.00    -0.457 OA
BRANCH  68  69
ATOM     69  C   UNL A   1      32.223  28.910  24.052  1.00  0.00     0.357 C 
ATOM     70  O   UNL A   1      33.242  28.961  23.398  1.00  0.00    -0.244 OA
BRANCH  69  71
ATOM     71  C   UNL A   1      31.234  27.805  24.040  1.00  0.00     0.149 A 
ATOM     72  C   UNL A   1      31.636  26.535  24.429  1.00  0.00     0.051 A 
ATOM     73  N   UNL A   1      29.993  28.124  23.590  1.00  0.00    -0.249 NA
ATOM     74  C   UNL A   1      30.707  25.516  24.344  1.00  0.00     0.012 A 
ATOM     75  C   UNL A   1      29.110  27.114  23.512  1.00  0.00     0.113 A 
ATOM     76  C   UNL A   1      29.411  25.820  23.896  1.00  0.00     0.035 A 
BRANCH  74  77
ATOM     77  S   UNL A   1      31.027  23.857  24.866  1.00  0.00    -0.120 SA
BRANCH  77  78
ATOM     78  C   UNL A   1      31.905  22.946  23.556  1.00  0.00     0.132 C 
BRANCH  78  79
ATOM     79  C   UNL A   1      32.978  21.903  23.775  1.00  0.00     0.062 A 
ATOM     80  C   UNL A   1      34.251  22.215  24.228  1.00  0.00     0.091 A 
ATOM     81  N   UNL A   1      32.693  20.530  23.855  1.00  0.00    -0.240 NA
ATOM     82  S   UNL A   1      34.991  20.854  24.954  1.00  0.00    -0.122 S 
ATOM     83  C   UNL A   1      33.632  19.884  24.524  1.00  0.00     0.124 A 
BRANCH  83  84
ATOM     84  C   UNL A   1      33.619  18.408  24.855  1.00  0.00     0.021 A 
ATOM     85  C   UNL A   1      32.532  17.682  25.418  1.00  0.00     0.023 A 
ATOM     86  C   UNL A   1      34.673  17.563  24.572  1.00  0.00     0.076 A 
ATOM     87  C   UNL A   1      32.756  16.323  25.481  1.00  0.00     0.065 A 
ATOM     88  S   UNL A   1      34.329  15.924  24.950  1.00  0.00    -0.152 S 
ENDBRANCH  83  84
ENDBRANCH  78  79
ENDBRANCH  77  78
ENDBRANCH  74  77
ENDBRANCH  69  71
ENDBRANCH  68  69
ENDBRANCH   1  68
TORSDOF 18
ENDMDL
