MODEL 1
REMARK VINA RESULT:      -9.9      0.000      0.000
REMARK SMILES O=C(OCCOC(=O)[C@@]1(Cl)C[C@@H]2CC[C@H]1C2)c1ccc(-c2c3nc(c(-c4ccc(S(=O)(=O)[O-])cc4)c4ccc([nH]4)c(-c4ccc(S(=O)(=O)[O-])cc4)c4nc(c(-c5ccc(S(=O)(=O)[O-])cc5)c5ccc2[nH]5)C=C4)C=C3)cc1
REMARK SMILES IDX 3 1 2 2 1 3 17 4 18 5 76 6 19 7 75 8 20 9 21 10 22 11 69 12
REMARK SMILES IDX 23 13 74 14 68 15 70 16 24 17 73 18 67 19 66 20 25 22 55 23
REMARK SMILES IDX 36 24 54 25 37 26 40 27 53 28 71 29 38 30 39 31 52 33 72 34
REMARK SMILES IDX 41 35 26 36 27 37 35 38 28 39 34 40 29 41 30 42 31 43 32 44
REMARK SMILES IDX 33 45 56 46 57 47 65 48 58 49 64 50 59 51 60 52 61 53 62 54
REMARK SMILES IDX 63 55 42 56 43 57 51 58 44 59 50 60 45 61 46 62 47 63 48 64
REMARK SMILES IDX 49 65 4 66 5 67 6 68 7 69 8 70 9 71 11 72 15 73 10 74 12 75
REMARK SMILES IDX 14 76 16 77 13 78
REMARK H PARENT 70 21 40 32
REMARK Flexibility Score: inf
ROOT
ATOM      1  O   UNL A   1      34.426  33.094  27.722  1.00  0.00    -0.458 OA
ENDROOT
BRANCH   1   2
ATOM      2  C   UNL A   1      34.644  31.761  27.757  1.00  0.00     0.338 C 
ATOM      3  O   UNL A   1      33.806  31.020  27.243  1.00  0.00    -0.246 OA
BRANCH   2   4
ATOM      4  C   UNL A   1      35.782  31.120  28.487  1.00  0.00     0.060 A 
ATOM      5  C   UNL A   1      35.777  29.891  29.154  1.00  0.00     0.016 A 
ATOM      6  C   UNL A   1      36.977  31.853  28.493  1.00  0.00     0.016 A 
ATOM      7  C   UNL A   1      36.954  29.360  29.711  1.00  0.00     0.010 A 
ATOM      8  C   UNL A   1      38.157  31.308  29.004  1.00  0.00     0.010 A 
ATOM      9  C   UNL A   1      38.164  30.051  29.619  1.00  0.00    -0.014 A 
BRANCH   9  10
ATOM     10  C   UNL A   1      39.413  29.535  30.238  1.00  0.00     0.031 A 
ATOM     11  C   UNL A   1      39.902  30.172  31.516  1.00  0.00     0.074 A 
ATOM     12  C   UNL A   1      40.142  28.564  29.647  1.00  0.00     0.049 A 
ATOM     13  N   UNL A   1      40.970  29.905  32.220  1.00  0.00    -0.248 NA
ATOM     14  C   UNL A   1      39.108  31.298  32.042  1.00  0.00     0.031 C 
ATOM     15  C   UNL A   1      39.840  27.919  28.366  1.00  0.00     0.029 A 
ATOM     16  N   UNL A   1      41.307  27.953  30.049  1.00  0.00    -0.354 N 
ATOM     17  C   UNL A   1      40.976  30.840  33.249  1.00  0.00     0.074 A 
ATOM     18  C   UNL A   1      39.894  31.761  32.997  1.00  0.00     0.031 C 
ATOM     19  C   UNL A   1      40.786  27.001  28.095  1.00  0.00     0.029 A 
ATOM     20  C   UNL A   1      41.756  26.979  29.185  1.00  0.00     0.049 A 
ATOM     21  H   UNL A   1      41.778  28.191  30.880  1.00  0.00     0.167 HD
ATOM     22  C   UNL A   1      41.745  30.883  34.362  1.00  0.00     0.031 A 
ATOM     23  C   UNL A   1      42.809  26.143  29.284  1.00  0.00     0.031 A 
ATOM     24  C   UNL A   1      42.768  29.923  34.649  1.00  0.00     0.049 A 
ATOM     25  C   UNL A   1      43.645  26.180  30.540  1.00  0.00     0.074 A 
ATOM     26  C   UNL A   1      43.540  29.791  35.787  1.00  0.00     0.029 A 
ATOM     27  N   UNL A   1      43.146  28.909  33.781  1.00  0.00    -0.354 N 
ATOM     28  N   UNL A   1      43.541  26.979  31.577  1.00  0.00    -0.248 NA
ATOM     29  C   UNL A   1      44.703  25.168  30.664  1.00  0.00     0.031 C 
ATOM     30  C   UNL A   1      44.400  28.703  35.598  1.00  0.00     0.029 A 
ATOM     31  C   UNL A   1      44.137  28.142  34.357  1.00  0.00     0.049 A 
ATOM     32  H   UNL A   1      42.763  28.760  32.886  1.00  0.00     0.167 HD
ATOM     33  C   UNL A   1      44.476  26.523  32.502  1.00  0.00     0.074 A 
ATOM     34  C   UNL A   1      45.140  25.387  31.897  1.00  0.00     0.031 C 
ATOM     35  C   UNL A   1      44.748  26.990  33.745  1.00  0.00     0.031 A 
BRANCH  22  36
ATOM     36  C   UNL A   1      41.432  31.971  35.354  1.00  0.00    -0.014 A 
ATOM     37  C   UNL A   1      40.439  31.772  36.336  1.00  0.00     0.010 A 
ATOM     38  C   UNL A   1      42.067  33.220  35.268  1.00  0.00     0.010 A 
ATOM     39  C   UNL A   1      40.019  32.829  37.144  1.00  0.00     0.020 A 
ATOM     40  C   UNL A   1      41.675  34.272  36.103  1.00  0.00     0.020 A 
ATOM     41  C   UNL A   1      40.629  34.078  37.011  1.00  0.00     0.054 A 
BRANCH  41  42
ATOM     42  S   UNL A   1      40.029  35.443  38.042  1.00  0.00     0.124 S 
ATOM     43  O   UNL A   1      38.729  34.937  38.481  1.00  0.00    -0.237 OA
ATOM     44  O   UNL A   1      41.047  35.541  39.076  1.00  0.00    -0.237 OA
ATOM     45  O   UNL A   1      39.972  36.576  37.113  1.00  0.00    -0.744 OA
ENDBRANCH  41  42
ENDBRANCH  22  36
BRANCH  23  46
ATOM     46  C   UNL A   1      43.081  25.124  28.228  1.00  0.00    -0.014 A 
ATOM     47  C   UNL A   1      42.497  23.846  28.314  1.00  0.00     0.010 A 
ATOM     48  C   UNL A   1      43.946  25.404  27.156  1.00  0.00     0.010 A 
ATOM     49  C   UNL A   1      42.805  22.855  27.375  1.00  0.00     0.020 A 
ATOM     50  C   UNL A   1      44.239  24.422  26.201  1.00  0.00     0.020 A 
ATOM     51  C   UNL A   1      43.680  23.149  26.327  1.00  0.00     0.054 A 
BRANCH  51  52
ATOM     52  S   UNL A   1      44.057  21.845  25.119  1.00  0.00     0.124 S 
ATOM     53  O   UNL A   1      43.935  22.559  23.852  1.00  0.00    -0.237 OA
ATOM     54  O   UNL A   1      45.412  21.451  25.496  1.00  0.00    -0.237 OA
ATOM     55  O   UNL A   1      43.030  20.836  25.370  1.00  0.00    -0.744 OA
ENDBRANCH  51  52
ENDBRANCH  23  46
BRANCH  35  56
ATOM     56  C   UNL A   1      45.747  26.230  34.571  1.00  0.00    -0.014 A 
ATOM     57  C   UNL A   1      47.106  26.582  34.584  1.00  0.00     0.010 A 
ATOM     58  C   UNL A   1      45.290  25.202  35.417  1.00  0.00     0.010 A 
ATOM     59  C   UNL A   1      47.998  25.905  35.420  1.00  0.00     0.020 A 
ATOM     60  C   UNL A   1      46.174  24.542  36.272  1.00  0.00     0.020 A 
ATOM     61  C   UNL A   1      47.525  24.892  36.260  1.00  0.00     0.054 A 
BRANCH  61  62
ATOM     62  S   UNL A   1      48.687  24.081  37.392  1.00  0.00     0.124 S 
ATOM     63  O   UNL A   1      47.873  23.912  38.592  1.00  0.00    -0.237 OA
ATOM     64  O   UNL A   1      49.021  22.849  36.680  1.00  0.00    -0.237 OA
ATOM     65  O   UNL A   1      49.782  25.041  37.509  1.00  0.00    -0.744 OA
ENDBRANCH  61  62
ENDBRANCH  35  56
ENDBRANCH   9  10
ENDBRANCH   2   4
ENDBRANCH   1   2
BRANCH   1  66
ATOM     66  C   UNL A   1      33.233  33.837  28.004  1.00  0.00     0.275 C 
BRANCH  66  67
ATOM     67  C   UNL A   1      33.435  35.090  28.852  1.00  0.00     0.274 C 
BRANCH  67  68
ATOM     68  O   UNL A   1      34.264  34.920  30.015  1.00  0.00    -0.461 OA
BRANCH  68  69
ATOM     69  C   UNL A   1      33.611  35.003  31.217  1.00  0.00     0.327 C 
ATOM     70  O   UNL A   1      32.432  35.330  31.324  1.00  0.00    -0.250 OA
BRANCH  69  71
ATOM     71  C   UNL A   1      34.562  34.799  32.415  1.00  0.00     0.145 C 
ATOM     72  C   UNL A   1      34.199  33.546  33.255  1.00  0.00     0.039 C 
ATOM     73  C   UNL A   1      36.022  34.493  32.005  1.00  0.00     0.022 C 
ATOM     74  Cl  UNL A   1      34.403  36.296  33.392  1.00  0.00    -0.106 Cl
ATOM     75  C   UNL A   1      35.489  32.705  33.222  1.00  0.00    -0.008 C 
ATOM     76  C   UNL A   1      37.007  34.568  33.187  1.00  0.00     0.006 C 
ATOM     77  C   UNL A   1      35.971  32.970  31.808  1.00  0.00     0.009 C 
ATOM     78  C   UNL A   1      36.586  33.379  34.060  1.00  0.00     0.004 C 
ENDBRANCH  69  71
ENDBRANCH  68  69
ENDBRANCH  67  68
ENDBRANCH  66  67
ENDBRANCH   1  66
TORSDOF 14
ENDMDL
MODEL 2
REMARK VINA RESULT:      -9.7      5.754     12.971
REMARK SMILES O=C(OCCOC(=O)[C@@]1(Cl)C[C@@H]2CC[C@H]1C2)c1ccc(-c2c3nc(c(-c4ccc(S(=O)(=O)[O-])cc4)c4ccc([nH]4)c(-c4ccc(S(=O)(=O)[O-])cc4)c4nc(c(-c5ccc(S(=O)(=O)[O-])cc5)c5ccc2[nH]5)C=C4)C=C3)cc1
REMARK SMILES IDX 3 1 2 2 1 3 17 4 18 5 76 6 19 7 75 8 20 9 21 10 22 11 69 12
REMARK SMILES IDX 23 13 74 14 68 15 70 16 24 17 73 18 67 19 66 20 25 22 55 23
REMARK SMILES IDX 36 24 54 25 37 26 40 27 53 28 71 29 38 30 39 31 52 33 72 34
REMARK SMILES IDX 41 35 26 36 27 37 35 38 28 39 34 40 29 41 30 42 31 43 32 44
REMARK SMILES IDX 33 45 56 46 57 47 65 48 58 49 64 50 59 51 60 52 61 53 62 54
REMARK SMILES IDX 63 55 42 56 43 57 51 58 44 59 50 60 45 61 46 62 47 63 48 64
REMARK SMILES IDX 49 65 4 66 5 67 6 68 7 69 8 70 9 71 11 72 15 73 10 74 12 75
REMARK SMILES IDX 14 76 16 77 13 78
REMARK H PARENT 70 21 40 32
REMARK Flexibility Score: inf
ROOT
ATOM      1  O   UNL A   1      40.174  20.595  26.126  1.00  0.00    -0.458 OA
ENDROOT
BRANCH   1   2
ATOM      2  C   UNL A   1      39.475  21.725  26.367  1.00  0.00     0.338 C 
ATOM      3  O   UNL A   1      38.298  21.769  26.009  1.00  0.00    -0.246 OA
BRANCH   2   4
ATOM      4  C   UNL A   1      40.075  22.973  26.935  1.00  0.00     0.060 A 
ATOM      5  C   UNL A   1      40.930  23.078  28.036  1.00  0.00     0.016 A 
ATOM      6  C   UNL A   1      39.725  24.158  26.273  1.00  0.00     0.016 A 
ATOM      7  C   UNL A   1      41.505  24.310  28.396  1.00  0.00     0.010 A 
ATOM      8  C   UNL A   1      40.331  25.374  26.600  1.00  0.00     0.010 A 
ATOM      9  C   UNL A   1      41.232  25.468  27.665  1.00  0.00    -0.014 A 
BRANCH   9  10
ATOM     10  C   UNL A   1      41.790  26.791  28.050  1.00  0.00     0.031 A 
ATOM     11  C   UNL A   1      43.247  27.068  27.769  1.00  0.00     0.074 A 
ATOM     12  C   UNL A   1      41.043  27.709  28.698  1.00  0.00     0.049 A 
ATOM     13  N   UNL A   1      43.954  28.135  28.033  1.00  0.00    -0.248 NA
ATOM     14  C   UNL A   1      44.024  25.976  27.156  1.00  0.00     0.031 C 
ATOM     15  C   UNL A   1      39.647  27.544  29.116  1.00  0.00     0.029 A 
ATOM     16  N   UNL A   1      41.361  28.974  29.133  1.00  0.00    -0.354 N 
ATOM     17  C   UNL A   1      45.250  27.826  27.635  1.00  0.00     0.074 A 
ATOM     18  C   UNL A   1      45.259  26.436  27.248  1.00  0.00     0.031 C 
ATOM     19  C   UNL A   1      39.231  28.664  29.734  1.00  0.00     0.029 A 
ATOM     20  C   UNL A   1      40.321  29.634  29.747  1.00  0.00     0.049 A 
ATOM     21  H   UNL A   1      42.254  29.372  29.014  1.00  0.00     0.167 HD
ATOM     22  C   UNL A   1      46.323  28.641  27.506  1.00  0.00     0.031 A 
ATOM     23  C   UNL A   1      40.249  30.891  30.233  1.00  0.00     0.031 A 
ATOM     24  C   UNL A   1      46.292  30.038  27.817  1.00  0.00     0.049 A 
ATOM     25  C   UNL A   1      41.441  31.800  30.059  1.00  0.00     0.074 A 
ATOM     26  C   UNL A   1      47.273  30.992  27.628  1.00  0.00     0.029 A 
ATOM     27  N   UNL A   1      45.197  30.685  28.372  1.00  0.00    -0.354 N 
ATOM     28  N   UNL A   1      42.617  31.530  29.540  1.00  0.00    -0.248 NA
ATOM     29  C   UNL A   1      41.278  33.197  30.486  1.00  0.00     0.031 C 
ATOM     30  C   UNL A   1      46.775  32.217  28.086  1.00  0.00     0.029 A 
ATOM     31  C   UNL A   1      45.474  32.028  28.529  1.00  0.00     0.049 A 
ATOM     32  H   UNL A   1      44.349  30.250  28.618  1.00  0.00     0.167 HD
ATOM     33  C   UNL A   1      43.308  32.738  29.519  1.00  0.00     0.074 A 
ATOM     34  C   UNL A   1      42.422  33.735  30.085  1.00  0.00     0.031 C 
ATOM     35  C   UNL A   1      44.554  33.002  29.057  1.00  0.00     0.031 A 
BRANCH  22  36
ATOM     36  C   UNL A   1      47.572  28.023  26.939  1.00  0.00    -0.014 A 
ATOM     37  C   UNL A   1      48.638  27.666  27.790  1.00  0.00     0.010 A 
ATOM     38  C   UNL A   1      47.725  27.864  25.552  1.00  0.00     0.010 A 
ATOM     39  C   UNL A   1      49.864  27.259  27.263  1.00  0.00     0.020 A 
ATOM     40  C   UNL A   1      48.940  27.419  25.020  1.00  0.00     0.020 A 
ATOM     41  C   UNL A   1      50.012  27.153  25.878  1.00  0.00     0.054 A 
BRANCH  41  42
ATOM     42  S   UNL A   1      51.629  26.666  25.219  1.00  0.00     0.124 S 
ATOM     43  O   UNL A   1      52.528  27.566  25.941  1.00  0.00    -0.237 OA
ATOM     44  O   UNL A   1      51.719  25.261  25.585  1.00  0.00    -0.237 OA
ATOM     45  O   UNL A   1      51.509  26.931  23.783  1.00  0.00    -0.744 OA
ENDBRANCH  41  42
ENDBRANCH  22  36
BRANCH  23  46
ATOM     46  C   UNL A   1      38.984  31.412  30.828  1.00  0.00    -0.014 A 
ATOM     47  C   UNL A   1      37.982  31.948  29.997  1.00  0.00     0.010 A 
ATOM     48  C   UNL A   1      38.784  31.413  32.219  1.00  0.00     0.010 A 
ATOM     49  C   UNL A   1      36.825  32.512  30.546  1.00  0.00     0.020 A 
ATOM     50  C   UNL A   1      37.617  31.957  32.771  1.00  0.00     0.020 A 
ATOM     51  C   UNL A   1      36.653  32.518  31.932  1.00  0.00     0.054 A 
BRANCH  51  52
ATOM     52  S   UNL A   1      35.139  33.252  32.616  1.00  0.00     0.124 S 
ATOM     53  O   UNL A   1      34.097  32.540  31.884  1.00  0.00    -0.237 OA
ATOM     54  O   UNL A   1      35.247  32.930  34.037  1.00  0.00    -0.237 OA
ATOM     55  O   UNL A   1      35.270  34.672  32.295  1.00  0.00    -0.744 OA
ENDBRANCH  51  52
ENDBRANCH  23  46
BRANCH  35  56
ATOM     56  C   UNL A   1      45.010  34.434  29.063  1.00  0.00    -0.014 A 
ATOM     57  C   UNL A   1      45.744  34.965  30.136  1.00  0.00     0.010 A 
ATOM     58  C   UNL A   1      44.771  35.231  27.927  1.00  0.00     0.010 A 
ATOM     59  C   UNL A   1      46.219  36.278  30.080  1.00  0.00     0.020 A 
ATOM     60  C   UNL A   1      45.267  36.534  27.857  1.00  0.00     0.020 A 
ATOM     61  C   UNL A   1      45.981  37.051  28.940  1.00  0.00     0.054 A 
BRANCH  61  62
ATOM     62  S   UNL A   1      46.673  38.726  28.858  1.00  0.00     0.124 S 
ATOM     63  O   UNL A   1      47.012  38.982  30.255  1.00  0.00    -0.237 OA
ATOM     64  O   UNL A   1      47.810  38.559  27.956  1.00  0.00    -0.237 OA
ATOM     65  O   UNL A   1      45.575  39.527  28.324  1.00  0.00    -0.744 OA
ENDBRANCH  61  62
ENDBRANCH  35  56
ENDBRANCH   9  10
ENDBRANCH   2   4
ENDBRANCH   1   2
BRANCH   1  66
ATOM     66  C   UNL A   1      41.180  19.950  26.920  1.00  0.00     0.275 C 
BRANCH  66  67
ATOM     67  C   UNL A   1      42.158  19.074  26.140  1.00  0.00     0.274 C 
BRANCH  67  68
ATOM     68  O   UNL A   1      42.837  19.727  25.054  1.00  0.00    -0.461 OA
BRANCH  68  69
ATOM     69  C   UNL A   1      44.180  19.464  24.961  1.00  0.00     0.327 C 
ATOM     70  O   UNL A   1      44.661  18.344  25.111  1.00  0.00    -0.250 OA
BRANCH  69  71
ATOM     71  C   UNL A   1      45.019  20.750  24.811  1.00  0.00     0.145 C 
ATOM     72  C   UNL A   1      44.575  21.614  23.602  1.00  0.00     0.039 C 
ATOM     73  C   UNL A   1      44.851  21.742  25.986  1.00  0.00     0.022 C 
ATOM     74  Cl  UNL A   1      46.708  20.179  24.606  1.00  0.00    -0.106 Cl
ATOM     75  C   UNL A   1      44.224  22.972  24.238  1.00  0.00    -0.008 C 
ATOM     76  C   UNL A   1      45.891  22.879  25.968  1.00  0.00     0.006 C 
ATOM     77  C   UNL A   1      43.604  22.526  25.550  1.00  0.00     0.009 C 
ATOM     78  C   UNL A   1      45.501  23.679  24.719  1.00  0.00     0.004 C 
ENDBRANCH  69  71
ENDBRANCH  68  69
ENDBRANCH  67  68
ENDBRANCH  66  67
ENDBRANCH   1  66
TORSDOF 14
ENDMDL
MODEL 3
REMARK VINA RESULT:      -9.7      4.009     11.690
REMARK SMILES O=C(OCCOC(=O)[C@@]1(Cl)C[C@@H]2CC[C@H]1C2)c1ccc(-c2c3nc(c(-c4ccc(S(=O)(=O)[O-])cc4)c4ccc([nH]4)c(-c4ccc(S(=O)(=O)[O-])cc4)c4nc(c(-c5ccc(S(=O)(=O)[O-])cc5)c5ccc2[nH]5)C=C4)C=C3)cc1
REMARK SMILES IDX 3 1 2 2 1 3 17 4 18 5 76 6 19 7 75 8 20 9 21 10 22 11 69 12
REMARK SMILES IDX 23 13 74 14 68 15 70 16 24 17 73 18 67 19 66 20 25 22 55 23
REMARK SMILES IDX 36 24 54 25 37 26 40 27 53 28 71 29 38 30 39 31 52 33 72 34
REMARK SMILES IDX 41 35 26 36 27 37 35 38 28 39 34 40 29 41 30 42 31 43 32 44
REMARK SMILES IDX 33 45 56 46 57 47 65 48 58 49 64 50 59 51 60 52 61 53 62 54
REMARK SMILES IDX 63 55 42 56 43 57 51 58 44 59 50 60 45 61 46 62 47 63 48 64
REMARK SMILES IDX 49 65 4 66 5 67 6 68 7 69 8 70 9 71 11 72 15 73 10 74 12 75
REMARK SMILES IDX 14 76 16 77 13 78
REMARK H PARENT 70 21 40 32
REMARK Flexibility Score: inf
ROOT
ATOM      1  O   UNL A   1      39.747  21.788  26.084  1.00  0.00    -0.458 OA
ENDROOT
BRANCH   1   2
ATOM      2  C   UNL A   1      38.995  22.905  26.186  1.00  0.00     0.338 C 
ATOM      3  O   UNL A   1      37.875  22.902  25.676  1.00  0.00    -0.246 OA
BRANCH   2   4
ATOM      4  C   UNL A   1      39.485  24.190  26.777  1.00  0.00     0.060 A 
ATOM      5  C   UNL A   1      40.244  25.179  26.144  1.00  0.00     0.016 A 
ATOM      6  C   UNL A   1      39.135  24.404  28.117  1.00  0.00     0.016 A 
ATOM      7  C   UNL A   1      40.547  26.390  26.792  1.00  0.00     0.010 A 
ATOM      8  C   UNL A   1      39.394  25.623  28.746  1.00  0.00     0.010 A 
ATOM      9  C   UNL A   1      40.103  26.636  28.092  1.00  0.00    -0.014 A 
BRANCH   9  10
ATOM     10  C   UNL A   1      40.446  27.888  28.817  1.00  0.00     0.031 A 
ATOM     11  C   UNL A   1      41.809  28.002  29.454  1.00  0.00     0.074 A 
ATOM     12  C   UNL A   1      39.547  28.884  28.967  1.00  0.00     0.049 A 
ATOM     13  N   UNL A   1      42.320  28.982  30.151  1.00  0.00    -0.248 NA
ATOM     14  C   UNL A   1      42.696  26.830  29.337  1.00  0.00     0.031 C 
ATOM     15  C   UNL A   1      38.163  28.875  28.483  1.00  0.00     0.029 A 
ATOM     16  N   UNL A   1      39.663  30.105  29.589  1.00  0.00    -0.354 N 
ATOM     17  C   UNL A   1      43.569  28.531  30.562  1.00  0.00     0.074 A 
ATOM     18  C   UNL A   1      43.678  27.149  30.161  1.00  0.00     0.031 C 
ATOM     19  C   UNL A   1      37.567  30.035  28.816  1.00  0.00     0.029 A 
ATOM     20  C   UNL A   1      38.524  30.877  29.526  1.00  0.00     0.049 A 
ATOM     21  H   UNL A   1      40.487  30.401  30.039  1.00  0.00     0.167 HD
ATOM     22  C   UNL A   1      44.583  29.221  31.135  1.00  0.00     0.031 A 
ATOM     23  C   UNL A   1      38.296  32.133  29.960  1.00  0.00     0.031 A 
ATOM     24  C   UNL A   1      44.501  30.612  31.462  1.00  0.00     0.049 A 
ATOM     25  C   UNL A   1      39.439  32.904  30.574  1.00  0.00     0.074 A 
ATOM     26  C   UNL A   1      45.488  31.451  31.943  1.00  0.00     0.029 A 
ATOM     27  N   UNL A   1      43.353  31.377  31.318  1.00  0.00    -0.354 N 
ATOM     28  N   UNL A   1      40.666  32.504  30.820  1.00  0.00    -0.248 NA
ATOM     29  C   UNL A   1      39.184  34.309  30.918  1.00  0.00     0.031 C 
ATOM     30  C   UNL A   1      44.930  32.723  32.106  1.00  0.00     0.029 A 
ATOM     31  C   UNL A   1      43.605  32.680  31.695  1.00  0.00     0.049 A 
ATOM     32  H   UNL A   1      42.486  31.039  30.995  1.00  0.00     0.167 HD
ATOM     33  C   UNL A   1      41.344  33.627  31.284  1.00  0.00     0.074 A 
ATOM     34  C   UNL A   1      40.389  34.716  31.294  1.00  0.00     0.031 C 
ATOM     35  C   UNL A   1      42.642  33.751  31.653  1.00  0.00     0.031 A 
BRANCH  22  36
ATOM     36  C   UNL A   1      45.866  28.467  31.362  1.00  0.00    -0.014 A 
ATOM     37  C   UNL A   1      46.815  28.353  30.325  1.00  0.00     0.010 A 
ATOM     38  C   UNL A   1      46.100  27.805  32.578  1.00  0.00     0.010 A 
ATOM     39  C   UNL A   1      47.921  27.514  30.464  1.00  0.00     0.020 A 
ATOM     40  C   UNL A   1      47.228  26.993  32.735  1.00  0.00     0.020 A 
ATOM     41  C   UNL A   1      48.112  26.825  31.664  1.00  0.00     0.054 A 
BRANCH  41  42
ATOM     42  S   UNL A   1      49.532  25.706  31.798  1.00  0.00     0.124 S 
ATOM     43  O   UNL A   1      49.613  25.163  30.442  1.00  0.00    -0.237 OA
ATOM     44  O   UNL A   1      50.614  26.599  32.184  1.00  0.00    -0.237 OA
ATOM     45  O   UNL A   1      49.117  24.748  32.826  1.00  0.00    -0.744 OA
ENDBRANCH  41  42
ENDBRANCH  22  36
BRANCH  23  46
ATOM     46  C   UNL A   1      36.975  32.792  29.741  1.00  0.00    -0.014 A 
ATOM     47  C   UNL A   1      36.685  33.398  28.504  1.00  0.00     0.010 A 
ATOM     48  C   UNL A   1      36.016  32.853  30.768  1.00  0.00     0.010 A 
ATOM     49  C   UNL A   1      35.483  34.087  28.310  1.00  0.00     0.020 A 
ATOM     50  C   UNL A   1      34.802  33.524  30.570  1.00  0.00     0.020 A 
ATOM     51  C   UNL A   1      34.551  34.151  29.348  1.00  0.00     0.054 A 
BRANCH  51  52
ATOM     52  S   UNL A   1      32.997  35.048  29.066  1.00  0.00     0.124 S 
ATOM     53  O   UNL A   1      32.341  34.214  28.065  1.00  0.00    -0.237 OA
ATOM     54  O   UNL A   1      32.386  35.043  30.393  1.00  0.00    -0.237 OA
ATOM     55  O   UNL A   1      33.438  36.360  28.597  1.00  0.00    -0.744 OA
ENDBRANCH  51  52
ENDBRANCH  23  46
BRANCH  35  56
ATOM     56  C   UNL A   1      43.135  35.123  32.018  1.00  0.00    -0.014 A 
ATOM     57  C   UNL A   1      43.696  35.980  31.057  1.00  0.00     0.010 A 
ATOM     58  C   UNL A   1      42.944  35.589  33.333  1.00  0.00     0.010 A 
ATOM     59  C   UNL A   1      44.075  37.277  31.410  1.00  0.00     0.020 A 
ATOM     60  C   UNL A   1      43.297  36.893  33.681  1.00  0.00     0.020 A 
ATOM     61  C   UNL A   1      43.869  37.726  32.718  1.00  0.00     0.054 A 
BRANCH  61  62
ATOM     62  S   UNL A   1      44.297  39.439  33.134  1.00  0.00     0.124 S 
ATOM     63  O   UNL A   1      44.829  39.934  31.867  1.00  0.00    -0.237 OA
ATOM     64  O   UNL A   1      43.011  40.002  33.539  1.00  0.00    -0.237 OA
ATOM     65  O   UNL A   1      45.275  39.298  34.210  1.00  0.00    -0.744 OA
ENDBRANCH  61  62
ENDBRANCH  35  56
ENDBRANCH   9  10
ENDBRANCH   2   4
ENDBRANCH   1   2
BRANCH   1  66
ATOM     66  C   UNL A   1      40.836  21.335  26.900  1.00  0.00     0.275 C 
BRANCH  66  67
ATOM     67  C   UNL A   1      42.028  20.767  26.133  1.00  0.00     0.274 C 
BRANCH  67  68
ATOM     68  O   UNL A   1      43.285  21.424  26.375  1.00  0.00    -0.461 OA
BRANCH  68  69
ATOM     69  C   UNL A   1      43.505  22.557  25.636  1.00  0.00     0.327 C 
ATOM     70  O   UNL A   1      43.327  22.617  24.422  1.00  0.00    -0.250 OA
BRANCH  69  71
ATOM     71  C   UNL A   1      44.149  23.684  26.470  1.00  0.00     0.145 C 
ATOM     72  C   UNL A   1      45.584  23.330  26.941  1.00  0.00     0.039 C 
ATOM     73  C   UNL A   1      44.392  24.987  25.671  1.00  0.00     0.022 C 
ATOM     74  Cl  UNL A   1      43.050  23.911  27.871  1.00  0.00    -0.106 Cl
ATOM     75  C   UNL A   1      46.445  24.469  26.363  1.00  0.00    -0.008 C 
ATOM     76  C   UNL A   1      44.770  26.181  26.568  1.00  0.00     0.006 C 
ATOM     77  C   UNL A   1      45.759  24.703  25.030  1.00  0.00     0.009 C 
ATOM     78  C   UNL A   1      46.152  25.783  27.102  1.00  0.00     0.004 C 
ENDBRANCH  69  71
ENDBRANCH  68  69
ENDBRANCH  67  68
ENDBRANCH  66  67
ENDBRANCH   1  66
TORSDOF 14
ENDMDL
