MODEL 1
REMARK VINA RESULT:      -9.7      0.000      0.000
REMARK SMILES Cc1ccc2oc(CCCC(=O)OCCOC(=O)c3ccc(-c4c5nc(c(-c6ccc(S(=O)(=O)[O-])cc6)c6ccc([nH]6)c(-c6ccc(S(=O)(=O)[O-])cc6)c6nc(c(-c7ccc(S(=O)(=O)[O-])cc7)c7ccc4[nH]7)C=C6)C=C5)cc3)cc(=O)c2c1
REMARK SMILES IDX 14 1 13 2 11 3 12 4 10 5 9 6 8 7 7 8 1 9 2 10 3 11 83 12
REMARK SMILES IDX 4 13 82 14 5 15 80 16 6 17 79 18 81 19 15 20 16 21 17 22
REMARK SMILES IDX 18 23 19 24 20 25 78 26 21 27 77 28 22 29 23 30 24 31 71 32
REMARK SMILES IDX 25 33 76 34 70 35 72 36 26 37 75 38 69 39 68 40 27 42 57 43
REMARK SMILES IDX 38 44 56 45 39 46 42 47 55 48 73 49 40 50 41 51 54 53 74 54
REMARK SMILES IDX 43 55 28 56 29 57 37 58 30 59 36 60 31 61 32 62 33 63 34 64
REMARK SMILES IDX 35 65 58 66 59 67 67 68 60 69 66 70 61 71 62 72 63 73 64 74
REMARK SMILES IDX 65 75 44 76 45 77 53 78 46 79 52 80 47 81 48 82 49 83 50 84
REMARK SMILES IDX 51 85
REMARK H PARENT 72 41 42 52
REMARK Flexibility Score: inf
ROOT
ATOM      1  C   UNL A   1      33.895  34.328  28.759  1.00  0.00     0.274 C 
ENDROOT
BRANCH   1   2
ATOM      2  O   UNL A   1      32.813  34.609  29.669  1.00  0.00    -0.462 OA
BRANCH   2   3
ATOM      3  C   UNL A   1      32.972  35.647  30.523  1.00  0.00     0.305 C 
ATOM      4  O   UNL A   1      32.198  36.592  30.622  1.00  0.00    -0.252 OA
BRANCH   3   5
ATOM      5  C   UNL A   1      34.232  35.552  31.361  1.00  0.00     0.123 C 
BRANCH   5   6
ATOM      6  C   UNL A   1      34.222  36.203  32.748  1.00  0.00     0.020 C 
BRANCH   6   7
ATOM      7  C   UNL A   1      34.632  35.331  33.949  1.00  0.00     0.076 C 
BRANCH   7   8
ATOM      8  C   UNL A   1      35.673  34.292  33.632  1.00  0.00     0.108 A 
ATOM      9  C   UNL A   1      41.341  31.219  34.013  1.00  0.00     0.044 C 
ATOM     10  C   UNL A   1      40.177  32.158  33.903  1.00  0.00    -0.050 A 
ATOM     11  C   UNL A   1      40.333  33.527  34.163  1.00  0.00     0.007 A 
ATOM     12  C   UNL A   1      38.916  31.668  33.531  1.00  0.00     0.019 A 
ATOM     13  C   UNL A   1      39.249  34.399  34.049  1.00  0.00     0.048 A 
ATOM     14  C   UNL A   1      37.830  32.542  33.442  1.00  0.00     0.065 A 
ATOM     15  C   UNL A   1      38.001  33.899  33.690  1.00  0.00     0.138 A 
ATOM     16  C   UNL A   1      36.475  32.053  33.141  1.00  0.00     0.192 A 
ATOM     17  O   UNL A   1      36.966  34.793  33.609  1.00  0.00    -0.461 OA
ATOM     18  C   UNL A   1      35.376  33.010  33.374  1.00  0.00     0.095 A 
ATOM     19  O   UNL A   1      36.253  30.909  32.770  1.00  0.00    -0.289 OA
ENDBRANCH   7   8
ENDBRANCH   6   7
ENDBRANCH   5   6
ENDBRANCH   3   5
ENDBRANCH   2   3
ENDBRANCH   1   2
BRANCH   1  20
ATOM     20  C   UNL A   1      33.685  32.970  28.089  1.00  0.00     0.275 C 
BRANCH  20  21
ATOM     21  O   UNL A   1      34.242  31.912  28.891  1.00  0.00    -0.458 OA
BRANCH  21  22
ATOM     22  C   UNL A   1      34.351  30.718  28.263  1.00  0.00     0.338 C 
ATOM     23  O   UNL A   1      33.505  30.152  27.592  1.00  0.00    -0.246 OA
BRANCH  22  24
ATOM     24  C   UNL A   1      35.734  30.238  28.382  1.00  0.00     0.060 A 
ATOM     25  C   UNL A   1      36.182  29.845  29.644  1.00  0.00     0.016 A 
ATOM     26  C   UNL A   1      36.602  30.246  27.290  1.00  0.00     0.016 A 
ATOM     27  C   UNL A   1      37.506  29.466  29.830  1.00  0.00     0.010 A 
ATOM     28  C   UNL A   1      37.932  29.858  27.475  1.00  0.00     0.010 A 
ATOM     29  C   UNL A   1      38.394  29.480  28.749  1.00  0.00    -0.014 A 
BRANCH  29  30
ATOM     30  C   UNL A   1      39.822  29.153  28.976  1.00  0.00     0.031 A 
ATOM     31  C   UNL A   1      40.738  30.187  29.563  1.00  0.00     0.074 A 
ATOM     32  C   UNL A   1      40.281  27.920  28.691  1.00  0.00     0.049 A 
ATOM     33  N   UNL A   1      42.026  30.118  29.784  1.00  0.00    -0.248 NA
ATOM     34  C   UNL A   1      40.127  31.469  29.952  1.00  0.00     0.031 C 
ATOM     35  C   UNL A   1      39.471  26.816  28.168  1.00  0.00     0.029 A 
ATOM     36  N   UNL A   1      41.538  27.387  28.806  1.00  0.00    -0.354 N 
ATOM     37  C   UNL A   1      42.385  31.353  30.312  1.00  0.00     0.074 A 
ATOM     38  C   UNL A   1      41.182  32.154  30.370  1.00  0.00     0.031 C 
ATOM     39  C   UNL A   1      40.254  25.735  28.018  1.00  0.00     0.029 A 
ATOM     40  C   UNL A   1      41.623  26.081  28.389  1.00  0.00     0.049 A 
ATOM     41  H   UNL A   1      42.307  27.892  29.157  1.00  0.00     0.167 HD
ATOM     42  C   UNL A   1      43.607  31.777  30.711  1.00  0.00     0.031 A 
ATOM     43  C   UNL A   1      42.688  25.262  28.292  1.00  0.00     0.031 A 
ATOM     44  C   UNL A   1      44.799  30.974  30.656  1.00  0.00     0.049 A 
ATOM     45  C   UNL A   1      44.042  25.771  28.701  1.00  0.00     0.074 A 
ATOM     46  C   UNL A   1      46.087  31.314  31.030  1.00  0.00     0.029 A 
ATOM     47  N   UNL A   1      44.849  29.664  30.199  1.00  0.00    -0.354 N 
ATOM     48  N   UNL A   1      44.369  26.949  29.178  1.00  0.00    -0.248 NA
ATOM     49  C   UNL A   1      45.171  24.842  28.556  1.00  0.00     0.031 C 
ATOM     50  C   UNL A   1      46.922  30.223  30.767  1.00  0.00     0.029 A 
ATOM     51  C   UNL A   1      46.146  29.187  30.271  1.00  0.00     0.049 A 
ATOM     52  H   UNL A   1      44.075  29.151  29.873  1.00  0.00     0.167 HD
ATOM     53  C   UNL A   1      45.738  26.895  29.409  1.00  0.00     0.074 A 
ATOM     54  C   UNL A   1      46.176  25.567  29.032  1.00  0.00     0.031 C 
ATOM     55  C   UNL A   1      46.560  27.861  29.890  1.00  0.00     0.031 A 
BRANCH  42  56
ATOM     56  C   UNL A   1      43.719  33.194  31.203  1.00  0.00    -0.014 A 
ATOM     57  C   UNL A   1      43.942  34.261  30.314  1.00  0.00     0.010 A 
ATOM     58  C   UNL A   1      43.580  33.464  32.577  1.00  0.00     0.010 A 
ATOM     59  C   UNL A   1      44.064  35.567  30.796  1.00  0.00     0.020 A 
ATOM     60  C   UNL A   1      43.680  34.772  33.059  1.00  0.00     0.020 A 
ATOM     61  C   UNL A   1      43.940  35.813  32.167  1.00  0.00     0.054 A 
BRANCH  61  62
ATOM     62  S   UNL A   1      44.096  37.517  32.769  1.00  0.00     0.124 S 
ATOM     63  O   UNL A   1      43.855  38.288  31.551  1.00  0.00    -0.237 OA
ATOM     64  O   UNL A   1      43.047  37.600  33.781  1.00  0.00    -0.237 OA
ATOM     65  O   UNL A   1      45.462  37.579  33.286  1.00  0.00    -0.744 OA
ENDBRANCH  61  62
ENDBRANCH  42  56
BRANCH  43  66
ATOM     66  C   UNL A   1      42.514  23.882  27.764  1.00  0.00    -0.014 A 
ATOM     67  C   UNL A   1      42.632  23.619  26.389  1.00  0.00     0.010 A 
ATOM     68  C   UNL A   1      42.248  22.817  28.646  1.00  0.00     0.010 A 
ATOM     69  C   UNL A   1      42.480  22.317  25.903  1.00  0.00     0.020 A 
ATOM     70  C   UNL A   1      42.119  21.512  28.165  1.00  0.00     0.020 A 
ATOM     71  C   UNL A   1      42.225  21.271  26.795  1.00  0.00     0.054 A 
BRANCH  71  72
ATOM     72  S   UNL A   1      42.092  19.578  26.154  1.00  0.00     0.124 S 
ATOM     73  O   UNL A   1      42.511  18.785  27.305  1.00  0.00    -0.237 OA
ATOM     74  O   UNL A   1      40.679  19.482  25.798  1.00  0.00    -0.237 OA
ATOM     75  O   UNL A   1      43.014  19.572  25.019  1.00  0.00    -0.744 OA
ENDBRANCH  71  72
ENDBRANCH  43  66
BRANCH  55  76
ATOM     76  C   UNL A   1      48.010  27.503  30.067  1.00  0.00    -0.014 A 
ATOM     77  C   UNL A   1      48.974  27.891  29.120  1.00  0.00     0.010 A 
ATOM     78  C   UNL A   1      48.417  26.814  31.223  1.00  0.00     0.010 A 
ATOM     79  C   UNL A   1      50.320  27.568  29.313  1.00  0.00     0.020 A 
ATOM     80  C   UNL A   1      49.765  26.508  31.430  1.00  0.00     0.020 A 
ATOM     81  C   UNL A   1      50.706  26.875  30.465  1.00  0.00     0.054 A 
BRANCH  81  82
ATOM     82  S   UNL A   1      52.463  26.503  30.716  1.00  0.00     0.124 S 
ATOM     83  O   UNL A   1      52.890  26.130  29.371  1.00  0.00    -0.237 OA
ATOM     84  O   UNL A   1      52.995  27.769  31.216  1.00  0.00    -0.237 OA
ATOM     85  O   UNL A   1      52.449  25.414  31.691  1.00  0.00    -0.744 OA
ENDBRANCH  81  82
ENDBRANCH  55  76
ENDBRANCH  29  30
ENDBRANCH  22  24
ENDBRANCH  21  22
ENDBRANCH  20  21
ENDBRANCH   1  20
TORSDOF 17
ENDMDL
MODEL 2
REMARK VINA RESULT:      -9.4      2.786      3.664
REMARK SMILES Cc1ccc2oc(CCCC(=O)OCCOC(=O)c3ccc(-c4c5nc(c(-c6ccc(S(=O)(=O)[O-])cc6)c6ccc([nH]6)c(-c6ccc(S(=O)(=O)[O-])cc6)c6nc(c(-c7ccc(S(=O)(=O)[O-])cc7)c7ccc4[nH]7)C=C6)C=C5)cc3)cc(=O)c2c1
REMARK SMILES IDX 14 1 13 2 11 3 12 4 10 5 9 6 8 7 7 8 1 9 2 10 3 11 83 12
REMARK SMILES IDX 4 13 82 14 5 15 80 16 6 17 79 18 81 19 15 20 16 21 17 22
REMARK SMILES IDX 18 23 19 24 20 25 78 26 21 27 77 28 22 29 23 30 24 31 71 32
REMARK SMILES IDX 25 33 76 34 70 35 72 36 26 37 75 38 69 39 68 40 27 42 57 43
REMARK SMILES IDX 38 44 56 45 39 46 42 47 55 48 73 49 40 50 41 51 54 53 74 54
REMARK SMILES IDX 43 55 28 56 29 57 37 58 30 59 36 60 31 61 32 62 33 63 34 64
REMARK SMILES IDX 35 65 58 66 59 67 67 68 60 69 66 70 61 71 62 72 63 73 64 74
REMARK SMILES IDX 65 75 44 76 45 77 53 78 46 79 52 80 47 81 48 82 49 83 50 84
REMARK SMILES IDX 51 85
REMARK H PARENT 72 41 42 52
REMARK Flexibility Score: inf
ROOT
ATOM      1  C   UNL A   1      33.879  34.547  28.905  1.00  0.00     0.274 C 
ENDROOT
BRANCH   1   2
ATOM      2  O   UNL A   1      32.787  34.754  29.822  1.00  0.00    -0.462 OA
BRANCH   2   3
ATOM      3  C   UNL A   1      32.906  35.765  30.715  1.00  0.00     0.305 C 
ATOM      4  O   UNL A   1      32.295  36.825  30.652  1.00  0.00    -0.252 OA
BRANCH   3   5
ATOM      5  C   UNL A   1      33.899  35.477  31.824  1.00  0.00     0.123 C 
BRANCH   5   6
ATOM      6  C   UNL A   1      33.644  34.257  32.716  1.00  0.00     0.020 C 
BRANCH   6   7
ATOM      7  C   UNL A   1      34.724  33.160  32.752  1.00  0.00     0.076 C 
BRANCH   7   8
ATOM      8  C   UNL A   1      36.065  33.597  32.230  1.00  0.00     0.108 A 
ATOM      9  C   UNL A   1      42.427  34.712  32.323  1.00  0.00     0.044 C 
ATOM     10  C   UNL A   1      40.948  34.585  32.540  1.00  0.00    -0.050 A 
ATOM     11  C   UNL A   1      40.395  34.741  33.820  1.00  0.00     0.007 A 
ATOM     12  C   UNL A   1      40.103  34.312  31.455  1.00  0.00     0.019 A 
ATOM     13  C   UNL A   1      39.018  34.632  34.015  1.00  0.00     0.048 A 
ATOM     14  C   UNL A   1      38.728  34.181  31.661  1.00  0.00     0.065 A 
ATOM     15  C   UNL A   1      38.190  34.350  32.932  1.00  0.00     0.138 A 
ATOM     16  C   UNL A   1      37.819  33.808  30.564  1.00  0.00     0.192 A 
ATOM     17  O   UNL A   1      36.848  34.237  33.179  1.00  0.00    -0.461 OA
ATOM     18  C   UNL A   1      36.457  33.404  30.962  1.00  0.00     0.095 A 
ATOM     19  O   UNL A   1      38.174  33.779  29.394  1.00  0.00    -0.289 OA
ENDBRANCH   7   8
ENDBRANCH   6   7
ENDBRANCH   5   6
ENDBRANCH   3   5
ENDBRANCH   2   3
ENDBRANCH   1   2
BRANCH   1  20
ATOM     20  C   UNL A   1      33.676  33.251  28.122  1.00  0.00     0.275 C 
BRANCH  20  21
ATOM     21  O   UNL A   1      34.298  32.141  28.796  1.00  0.00    -0.458 OA
BRANCH  21  22
ATOM     22  C   UNL A   1      34.673  31.122  27.989  1.00  0.00     0.338 C 
ATOM     23  O   UNL A   1      34.153  30.772  26.944  1.00  0.00    -0.246 OA
BRANCH  22  24
ATOM     24  C   UNL A   1      35.932  30.554  28.488  1.00  0.00     0.060 A 
ATOM     25  C   UNL A   1      35.872  29.702  29.592  1.00  0.00     0.016 A 
ATOM     26  C   UNL A   1      37.161  30.910  27.931  1.00  0.00     0.016 A 
ATOM     27  C   UNL A   1      37.041  29.206  30.159  1.00  0.00     0.010 A 
ATOM     28  C   UNL A   1      38.336  30.407  28.496  1.00  0.00     0.010 A 
ATOM     29  C   UNL A   1      38.283  29.564  29.622  1.00  0.00    -0.014 A 
BRANCH  29  30
ATOM     30  C   UNL A   1      39.524  29.096  30.283  1.00  0.00     0.031 A 
ATOM     31  C   UNL A   1      39.955  29.716  31.581  1.00  0.00     0.074 A 
ATOM     32  C   UNL A   1      40.237  28.093  29.738  1.00  0.00     0.049 A 
ATOM     33  N   UNL A   1      41.034  29.490  32.285  1.00  0.00    -0.248 NA
ATOM     34  C   UNL A   1      39.054  30.725  32.163  1.00  0.00     0.031 C 
ATOM     35  C   UNL A   1      39.886  27.376  28.509  1.00  0.00     0.029 A 
ATOM     36  N   UNL A   1      41.401  27.498  30.151  1.00  0.00    -0.354 N 
ATOM     37  C   UNL A   1      40.957  30.345  33.378  1.00  0.00     0.074 A 
ATOM     38  C   UNL A   1      39.731  31.100  33.240  1.00  0.00     0.031 C 
ATOM     39  C   UNL A   1      40.813  26.433  28.275  1.00  0.00     0.029 A 
ATOM     40  C   UNL A   1      41.842  26.508  29.308  1.00  0.00     0.049 A 
ATOM     41  H   UNL A   1      41.875  27.756  30.975  1.00  0.00     0.167 HD
ATOM     42  C   UNL A   1      41.831  30.485  34.403  1.00  0.00     0.031 A 
ATOM     43  C   UNL A   1      42.962  25.761  29.348  1.00  0.00     0.031 A 
ATOM     44  C   UNL A   1      43.046  29.727  34.538  1.00  0.00     0.049 A 
ATOM     45  C   UNL A   1      43.938  25.966  30.474  1.00  0.00     0.074 A 
ATOM     46  C   UNL A   1      44.001  29.800  35.537  1.00  0.00     0.029 A 
ATOM     47  N   UNL A   1      43.472  28.752  33.648  1.00  0.00    -0.354 N 
ATOM     48  N   UNL A   1      43.861  26.794  31.489  1.00  0.00    -0.248 NA
ATOM     49  C   UNL A   1      45.152  25.138  30.458  1.00  0.00     0.031 C 
ATOM     50  C   UNL A   1      45.023  28.894  35.231  1.00  0.00     0.029 A 
ATOM     51  C   UNL A   1      44.682  28.225  34.066  1.00  0.00     0.049 A 
ATOM     52  H   UNL A   1      42.985  28.477  32.838  1.00  0.00     0.167 HD
ATOM     53  C   UNL A   1      45.008  26.573  32.243  1.00  0.00     0.074 A 
ATOM     54  C   UNL A   1      45.754  25.526  31.575  1.00  0.00     0.031 C 
ATOM     55  C   UNL A   1      45.407  27.183  33.386  1.00  0.00     0.031 A 
BRANCH  42  56
ATOM     56  C   UNL A   1      41.519  31.532  35.437  1.00  0.00    -0.014 A 
ATOM     57  C   UNL A   1      42.406  32.593  35.692  1.00  0.00     0.010 A 
ATOM     58  C   UNL A   1      40.311  31.461  36.153  1.00  0.00     0.010 A 
ATOM     59  C   UNL A   1      42.106  33.543  36.672  1.00  0.00     0.020 A 
ATOM     60  C   UNL A   1      39.998  32.422  37.119  1.00  0.00     0.020 A 
ATOM     61  C   UNL A   1      40.907  33.447  37.386  1.00  0.00     0.054 A 
BRANCH  61  62
ATOM     62  S   UNL A   1      40.537  34.694  38.650  1.00  0.00     0.124 S 
ATOM     63  O   UNL A   1      41.513  35.735  38.338  1.00  0.00    -0.237 OA
ATOM     64  O   UNL A   1      39.145  35.035  38.368  1.00  0.00    -0.237 OA
ATOM     65  O   UNL A   1      40.759  33.988  39.909  1.00  0.00    -0.744 OA
ENDBRANCH  61  62
ENDBRANCH  42  56
BRANCH  43  66
ATOM     66  C   UNL A   1      43.227  24.766  28.275  1.00  0.00    -0.014 A 
ATOM     67  C   UNL A   1      43.962  25.122  27.132  1.00  0.00     0.010 A 
ATOM     68  C   UNL A   1      42.757  23.446  28.405  1.00  0.00     0.010 A 
ATOM     69  C   UNL A   1      44.218  24.177  26.133  1.00  0.00     0.020 A 
ATOM     70  C   UNL A   1      43.030  22.494  27.419  1.00  0.00     0.020 A 
ATOM     71  C   UNL A   1      43.750  22.868  26.284  1.00  0.00     0.054 A 
BRANCH  71  72
ATOM     72  S   UNL A   1      44.144  21.639  25.007  1.00  0.00     0.124 S 
ATOM     73  O   UNL A   1      45.505  21.253  25.369  1.00  0.00    -0.237 OA
ATOM     74  O   UNL A   1      43.119  20.620  25.219  1.00  0.00    -0.237 OA
ATOM     75  O   UNL A   1      44.016  22.391  23.761  1.00  0.00    -0.744 OA
ENDBRANCH  71  72
ENDBRANCH  43  66
BRANCH  55  76
ATOM     76  C   UNL A   1      46.694  26.709  34.005  1.00  0.00    -0.014 A 
ATOM     77  C   UNL A   1      47.921  27.311  33.679  1.00  0.00     0.010 A 
ATOM     78  C   UNL A   1      46.663  25.679  34.962  1.00  0.00     0.010 A 
ATOM     79  C   UNL A   1      49.103  26.872  34.281  1.00  0.00     0.020 A 
ATOM     80  C   UNL A   1      47.840  25.251  35.582  1.00  0.00     0.020 A 
ATOM     81  C   UNL A   1      49.055  25.841  35.226  1.00  0.00     0.054 A 
BRANCH  81  82
ATOM     82  S   UNL A   1      50.595  25.313  36.026  1.00  0.00     0.124 S 
ATOM     83  O   UNL A   1      50.406  23.868  36.123  1.00  0.00    -0.237 OA
ATOM     84  O   UNL A   1      51.619  25.751  35.080  1.00  0.00    -0.237 OA
ATOM     85  O   UNL A   1      50.586  26.031  37.299  1.00  0.00    -0.744 OA
ENDBRANCH  81  82
ENDBRANCH  55  76
ENDBRANCH  29  30
ENDBRANCH  22  24
ENDBRANCH  21  22
ENDBRANCH  20  21
ENDBRANCH   1  20
TORSDOF 17
ENDMDL
MODEL 3
REMARK VINA RESULT:      -9.4      4.075     11.287
REMARK SMILES Cc1ccc2oc(CCCC(=O)OCCOC(=O)c3ccc(-c4c5nc(c(-c6ccc(S(=O)(=O)[O-])cc6)c6ccc([nH]6)c(-c6ccc(S(=O)(=O)[O-])cc6)c6nc(c(-c7ccc(S(=O)(=O)[O-])cc7)c7ccc4[nH]7)C=C6)C=C5)cc3)cc(=O)c2c1
REMARK SMILES IDX 14 1 13 2 11 3 12 4 10 5 9 6 8 7 7 8 1 9 2 10 3 11 83 12
REMARK SMILES IDX 4 13 82 14 5 15 80 16 6 17 79 18 81 19 15 20 16 21 17 22
REMARK SMILES IDX 18 23 19 24 20 25 78 26 21 27 77 28 22 29 23 30 24 31 71 32
REMARK SMILES IDX 25 33 76 34 70 35 72 36 26 37 75 38 69 39 68 40 27 42 57 43
REMARK SMILES IDX 38 44 56 45 39 46 42 47 55 48 73 49 40 50 41 51 54 53 74 54
REMARK SMILES IDX 43 55 28 56 29 57 37 58 30 59 36 60 31 61 32 62 33 63 34 64
REMARK SMILES IDX 35 65 58 66 59 67 67 68 60 69 66 70 61 71 62 72 63 73 64 74
REMARK SMILES IDX 65 75 44 76 45 77 53 78 46 79 52 80 47 81 48 82 49 83 50 84
REMARK SMILES IDX 51 85
REMARK H PARENT 72 41 42 52
REMARK Flexibility Score: inf
ROOT
ATOM      1  C   UNL A   1      36.252  21.417  24.631  1.00  0.00     0.274 C 
ENDROOT
BRANCH   1   2
ATOM      2  O   UNL A   1      35.686  20.135  24.967  1.00  0.00    -0.462 OA
BRANCH   2   3
ATOM      3  C   UNL A   1      34.346  19.993  24.837  1.00  0.00     0.305 C 
ATOM      4  O   UNL A   1      33.748  18.926  24.905  1.00  0.00    -0.252 OA
BRANCH   3   5
ATOM      5  C   UNL A   1      33.623  21.301  24.577  1.00  0.00     0.123 C 
BRANCH   5   6
ATOM      6  C   UNL A   1      32.202  21.234  24.007  1.00  0.00     0.020 C 
BRANCH   6   7
ATOM      7  C   UNL A   1      31.863  22.159  22.824  1.00  0.00     0.076 C 
BRANCH   7   8
ATOM      8  C   UNL A   1      32.264  23.595  23.028  1.00  0.00     0.108 A 
ATOM      9  C   UNL A   1      34.176  28.853  26.256  1.00  0.00     0.044 C 
ATOM     10  C   UNL A   1      33.547  27.607  25.705  1.00  0.00    -0.050 A 
ATOM     11  C   UNL A   1      32.774  26.772  26.525  1.00  0.00     0.007 A 
ATOM     12  C   UNL A   1      33.727  27.271  24.356  1.00  0.00     0.019 A 
ATOM     13  C   UNL A   1      32.183  25.620  26.006  1.00  0.00     0.048 A 
ATOM     14  C   UNL A   1      33.153  26.103  23.848  1.00  0.00     0.065 A 
ATOM     15  C   UNL A   1      32.378  25.290  24.668  1.00  0.00     0.138 A 
ATOM     16  C   UNL A   1      33.391  25.670  22.462  1.00  0.00     0.192 A 
ATOM     17  O   UNL A   1      31.790  24.140  24.211  1.00  0.00    -0.461 OA
ATOM     18  C   UNL A   1      32.992  24.287  22.139  1.00  0.00     0.095 A 
ATOM     19  O   UNL A   1      33.936  26.384  21.632  1.00  0.00    -0.289 OA
ENDBRANCH   7   8
ENDBRANCH   6   7
ENDBRANCH   5   6
ENDBRANCH   3   5
ENDBRANCH   2   3
ENDBRANCH   1   2
BRANCH   1  20
ATOM     20  C   UNL A   1      36.846  22.077  25.876  1.00  0.00     0.275 C 
BRANCH  20  21
ATOM     21  O   UNL A   1      37.857  23.036  25.515  1.00  0.00    -0.458 OA
BRANCH  21  22
ATOM     22  C   UNL A   1      39.017  22.927  26.202  1.00  0.00     0.338 C 
ATOM     23  O   UNL A   1      39.793  21.987  26.206  1.00  0.00    -0.246 OA
BRANCH  22  24
ATOM     24  C   UNL A   1      39.305  24.207  26.862  1.00  0.00     0.060 A 
ATOM     25  C   UNL A   1      40.051  25.152  26.156  1.00  0.00     0.016 A 
ATOM     26  C   UNL A   1      38.916  24.449  28.179  1.00  0.00     0.016 A 
ATOM     27  C   UNL A   1      40.427  26.345  26.764  1.00  0.00     0.010 A 
ATOM     28  C   UNL A   1      39.288  25.651  28.790  1.00  0.00     0.010 A 
ATOM     29  C   UNL A   1      40.057  26.598  28.089  1.00  0.00    -0.014 A 
BRANCH  29  30
ATOM     30  C   UNL A   1      40.532  27.835  28.754  1.00  0.00     0.031 A 
ATOM     31  C   UNL A   1      41.945  27.916  29.253  1.00  0.00     0.074 A 
ATOM     32  C   UNL A   1      39.706  28.892  28.871  1.00  0.00     0.049 A 
ATOM     33  N   UNL A   1      42.533  28.882  29.910  1.00  0.00    -0.248 NA
ATOM     34  C   UNL A   1      42.811  26.757  28.979  1.00  0.00     0.031 C 
ATOM     35  C   UNL A   1      38.329  28.949  28.374  1.00  0.00     0.029 A 
ATOM     36  N   UNL A   1      39.908  30.123  29.440  1.00  0.00    -0.354 N 
ATOM     37  C   UNL A   1      43.829  28.440  30.152  1.00  0.00     0.074 A 
ATOM     38  C   UNL A   1      43.938  27.115  29.579  1.00  0.00     0.031 C 
ATOM     39  C   UNL A   1      37.815  30.158  28.654  1.00  0.00     0.029 A 
ATOM     40  C   UNL A   1      38.806  30.941  29.386  1.00  0.00     0.049 A 
ATOM     41  H   UNL A   1      40.762  30.395  29.847  1.00  0.00     0.167 HD
ATOM     42  C   UNL A   1      44.835  29.081  30.793  1.00  0.00     0.031 A 
ATOM     43  C   UNL A   1      38.608  32.174  29.891  1.00  0.00     0.031 A 
ATOM     44  C   UNL A   1      44.722  30.401  31.356  1.00  0.00     0.049 A 
ATOM     45  C   UNL A   1      39.726  32.848  30.637  1.00  0.00     0.074 A 
ATOM     46  C   UNL A   1      45.681  31.134  32.031  1.00  0.00     0.029 A 
ATOM     47  N   UNL A   1      43.579  31.186  31.305  1.00  0.00    -0.354 N 
ATOM     48  N   UNL A   1      40.939  32.407  30.875  1.00  0.00    -0.248 NA
ATOM     49  C   UNL A   1      39.449  34.183  31.182  1.00  0.00     0.031 C 
ATOM     50  C   UNL A   1      45.107  32.350  32.420  1.00  0.00     0.029 A 
ATOM     51  C   UNL A   1      43.805  32.391  31.947  1.00  0.00     0.049 A 
ATOM     52  H   UNL A   1      42.733  30.924  30.875  1.00  0.00     0.167 HD
ATOM     53  C   UNL A   1      41.576  33.420  31.583  1.00  0.00     0.074 A 
ATOM     54  C   UNL A   1      40.620  34.500  31.723  1.00  0.00     0.031 C 
ATOM     55  C   UNL A   1      42.839  33.452  32.074  1.00  0.00     0.031 A 
BRANCH  42  56
ATOM     56  C   UNL A   1      46.133  28.340  30.956  1.00  0.00    -0.014 A 
ATOM     57  C   UNL A   1      46.355  27.488  32.053  1.00  0.00     0.010 A 
ATOM     58  C   UNL A   1      47.141  28.485  29.986  1.00  0.00     0.010 A 
ATOM     59  C   UNL A   1      47.577  26.825  32.195  1.00  0.00     0.020 A 
ATOM     60  C   UNL A   1      48.356  27.807  30.114  1.00  0.00     0.020 A 
ATOM     61  C   UNL A   1      48.573  26.996  31.229  1.00  0.00     0.054 A 
BRANCH  61  62
ATOM     62  S   UNL A   1      50.150  26.121  31.432  1.00  0.00     0.124 S 
ATOM     63  O   UNL A   1      50.166  25.257  30.254  1.00  0.00    -0.237 OA
ATOM     64  O   UNL A   1      51.125  27.208  31.426  1.00  0.00    -0.237 OA
ATOM     65  O   UNL A   1      50.001  25.430  32.711  1.00  0.00    -0.744 OA
ENDBRANCH  61  62
ENDBRANCH  42  56
BRANCH  43  66
ATOM     66  C   UNL A   1      37.288  32.838  29.724  1.00  0.00    -0.014 A 
ATOM     67  C   UNL A   1      36.395  32.942  30.804  1.00  0.00     0.010 A 
ATOM     68  C   UNL A   1      36.927  33.390  28.480  1.00  0.00     0.010 A 
ATOM     69  C   UNL A   1      35.160  33.579  30.641  1.00  0.00     0.020 A 
ATOM     70  C   UNL A   1      35.705  34.048  28.322  1.00  0.00     0.020 A 
ATOM     71  C   UNL A   1      34.824  34.129  29.401  1.00  0.00     0.054 A 
BRANCH  71  72
ATOM     72  S   UNL A   1      33.245  35.007  29.225  1.00  0.00     0.124 S 
ATOM     73  O   UNL A   1      32.702  34.926  30.578  1.00  0.00    -0.237 OA
ATOM     74  O   UNL A   1      33.667  36.336  28.790  1.00  0.00    -0.237 OA
ATOM     75  O   UNL A   1      32.533  34.226  28.216  1.00  0.00    -0.744 OA
ENDBRANCH  71  72
ENDBRANCH  43  66
BRANCH  55  76
ATOM     76  C   UNL A   1      43.270  34.710  32.779  1.00  0.00    -0.014 A 
ATOM     77  C   UNL A   1      43.849  35.776  32.071  1.00  0.00     0.010 A 
ATOM     78  C   UNL A   1      43.044  34.841  34.161  1.00  0.00     0.010 A 
ATOM     79  C   UNL A   1      44.222  36.945  32.740  1.00  0.00     0.020 A 
ATOM     80  C   UNL A   1      43.395  36.016  34.829  1.00  0.00     0.020 A 
ATOM     81  C   UNL A   1      43.996  37.056  34.116  1.00  0.00     0.054 A 
BRANCH  81  82
ATOM     82  S   UNL A   1      44.449  38.597  34.958  1.00  0.00     0.124 S 
ATOM     83  O   UNL A   1      44.179  38.271  36.355  1.00  0.00    -0.237 OA
ATOM     84  O   UNL A   1      45.860  38.754  34.611  1.00  0.00    -0.237 OA
ATOM     85  O   UNL A   1      43.556  39.590  34.364  1.00  0.00    -0.744 OA
ENDBRANCH  81  82
ENDBRANCH  55  76
ENDBRANCH  29  30
ENDBRANCH  22  24
ENDBRANCH  21  22
ENDBRANCH  20  21
ENDBRANCH   1  20
TORSDOF 17
ENDMDL
