MODEL 1
REMARK VINA RESULT:     -12.7      0.000      0.000
REMARK SMILES O=C(OCCOC(=O)c1ccc(-c2c3nc(c(-c4ccc(S(=O)(=O)[O-])cc4)c4ccc([nH]4)c(-c4ccc(S(=O)(=O)[O-])cc4)c4nc(c(-c5ccc(S(=O)(=O)[O-])cc5)c5ccc2[nH]5)C=C4)C=C3)cc1)C1=Cc2c(Cl)cc(Cl)cc2O[C@@H]1C(F)(F)F
REMARK SMILES IDX 5 1 4 2 3 3 2 4 1 5 69 6 70 7 80 8 71 9 79 10 72 11 78 12
REMARK SMILES IDX 73 13 74 14 77 15 75 16 76 17 81 18 82 19 83 20 84 21 6 22
REMARK SMILES IDX 7 23 8 24 9 25 10 26 68 27 11 28 67 29 12 30 13 31 14 32
REMARK SMILES IDX 61 33 15 34 66 35 60 36 62 37 16 38 65 39 59 40 58 41 17 43
REMARK SMILES IDX 47 44 28 45 46 46 29 47 32 48 45 49 63 50 30 51 31 52 44 54
REMARK SMILES IDX 64 55 33 56 18 57 19 58 27 59 20 60 26 61 21 62 22 63 23 64
REMARK SMILES IDX 24 65 25 66 48 67 49 68 57 69 50 70 56 71 51 72 52 73 53 74
REMARK SMILES IDX 54 75 55 76 34 77 35 78 43 79 36 80 42 81 37 82 38 83 39 84
REMARK SMILES IDX 40 85 41 86
REMARK H PARENT 62 42 32 53
REMARK Flexibility Score: inf
ROOT
ATOM      1  C   UNL A   1      33.589  31.589  27.696  1.00  0.00     0.275 C 
ENDROOT
BRANCH   1   2
ATOM      2  C   UNL A   1      32.376  29.863  27.200  1.00  0.00     0.275 C 
BRANCH   2   3
ATOM      3  O   UNL A   1      32.863  28.414  26.978  1.00  0.00    -0.459 OA
BRANCH   3   4
ATOM      4  C   UNL A   1      31.892  27.603  26.539  1.00  0.00     0.338 C 
ATOM      5  O   UNL A   1      31.090  26.965  27.170  1.00  0.00    -0.246 OA
BRANCH   4   6
ATOM      6  C   UNL A   1      32.446  27.440  25.212  1.00  0.00     0.087 C 
ATOM      7  C   UNL A   1      33.461  26.415  25.123  1.00  0.00     0.029 C 
ATOM      8  C   UNL A   1      30.754  27.430  24.320  1.00  0.00     0.316 C 
ATOM      9  C   UNL A   1      33.200  24.827  24.337  1.00  0.00     0.036 A 
ATOM     10  O   UNL A   1      30.382  25.682  23.553  1.00  0.00    -0.475 OA
ATOM     11  C   UNL A   1      34.172  23.865  24.425  1.00  0.00     0.053 A 
ATOM     12  C   UNL A   1      31.660  24.365  23.676  1.00  0.00     0.130 A 
ATOM     13  Cl  UNL A   1      35.745  24.163  25.038  1.00  0.00    -0.083 Cl
ATOM     14  C   UNL A   1      33.793  22.583  24.009  1.00  0.00     0.042 A 
ATOM     15  C   UNL A   1      31.368  23.089  23.284  1.00  0.00     0.067 A 
ATOM     16  C   UNL A   1      32.474  22.221  23.493  1.00  0.00     0.046 A 
ATOM     17  Cl  UNL A   1      32.269  20.532  23.139  1.00  0.00    -0.084 Cl
BRANCH   8  18
ATOM     18  C   UNL A   1      31.183  28.886  23.768  1.00  0.00     0.430 C 
ATOM     19  F   UNL A   1      32.452  29.055  23.512  1.00  0.00    -0.167 F 
ATOM     20  F   UNL A   1      30.600  29.063  22.546  1.00  0.00    -0.167 F 
ATOM     21  F   UNL A   1      30.774  29.953  24.499  1.00  0.00    -0.167 F 
ENDBRANCH   8  18
ENDBRANCH   4   6
ENDBRANCH   3   4
ENDBRANCH   2   3
ENDBRANCH   1   2
BRANCH   1  22
ATOM     22  O   UNL A   1      34.287  31.857  29.299  1.00  0.00    -0.458 OA
BRANCH  22  23
ATOM     23  C   UNL A   1      35.528  32.076  29.902  1.00  0.00     0.338 C 
ATOM     24  O   UNL A   1      35.865  32.966  30.662  1.00  0.00    -0.246 OA
BRANCH  23  25
ATOM     25  C   UNL A   1      36.360  30.831  29.727  1.00  0.00     0.060 A 
ATOM     26  C   UNL A   1      36.809  30.460  28.434  1.00  0.00     0.016 A 
ATOM     27  C   UNL A   1      37.025  30.345  30.848  1.00  0.00     0.016 A 
ATOM     28  C   UNL A   1      38.101  29.886  28.288  1.00  0.00     0.010 A 
ATOM     29  C   UNL A   1      38.285  29.758  30.695  1.00  0.00     0.010 A 
ATOM     30  C   UNL A   1      38.892  29.637  29.428  1.00  0.00    -0.014 A 
BRANCH  30  31
ATOM     31  C   UNL A   1      40.285  29.090  29.373  1.00  0.00     0.031 A 
ATOM     32  C   UNL A   1      41.370  30.104  29.568  1.00  0.00     0.074 A 
ATOM     33  C   UNL A   1      40.614  27.824  29.015  1.00  0.00     0.049 A 
ATOM     34  N   UNL A   1      42.654  29.998  29.365  1.00  0.00    -0.248 NA
ATOM     35  C   UNL A   1      40.926  31.437  30.009  1.00  0.00     0.031 C 
ATOM     36  C   UNL A   1      39.685  26.716  28.789  1.00  0.00     0.029 A 
ATOM     37  N   UNL A   1      41.849  27.253  28.748  1.00  0.00    -0.354 N 
ATOM     38  C   UNL A   1      43.164  31.260  29.621  1.00  0.00     0.074 A 
ATOM     39  C   UNL A   1      42.054  32.121  29.959  1.00  0.00     0.031 C 
ATOM     40  C   UNL A   1      40.371  25.617  28.408  1.00  0.00     0.029 A 
ATOM     41  C   UNL A   1      41.796  25.936  28.323  1.00  0.00     0.049 A 
ATOM     42  H   UNL A   1      42.696  27.744  28.853  1.00  0.00     0.167 HD
ATOM     43  C   UNL A   1      44.446  31.676  29.585  1.00  0.00     0.031 A 
ATOM     44  C   UNL A   1      42.773  25.097  27.898  1.00  0.00     0.031 A 
ATOM     45  C   UNL A   1      45.557  30.840  29.250  1.00  0.00     0.049 A 
ATOM     46  C   UNL A   1      44.203  25.607  27.830  1.00  0.00     0.074 A 
ATOM     47  C   UNL A   1      46.898  31.171  29.237  1.00  0.00     0.029 A 
ATOM     48  N   UNL A   1      45.459  29.515  28.859  1.00  0.00    -0.354 N 
ATOM     49  N   UNL A   1      44.677  26.783  28.172  1.00  0.00    -0.248 NA
ATOM     50  C   UNL A   1      45.229  24.683  27.315  1.00  0.00     0.031 C 
ATOM     51  C   UNL A   1      47.611  30.062  28.776  1.00  0.00     0.029 A 
ATOM     52  C   UNL A   1      46.717  29.023  28.567  1.00  0.00     0.049 A 
ATOM     53  H   UNL A   1      44.621  29.003  28.799  1.00  0.00     0.167 HD
ATOM     54  C   UNL A   1      46.052  26.723  27.943  1.00  0.00     0.074 A 
ATOM     55  C   UNL A   1      46.341  25.393  27.455  1.00  0.00     0.031 C 
ATOM     56  C   UNL A   1      46.991  27.686  28.111  1.00  0.00     0.031 A 
BRANCH  43  57
ATOM     57  C   UNL A   1      44.694  33.120  29.900  1.00  0.00    -0.014 A 
ATOM     58  C   UNL A   1      44.667  34.093  28.884  1.00  0.00     0.010 A 
ATOM     59  C   UNL A   1      44.951  33.505  31.227  1.00  0.00     0.010 A 
ATOM     60  C   UNL A   1      44.919  35.428  29.189  1.00  0.00     0.020 A 
ATOM     61  C   UNL A   1      45.171  34.845  31.540  1.00  0.00     0.020 A 
ATOM     62  C   UNL A   1      45.162  35.796  30.517  1.00  0.00     0.054 A 
BRANCH  62  63
ATOM     63  S   UNL A   1      45.417  37.550  30.889  1.00  0.00     0.124 S 
ATOM     64  O   UNL A   1      46.791  37.756  30.436  1.00  0.00    -0.237 OA
ATOM     65  O   UNL A   1      44.386  38.198  30.082  1.00  0.00    -0.237 OA
ATOM     66  O   UNL A   1      45.219  37.631  32.333  1.00  0.00    -0.744 OA
ENDBRANCH  62  63
ENDBRANCH  43  57
BRANCH  44  67
ATOM     67  C   UNL A   1      42.490  23.688  27.449  1.00  0.00    -0.014 A 
ATOM     68  C   UNL A   1      42.561  22.611  28.358  1.00  0.00     0.010 A 
ATOM     69  C   UNL A   1      42.276  23.393  26.089  1.00  0.00     0.010 A 
ATOM     70  C   UNL A   1      42.477  21.282  27.915  1.00  0.00     0.020 A 
ATOM     71  C   UNL A   1      42.157  22.066  25.645  1.00  0.00     0.020 A 
ATOM     72  C   UNL A   1      42.283  21.017  26.557  1.00  0.00     0.054 A 
BRANCH  72  73
ATOM     73  S   UNL A   1      42.188  19.287  26.001  1.00  0.00     0.124 S 
ATOM     74  O   UNL A   1      42.720  18.565  27.151  1.00  0.00    -0.237 OA
ATOM     75  O   UNL A   1      40.759  19.112  25.750  1.00  0.00    -0.237 OA
ATOM     76  O   UNL A   1      43.029  19.265  24.805  1.00  0.00    -0.744 OA
ENDBRANCH  72  73
ENDBRANCH  44  67
BRANCH  56  77
ATOM     77  C   UNL A   1      48.429  27.349  27.811  1.00  0.00    -0.014 A 
ATOM     78  C   UNL A   1      49.196  26.577  28.699  1.00  0.00     0.010 A 
ATOM     79  C   UNL A   1      48.974  27.701  26.561  1.00  0.00     0.010 A 
ATOM     80  C   UNL A   1      50.485  26.167  28.346  1.00  0.00     0.020 A 
ATOM     81  C   UNL A   1      50.248  27.267  26.191  1.00  0.00     0.020 A 
ATOM     82  C   UNL A   1      50.999  26.505  27.089  1.00  0.00     0.054 A 
BRANCH  82  83
ATOM     83  S   UNL A   1      52.636  25.881  26.621  1.00  0.00     0.124 S 
ATOM     84  O   UNL A   1      53.065  26.864  25.630  1.00  0.00    -0.237 OA
ATOM     85  O   UNL A   1      53.362  25.906  27.887  1.00  0.00    -0.237 OA
ATOM     86  O   UNL A   1      52.361  24.546  26.094  1.00  0.00    -0.744 OA
ENDBRANCH  82  83
ENDBRANCH  56  77
ENDBRANCH  30  31
ENDBRANCH  23  25
ENDBRANCH  22  23
ENDBRANCH   1  22
TORSDOF 15
ENDMDL
MODEL 2
REMARK VINA RESULT:     -12.6      4.682     10.377
REMARK SMILES O=C(OCCOC(=O)c1ccc(-c2c3nc(c(-c4ccc(S(=O)(=O)[O-])cc4)c4ccc([nH]4)c(-c4ccc(S(=O)(=O)[O-])cc4)c4nc(c(-c5ccc(S(=O)(=O)[O-])cc5)c5ccc2[nH]5)C=C4)C=C3)cc1)C1=Cc2c(Cl)cc(Cl)cc2O[C@@H]1C(F)(F)F
REMARK SMILES IDX 5 1 4 2 3 3 2 4 1 5 69 6 70 7 80 8 71 9 79 10 72 11 78 12
REMARK SMILES IDX 73 13 74 14 77 15 75 16 76 17 81 18 82 19 83 20 84 21 6 22
REMARK SMILES IDX 7 23 8 24 9 25 10 26 68 27 11 28 67 29 12 30 13 31 14 32
REMARK SMILES IDX 61 33 15 34 66 35 60 36 62 37 16 38 65 39 59 40 58 41 17 43
REMARK SMILES IDX 47 44 28 45 46 46 29 47 32 48 45 49 63 50 30 51 31 52 44 54
REMARK SMILES IDX 64 55 33 56 18 57 19 58 27 59 20 60 26 61 21 62 22 63 23 64
REMARK SMILES IDX 24 65 25 66 48 67 49 68 57 69 50 70 56 71 51 72 52 73 53 74
REMARK SMILES IDX 54 75 55 76 34 77 35 78 43 79 36 80 42 81 37 82 38 83 39 84
REMARK SMILES IDX 40 85 41 86
REMARK H PARENT 62 42 32 53
REMARK Flexibility Score: inf
ROOT
ATOM      1  C   UNL A   1      38.831  21.184  25.483  1.00  0.00     0.275 C 
ENDROOT
BRANCH   1   2
ATOM      2  C   UNL A   1      37.226  22.492  24.840  1.00  0.00     0.275 C 
BRANCH   2   3
ATOM      3  O   UNL A   1      36.040  22.998  25.688  1.00  0.00    -0.459 OA
BRANCH   3   4
ATOM      4  C   UNL A   1      34.934  23.204  24.962  1.00  0.00     0.338 C 
ATOM      5  O   UNL A   1      34.782  23.138  23.769  1.00  0.00    -0.246 OA
BRANCH   4   6
ATOM      6  C   UNL A   1      34.226  23.924  25.999  1.00  0.00     0.087 C 
ATOM      7  C   UNL A   1      34.098  25.341  25.746  1.00  0.00     0.029 C 
ATOM      8  C   UNL A   1      32.789  22.668  26.129  1.00  0.00     0.316 C 
ATOM      9  C   UNL A   1      32.561  26.127  25.268  1.00  0.00     0.036 A 
ATOM     10  O   UNL A   1      31.122  23.452  25.507  1.00  0.00    -0.475 OA
ATOM     11  C   UNL A   1      32.566  27.450  24.910  1.00  0.00     0.053 A 
ATOM     12  C   UNL A   1      31.104  25.220  25.000  1.00  0.00     0.130 A 
ATOM     13  Cl  UNL A   1      33.917  28.484  25.123  1.00  0.00    -0.083 Cl
ATOM     14  C   UNL A   1      31.389  27.919  24.314  1.00  0.00     0.042 A 
ATOM     15  C   UNL A   1      29.988  25.753  24.416  1.00  0.00     0.067 A 
ATOM     16  C   UNL A   1      30.192  27.116  24.068  1.00  0.00     0.046 A 
ATOM     17  Cl  UNL A   1      28.917  27.947  23.230  1.00  0.00    -0.084 Cl
BRANCH   8  18
ATOM     18  C   UNL A   1      33.438  22.270  27.555  1.00  0.00     0.430 C 
ATOM     19  F   UNL A   1      34.145  23.196  28.145  1.00  0.00    -0.167 F 
ATOM     20  F   UNL A   1      32.419  22.056  28.438  1.00  0.00    -0.167 F 
ATOM     21  F   UNL A   1      34.166  21.126  27.588  1.00  0.00    -0.167 F 
ENDBRANCH   8  18
ENDBRANCH   4   6
ENDBRANCH   3   4
ENDBRANCH   2   3
ENDBRANCH   1   2
BRANCH   1  22
ATOM     22  O   UNL A   1      40.286  21.765  26.304  1.00  0.00    -0.458 OA
BRANCH  22  23
ATOM     23  C   UNL A   1      41.289  22.726  26.151  1.00  0.00     0.338 C 
ATOM     24  O   UNL A   1      42.382  22.618  25.625  1.00  0.00    -0.246 OA
BRANCH  23  25
ATOM     25  C   UNL A   1      40.695  24.076  26.463  1.00  0.00     0.060 A 
ATOM     26  C   UNL A   1      39.723  24.198  27.489  1.00  0.00     0.016 A 
ATOM     27  C   UNL A   1      41.415  25.198  26.066  1.00  0.00     0.016 A 
ATOM     28  C   UNL A   1      39.730  25.355  28.315  1.00  0.00     0.010 A 
ATOM     29  C   UNL A   1      41.397  26.342  26.870  1.00  0.00     0.010 A 
ATOM     30  C   UNL A   1      40.656  26.388  28.068  1.00  0.00    -0.014 A 
BRANCH  30  31
ATOM     31  C   UNL A   1      40.779  27.617  28.916  1.00  0.00     0.031 A 
ATOM     32  C   UNL A   1      41.896  27.588  29.913  1.00  0.00     0.074 A 
ATOM     33  C   UNL A   1      39.887  28.638  28.947  1.00  0.00     0.049 A 
ATOM     34  N   UNL A   1      42.133  28.380  30.920  1.00  0.00    -0.248 NA
ATOM     35  C   UNL A   1      42.849  26.473  29.771  1.00  0.00     0.031 C 
ATOM     36  C   UNL A   1      38.745  28.822  28.050  1.00  0.00     0.029 A 
ATOM     37  N   UNL A   1      39.786  29.724  29.803  1.00  0.00    -0.354 N 
ATOM     38  C   UNL A   1      43.242  27.839  31.551  1.00  0.00     0.074 A 
ATOM     39  C   UNL A   1      43.608  26.637  30.838  1.00  0.00     0.031 C 
ATOM     40  C   UNL A   1      38.060  29.929  28.406  1.00  0.00     0.029 A 
ATOM     41  C   UNL A   1      38.682  30.531  29.585  1.00  0.00     0.049 A 
ATOM     42  H   UNL A   1      40.447  29.907  30.510  1.00  0.00     0.167 HD
ATOM     43  C   UNL A   1      43.908  28.298  32.630  1.00  0.00     0.031 A 
ATOM     44  C   UNL A   1      38.218  31.609  30.264  1.00  0.00     0.031 A 
ATOM     45  C   UNL A   1      43.558  29.483  33.350  1.00  0.00     0.049 A 
ATOM     46  C   UNL A   1      38.968  32.078  31.500  1.00  0.00     0.074 A 
ATOM     47  C   UNL A   1      44.211  30.047  34.430  1.00  0.00     0.029 A 
ATOM     48  N   UNL A   1      42.459  30.279  33.077  1.00  0.00    -0.354 N 
ATOM     49  N   UNL A   1      40.075  31.606  32.023  1.00  0.00    -0.248 NA
ATOM     50  C   UNL A   1      38.405  33.223  32.241  1.00  0.00     0.031 C 
ATOM     51  C   UNL A   1      43.470  31.153  34.851  1.00  0.00     0.029 A 
ATOM     52  C   UNL A   1      42.394  31.313  33.991  1.00  0.00     0.049 A 
ATOM     53  H   UNL A   1      41.821  30.130  32.342  1.00  0.00     0.167 HD
ATOM     54  C   UNL A   1      40.352  32.411  33.127  1.00  0.00     0.074 A 
ATOM     55  C   UNL A   1      39.314  33.416  33.188  1.00  0.00     0.031 C 
ATOM     56  C   UNL A   1      41.370  32.323  34.019  1.00  0.00     0.031 A 
BRANCH  43  57
ATOM     57  C   UNL A   1      45.074  27.483  33.098  1.00  0.00    -0.014 A 
ATOM     58  C   UNL A   1      46.373  27.751  32.631  1.00  0.00     0.010 A 
ATOM     59  C   UNL A   1      44.866  26.442  34.019  1.00  0.00     0.010 A 
ATOM     60  C   UNL A   1      47.445  26.973  33.060  1.00  0.00     0.020 A 
ATOM     61  C   UNL A   1      45.942  25.682  34.475  1.00  0.00     0.020 A 
ATOM     62  C   UNL A   1      47.223  25.948  33.985  1.00  0.00     0.054 A 
BRANCH  62  63
ATOM     63  S   UNL A   1      48.649  24.999  34.575  1.00  0.00     0.124 S 
ATOM     64  O   UNL A   1      49.231  24.522  33.323  1.00  0.00    -0.237 OA
ATOM     65  O   UNL A   1      49.428  26.009  35.286  1.00  0.00    -0.237 OA
ATOM     66  O   UNL A   1      48.053  23.966  35.418  1.00  0.00    -0.744 OA
ENDBRANCH  62  63
ENDBRANCH  43  57
BRANCH  44  67
ATOM     67  C   UNL A   1      36.962  32.337  29.865  1.00  0.00    -0.014 A 
ATOM     68  C   UNL A   1      37.013  33.439  28.985  1.00  0.00     0.010 A 
ATOM     69  C   UNL A   1      35.726  32.021  30.458  1.00  0.00     0.010 A 
ATOM     70  C   UNL A   1      35.879  34.232  28.749  1.00  0.00     0.020 A 
ATOM     71  C   UNL A   1      34.580  32.791  30.200  1.00  0.00     0.020 A 
ATOM     72  C   UNL A   1      34.668  33.907  29.366  1.00  0.00     0.054 A 
BRANCH  72  73
ATOM     73  S   UNL A   1      33.212  34.953  29.057  1.00  0.00     0.124 S 
ATOM     74  O   UNL A   1      32.578  34.991  30.371  1.00  0.00    -0.237 OA
ATOM     75  O   UNL A   1      33.811  36.207  28.609  1.00  0.00    -0.237 OA
ATOM     76  O   UNL A   1      32.476  34.221  28.029  1.00  0.00    -0.744 OA
ENDBRANCH  72  73
ENDBRANCH  44  67
BRANCH  56  77
ATOM     77  C   UNL A   1      41.453  33.349  35.120  1.00  0.00    -0.014 A 
ATOM     78  C   UNL A   1      40.933  33.087  36.398  1.00  0.00     0.010 A 
ATOM     79  C   UNL A   1      42.181  34.535  34.905  1.00  0.00     0.010 A 
ATOM     80  C   UNL A   1      41.133  33.996  37.442  1.00  0.00     0.020 A 
ATOM     81  C   UNL A   1      42.410  35.431  35.951  1.00  0.00     0.020 A 
ATOM     82  C   UNL A   1      41.880  35.158  37.214  1.00  0.00     0.054 A 
BRANCH  82  83
ATOM     83  S   UNL A   1      42.203  36.273  38.607  1.00  0.00     0.124 S 
ATOM     84  O   UNL A   1      43.528  36.793  38.280  1.00  0.00    -0.237 OA
ATOM     85  O   UNL A   1      41.107  37.233  38.509  1.00  0.00    -0.237 OA
ATOM     86  O   UNL A   1      42.151  35.395  39.774  1.00  0.00    -0.744 OA
ENDBRANCH  82  83
ENDBRANCH  56  77
ENDBRANCH  30  31
ENDBRANCH  23  25
ENDBRANCH  22  23
ENDBRANCH   1  22
TORSDOF 15
ENDMDL
MODEL 3
REMARK VINA RESULT:     -12.5      6.196     11.566
REMARK SMILES O=C(OCCOC(=O)c1ccc(-c2c3nc(c(-c4ccc(S(=O)(=O)[O-])cc4)c4ccc([nH]4)c(-c4ccc(S(=O)(=O)[O-])cc4)c4nc(c(-c5ccc(S(=O)(=O)[O-])cc5)c5ccc2[nH]5)C=C4)C=C3)cc1)C1=Cc2c(Cl)cc(Cl)cc2O[C@@H]1C(F)(F)F
REMARK SMILES IDX 5 1 4 2 3 3 2 4 1 5 69 6 70 7 80 8 71 9 79 10 72 11 78 12
REMARK SMILES IDX 73 13 74 14 77 15 75 16 76 17 81 18 82 19 83 20 84 21 6 22
REMARK SMILES IDX 7 23 8 24 9 25 10 26 68 27 11 28 67 29 12 30 13 31 14 32
REMARK SMILES IDX 61 33 15 34 66 35 60 36 62 37 16 38 65 39 59 40 58 41 17 43
REMARK SMILES IDX 47 44 28 45 46 46 29 47 32 48 45 49 63 50 30 51 31 52 44 54
REMARK SMILES IDX 64 55 33 56 18 57 19 58 27 59 20 60 26 61 21 62 22 63 23 64
REMARK SMILES IDX 24 65 25 66 48 67 49 68 57 69 50 70 56 71 51 72 52 73 53 74
REMARK SMILES IDX 54 75 55 76 34 77 35 78 43 79 36 80 42 81 37 82 38 83 39 84
REMARK SMILES IDX 40 85 41 86
REMARK H PARENT 62 42 32 53
REMARK Flexibility Score: inf
ROOT
ATOM      1  C   UNL A   1      39.442  22.496  26.408  1.00  0.00     0.275 C 
ENDROOT
BRANCH   1   2
ATOM      2  C   UNL A   1      37.701  22.427  25.119  1.00  0.00     0.275 C 
BRANCH   2   3
ATOM      3  O   UNL A   1      36.787  23.607  24.724  1.00  0.00    -0.459 OA
BRANCH   3   4
ATOM      4  C   UNL A   1      35.756  23.230  23.958  1.00  0.00     0.338 C 
ATOM      5  O   UNL A   1      35.626  23.307  22.763  1.00  0.00    -0.246 OA
BRANCH   4   6
ATOM      6  C   UNL A   1      34.801  23.165  25.043  1.00  0.00     0.087 C 
ATOM      7  C   UNL A   1      34.341  24.457  25.497  1.00  0.00     0.029 C 
ATOM      8  C   UNL A   1      33.723  21.802  24.242  1.00  0.00     0.316 C 
ATOM      9  C   UNL A   1      32.702  25.100  25.160  1.00  0.00     0.036 A 
ATOM     10  O   UNL A   1      31.973  22.496  23.755  1.00  0.00    -0.475 OA
ATOM     11  C   UNL A   1      32.403  26.392  25.506  1.00  0.00     0.053 A 
ATOM     12  C   UNL A   1      31.552  24.234  24.188  1.00  0.00     0.130 A 
ATOM     13  Cl  UNL A   1      33.424  27.374  26.471  1.00  0.00    -0.083 Cl
ATOM     14  C   UNL A   1      31.203  26.893  24.988  1.00  0.00     0.042 A 
ATOM     15  C   UNL A   1      30.393  24.793  23.725  1.00  0.00     0.067 A 
ATOM     16  C   UNL A   1      30.275  26.147  24.140  1.00  0.00     0.046 A 
ATOM     17  Cl  UNL A   1      28.909  27.061  23.575  1.00  0.00    -0.084 Cl
BRANCH   8  18
ATOM     18  C   UNL A   1      34.324  20.835  25.388  1.00  0.00     0.430 C 
ATOM     19  F   UNL A   1      34.472  21.366  26.572  1.00  0.00    -0.167 F 
ATOM     20  F   UNL A   1      33.421  19.836  25.614  1.00  0.00    -0.167 F 
ATOM     21  F   UNL A   1      35.480  20.191  25.089  1.00  0.00    -0.167 F 
ENDBRANCH   8  18
ENDBRANCH   4   6
ENDBRANCH   3   4
ENDBRANCH   2   3
ENDBRANCH   1   2
BRANCH   1  22
ATOM     22  O   UNL A   1      39.916  23.933  27.324  1.00  0.00    -0.458 OA
BRANCH  22  23
ATOM     23  C   UNL A   1      40.764  25.038  27.218  1.00  0.00     0.338 C 
ATOM     24  O   UNL A   1      41.773  25.169  26.548  1.00  0.00    -0.246 OA
BRANCH  23  25
ATOM     25  C   UNL A   1      40.067  26.224  27.834  1.00  0.00     0.060 A 
ATOM     26  C   UNL A   1      39.172  26.031  28.917  1.00  0.00     0.016 A 
ATOM     27  C   UNL A   1      40.641  27.476  27.636  1.00  0.00     0.016 A 
ATOM     28  C   UNL A   1      39.131  26.994  29.962  1.00  0.00     0.010 A 
ATOM     29  C   UNL A   1      40.575  28.428  28.658  1.00  0.00     0.010 A 
ATOM     30  C   UNL A   1      39.929  28.153  29.880  1.00  0.00    -0.014 A 
BRANCH  30  31
ATOM     31  C   UNL A   1      39.998  29.194  30.954  1.00  0.00     0.031 A 
ATOM     32  C   UNL A   1      41.098  29.002  31.952  1.00  0.00     0.074 A 
ATOM     33  C   UNL A   1      39.073  30.165  31.163  1.00  0.00     0.049 A 
ATOM     34  N   UNL A   1      41.292  29.588  33.100  1.00  0.00    -0.248 NA
ATOM     35  C   UNL A   1      42.088  27.964  31.618  1.00  0.00     0.031 C 
ATOM     36  C   UNL A   1      37.942  30.488  30.292  1.00  0.00     0.029 A 
ATOM     37  N   UNL A   1      38.923  31.059  32.212  1.00  0.00    -0.354 N 
ATOM     38  C   UNL A   1      42.405  28.965  33.639  1.00  0.00     0.074 A 
ATOM     39  C   UNL A   1      42.823  27.937  32.714  1.00  0.00     0.031 C 
ATOM     40  C   UNL A   1      37.215  31.484  30.842  1.00  0.00     0.029 A 
ATOM     41  C   UNL A   1      37.797  31.861  32.129  1.00  0.00     0.049 A 
ATOM     42  H   UNL A   1      39.565  31.118  32.956  1.00  0.00     0.167 HD
ATOM     43  C   UNL A   1      43.038  29.223  34.802  1.00  0.00     0.031 A 
ATOM     44  C   UNL A   1      37.287  32.772  32.995  1.00  0.00     0.031 A 
ATOM     45  C   UNL A   1      42.638  30.233  35.732  1.00  0.00     0.049 A 
ATOM     46  C   UNL A   1      37.999  33.011  34.316  1.00  0.00     0.074 A 
ATOM     47  C   UNL A   1      43.253  30.593  36.915  1.00  0.00     0.029 A 
ATOM     48  N   UNL A   1      41.518  31.036  35.593  1.00  0.00    -0.354 N 
ATOM     49  N   UNL A   1      39.112  32.476  34.763  1.00  0.00    -0.248 NA
ATOM     50  C   UNL A   1      37.388  33.972  35.252  1.00  0.00     0.031 C 
ATOM     51  C   UNL A   1      42.470  31.574  37.527  1.00  0.00     0.029 A 
ATOM     52  C   UNL A   1      41.405  31.869  36.690  1.00  0.00     0.049 A 
ATOM     53  H   UNL A   1      40.898  31.016  34.829  1.00  0.00     0.167 HD
ATOM     54  C   UNL A   1      39.344  33.058  36.009  1.00  0.00     0.074 A 
ATOM     55  C   UNL A   1      38.273  34.001  36.240  1.00  0.00     0.031 C 
ATOM     56  C   UNL A   1      40.347  32.825  36.890  1.00  0.00     0.031 A 
BRANCH  43  57
ATOM     57  C   UNL A   1      44.221  28.364  35.130  1.00  0.00    -0.014 A 
ATOM     58  C   UNL A   1      45.510  28.721  34.695  1.00  0.00     0.010 A 
ATOM     59  C   UNL A   1      44.039  27.193  35.885  1.00  0.00     0.010 A 
ATOM     60  C   UNL A   1      46.598  27.904  34.990  1.00  0.00     0.020 A 
ATOM     61  C   UNL A   1      45.132  26.390  36.209  1.00  0.00     0.020 A 
ATOM     62  C   UNL A   1      46.402  26.747  35.752  1.00  0.00     0.054 A 
BRANCH  62  63
ATOM     63  S   UNL A   1      47.848  25.742  36.177  1.00  0.00     0.124 S 
ATOM     64  O   UNL A   1      47.271  24.402  36.250  1.00  0.00    -0.237 OA
ATOM     65  O   UNL A   1      48.742  25.981  35.046  1.00  0.00    -0.237 OA
ATOM     66  O   UNL A   1      48.295  26.298  37.451  1.00  0.00    -0.744 OA
ENDBRANCH  62  63
ENDBRANCH  43  57
BRANCH  44  67
ATOM     67  C   UNL A   1      36.016  33.528  32.716  1.00  0.00    -0.014 A 
ATOM     68  C   UNL A   1      36.053  34.860  32.250  1.00  0.00     0.010 A 
ATOM     69  C   UNL A   1      34.762  32.974  33.035  1.00  0.00     0.010 A 
ATOM     70  C   UNL A   1      34.883  35.630  32.160  1.00  0.00     0.020 A 
ATOM     71  C   UNL A   1      33.584  33.730  32.915  1.00  0.00     0.020 A 
ATOM     72  C   UNL A   1      33.654  35.061  32.501  1.00  0.00     0.054 A 
BRANCH  72  73
ATOM     73  S   UNL A   1      32.149  36.078  32.388  1.00  0.00     0.124 S 
ATOM     74  O   UNL A   1      32.387  37.092  33.410  1.00  0.00    -0.237 OA
ATOM     75  O   UNL A   1      32.188  36.552  31.007  1.00  0.00    -0.237 OA
ATOM     76  O   UNL A   1      31.074  35.133  32.684  1.00  0.00    -0.744 OA
ENDBRANCH  72  73
ENDBRANCH  44  67
BRANCH  56  77
ATOM     77  C   UNL A   1      40.379  33.617  38.171  1.00  0.00    -0.014 A 
ATOM     78  C   UNL A   1      39.752  33.142  39.336  1.00  0.00     0.010 A 
ATOM     79  C   UNL A   1      41.160  34.787  38.241  1.00  0.00     0.010 A 
ATOM     80  C   UNL A   1      39.900  33.825  40.546  1.00  0.00     0.020 A 
ATOM     81  C   UNL A   1      41.336  35.455  39.454  1.00  0.00     0.020 A 
ATOM     82  C   UNL A   1      40.700  34.973  40.600  1.00  0.00     0.054 A 
BRANCH  82  83
ATOM     83  S   UNL A   1      40.950  35.785  42.202  1.00  0.00     0.124 S 
ATOM     84  O   UNL A   1      41.966  36.785  41.882  1.00  0.00    -0.237 OA
ATOM     85  O   UNL A   1      39.622  36.311  42.505  1.00  0.00    -0.237 OA
ATOM     86  O   UNL A   1      41.398  34.702  43.075  1.00  0.00    -0.744 OA
ENDBRANCH  82  83
ENDBRANCH  56  77
ENDBRANCH  30  31
ENDBRANCH  23  25
ENDBRANCH  22  23
ENDBRANCH   1  22
TORSDOF 15
ENDMDL
