MODEL 1
REMARK VINA RESULT:     -12.0      0.000      0.000
REMARK SMILES CCc1cccc2c3c([nH]c12)[C@](CC)(CC(=O)OCCOC(=O)c1ccc(-c2c4nc(c(-c5ccc(S(=O)(=O)[O-])cc5)c5ccc([nH]5)c(-c5ccc(S(=O)(=O)[O-])cc5)c5nc(c(-c6ccc(S(=O)(=O)[O-])cc6)c6ccc2[nH]6)C=C5)C=C4)cc1)OCC3
REMARK SMILES IDX 20 1 19 2 18 3 16 4 17 5 15 6 12 7 3 8 4 9 11 10 5 11 7 12
REMARK SMILES IDX 10 13 6 14 8 15 9 16 86 18 85 19 84 20 2 21 1 22 13 23 14 24
REMARK SMILES IDX 21 25 22 26 23 27 24 28 25 29 83 30 26 31 82 32 27 33 28 34
REMARK SMILES IDX 29 35 76 36 30 37 81 38 75 39 77 40 31 41 80 42 74 43 73 44
REMARK SMILES IDX 32 46 62 47 43 48 61 49 44 50 47 51 60 52 78 53 45 54 46 55
REMARK SMILES IDX 59 57 79 58 48 59 33 60 34 61 42 62 35 63 41 64 36 65 37 66
REMARK SMILES IDX 38 67 39 68 40 69 63 70 64 71 72 72 65 73 71 74 66 75 67 76
REMARK SMILES IDX 68 77 69 78 70 79 49 80 50 81 58 82 51 83 57 84 52 85 53 86
REMARK SMILES IDX 54 87 55 88 56 89
REMARK H PARENT 10 17 77 45 47 56
REMARK Flexibility Score: inf
ROOT
ATOM      1  C   UNL A   1      38.175  20.815  25.134  1.00  0.00     0.275 C 
ENDROOT
BRANCH   1   2
ATOM      2  C   UNL A   1      36.658  20.749  25.315  1.00  0.00     0.274 C 
BRANCH   2   3
ATOM      3  O   UNL A   1      35.984  21.604  24.358  1.00  0.00    -0.462 OA
BRANCH   3   4
ATOM      4  C   UNL A   1      34.638  21.647  24.435  1.00  0.00     0.309 C 
ATOM      5  O   UNL A   1      33.929  20.643  24.375  1.00  0.00    -0.252 OA
BRANCH   4   6
ATOM      6  C   UNL A   1      33.991  23.015  24.466  1.00  0.00     0.164 C 
BRANCH   6   7
ATOM      7  C   UNL A   1      33.185  23.686  25.599  1.00  0.00     0.118 C 
ATOM      8  C   UNL A   1      33.467  28.714  26.240  1.00  0.00    -0.024 A 
ATOM      9  C   UNL A   1      32.686  29.774  25.739  1.00  0.00     0.006 A 
ATOM     10  C   UNL A   1      33.061  27.412  25.865  1.00  0.00     0.049 A 
ATOM     11  C   UNL A   1      31.551  29.552  24.961  1.00  0.00     0.001 A 
ATOM     12  C   UNL A   1      31.921  27.161  25.097  1.00  0.00     0.003 A 
ATOM     13  N   UNL A   1      33.621  26.179  26.147  1.00  0.00    -0.356 N 
ATOM     14  C   UNL A   1      31.146  28.250  24.655  1.00  0.00     0.010 A 
ATOM     15  C   UNL A   1      31.800  25.747  24.979  1.00  0.00    -0.014 A 
ATOM     16  C   UNL A   1      32.928  25.169  25.520  1.00  0.00     0.052 A 
ATOM     17  H   UNL A   1      34.411  26.042  26.721  1.00  0.00     0.166 HD
ATOM     18  C   UNL A   1      30.679  24.920  24.471  1.00  0.00     0.066 C 
ATOM     19  C   UNL A   1      30.932  23.409  24.686  1.00  0.00     0.166 C 
ATOM     20  O   UNL A   1      31.870  23.084  25.725  1.00  0.00    -0.368 OA
BRANCH   8  21
ATOM     21  C   UNL A   1      34.646  29.022  27.130  1.00  0.00     0.034 C 
ATOM     22  C   UNL A   1      34.733  30.490  27.514  1.00  0.00     0.009 C 
ENDBRANCH   8  21
BRANCH   7  23
ATOM     23  C   UNL A   1      33.911  23.374  26.954  1.00  0.00     0.039 C 
ATOM     24  C   UNL A   1      33.239  22.324  27.836  1.00  0.00     0.007 C 
ENDBRANCH   7  23
ENDBRANCH   6   7
ENDBRANCH   4   6
ENDBRANCH   3   4
ENDBRANCH   2   3
ENDBRANCH   1   2
BRANCH   1  25
ATOM     25  O   UNL A   1      38.642  22.071  25.642  1.00  0.00    -0.458 OA
BRANCH  25  26
ATOM     26  C   UNL A   1      39.565  21.994  26.629  1.00  0.00     0.338 C 
ATOM     27  O   UNL A   1      40.174  21.001  26.985  1.00  0.00    -0.246 OA
BRANCH  26  28
ATOM     28  C   UNL A   1      39.944  23.387  26.931  1.00  0.00     0.060 A 
ATOM     29  C   UNL A   1      41.031  23.684  27.751  1.00  0.00     0.016 A 
ATOM     30  C   UNL A   1      39.028  24.378  26.578  1.00  0.00     0.016 A 
ATOM     31  C   UNL A   1      41.120  24.949  28.315  1.00  0.00     0.010 A 
ATOM     32  C   UNL A   1      39.092  25.629  27.172  1.00  0.00     0.010 A 
ATOM     33  C   UNL A   1      40.114  25.897  28.078  1.00  0.00    -0.014 A 
BRANCH  33  34
ATOM     34  C   UNL A   1      40.319  27.250  28.573  1.00  0.00     0.031 A 
ATOM     35  C   UNL A   1      41.538  27.867  28.013  1.00  0.00     0.074 A 
ATOM     36  C   UNL A   1      39.539  27.972  29.398  1.00  0.00     0.049 A 
ATOM     37  N   UNL A   1      42.700  27.918  28.572  1.00  0.00    -0.248 NA
ATOM     38  C   UNL A   1      41.510  28.310  26.613  1.00  0.00     0.031 C 
ATOM     39  C   UNL A   1      38.166  27.721  29.831  1.00  0.00     0.029 A 
ATOM     40  N   UNL A   1      39.838  29.172  29.981  1.00  0.00    -0.354 N 
ATOM     41  C   UNL A   1      43.514  28.585  27.670  1.00  0.00     0.074 A 
ATOM     42  C   UNL A   1      42.795  28.603  26.419  1.00  0.00     0.031 C 
ATOM     43  C   UNL A   1      37.685  28.833  30.444  1.00  0.00     0.029 A 
ATOM     44  C   UNL A   1      38.762  29.803  30.585  1.00  0.00     0.049 A 
ATOM     45  H   UNL A   1      40.744  29.556  29.972  1.00  0.00     0.167 HD
ATOM     46  C   UNL A   1      44.602  29.289  28.080  1.00  0.00     0.031 A 
ATOM     47  C   UNL A   1      38.767  31.048  31.124  1.00  0.00     0.031 A 
ATOM     48  C   UNL A   1      44.934  29.007  29.455  1.00  0.00     0.049 A 
ATOM     49  C   UNL A   1      40.168  31.383  31.478  1.00  0.00     0.074 A 
ATOM     50  C   UNL A   1      45.301  27.882  30.165  1.00  0.00     0.029 A 
ATOM     51  N   UNL A   1      44.534  29.939  30.383  1.00  0.00    -0.354 N 
ATOM     52  N   UNL A   1      40.836  30.794  32.429  1.00  0.00    -0.248 NA
ATOM     53  C   UNL A   1      40.969  32.166  30.550  1.00  0.00     0.031 C 
ATOM     54  C   UNL A   1      44.730  28.048  31.460  1.00  0.00     0.029 A 
ATOM     55  C   UNL A   1      44.073  29.281  31.494  1.00  0.00     0.049 A 
ATOM     56  H   UNL A   1      44.571  30.916  30.268  1.00  0.00     0.167 HD
ATOM     57  C   UNL A   1      42.147  30.775  31.982  1.00  0.00     0.074 A 
ATOM     58  C   UNL A   1      42.188  31.752  30.902  1.00  0.00     0.031 C 
ATOM     59  C   UNL A   1      42.997  29.768  32.340  1.00  0.00     0.031 A 
BRANCH  46  60
ATOM     60  C   UNL A   1      45.112  30.520  27.372  1.00  0.00    -0.014 A 
ATOM     61  C   UNL A   1      44.315  31.655  27.116  1.00  0.00     0.010 A 
ATOM     62  C   UNL A   1      46.501  30.660  27.172  1.00  0.00     0.010 A 
ATOM     63  C   UNL A   1      44.859  32.862  26.680  1.00  0.00     0.020 A 
ATOM     64  C   UNL A   1      47.065  31.883  26.786  1.00  0.00     0.020 A 
ATOM     65  C   UNL A   1      46.235  32.975  26.538  1.00  0.00     0.054 A 
BRANCH  65  66
ATOM     66  S   UNL A   1      46.909  34.597  26.115  1.00  0.00     0.124 S 
ATOM     67  O   UNL A   1      47.426  35.050  27.404  1.00  0.00    -0.237 OA
ATOM     68  O   UNL A   1      47.918  34.262  25.113  1.00  0.00    -0.237 OA
ATOM     69  O   UNL A   1      45.750  35.328  25.611  1.00  0.00    -0.744 OA
ENDBRANCH  65  66
ENDBRANCH  46  60
BRANCH  47  70
ATOM     70  C   UNL A   1      37.719  32.095  31.040  1.00  0.00    -0.014 A 
ATOM     71  C   UNL A   1      37.853  33.281  31.788  1.00  0.00     0.010 A 
ATOM     72  C   UNL A   1      36.447  31.789  30.511  1.00  0.00     0.010 A 
ATOM     73  C   UNL A   1      36.742  34.076  32.087  1.00  0.00     0.020 A 
ATOM     74  C   UNL A   1      35.327  32.581  30.812  1.00  0.00     0.020 A 
ATOM     75  C   UNL A   1      35.478  33.697  31.636  1.00  0.00     0.054 A 
BRANCH  75  76
ATOM     76  S   UNL A   1      34.037  34.627  32.235  1.00  0.00     0.124 S 
ATOM     77  O   UNL A   1      33.332  34.924  30.991  1.00  0.00    -0.237 OA
ATOM     78  O   UNL A   1      33.380  33.660  33.111  1.00  0.00    -0.237 OA
ATOM     79  O   UNL A   1      34.624  35.780  32.913  1.00  0.00    -0.744 OA
ENDBRANCH  75  76
ENDBRANCH  47  70
BRANCH  59  80
ATOM     80  C   UNL A   1      42.661  28.925  33.553  1.00  0.00    -0.014 A 
ATOM     81  C   UNL A   1      43.446  29.113  34.707  1.00  0.00     0.010 A 
ATOM     82  C   UNL A   1      41.719  27.878  33.553  1.00  0.00     0.010 A 
ATOM     83  C   UNL A   1      43.318  28.272  35.814  1.00  0.00     0.020 A 
ATOM     84  C   UNL A   1      41.563  27.047  34.674  1.00  0.00     0.020 A 
ATOM     85  C   UNL A   1      42.381  27.238  35.789  1.00  0.00     0.054 A 
BRANCH  85  86
ATOM     86  S   UNL A   1      42.273  26.145  37.232  1.00  0.00     0.124 S 
ATOM     87  O   UNL A   1      42.731  24.868  36.688  1.00  0.00    -0.237 OA
ATOM     88  O   UNL A   1      43.184  26.776  38.185  1.00  0.00    -0.237 OA
ATOM     89  O   UNL A   1      40.862  26.190  37.608  1.00  0.00    -0.744 OA
ENDBRANCH  85  86
ENDBRANCH  59  80
ENDBRANCH  33  34
ENDBRANCH  26  28
ENDBRANCH  25  26
ENDBRANCH   1  25
TORSDOF 17
ENDMDL
MODEL 2
REMARK VINA RESULT:     -11.8      4.378     11.349
REMARK SMILES CCc1cccc2c3c([nH]c12)[C@](CC)(CC(=O)OCCOC(=O)c1ccc(-c2c4nc(c(-c5ccc(S(=O)(=O)[O-])cc5)c5ccc([nH]5)c(-c5ccc(S(=O)(=O)[O-])cc5)c5nc(c(-c6ccc(S(=O)(=O)[O-])cc6)c6ccc2[nH]6)C=C5)C=C4)cc1)OCC3
REMARK SMILES IDX 20 1 19 2 18 3 16 4 17 5 15 6 12 7 3 8 4 9 11 10 5 11 7 12
REMARK SMILES IDX 10 13 6 14 8 15 9 16 86 18 85 19 84 20 2 21 1 22 13 23 14 24
REMARK SMILES IDX 21 25 22 26 23 27 24 28 25 29 83 30 26 31 82 32 27 33 28 34
REMARK SMILES IDX 29 35 76 36 30 37 81 38 75 39 77 40 31 41 80 42 74 43 73 44
REMARK SMILES IDX 32 46 62 47 43 48 61 49 44 50 47 51 60 52 78 53 45 54 46 55
REMARK SMILES IDX 59 57 79 58 48 59 33 60 34 61 42 62 35 63 41 64 36 65 37 66
REMARK SMILES IDX 38 67 39 68 40 69 63 70 64 71 72 72 65 73 71 74 66 75 67 76
REMARK SMILES IDX 68 77 69 78 70 79 49 80 50 81 58 82 51 83 57 84 52 85 53 86
REMARK SMILES IDX 54 87 55 88 56 89
REMARK H PARENT 10 17 77 45 47 56
REMARK Flexibility Score: inf
ROOT
ATOM      1  C   UNL A   1      34.433  33.650  31.320  1.00  0.00     0.275 C 
ENDROOT
BRANCH   1   2
ATOM      2  C   UNL A   1      34.110  33.435  32.800  1.00  0.00     0.274 C 
BRANCH   2   3
ATOM      3  O   UNL A   1      34.848  34.364  33.633  1.00  0.00    -0.462 OA
BRANCH   3   4
ATOM      4  C   UNL A   1      36.177  34.154  33.732  1.00  0.00     0.309 C 
ATOM      5  O   UNL A   1      37.016  35.004  33.435  1.00  0.00    -0.252 OA
BRANCH   4   6
ATOM      6  C   UNL A   1      36.629  32.758  34.103  1.00  0.00     0.164 C 
BRANCH   6   7
ATOM      7  C   UNL A   1      38.051  32.157  34.084  1.00  0.00     0.118 C 
ATOM      8  C   UNL A   1      41.754  34.559  31.576  1.00  0.00    -0.024 A 
ATOM      9  C   UNL A   1      42.707  35.513  31.986  1.00  0.00     0.006 A 
ATOM     10  C   UNL A   1      40.883  34.079  32.580  1.00  0.00     0.049 A 
ATOM     11  C   UNL A   1      42.817  35.922  33.313  1.00  0.00     0.001 A 
ATOM     12  C   UNL A   1      40.980  34.464  33.921  1.00  0.00     0.003 A 
ATOM     13  N   UNL A   1      39.830  33.185  32.506  1.00  0.00    -0.356 N 
ATOM     14  C   UNL A   1      41.976  35.387  34.292  1.00  0.00     0.010 A 
ATOM     15  C   UNL A   1      39.989  33.735  34.638  1.00  0.00    -0.014 A 
ATOM     16  C   UNL A   1      39.208  33.055  33.727  1.00  0.00     0.052 A 
ATOM     17  H   UNL A   1      39.560  32.706  31.689  1.00  0.00     0.166 HD
ATOM     18  C   UNL A   1      39.783  33.578  36.098  1.00  0.00     0.066 C 
ATOM     19  C   UNL A   1      38.669  32.553  36.417  1.00  0.00     0.166 C 
ATOM     20  O   UNL A   1      38.395  31.599  35.379  1.00  0.00    -0.368 OA
BRANCH   8  21
ATOM     21  C   UNL A   1      41.731  34.111  30.134  1.00  0.00     0.034 C 
ATOM     22  C   UNL A   1      40.710  34.863  29.295  1.00  0.00     0.009 C 
ENDBRANCH   8  21
BRANCH   7  23
ATOM     23  C   UNL A   1      38.042  30.937  33.098  1.00  0.00     0.039 C 
ATOM     24  C   UNL A   1      36.662  30.467  32.642  1.00  0.00     0.007 C 
ENDBRANCH   7  23
ENDBRANCH   6   7
ENDBRANCH   4   6
ENDBRANCH   3   4
ENDBRANCH   2   3
ENDBRANCH   1   2
BRANCH   1  25
ATOM     25  O   UNL A   1      34.818  32.394  30.749  1.00  0.00    -0.458 OA
BRANCH  25  26
ATOM     26  C   UNL A   1      34.926  32.376  29.400  1.00  0.00     0.338 C 
ATOM     27  O   UNL A   1      34.318  33.074  28.608  1.00  0.00    -0.246 OA
BRANCH  26  28
ATOM     28  C   UNL A   1      36.162  31.624  29.108  1.00  0.00     0.060 A 
ATOM     29  C   UNL A   1      36.138  30.251  28.870  1.00  0.00     0.016 A 
ATOM     30  C   UNL A   1      37.368  32.286  29.334  1.00  0.00     0.016 A 
ATOM     31  C   UNL A   1      37.318  29.529  28.986  1.00  0.00     0.010 A 
ATOM     32  C   UNL A   1      38.541  31.562  29.491  1.00  0.00     0.010 A 
ATOM     33  C   UNL A   1      38.503  30.176  29.362  1.00  0.00    -0.014 A 
BRANCH  33  34
ATOM     34  C   UNL A   1      39.740  29.410  29.334  1.00  0.00     0.031 A 
ATOM     35  C   UNL A   1      40.183  29.023  30.690  1.00  0.00     0.074 A 
ATOM     36  C   UNL A   1      40.454  29.000  28.270  1.00  0.00     0.049 A 
ATOM     37  N   UNL A   1      41.052  29.637  31.419  1.00  0.00    -0.248 NA
ATOM     38  C   UNL A   1      39.452  27.950  31.376  1.00  0.00     0.031 C 
ATOM     39  C   UNL A   1      40.081  28.980  26.857  1.00  0.00     0.029 A 
ATOM     40  N   UNL A   1      41.697  28.431  28.276  1.00  0.00    -0.354 N 
ATOM     41  C   UNL A   1      41.128  28.906  32.594  1.00  0.00     0.074 A 
ATOM     42  C   UNL A   1      39.984  28.029  32.596  1.00  0.00     0.031 C 
ATOM     43  C   UNL A   1      40.994  28.247  26.170  1.00  0.00     0.029 A 
ATOM     44  C   UNL A   1      42.086  27.887  27.062  1.00  0.00     0.049 A 
ATOM     45  H   UNL A   1      42.267  28.409  29.078  1.00  0.00     0.167 HD
ATOM     46  C   UNL A   1      42.255  28.900  33.354  1.00  0.00     0.031 A 
ATOM     47  C   UNL A   1      43.213  27.165  26.837  1.00  0.00     0.031 A 
ATOM     48  C   UNL A   1      43.180  29.928  32.948  1.00  0.00     0.049 A 
ATOM     49  C   UNL A   1      44.199  27.525  27.884  1.00  0.00     0.074 A 
ATOM     50  C   UNL A   1      43.147  31.306  32.877  1.00  0.00     0.029 A 
ATOM     51  N   UNL A   1      44.238  29.524  32.168  1.00  0.00    -0.354 N 
ATOM     52  N   UNL A   1      44.773  28.692  27.971  1.00  0.00    -0.248 NA
ATOM     53  C   UNL A   1      44.322  26.684  29.065  1.00  0.00     0.031 C 
ATOM     54  C   UNL A   1      43.939  31.646  31.742  1.00  0.00     0.029 A 
ATOM     55  C   UNL A   1      44.449  30.466  31.195  1.00  0.00     0.049 A 
ATOM     56  H   UNL A   1      44.757  28.696  32.288  1.00  0.00     0.167 HD
ATOM     57  C   UNL A   1      44.949  28.901  29.329  1.00  0.00     0.074 A 
ATOM     58  C   UNL A   1      44.789  27.584  29.933  1.00  0.00     0.031 C 
ATOM     59  C   UNL A   1      44.924  30.161  29.856  1.00  0.00     0.031 A 
BRANCH  46  60
ATOM     60  C   UNL A   1      42.689  27.718  34.187  1.00  0.00    -0.014 A 
ATOM     61  C   UNL A   1      43.266  26.554  33.642  1.00  0.00     0.010 A 
ATOM     62  C   UNL A   1      42.757  27.866  35.588  1.00  0.00     0.010 A 
ATOM     63  C   UNL A   1      43.874  25.584  34.437  1.00  0.00     0.020 A 
ATOM     64  C   UNL A   1      43.412  26.924  36.392  1.00  0.00     0.020 A 
ATOM     65  C   UNL A   1      43.962  25.785  35.807  1.00  0.00     0.054 A 
BRANCH  65  66
ATOM     66  S   UNL A   1      44.887  24.575  36.781  1.00  0.00     0.124 S 
ATOM     67  O   UNL A   1      46.263  25.024  36.583  1.00  0.00    -0.237 OA
ATOM     68  O   UNL A   1      44.345  24.777  38.122  1.00  0.00    -0.237 OA
ATOM     69  O   UNL A   1      44.546  23.300  36.155  1.00  0.00    -0.744 OA
ENDBRANCH  65  66
ENDBRANCH  46  60
BRANCH  47  70
ATOM     70  C   UNL A   1      43.379  25.948  26.003  1.00  0.00    -0.014 A 
ATOM     71  C   UNL A   1      42.464  24.885  26.126  1.00  0.00     0.010 A 
ATOM     72  C   UNL A   1      44.606  25.691  25.356  1.00  0.00     0.010 A 
ATOM     73  C   UNL A   1      42.800  23.591  25.716  1.00  0.00     0.020 A 
ATOM     74  C   UNL A   1      44.951  24.392  24.946  1.00  0.00     0.020 A 
ATOM     75  C   UNL A   1      44.059  23.343  25.171  1.00  0.00     0.054 A 
BRANCH  75  76
ATOM     76  S   UNL A   1      44.538  21.618  24.864  1.00  0.00     0.124 S 
ATOM     77  O   UNL A   1      45.815  21.530  25.566  1.00  0.00    -0.237 OA
ATOM     78  O   UNL A   1      43.438  20.874  25.472  1.00  0.00    -0.237 OA
ATOM     79  O   UNL A   1      44.616  21.531  23.409  1.00  0.00    -0.744 OA
ENDBRANCH  75  76
ENDBRANCH  47  70
BRANCH  59  80
ATOM     80  C   UNL A   1      45.144  31.342  28.934  1.00  0.00    -0.014 A 
ATOM     81  C   UNL A   1      44.037  31.800  28.195  1.00  0.00     0.010 A 
ATOM     82  C   UNL A   1      46.404  31.911  28.665  1.00  0.00     0.010 A 
ATOM     83  C   UNL A   1      44.180  32.772  27.204  1.00  0.00     0.020 A 
ATOM     84  C   UNL A   1      46.552  32.911  27.691  1.00  0.00     0.020 A 
ATOM     85  C   UNL A   1      45.440  33.318  26.951  1.00  0.00     0.054 A 
BRANCH  85  86
ATOM     86  S   UNL A   1      45.590  34.550  25.629  1.00  0.00     0.124 S 
ATOM     87  O   UNL A   1      45.060  35.754  26.266  1.00  0.00    -0.237 OA
ATOM     88  O   UNL A   1      47.028  34.569  25.367  1.00  0.00    -0.237 OA
ATOM     89  O   UNL A   1      44.774  34.011  24.544  1.00  0.00    -0.744 OA
ENDBRANCH  85  86
ENDBRANCH  59  80
ENDBRANCH  33  34
ENDBRANCH  26  28
ENDBRANCH  25  26
ENDBRANCH   1  25
TORSDOF 17
ENDMDL
MODEL 3
REMARK VINA RESULT:     -11.5      2.884      9.444
REMARK SMILES CCc1cccc2c3c([nH]c12)[C@](CC)(CC(=O)OCCOC(=O)c1ccc(-c2c4nc(c(-c5ccc(S(=O)(=O)[O-])cc5)c5ccc([nH]5)c(-c5ccc(S(=O)(=O)[O-])cc5)c5nc(c(-c6ccc(S(=O)(=O)[O-])cc6)c6ccc2[nH]6)C=C5)C=C4)cc1)OCC3
REMARK SMILES IDX 20 1 19 2 18 3 16 4 17 5 15 6 12 7 3 8 4 9 11 10 5 11 7 12
REMARK SMILES IDX 10 13 6 14 8 15 9 16 86 18 85 19 84 20 2 21 1 22 13 23 14 24
REMARK SMILES IDX 21 25 22 26 23 27 24 28 25 29 83 30 26 31 82 32 27 33 28 34
REMARK SMILES IDX 29 35 76 36 30 37 81 38 75 39 77 40 31 41 80 42 74 43 73 44
REMARK SMILES IDX 32 46 62 47 43 48 61 49 44 50 47 51 60 52 78 53 45 54 46 55
REMARK SMILES IDX 59 57 79 58 48 59 33 60 34 61 42 62 35 63 41 64 36 65 37 66
REMARK SMILES IDX 38 67 39 68 40 69 63 70 64 71 72 72 65 73 71 74 66 75 67 76
REMARK SMILES IDX 68 77 69 78 70 79 49 80 50 81 58 82 51 83 57 84 52 85 53 86
REMARK SMILES IDX 54 87 55 88 56 89
REMARK H PARENT 10 17 77 45 47 56
REMARK Flexibility Score: inf
ROOT
ATOM      1  C   UNL A   1      32.978  31.223  27.214  1.00  0.00     0.275 C 
ENDROOT
BRANCH   1   2
ATOM      2  C   UNL A   1      32.506  29.768  27.235  1.00  0.00     0.274 C 
BRANCH   2   3
ATOM      3  O   UNL A   1      32.935  29.067  26.041  1.00  0.00    -0.462 OA
BRANCH   3   4
ATOM      4  C   UNL A   1      32.170  29.233  24.942  1.00  0.00     0.309 C 
ATOM      5  O   UNL A   1      31.099  29.838  24.953  1.00  0.00    -0.252 OA
BRANCH   4   6
ATOM      6  C   UNL A   1      32.611  28.520  23.681  1.00  0.00     0.164 C 
BRANCH   6   7
ATOM      7  C   UNL A   1      32.410  27.045  23.276  1.00  0.00     0.118 C 
ATOM      8  C   UNL A   1      34.769  23.386  25.887  1.00  0.00    -0.024 A 
ATOM      9  C   UNL A   1      34.372  22.611  26.996  1.00  0.00     0.006 A 
ATOM     10  C   UNL A   1      33.815  24.307  25.398  1.00  0.00     0.049 A 
ATOM     11  C   UNL A   1      33.097  22.711  27.546  1.00  0.00     0.001 A 
ATOM     12  C   UNL A   1      32.524  24.418  25.924  1.00  0.00     0.003 A 
ATOM     13  N   UNL A   1      33.898  25.227  24.369  1.00  0.00    -0.356 N 
ATOM     14  C   UNL A   1      32.157  23.593  27.004  1.00  0.00     0.010 A 
ATOM     15  C   UNL A   1      31.838  25.392  25.145  1.00  0.00    -0.014 A 
ATOM     16  C   UNL A   1      32.742  25.970  24.280  1.00  0.00     0.052 A 
ATOM     17  H   UNL A   1      34.679  25.337  23.779  1.00  0.00     0.166 HD
ATOM     18  C   UNL A   1      30.399  25.751  25.108  1.00  0.00     0.066 C 
ATOM     19  C   UNL A   1      30.085  26.762  23.981  1.00  0.00     0.166 C 
ATOM     20  O   UNL A   1      31.031  26.793  22.900  1.00  0.00    -0.368 OA
BRANCH   8  21
ATOM     21  C   UNL A   1      36.145  23.182  25.299  1.00  0.00     0.034 C 
ATOM     22  C   UNL A   1      36.754  21.838  25.664  1.00  0.00     0.009 C 
ENDBRANCH   8  21
BRANCH   7  23
ATOM     23  C   UNL A   1      33.246  26.787  21.973  1.00  0.00     0.039 C 
ATOM     24  C   UNL A   1      32.682  25.728  21.027  1.00  0.00     0.007 C 
ENDBRANCH   7  23
ENDBRANCH   6   7
ENDBRANCH   4   6
ENDBRANCH   3   4
ENDBRANCH   2   3
ENDBRANCH   1   2
BRANCH   1  25
ATOM     25  O   UNL A   1      34.409  31.241  27.274  1.00  0.00    -0.458 OA
BRANCH  25  26
ATOM     26  C   UNL A   1      34.940  31.879  28.343  1.00  0.00     0.338 C 
ATOM     27  O   UNL A   1      34.387  32.696  29.057  1.00  0.00    -0.246 OA
BRANCH  26  28
ATOM     28  C   UNL A   1      36.166  31.132  28.685  1.00  0.00     0.060 A 
ATOM     29  C   UNL A   1      37.270  31.766  29.251  1.00  0.00     0.016 A 
ATOM     30  C   UNL A   1      36.270  29.833  28.186  1.00  0.00     0.016 A 
ATOM     31  C   UNL A   1      38.507  31.137  29.197  1.00  0.00     0.010 A 
ATOM     32  C   UNL A   1      37.510  29.220  28.095  1.00  0.00     0.010 A 
ATOM     33  C   UNL A   1      38.635  29.895  28.559  1.00  0.00    -0.014 A 
BRANCH  33  34
ATOM     34  C   UNL A   1      39.916  29.209  28.650  1.00  0.00     0.031 A 
ATOM     35  C   UNL A   1      40.254  28.848  30.042  1.00  0.00     0.074 A 
ATOM     36  C   UNL A   1      40.751  28.850  27.658  1.00  0.00     0.049 A 
ATOM     37  N   UNL A   1      41.010  29.515  30.847  1.00  0.00    -0.248 NA
ATOM     38  C   UNL A   1      39.533  27.728  30.661  1.00  0.00     0.031 C 
ATOM     39  C   UNL A   1      40.514  28.810  26.217  1.00  0.00     0.029 A 
ATOM     40  N   UNL A   1      42.022  28.361  27.782  1.00  0.00    -0.354 N 
ATOM     41  C   UNL A   1      41.022  28.787  32.027  1.00  0.00     0.074 A 
ATOM     42  C   UNL A   1      39.942  27.837  31.924  1.00  0.00     0.031 C 
ATOM     43  C   UNL A   1      41.532  28.138  25.620  1.00  0.00     0.029 A 
ATOM     44  C   UNL A   1      42.557  27.847  26.612  1.00  0.00     0.049 A 
ATOM     45  H   UNL A   1      42.515  28.374  28.634  1.00  0.00     0.167 HD
ATOM     46  C   UNL A   1      42.072  28.851  32.889  1.00  0.00     0.031 A 
ATOM     47  C   UNL A   1      43.744  27.200  26.495  1.00  0.00     0.031 A 
ATOM     48  C   UNL A   1      42.963  29.937  32.568  1.00  0.00     0.049 A 
ATOM     49  C   UNL A   1      44.603  27.619  27.629  1.00  0.00     0.074 A 
ATOM     50  C   UNL A   1      42.848  31.311  32.489  1.00  0.00     0.029 A 
ATOM     51  N   UNL A   1      44.112  29.604  31.891  1.00  0.00    -0.354 N 
ATOM     52  N   UNL A   1      45.089  28.820  27.765  1.00  0.00    -0.248 NA
ATOM     53  C   UNL A   1      44.668  26.785  28.819  1.00  0.00     0.031 C 
ATOM     54  C   UNL A   1      43.719  31.704  31.432  1.00  0.00     0.029 A 
ATOM     55  C   UNL A   1      44.352  30.561  30.939  1.00  0.00     0.049 A 
ATOM     56  H   UNL A   1      44.670  28.811  32.061  1.00  0.00     0.167 HD
ATOM     57  C   UNL A   1      45.124  29.036  29.132  1.00  0.00     0.074 A 
ATOM     58  C   UNL A   1      44.994  27.710  29.724  1.00  0.00     0.031 C 
ATOM     59  C   UNL A   1      44.969  30.290  29.651  1.00  0.00     0.031 A 
BRANCH  46  60
ATOM     60  C   UNL A   1      42.501  27.697  33.762  1.00  0.00    -0.014 A 
ATOM     61  C   UNL A   1      43.408  26.702  33.345  1.00  0.00     0.010 A 
ATOM     62  C   UNL A   1      42.187  27.735  35.137  1.00  0.00     0.010 A 
ATOM     63  C   UNL A   1      43.972  25.790  34.235  1.00  0.00     0.020 A 
ATOM     64  C   UNL A   1      42.787  26.858  36.049  1.00  0.00     0.020 A 
ATOM     65  C   UNL A   1      43.674  25.886  35.587  1.00  0.00     0.054 A 
BRANCH  65  66
ATOM     66  S   UNL A   1      44.539  24.780  36.724  1.00  0.00     0.124 S 
ATOM     67  O   UNL A   1      45.932  25.160  36.506  1.00  0.00    -0.237 OA
ATOM     68  O   UNL A   1      43.976  25.160  38.016  1.00  0.00    -0.237 OA
ATOM     69  O   UNL A   1      44.170  23.448  36.251  1.00  0.00    -0.744 OA
ENDBRANCH  65  66
ENDBRANCH  46  60
BRANCH  47  70
ATOM     70  C   UNL A   1      44.065  25.998  25.684  1.00  0.00    -0.014 A 
ATOM     71  C   UNL A   1      43.046  25.086  25.351  1.00  0.00     0.010 A 
ATOM     72  C   UNL A   1      45.403  25.575  25.538  1.00  0.00     0.010 A 
ATOM     73  C   UNL A   1      43.345  23.769  24.988  1.00  0.00     0.020 A 
ATOM     74  C   UNL A   1      45.710  24.252  25.179  1.00  0.00     0.020 A 
ATOM     75  C   UNL A   1      44.673  23.347  24.949  1.00  0.00     0.054 A 
BRANCH  75  76
ATOM     76  S   UNL A   1      45.005  21.579  24.697  1.00  0.00     0.124 S 
ATOM     77  O   UNL A   1      44.584  21.387  23.312  1.00  0.00    -0.237 OA
ATOM     78  O   UNL A   1      46.445  21.493  24.929  1.00  0.00    -0.237 OA
ATOM     79  O   UNL A   1      44.175  20.921  25.702  1.00  0.00    -0.744 OA
ENDBRANCH  75  76
ENDBRANCH  47  70
BRANCH  59  80
ATOM     80  C   UNL A   1      45.198  31.486  28.750  1.00  0.00    -0.014 A 
ATOM     81  C   UNL A   1      44.150  31.853  27.884  1.00  0.00     0.010 A 
ATOM     82  C   UNL A   1      46.431  32.156  28.622  1.00  0.00     0.010 A 
ATOM     83  C   UNL A   1      44.328  32.834  26.908  1.00  0.00     0.020 A 
ATOM     84  C   UNL A   1      46.609  33.164  27.662  1.00  0.00     0.020 A 
ATOM     85  C   UNL A   1      45.560  33.480  26.796  1.00  0.00     0.054 A 
BRANCH  85  86
ATOM     86  S   UNL A   1      45.762  34.721  25.489  1.00  0.00     0.124 S 
ATOM     87  O   UNL A   1      45.356  35.952  26.165  1.00  0.00    -0.237 OA
ATOM     88  O   UNL A   1      47.186  34.628  25.172  1.00  0.00    -0.237 OA
ATOM     89  O   UNL A   1      44.864  34.270  24.428  1.00  0.00    -0.744 OA
ENDBRANCH  85  86
ENDBRANCH  59  80
ENDBRANCH  33  34
ENDBRANCH  26  28
ENDBRANCH  25  26
ENDBRANCH   1  25
TORSDOF 17
ENDMDL
