MODEL 1
REMARK VINA RESULT:     -10.1      0.000      0.000
REMARK SMILES O=C(C[C@H](c1ccsc1)n1cccc1)OCCOC(=O)c1ccc(-c2c3nc(c(-c4ccc(S(=O)(=O)[O-])cc4)c4ccc([nH]4)c(-c4ccc(S(=O)(=O)[O-])cc4)c4nc(c(-c5ccc(S(=O)(=O)[O-])cc5)c5ccc2[nH]5)C=C4)C=C3)cc1
REMARK SMILES IDX 17 1 16 2 15 3 2 4 1 5 3 6 4 7 10 8 11 9 14 10 12 11 13 12
REMARK SMILES IDX 5 13 6 14 9 15 7 16 8 17 18 18 19 19 20 20 21 21 22 22 80 23
REMARK SMILES IDX 23 24 79 25 24 26 25 27 26 28 73 29 27 30 78 31 72 32 74 33
REMARK SMILES IDX 28 34 77 35 71 36 70 37 29 39 59 40 40 41 58 42 41 43 44 44
REMARK SMILES IDX 57 45 75 46 42 47 43 48 56 50 76 51 45 52 30 53 31 54 39 55
REMARK SMILES IDX 32 56 38 57 33 58 34 59 35 60 36 61 37 62 60 63 61 64 69 65
REMARK SMILES IDX 62 66 68 67 63 68 64 69 65 70 66 71 67 72 46 73 47 74 55 75
REMARK SMILES IDX 48 76 54 77 49 78 50 79 51 80 52 81 53 82
REMARK H PARENT 74 38 44 49
REMARK Flexibility Score: inf
ROOT
ATOM      1  C   UNL A   1      34.116  30.593  27.384  1.00  0.00     0.275 C 
ENDROOT
BRANCH   1   2
ATOM      2  C   UNL A   1      33.603  29.174  27.625  1.00  0.00     0.274 C 
BRANCH   2   3
ATOM      3  O   UNL A   1      33.079  28.512  26.464  1.00  0.00    -0.462 OA
BRANCH   3   4
ATOM      4  C   UNL A   1      33.819  27.791  25.590  1.00  0.00     0.308 C 
ATOM      5  O   UNL A   1      34.132  28.266  24.498  1.00  0.00    -0.252 OA
BRANCH   4   6
ATOM      6  C   UNL A   1      34.236  26.385  25.946  1.00  0.00     0.153 C 
BRANCH   6   7
ATOM      7  C   UNL A   1      33.739  25.228  25.052  1.00  0.00     0.128 C 
BRANCH   7   8
ATOM      8  N   UNL A   1      34.772  24.277  24.603  1.00  0.00    -0.346 N 
ATOM      9  C   UNL A   1      34.654  23.548  23.435  1.00  0.00     0.086 A 
ATOM     10  C   UNL A   1      35.951  23.917  25.201  1.00  0.00     0.086 A 
ATOM     11  C   UNL A   1      35.837  22.885  23.209  1.00  0.00     0.019 A 
ATOM     12  C   UNL A   1      36.655  23.109  24.333  1.00  0.00     0.019 A 
ENDBRANCH   7   8
BRANCH   7  13
ATOM     13  C   UNL A   1      32.460  24.624  25.659  1.00  0.00    -0.014 A 
ATOM     14  C   UNL A   1      31.115  25.145  25.608  1.00  0.00     0.017 A 
ATOM     15  C   UNL A   1      32.436  23.367  26.247  1.00  0.00     0.070 A 
ATOM     16  C   UNL A   1      30.169  24.284  26.118  1.00  0.00     0.065 A 
ATOM     17  S   UNL A   1      30.871  22.847  26.699  1.00  0.00    -0.152 S 
ENDBRANCH   7  13
ENDBRANCH   6   7
ENDBRANCH   4   6
ENDBRANCH   3   4
ENDBRANCH   2   3
ENDBRANCH   1   2
BRANCH   1  18
ATOM     18  O   UNL A   1      35.531  30.657  27.215  1.00  0.00    -0.458 OA
BRANCH  18  19
ATOM     19  C   UNL A   1      36.197  30.773  28.382  1.00  0.00     0.338 C 
ATOM     20  O   UNL A   1      35.993  31.613  29.263  1.00  0.00    -0.246 OA
BRANCH  19  21
ATOM     21  C   UNL A   1      37.265  29.784  28.480  1.00  0.00     0.060 A 
ATOM     22  C   UNL A   1      37.261  28.935  29.591  1.00  0.00     0.016 A 
ATOM     23  C   UNL A   1      38.358  29.852  27.608  1.00  0.00     0.016 A 
ATOM     24  C   UNL A   1      38.403  28.214  29.891  1.00  0.00     0.010 A 
ATOM     25  C   UNL A   1      39.514  29.161  27.930  1.00  0.00     0.010 A 
ATOM     26  C   UNL A   1      39.543  28.376  29.092  1.00  0.00    -0.014 A 
BRANCH  26  27
ATOM     27  C   UNL A   1      40.795  27.723  29.510  1.00  0.00     0.031 A 
ATOM     28  C   UNL A   1      41.099  26.450  28.739  1.00  0.00     0.074 A 
ATOM     29  C   UNL A   1      41.461  28.324  30.540  1.00  0.00     0.049 A 
ATOM     30  N   UNL A   1      41.832  25.438  29.086  1.00  0.00    -0.248 NA
ATOM     31  C   UNL A   1      40.443  26.224  27.424  1.00  0.00     0.031 C 
ATOM     32  C   UNL A   1      41.016  29.572  31.201  1.00  0.00     0.029 A 
ATOM     33  N   UNL A   1      42.614  28.035  31.241  1.00  0.00    -0.354 N 
ATOM     34  C   UNL A   1      41.866  24.552  27.994  1.00  0.00     0.074 A 
ATOM     35  C   UNL A   1      40.917  25.039  27.038  1.00  0.00     0.031 C 
ATOM     36  C   UNL A   1      41.829  29.888  32.227  1.00  0.00     0.029 A 
ATOM     37  C   UNL A   1      42.893  28.908  32.320  1.00  0.00     0.049 A 
ATOM     38  H   UNL A   1      43.199  27.279  31.008  1.00  0.00     0.167 HD
ATOM     39  C   UNL A   1      42.761  23.534  27.880  1.00  0.00     0.031 A 
ATOM     40  C   UNL A   1      43.888  28.841  33.253  1.00  0.00     0.031 A 
ATOM     41  C   UNL A   1      43.581  23.436  29.041  1.00  0.00     0.049 A 
ATOM     42  C   UNL A   1      44.770  27.727  32.858  1.00  0.00     0.074 A 
ATOM     43  C   UNL A   1      43.354  23.008  30.324  1.00  0.00     0.029 A 
ATOM     44  N   UNL A   1      44.772  24.121  29.008  1.00  0.00    -0.354 N 
ATOM     45  N   UNL A   1      45.575  27.735  31.840  1.00  0.00    -0.248 NA
ATOM     46  C   UNL A   1      44.724  26.476  33.626  1.00  0.00     0.031 C 
ATOM     47  C   UNL A   1      44.207  23.813  31.114  1.00  0.00     0.029 A 
ATOM     48  C   UNL A   1      44.978  24.621  30.273  1.00  0.00     0.049 A 
ATOM     49  H   UNL A   1      45.363  24.233  28.229  1.00  0.00     0.167 HD
ATOM     50  C   UNL A   1      45.818  26.398  31.635  1.00  0.00     0.074 A 
ATOM     51  C   UNL A   1      45.548  25.734  32.891  1.00  0.00     0.031 C 
ATOM     52  C   UNL A   1      45.687  25.877  30.387  1.00  0.00     0.031 A 
BRANCH  39  53
ATOM     53  C   UNL A   1      43.151  22.725  26.675  1.00  0.00    -0.014 A 
ATOM     54  C   UNL A   1      42.526  21.464  26.512  1.00  0.00     0.010 A 
ATOM     55  C   UNL A   1      44.299  22.987  25.914  1.00  0.00     0.010 A 
ATOM     56  C   UNL A   1      43.094  20.464  25.722  1.00  0.00     0.020 A 
ATOM     57  C   UNL A   1      44.854  21.999  25.086  1.00  0.00     0.020 A 
ATOM     58  C   UNL A   1      44.278  20.727  25.042  1.00  0.00     0.054 A 
BRANCH  58  59
ATOM     59  S   UNL A   1      45.097  19.365  24.173  1.00  0.00     0.124 S 
ATOM     60  O   UNL A   1      44.648  18.203  24.935  1.00  0.00    -0.237 OA
ATOM     61  O   UNL A   1      44.552  19.474  22.821  1.00  0.00    -0.237 OA
ATOM     62  O   UNL A   1      46.517  19.687  24.291  1.00  0.00    -0.744 OA
ENDBRANCH  58  59
ENDBRANCH  39  53
BRANCH  40  63
ATOM     63  C   UNL A   1      44.211  29.518  34.563  1.00  0.00    -0.014 A 
ATOM     64  C   UNL A   1      43.324  29.706  35.632  1.00  0.00     0.010 A 
ATOM     65  C   UNL A   1      45.561  29.888  34.812  1.00  0.00     0.010 A 
ATOM     66  C   UNL A   1      43.785  30.103  36.907  1.00  0.00     0.020 A 
ATOM     67  C   UNL A   1      46.040  30.234  36.078  1.00  0.00     0.020 A 
ATOM     68  C   UNL A   1      45.146  30.316  37.133  1.00  0.00     0.054 A 
BRANCH  68  69
ATOM     69  S   UNL A   1      45.794  30.558  38.810  1.00  0.00     0.124 S 
ATOM     70  O   UNL A   1      46.239  31.946  38.776  1.00  0.00    -0.237 OA
ATOM     71  O   UNL A   1      44.632  30.289  39.656  1.00  0.00    -0.237 OA
ATOM     72  O   UNL A   1      46.857  29.558  38.902  1.00  0.00    -0.744 OA
ENDBRANCH  68  69
ENDBRANCH  40  63
BRANCH  52  73
ATOM     73  C   UNL A   1      45.858  26.880  29.256  1.00  0.00    -0.014 A 
ATOM     74  C   UNL A   1      47.124  27.425  28.977  1.00  0.00     0.010 A 
ATOM     75  C   UNL A   1      44.764  27.374  28.518  1.00  0.00     0.010 A 
ATOM     76  C   UNL A   1      47.288  28.428  28.008  1.00  0.00     0.020 A 
ATOM     77  C   UNL A   1      44.915  28.372  27.543  1.00  0.00     0.020 A 
ATOM     78  C   UNL A   1      46.181  28.898  27.296  1.00  0.00     0.054 A 
BRANCH  78  79
ATOM     79  S   UNL A   1      46.417  30.223  26.075  1.00  0.00     0.124 S 
ATOM     80  O   UNL A   1      45.238  31.062  26.276  1.00  0.00    -0.237 OA
ATOM     81  O   UNL A   1      47.684  30.817  26.493  1.00  0.00    -0.237 OA
ATOM     82  O   UNL A   1      46.456  29.518  24.794  1.00  0.00    -0.744 OA
ENDBRANCH  78  79
ENDBRANCH  52  73
ENDBRANCH  26  27
ENDBRANCH  19  21
ENDBRANCH  18  19
ENDBRANCH   1  18
TORSDOF 17
ENDMDL
MODEL 2
REMARK VINA RESULT:     -10.0      3.178      9.091
REMARK SMILES O=C(C[C@H](c1ccsc1)n1cccc1)OCCOC(=O)c1ccc(-c2c3nc(c(-c4ccc(S(=O)(=O)[O-])cc4)c4ccc([nH]4)c(-c4ccc(S(=O)(=O)[O-])cc4)c4nc(c(-c5ccc(S(=O)(=O)[O-])cc5)c5ccc2[nH]5)C=C4)C=C3)cc1
REMARK SMILES IDX 17 1 16 2 15 3 2 4 1 5 3 6 4 7 10 8 11 9 14 10 12 11 13 12
REMARK SMILES IDX 5 13 6 14 9 15 7 16 8 17 18 18 19 19 20 20 21 21 22 22 80 23
REMARK SMILES IDX 23 24 79 25 24 26 25 27 26 28 73 29 27 30 78 31 72 32 74 33
REMARK SMILES IDX 28 34 77 35 71 36 70 37 29 39 59 40 40 41 58 42 41 43 44 44
REMARK SMILES IDX 57 45 75 46 42 47 43 48 56 50 76 51 45 52 30 53 31 54 39 55
REMARK SMILES IDX 32 56 38 57 33 58 34 59 35 60 36 61 37 62 60 63 61 64 69 65
REMARK SMILES IDX 62 66 68 67 63 68 64 69 65 70 66 71 67 72 46 73 47 74 55 75
REMARK SMILES IDX 48 76 54 77 49 78 50 79 51 80 52 81 53 82
REMARK H PARENT 74 38 44 49
REMARK Flexibility Score: inf
ROOT
ATOM      1  C   UNL A   1      33.129  28.455  27.264  1.00  0.00     0.275 C 
ENDROOT
BRANCH   1   2
ATOM      2  C   UNL A   1      32.687  27.504  26.152  1.00  0.00     0.274 C 
BRANCH   2   3
ATOM      3  O   UNL A   1      32.884  26.110  26.432  1.00  0.00    -0.462 OA
BRANCH   3   4
ATOM      4  C   UNL A   1      33.483  25.234  25.593  1.00  0.00     0.308 C 
ATOM      5  O   UNL A   1      33.753  25.563  24.438  1.00  0.00    -0.252 OA
BRANCH   4   6
ATOM      6  C   UNL A   1      33.794  23.836  26.068  1.00  0.00     0.153 C 
BRANCH   6   7
ATOM      7  C   UNL A   1      34.529  22.882  25.101  1.00  0.00     0.128 C 
BRANCH   7   8
ATOM      8  N   UNL A   1      35.960  22.668  25.378  1.00  0.00    -0.346 N 
ATOM      9  C   UNL A   1      36.578  21.445  25.197  1.00  0.00     0.086 A 
ATOM     10  C   UNL A   1      36.900  23.541  25.860  1.00  0.00     0.086 A 
ATOM     11  C   UNL A   1      37.931  21.604  25.378  1.00  0.00     0.019 A 
ATOM     12  C   UNL A   1      38.135  22.929  25.809  1.00  0.00     0.019 A 
ENDBRANCH   7   8
BRANCH   7  13
ATOM     13  C   UNL A   1      33.672  21.623  24.872  1.00  0.00    -0.014 A 
ATOM     14  C   UNL A   1      33.122  21.130  23.632  1.00  0.00     0.017 A 
ATOM     15  C   UNL A   1      33.428  20.696  25.875  1.00  0.00     0.070 A 
ATOM     16  C   UNL A   1      32.532  19.892  23.744  1.00  0.00     0.065 A 
ATOM     17  S   UNL A   1      32.591  19.305  25.340  1.00  0.00    -0.152 S 
ENDBRANCH   7  13
ENDBRANCH   6   7
ENDBRANCH   4   6
ENDBRANCH   3   4
ENDBRANCH   2   3
ENDBRANCH   1   2
BRANCH   1  18
ATOM     18  O   UNL A   1      34.530  28.725  27.247  1.00  0.00    -0.458 OA
BRANCH  18  19
ATOM     19  C   UNL A   1      34.859  29.850  27.914  1.00  0.00     0.338 C 
ATOM     20  O   UNL A   1      34.116  30.805  28.153  1.00  0.00    -0.246 OA
BRANCH  19  21
ATOM     21  C   UNL A   1      36.265  29.841  28.301  1.00  0.00     0.060 A 
ATOM     22  C   UNL A   1      37.214  30.083  27.302  1.00  0.00     0.016 A 
ATOM     23  C   UNL A   1      36.634  29.385  29.572  1.00  0.00     0.016 A 
ATOM     24  C   UNL A   1      38.540  29.773  27.544  1.00  0.00     0.010 A 
ATOM     25  C   UNL A   1      37.955  29.039  29.801  1.00  0.00     0.010 A 
ATOM     26  C   UNL A   1      38.894  29.199  28.771  1.00  0.00    -0.014 A 
BRANCH  26  27
ATOM     27  C   UNL A   1      40.280  28.734  28.957  1.00  0.00     0.031 A 
ATOM     28  C   UNL A   1      41.233  29.835  29.391  1.00  0.00     0.074 A 
ATOM     29  C   UNL A   1      40.505  27.417  28.676  1.00  0.00     0.049 A 
ATOM     30  N   UNL A   1      42.520  29.905  29.250  1.00  0.00    -0.248 NA
ATOM     31  C   UNL A   1      40.682  31.071  30.005  1.00  0.00     0.031 C 
ATOM     32  C   UNL A   1      39.454  26.468  28.244  1.00  0.00     0.029 A 
ATOM     33  N   UNL A   1      41.623  26.608  28.682  1.00  0.00    -0.354 N 
ATOM     34  C   UNL A   1      42.947  31.082  29.891  1.00  0.00     0.074 A 
ATOM     35  C   UNL A   1      41.766  31.807  30.253  1.00  0.00     0.031 C 
ATOM     36  C   UNL A   1      39.981  25.259  27.969  1.00  0.00     0.029 A 
ATOM     37  C   UNL A   1      41.408  25.286  28.220  1.00  0.00     0.049 A 
ATOM     38  H   UNL A   1      42.504  26.925  28.985  1.00  0.00     0.167 HD
ATOM     39  C   UNL A   1      44.247  31.339  30.202  1.00  0.00     0.031 A 
ATOM     40  C   UNL A   1      42.312  24.283  28.017  1.00  0.00     0.031 A 
ATOM     41  C   UNL A   1      45.106  30.313  29.713  1.00  0.00     0.049 A 
ATOM     42  C   UNL A   1      43.611  24.770  28.515  1.00  0.00     0.074 A 
ATOM     43  C   UNL A   1      45.541  29.963  28.461  1.00  0.00     0.029 A 
ATOM     44  N   UNL A   1      45.388  29.286  30.582  1.00  0.00    -0.354 N 
ATOM     45  N   UNL A   1      43.917  24.940  29.765  1.00  0.00    -0.248 NA
ATOM     46  C   UNL A   1      44.649  25.148  27.547  1.00  0.00     0.031 C 
ATOM     47  C   UNL A   1      45.692  28.559  28.526  1.00  0.00     0.029 A 
ATOM     48  C   UNL A   1      45.434  28.134  29.833  1.00  0.00     0.049 A 
ATOM     49  H   UNL A   1      45.529  29.361  31.553  1.00  0.00     0.167 HD
ATOM     50  C   UNL A   1      44.997  25.786  29.701  1.00  0.00     0.074 A 
ATOM     51  C   UNL A   1      45.569  25.624  28.383  1.00  0.00     0.031 C 
ATOM     52  C   UNL A   1      45.019  26.904  30.472  1.00  0.00     0.031 A 
BRANCH  39  53
ATOM     53  C   UNL A   1      44.828  32.350  31.150  1.00  0.00    -0.014 A 
ATOM     54  C   UNL A   1      44.579  32.161  32.530  1.00  0.00     0.010 A 
ATOM     55  C   UNL A   1      45.301  33.604  30.737  1.00  0.00     0.010 A 
ATOM     56  C   UNL A   1      44.673  33.214  33.441  1.00  0.00     0.020 A 
ATOM     57  C   UNL A   1      45.436  34.658  31.655  1.00  0.00     0.020 A 
ATOM     58  C   UNL A   1      45.067  34.469  32.988  1.00  0.00     0.054 A 
BRANCH  58  59
ATOM     59  S   UNL A   1      45.005  35.862  34.143  1.00  0.00     0.124 S 
ATOM     60  O   UNL A   1      45.712  36.904  33.404  1.00  0.00    -0.237 OA
ATOM     61  O   UNL A   1      43.568  36.078  34.308  1.00  0.00    -0.237 OA
ATOM     62  O   UNL A   1      45.690  35.354  35.330  1.00  0.00    -0.744 OA
ENDBRANCH  58  59
ENDBRANCH  39  53
BRANCH  40  63
ATOM     63  C   UNL A   1      42.317  22.931  27.344  1.00  0.00    -0.014 A 
ATOM     64  C   UNL A   1      43.120  22.557  26.258  1.00  0.00     0.010 A 
ATOM     65  C   UNL A   1      41.545  21.889  27.927  1.00  0.00     0.010 A 
ATOM     66  C   UNL A   1      43.250  21.203  25.873  1.00  0.00     0.020 A 
ATOM     67  C   UNL A   1      41.700  20.542  27.590  1.00  0.00     0.020 A 
ATOM     68  C   UNL A   1      42.577  20.201  26.575  1.00  0.00     0.054 A 
BRANCH  68  69
ATOM     69  S   UNL A   1      42.934  18.447  26.280  1.00  0.00     0.124 S 
ATOM     70  O   UNL A   1      43.121  17.935  27.633  1.00  0.00    -0.237 OA
ATOM     71  O   UNL A   1      41.736  17.976  25.587  1.00  0.00    -0.237 OA
ATOM     72  O   UNL A   1      44.138  18.489  25.452  1.00  0.00    -0.744 OA
ENDBRANCH  68  69
ENDBRANCH  40  63
BRANCH  52  73
ATOM     73  C   UNL A   1      44.165  26.829  31.729  1.00  0.00    -0.014 A 
ATOM     74  C   UNL A   1      43.089  27.717  31.909  1.00  0.00     0.010 A 
ATOM     75  C   UNL A   1      44.467  25.955  32.792  1.00  0.00     0.010 A 
ATOM     76  C   UNL A   1      42.352  27.736  33.105  1.00  0.00     0.020 A 
ATOM     77  C   UNL A   1      43.735  25.960  33.989  1.00  0.00     0.020 A 
ATOM     78  C   UNL A   1      42.681  26.858  34.141  1.00  0.00     0.054 A 
BRANCH  78  79
ATOM     79  S   UNL A   1      41.735  26.931  35.691  1.00  0.00     0.124 S 
ATOM     80  O   UNL A   1      42.766  26.746  36.709  1.00  0.00    -0.237 OA
ATOM     81  O   UNL A   1      41.143  28.264  35.637  1.00  0.00    -0.237 OA
ATOM     82  O   UNL A   1      40.784  25.825  35.575  1.00  0.00    -0.744 OA
ENDBRANCH  78  79
ENDBRANCH  52  73
ENDBRANCH  26  27
ENDBRANCH  19  21
ENDBRANCH  18  19
ENDBRANCH   1  18
TORSDOF 17
ENDMDL
MODEL 3
REMARK VINA RESULT:      -9.9      2.027      2.648
REMARK SMILES O=C(C[C@H](c1ccsc1)n1cccc1)OCCOC(=O)c1ccc(-c2c3nc(c(-c4ccc(S(=O)(=O)[O-])cc4)c4ccc([nH]4)c(-c4ccc(S(=O)(=O)[O-])cc4)c4nc(c(-c5ccc(S(=O)(=O)[O-])cc5)c5ccc2[nH]5)C=C4)C=C3)cc1
REMARK SMILES IDX 17 1 16 2 15 3 2 4 1 5 3 6 4 7 10 8 11 9 14 10 12 11 13 12
REMARK SMILES IDX 5 13 6 14 9 15 7 16 8 17 18 18 19 19 20 20 21 21 22 22 80 23
REMARK SMILES IDX 23 24 79 25 24 26 25 27 26 28 73 29 27 30 78 31 72 32 74 33
REMARK SMILES IDX 28 34 77 35 71 36 70 37 29 39 59 40 40 41 58 42 41 43 44 44
REMARK SMILES IDX 57 45 75 46 42 47 43 48 56 50 76 51 45 52 30 53 31 54 39 55
REMARK SMILES IDX 32 56 38 57 33 58 34 59 35 60 36 61 37 62 60 63 61 64 69 65
REMARK SMILES IDX 62 66 68 67 63 68 64 69 65 70 66 71 67 72 46 73 47 74 55 75
REMARK SMILES IDX 48 76 54 77 49 78 50 79 51 80 52 81 53 82
REMARK H PARENT 74 38 44 49
REMARK Flexibility Score: inf
ROOT
ATOM      1  C   UNL A   1      34.215  30.424  27.500  1.00  0.00     0.275 C 
ENDROOT
BRANCH   1   2
ATOM      2  C   UNL A   1      33.906  28.930  27.589  1.00  0.00     0.274 C 
BRANCH   2   3
ATOM      3  O   UNL A   1      32.567  28.563  27.224  1.00  0.00    -0.462 OA
BRANCH   3   4
ATOM      4  C   UNL A   1      32.236  27.858  26.118  1.00  0.00     0.308 C 
ATOM      5  O   UNL A   1      32.837  26.822  25.837  1.00  0.00    -0.252 OA
BRANCH   4   6
ATOM      6  C   UNL A   1      31.144  28.364  25.207  1.00  0.00     0.153 C 
BRANCH   6   7
ATOM      7  C   UNL A   1      31.488  28.611  23.722  1.00  0.00     0.128 C 
BRANCH   7   8
ATOM      8  N   UNL A   1      31.830  27.412  22.937  1.00  0.00    -0.346 N 
ATOM      9  C   UNL A   1      33.041  27.270  22.286  1.00  0.00     0.086 A 
ATOM     10  C   UNL A   1      31.085  26.291  22.677  1.00  0.00     0.086 A 
ATOM     11  C   UNL A   1      33.126  25.991  21.788  1.00  0.00     0.019 A 
ATOM     12  C   UNL A   1      31.882  25.375  22.025  1.00  0.00     0.019 A 
ENDBRANCH   7   8
BRANCH   7  13
ATOM     13  C   UNL A   1      30.450  29.568  23.107  1.00  0.00    -0.014 A 
ATOM     14  C   UNL A   1      30.123  29.756  21.714  1.00  0.00     0.017 A 
ATOM     15  C   UNL A   1      29.568  30.307  23.883  1.00  0.00     0.070 A 
ATOM     16  C   UNL A   1      29.038  30.577  21.508  1.00  0.00     0.065 A 
ATOM     17  S   UNL A   1      28.406  31.169  22.972  1.00  0.00    -0.152 S 
ENDBRANCH   7  13
ENDBRANCH   6   7
ENDBRANCH   4   6
ENDBRANCH   3   4
ENDBRANCH   2   3
ENDBRANCH   1   2
BRANCH   1  18
ATOM     18  O   UNL A   1      35.601  30.700  27.302  1.00  0.00    -0.458 OA
BRANCH  18  19
ATOM     19  C   UNL A   1      36.285  30.817  28.458  1.00  0.00     0.338 C 
ATOM     20  O   UNL A   1      36.106  31.667  29.335  1.00  0.00    -0.246 OA
BRANCH  19  21
ATOM     21  C   UNL A   1      37.342  29.815  28.549  1.00  0.00     0.060 A 
ATOM     22  C   UNL A   1      37.349  28.983  29.673  1.00  0.00     0.016 A 
ATOM     23  C   UNL A   1      38.417  29.855  27.654  1.00  0.00     0.016 A 
ATOM     24  C   UNL A   1      38.487  28.251  29.960  1.00  0.00     0.010 A 
ATOM     25  C   UNL A   1      39.570  29.153  27.963  1.00  0.00     0.010 A 
ATOM     26  C   UNL A   1      39.612  28.385  29.135  1.00  0.00    -0.014 A 
BRANCH  26  27
ATOM     27  C   UNL A   1      40.863  27.720  29.538  1.00  0.00     0.031 A 
ATOM     28  C   UNL A   1      41.146  26.444  28.764  1.00  0.00     0.074 A 
ATOM     29  C   UNL A   1      41.549  28.317  30.558  1.00  0.00     0.049 A 
ATOM     30  N   UNL A   1      41.875  25.426  29.102  1.00  0.00    -0.248 NA
ATOM     31  C   UNL A   1      40.471  26.224  27.457  1.00  0.00     0.031 C 
ATOM     32  C   UNL A   1      41.123  29.568  31.225  1.00  0.00     0.029 A 
ATOM     33  N   UNL A   1      42.707  28.018  31.244  1.00  0.00    -0.354 N 
ATOM     34  C   UNL A   1      41.886  24.539  28.010  1.00  0.00     0.074 A 
ATOM     35  C   UNL A   1      40.929  25.035  27.066  1.00  0.00     0.031 C 
ATOM     36  C   UNL A   1      41.953  29.878  32.240  1.00  0.00     0.029 A 
ATOM     37  C   UNL A   1      43.008  28.889  32.320  1.00  0.00     0.049 A 
ATOM     38  H   UNL A   1      43.283  27.256  31.004  1.00  0.00     0.167 HD
ATOM     39  C   UNL A   1      42.771  23.513  27.885  1.00  0.00     0.031 A 
ATOM     40  C   UNL A   1      44.016  28.813  33.239  1.00  0.00     0.031 A 
ATOM     41  C   UNL A   1      43.604  23.409  29.036  1.00  0.00     0.049 A 
ATOM     42  C   UNL A   1      44.881  27.691  32.834  1.00  0.00     0.074 A 
ATOM     43  C   UNL A   1      43.390  22.984  30.321  1.00  0.00     0.029 A 
ATOM     44  N   UNL A   1      44.801  24.083  28.986  1.00  0.00    -0.354 N 
ATOM     45  N   UNL A   1      45.673  27.691  31.805  1.00  0.00    -0.248 NA
ATOM     46  C   UNL A   1      44.835  26.441  33.603  1.00  0.00     0.031 C 
ATOM     47  C   UNL A   1      44.261  23.781  31.099  1.00  0.00     0.029 A 
ATOM     48  C   UNL A   1      45.028  24.582  30.248  1.00  0.00     0.049 A 
ATOM     49  H   UNL A   1      45.383  24.189  28.200  1.00  0.00     0.167 HD
ATOM     50  C   UNL A   1      45.901  26.352  31.597  1.00  0.00     0.074 A 
ATOM     51  C   UNL A   1      45.642  25.691  32.857  1.00  0.00     0.031 C 
ATOM     52  C   UNL A   1      45.750  25.832  30.352  1.00  0.00     0.031 A 
BRANCH  39  53
ATOM     53  C   UNL A   1      43.137  22.700  26.676  1.00  0.00    -0.014 A 
ATOM     54  C   UNL A   1      42.549  21.418  26.555  1.00  0.00     0.010 A 
ATOM     55  C   UNL A   1      44.244  22.989  25.864  1.00  0.00     0.010 A 
ATOM     56  C   UNL A   1      43.116  20.425  25.755  1.00  0.00     0.020 A 
ATOM     57  C   UNL A   1      44.797  22.007  25.027  1.00  0.00     0.020 A 
ATOM     58  C   UNL A   1      44.262  20.717  25.023  1.00  0.00     0.054 A 
BRANCH  58  59
ATOM     59  S   UNL A   1      45.089  19.370  24.140  1.00  0.00     0.124 S 
ATOM     60  O   UNL A   1      44.562  19.522  22.787  1.00  0.00    -0.237 OA
ATOM     61  O   UNL A   1      46.504  19.702  24.301  1.00  0.00    -0.237 OA
ATOM     62  O   UNL A   1      44.655  18.173  24.856  1.00  0.00    -0.744 OA
ENDBRANCH  58  59
ENDBRANCH  39  53
BRANCH  40  63
ATOM     63  C   UNL A   1      44.361  29.488  34.545  1.00  0.00    -0.014 A 
ATOM     64  C   UNL A   1      45.634  29.932  34.929  1.00  0.00     0.010 A 
ATOM     65  C   UNL A   1      43.297  29.833  35.423  1.00  0.00     0.010 A 
ATOM     66  C   UNL A   1      45.808  30.785  36.042  1.00  0.00     0.020 A 
ATOM     67  C   UNL A   1      43.447  30.714  36.497  1.00  0.00     0.020 A 
ATOM     68  C   UNL A   1      44.706  31.210  36.787  1.00  0.00     0.054 A 
BRANCH  68  69
ATOM     69  S   UNL A   1      44.867  32.511  38.042  1.00  0.00     0.124 S 
ATOM     70  O   UNL A   1      43.870  32.115  39.031  1.00  0.00    -0.237 OA
ATOM     71  O   UNL A   1      46.260  32.391  38.467  1.00  0.00    -0.237 OA
ATOM     72  O   UNL A   1      44.561  33.730  37.295  1.00  0.00    -0.744 OA
ENDBRANCH  68  69
ENDBRANCH  40  63
BRANCH  52  73
ATOM     73  C   UNL A   1      45.915  26.832  29.218  1.00  0.00    -0.014 A 
ATOM     74  C   UNL A   1      47.194  27.300  28.867  1.00  0.00     0.010 A 
ATOM     75  C   UNL A   1      44.812  27.399  28.550  1.00  0.00     0.010 A 
ATOM     76  C   UNL A   1      47.362  28.300  27.895  1.00  0.00     0.020 A 
ATOM     77  C   UNL A   1      44.967  28.395  27.573  1.00  0.00     0.020 A 
ATOM     78  C   UNL A   1      46.246  28.844  27.253  1.00  0.00     0.054 A 
BRANCH  78  79
ATOM     79  S   UNL A   1      46.490  30.163  26.028  1.00  0.00     0.124 S 
ATOM     80  O   UNL A   1      47.747  30.774  26.455  1.00  0.00    -0.237 OA
ATOM     81  O   UNL A   1      46.552  29.421  24.772  1.00  0.00    -0.237 OA
ATOM     82  O   UNL A   1      45.311  31.015  26.187  1.00  0.00    -0.744 OA
ENDBRANCH  78  79
ENDBRANCH  52  73
ENDBRANCH  26  27
ENDBRANCH  19  21
ENDBRANCH  18  19
ENDBRANCH   1  18
TORSDOF 17
ENDMDL
