MODEL 1
REMARK VINA RESULT:      -9.6      0.000      0.000
REMARK SMILES CC[C@@H]([NH3+])C(=O)N1CC[C@H](C(=O)OCCOC(=O)c2ccc(-c3c4nc(c(-c5ccc(S(=O)(=O)[O-])cc5)c5ccc([nH]5)c(-c5ccc(S(=O)(=O)[O-])cc5)c5nc(c(-c6ccc(S(=O)(=O)[O-])cc6)c6ccc3[nH]6)C=C5)C=C4)cc2)[C@@H]1C
REMARK SMILES IDX 14 1 13 2 11 3 12 4 10 5 7 6 8 7 79 8 9 9 80 10 5 11 6 12
REMARK SMILES IDX 3 13 2 14 1 15 4 16 15 20 16 21 17 22 18 23 19 24 20 25
REMARK SMILES IDX 78 26 21 27 77 28 22 29 23 30 24 31 71 32 25 33 76 34 70 35
REMARK SMILES IDX 72 36 26 37 75 38 69 39 68 40 27 42 57 43 38 44 56 45 39 46
REMARK SMILES IDX 42 47 55 48 73 49 40 50 41 51 54 53 74 54 43 55 28 56 29 57
REMARK SMILES IDX 37 58 30 59 36 60 31 61 32 62 33 63 34 64 35 65 58 66 59 67
REMARK SMILES IDX 67 68 60 69 66 70 61 71 62 72 63 73 64 74 65 75 44 76 45 77
REMARK SMILES IDX 53 78 46 79 52 80 47 81 48 82 49 83 50 84 51 85
REMARK H PARENT 4 17 4 18 4 19 72 41 42 52
REMARK Flexibility Score: inf
ROOT
ATOM      1  C   UNL A   1      31.776  29.922  26.242  1.00  0.00     0.274 C 
ENDROOT
BRANCH   1   2
ATOM      2  O   UNL A   1      31.594  28.647  25.595  1.00  0.00    -0.462 OA
BRANCH   2   3
ATOM      3  C   UNL A   1      31.453  27.586  26.443  1.00  0.00     0.311 C 
ATOM      4  O   UNL A   1      31.340  27.719  27.652  1.00  0.00    -0.252 OA
BRANCH   3   5
ATOM      5  C   UNL A   1      31.292  26.280  25.667  1.00  0.00     0.123 C 
ATOM      6  N   UNL A   1      32.442  25.519  23.702  1.00  0.00    -0.334 N 
ATOM      7  C   UNL A   1      31.413  26.442  23.272  1.00  0.00     0.121 C 
ATOM      8  C   UNL A   1      32.576  25.558  25.161  1.00  0.00     0.096 C 
ATOM      9  C   UNL A   1      30.418  26.420  24.416  1.00  0.00     0.039 C 
ATOM     10  C   UNL A   1      33.903  26.217  25.541  1.00  0.00     0.032 C 
BRANCH   6  11
ATOM     11  C   UNL A   1      33.104  24.740  22.774  1.00  0.00     0.280 C 
ATOM     12  O   UNL A   1      33.577  25.268  21.757  1.00  0.00    -0.268 OA
BRANCH  11  13
ATOM     13  C   UNL A   1      33.081  23.177  22.847  1.00  0.00     0.270 C 
BRANCH  13  14
ATOM     14  C   UNL A   1      34.212  22.443  23.570  1.00  0.00     0.072 C 
ATOM     15  C   UNL A   1      35.420  23.322  23.883  1.00  0.00     0.011 C 
ENDBRANCH  13  14
BRANCH  13  16
ATOM     16  N   UNL A   1      31.749  22.769  23.348  1.00  0.00    -0.347 N 
ATOM     17  H   UNL A   1      31.248  23.590  23.689  1.00  0.00     0.345 HD
ATOM     18  H   UNL A   1      31.862  22.099  24.109  1.00  0.00     0.345 HD
ATOM     19  H   UNL A   1      31.218  22.337  22.591  1.00  0.00     0.345 HD
ENDBRANCH  13  16
ENDBRANCH  11  13
ENDBRANCH   6  11
ENDBRANCH   3   5
ENDBRANCH   2   3
ENDBRANCH   1   2
BRANCH   1  20
ATOM     20  C   UNL A   1      33.257  30.242  26.486  1.00  0.00     0.275 C 
BRANCH  20  21
ATOM     21  O   UNL A   1      33.635  30.159  27.875  1.00  0.00    -0.458 OA
BRANCH  21  22
ATOM     22  C   UNL A   1      34.649  30.984  28.236  1.00  0.00     0.338 C 
ATOM     23  O   UNL A   1      34.544  32.156  28.562  1.00  0.00    -0.246 OA
BRANCH  22  24
ATOM     24  C   UNL A   1      35.938  30.263  28.308  1.00  0.00     0.060 A 
ATOM     25  C   UNL A   1      36.278  29.668  29.529  1.00  0.00     0.016 A 
ATOM     26  C   UNL A   1      36.855  30.262  27.253  1.00  0.00     0.016 A 
ATOM     27  C   UNL A   1      37.531  29.094  29.712  1.00  0.00     0.010 A 
ATOM     28  C   UNL A   1      38.126  29.702  27.444  1.00  0.00     0.010 A 
ATOM     29  C   UNL A   1      38.478  29.141  28.683  1.00  0.00    -0.014 A 
BRANCH  29  30
ATOM     30  C   UNL A   1      39.872  28.732  28.984  1.00  0.00     0.031 A 
ATOM     31  C   UNL A   1      40.759  29.673  29.755  1.00  0.00     0.074 A 
ATOM     32  C   UNL A   1      40.310  27.501  28.662  1.00  0.00     0.049 A 
ATOM     33  N   UNL A   1      41.991  29.504  30.158  1.00  0.00    -0.248 NA
ATOM     34  C   UNL A   1      40.173  30.969  30.135  1.00  0.00     0.031 C 
ATOM     35  C   UNL A   1      39.523  26.473  27.982  1.00  0.00     0.029 A 
ATOM     36  N   UNL A   1      41.525  26.903  28.882  1.00  0.00    -0.354 N 
ATOM     37  C   UNL A   1      42.327  30.666  30.845  1.00  0.00     0.074 A 
ATOM     38  C   UNL A   1      41.178  31.544  30.778  1.00  0.00     0.031 C 
ATOM     39  C   UNL A   1      40.276  25.366  27.846  1.00  0.00     0.029 A 
ATOM     40  C   UNL A   1      41.603  25.618  28.403  1.00  0.00     0.049 A 
ATOM     41  H   UNL A   1      42.271  27.352  29.342  1.00  0.00     0.167 HD
ATOM     42  C   UNL A   1      43.482  30.972  31.484  1.00  0.00     0.031 A 
ATOM     43  C   UNL A   1      42.633  24.748  28.403  1.00  0.00     0.031 A 
ATOM     44  C   UNL A   1      44.634  30.112  31.531  1.00  0.00     0.049 A 
ATOM     45  C   UNL A   1      43.940  25.152  29.037  1.00  0.00     0.074 A 
ATOM     46  C   UNL A   1      45.867  30.353  32.111  1.00  0.00     0.029 A 
ATOM     47  N   UNL A   1      44.694  28.842  30.980  1.00  0.00    -0.354 N 
ATOM     48  N   UNL A   1      44.248  26.266  29.659  1.00  0.00    -0.248 NA
ATOM     49  C   UNL A   1      45.034  24.173  28.976  1.00  0.00     0.031 C 
ATOM     50  C   UNL A   1      46.685  29.240  31.881  1.00  0.00     0.029 A 
ATOM     51  C   UNL A   1      45.943  28.289  31.202  1.00  0.00     0.049 A 
ATOM     52  H   UNL A   1      43.956  28.399  30.502  1.00  0.00     0.167 HD
ATOM     53  C   UNL A   1      45.559  26.104  30.097  1.00  0.00     0.074 A 
ATOM     54  C   UNL A   1      45.981  24.783  29.677  1.00  0.00     0.031 C 
ATOM     55  C   UNL A   1      46.344  26.969  30.787  1.00  0.00     0.031 A 
BRANCH  42  56
ATOM     56  C   UNL A   1      43.560  32.313  32.162  1.00  0.00    -0.014 A 
ATOM     57  C   UNL A   1      44.001  33.451  31.463  1.00  0.00     0.010 A 
ATOM     58  C   UNL A   1      43.157  32.444  33.503  1.00  0.00     0.010 A 
ATOM     59  C   UNL A   1      44.068  34.692  32.104  1.00  0.00     0.020 A 
ATOM     60  C   UNL A   1      43.202  33.687  34.140  1.00  0.00     0.020 A 
ATOM     61  C   UNL A   1      43.672  34.801  33.440  1.00  0.00     0.054 A 
BRANCH  61  62
ATOM     62  S   UNL A   1      43.750  36.426  34.243  1.00  0.00     0.124 S 
ATOM     63  O   UNL A   1      43.867  37.323  33.095  1.00  0.00    -0.237 OA
ATOM     64  O   UNL A   1      42.479  36.490  34.962  1.00  0.00    -0.237 OA
ATOM     65  O   UNL A   1      44.937  36.338  35.089  1.00  0.00    -0.744 OA
ENDBRANCH  61  62
ENDBRANCH  42  56
BRANCH  43  66
ATOM     66  C   UNL A   1      42.491  23.411  27.766  1.00  0.00    -0.014 A 
ATOM     67  C   UNL A   1      41.667  22.425  28.336  1.00  0.00     0.010 A 
ATOM     68  C   UNL A   1      43.225  23.100  26.606  1.00  0.00     0.010 A 
ATOM     69  C   UNL A   1      41.609  21.142  27.783  1.00  0.00     0.020 A 
ATOM     70  C   UNL A   1      43.148  21.828  26.034  1.00  0.00     0.020 A 
ATOM     71  C   UNL A   1      42.356  20.850  26.639  1.00  0.00     0.054 A 
BRANCH  71  72
ATOM     72  S   UNL A   1      42.264  19.183  25.929  1.00  0.00     0.124 S 
ATOM     73  O   UNL A   1      43.106  19.312  24.745  1.00  0.00    -0.237 OA
ATOM     74  O   UNL A   1      42.802  18.349  27.001  1.00  0.00    -0.237 OA
ATOM     75  O   UNL A   1      40.837  19.004  25.668  1.00  0.00    -0.744 OA
ENDBRANCH  71  72
ENDBRANCH  43  66
BRANCH  55  76
ATOM     76  C   UNL A   1      47.715  26.488  31.184  1.00  0.00    -0.014 A 
ATOM     77  C   UNL A   1      48.841  26.739  30.380  1.00  0.00     0.010 A 
ATOM     78  C   UNL A   1      47.877  25.790  32.394  1.00  0.00     0.010 A 
ATOM     79  C   UNL A   1      50.098  26.257  30.757  1.00  0.00     0.020 A 
ATOM     80  C   UNL A   1      49.136  25.330  32.787  1.00  0.00     0.020 A 
ATOM     81  C   UNL A   1      50.236  25.548  31.955  1.00  0.00     0.054 A 
BRANCH  81  82
ATOM     82  S   UNL A   1      51.876  24.940  32.432  1.00  0.00     0.124 S 
ATOM     83  O   UNL A   1      51.679  23.493  32.419  1.00  0.00    -0.237 OA
ATOM     84  O   UNL A   1      52.738  25.467  31.377  1.00  0.00    -0.237 OA
ATOM     85  O   UNL A   1      52.092  25.528  33.753  1.00  0.00    -0.744 OA
ENDBRANCH  81  82
ENDBRANCH  55  76
ENDBRANCH  29  30
ENDBRANCH  22  24
ENDBRANCH  21  22
ENDBRANCH  20  21
ENDBRANCH   1  20
TORSDOF 18
ENDMDL
MODEL 2
REMARK VINA RESULT:      -9.5      2.654      9.553
REMARK SMILES CC[C@@H]([NH3+])C(=O)N1CC[C@H](C(=O)OCCOC(=O)c2ccc(-c3c4nc(c(-c5ccc(S(=O)(=O)[O-])cc5)c5ccc([nH]5)c(-c5ccc(S(=O)(=O)[O-])cc5)c5nc(c(-c6ccc(S(=O)(=O)[O-])cc6)c6ccc3[nH]6)C=C5)C=C4)cc2)[C@@H]1C
REMARK SMILES IDX 14 1 13 2 11 3 12 4 10 5 7 6 8 7 79 8 9 9 80 10 5 11 6 12
REMARK SMILES IDX 3 13 2 14 1 15 4 16 15 20 16 21 17 22 18 23 19 24 20 25
REMARK SMILES IDX 78 26 21 27 77 28 22 29 23 30 24 31 71 32 25 33 76 34 70 35
REMARK SMILES IDX 72 36 26 37 75 38 69 39 68 40 27 42 57 43 38 44 56 45 39 46
REMARK SMILES IDX 42 47 55 48 73 49 40 50 41 51 54 53 74 54 43 55 28 56 29 57
REMARK SMILES IDX 37 58 30 59 36 60 31 61 32 62 33 63 34 64 35 65 58 66 59 67
REMARK SMILES IDX 67 68 60 69 66 70 61 71 62 72 63 73 64 74 65 75 44 76 45 77
REMARK SMILES IDX 53 78 46 79 52 80 47 81 48 82 49 83 50 84 51 85
REMARK H PARENT 4 17 4 18 4 19 72 41 42 52
REMARK Flexibility Score: inf
ROOT
ATOM      1  C   UNL A   1      36.012  23.179  25.503  1.00  0.00     0.274 C 
ENDROOT
BRANCH   1   2
ATOM      2  O   UNL A   1      35.115  22.321  24.770  1.00  0.00    -0.462 OA
BRANCH   2   3
ATOM      3  C   UNL A   1      34.053  22.958  24.194  1.00  0.00     0.311 C 
ATOM      4  O   UNL A   1      33.047  22.365  23.832  1.00  0.00    -0.252 OA
BRANCH   3   5
ATOM      5  C   UNL A   1      34.234  24.473  24.230  1.00  0.00     0.123 C 
ATOM      6  N   UNL A   1      32.577  26.208  24.346  1.00  0.00    -0.334 N 
ATOM      7  C   UNL A   1      32.647  25.766  22.969  1.00  0.00     0.121 C 
ATOM      8  C   UNL A   1      33.344  25.302  25.205  1.00  0.00     0.096 C 
ATOM      9  C   UNL A   1      34.026  25.142  22.867  1.00  0.00     0.039 C 
ATOM     10  C   UNL A   1      32.390  24.492  26.085  1.00  0.00     0.032 C 
BRANCH   6  11
ATOM     11  C   UNL A   1      31.886  27.358  24.668  1.00  0.00     0.280 C 
ATOM     12  O   UNL A   1      30.695  27.469  24.340  1.00  0.00    -0.268 OA
BRANCH  11  13
ATOM     13  C   UNL A   1      32.613  28.623  25.232  1.00  0.00     0.270 C 
BRANCH  13  14
ATOM     14  C   UNL A   1      32.927  28.703  26.728  1.00  0.00     0.072 C 
ATOM     15  C   UNL A   1      31.798  28.203  27.625  1.00  0.00     0.011 C 
ENDBRANCH  13  14
BRANCH  13  16
ATOM     16  N   UNL A   1      33.815  28.859  24.402  1.00  0.00    -0.347 N 
ATOM     17  H   UNL A   1      34.629  28.975  25.007  1.00  0.00     0.345 HD
ATOM     18  H   UNL A   1      33.683  29.703  23.844  1.00  0.00     0.345 HD
ATOM     19  H   UNL A   1      33.964  28.063  23.783  1.00  0.00     0.345 HD
ENDBRANCH  13  16
ENDBRANCH  11  13
ENDBRANCH   6  11
ENDBRANCH   3   5
ENDBRANCH   2   3
ENDBRANCH   1   2
BRANCH   1  20
ATOM     20  C   UNL A   1      37.481  22.944  25.121  1.00  0.00     0.275 C 
BRANCH  20  21
ATOM     21  O   UNL A   1      38.219  22.217  26.125  1.00  0.00    -0.458 OA
BRANCH  21  22
ATOM     22  C   UNL A   1      39.491  22.647  26.313  1.00  0.00     0.338 C 
ATOM     23  O   UNL A   1      40.508  22.062  25.973  1.00  0.00    -0.246 OA
BRANCH  22  24
ATOM     24  C   UNL A   1      39.526  24.007  26.893  1.00  0.00     0.060 A 
ATOM     25  C   UNL A   1      40.219  24.995  26.182  1.00  0.00     0.016 A 
ATOM     26  C   UNL A   1      39.002  24.295  28.156  1.00  0.00     0.016 A 
ATOM     27  C   UNL A   1      40.412  26.258  26.731  1.00  0.00     0.010 A 
ATOM     28  C   UNL A   1      39.215  25.562  28.718  1.00  0.00     0.010 A 
ATOM     29  C   UNL A   1      39.944  26.539  28.019  1.00  0.00    -0.014 A 
BRANCH  29  30
ATOM     30  C   UNL A   1      40.364  27.806  28.665  1.00  0.00     0.031 A 
ATOM     31  C   UNL A   1      41.790  27.956  29.122  1.00  0.00     0.074 A 
ATOM     32  C   UNL A   1      39.513  28.846  28.753  1.00  0.00     0.049 A 
ATOM     33  N   UNL A   1      42.379  28.985  29.673  1.00  0.00    -0.248 NA
ATOM     34  C   UNL A   1      42.673  26.796  28.916  1.00  0.00     0.031 C 
ATOM     35  C   UNL A   1      38.130  28.850  28.278  1.00  0.00     0.029 A 
ATOM     36  N   UNL A   1      39.699  30.107  29.260  1.00  0.00    -0.354 N 
ATOM     37  C   UNL A   1      43.701  28.603  29.873  1.00  0.00     0.074 A 
ATOM     38  C   UNL A   1      43.820  27.236  29.412  1.00  0.00     0.031 C 
ATOM     39  C   UNL A   1      37.593  30.061  28.512  1.00  0.00     0.029 A 
ATOM     40  C   UNL A   1      38.584  30.905  29.177  1.00  0.00     0.049 A 
ATOM     41  H   UNL A   1      40.551  30.412  29.646  1.00  0.00     0.167 HD
ATOM     42  C   UNL A   1      44.727  29.326  30.384  1.00  0.00     0.031 A 
ATOM     43  C   UNL A   1      38.383  32.169  29.599  1.00  0.00     0.031 A 
ATOM     44  C   UNL A   1      44.605  30.676  30.865  1.00  0.00     0.049 A 
ATOM     45  C   UNL A   1      39.516  32.918  30.252  1.00  0.00     0.074 A 
ATOM     46  C   UNL A   1      45.576  31.475  31.445  1.00  0.00     0.029 A 
ATOM     47  N   UNL A   1      43.443  31.429  30.819  1.00  0.00    -0.354 N 
ATOM     48  N   UNL A   1      40.753  32.531  30.457  1.00  0.00    -0.248 NA
ATOM     49  C   UNL A   1      39.226  34.280  30.721  1.00  0.00     0.031 C 
ATOM     50  C   UNL A   1      44.989  32.701  31.781  1.00  0.00     0.029 A 
ATOM     51  C   UNL A   1      43.669  32.681  31.364  1.00  0.00     0.049 A 
ATOM     52  H   UNL A   1      42.584  31.119  30.452  1.00  0.00     0.167 HD
ATOM     53  C   UNL A   1      41.397  33.617  31.043  1.00  0.00     0.074 A 
ATOM     54  C   UNL A   1      40.416  34.677  31.151  1.00  0.00     0.031 C 
ATOM     55  C   UNL A   1      42.685  33.729  31.454  1.00  0.00     0.031 A 
BRANCH  42  56
ATOM     56  C   UNL A   1      46.069  28.652  30.471  1.00  0.00    -0.014 A 
ATOM     57  C   UNL A   1      47.012  28.782  29.435  1.00  0.00     0.010 A 
ATOM     58  C   UNL A   1      46.406  27.907  31.615  1.00  0.00     0.010 A 
ATOM     59  C   UNL A   1      48.255  28.151  29.528  1.00  0.00     0.020 A 
ATOM     60  C   UNL A   1      47.657  27.293  31.721  1.00  0.00     0.020 A 
ATOM     61  C   UNL A   1      48.568  27.407  30.669  1.00  0.00     0.054 A 
BRANCH  61  62
ATOM     62  S   UNL A   1      50.197  26.615  30.775  1.00  0.00     0.124 S 
ATOM     63  O   UNL A   1      50.648  27.032  32.101  1.00  0.00    -0.237 OA
ATOM     64  O   UNL A   1      49.874  25.197  30.639  1.00  0.00    -0.237 OA
ATOM     65  O   UNL A   1      50.937  27.192  29.655  1.00  0.00    -0.744 OA
ENDBRANCH  61  62
ENDBRANCH  42  56
BRANCH  43  66
ATOM     66  C   UNL A   1      37.050  32.814  29.443  1.00  0.00    -0.014 A 
ATOM     67  C   UNL A   1      36.661  33.376  28.214  1.00  0.00     0.010 A 
ATOM     68  C   UNL A   1      36.181  32.914  30.545  1.00  0.00     0.010 A 
ATOM     69  C   UNL A   1      35.447  34.059  28.100  1.00  0.00     0.020 A 
ATOM     70  C   UNL A   1      34.954  33.571  30.427  1.00  0.00     0.020 A 
ATOM     71  C   UNL A   1      34.604  34.159  29.209  1.00  0.00     0.054 A 
BRANCH  71  72
ATOM     72  S   UNL A   1      33.028  35.042  29.042  1.00  0.00     0.124 S 
ATOM     73  O   UNL A   1      32.351  34.259  28.014  1.00  0.00    -0.237 OA
ATOM     74  O   UNL A   1      32.464  34.945  30.386  1.00  0.00    -0.237 OA
ATOM     75  O   UNL A   1      33.434  36.387  28.641  1.00  0.00    -0.744 OA
ENDBRANCH  71  72
ENDBRANCH  43  66
BRANCH  55  76
ATOM     76  C   UNL A   1      43.120  35.064  31.999  1.00  0.00    -0.014 A 
ATOM     77  C   UNL A   1      43.687  36.047  31.168  1.00  0.00     0.010 A 
ATOM     78  C   UNL A   1      42.938  35.342  33.366  1.00  0.00     0.010 A 
ATOM     79  C   UNL A   1      44.109  37.267  31.705  1.00  0.00     0.020 A 
ATOM     80  C   UNL A   1      43.334  36.569  33.901  1.00  0.00     0.020 A 
ATOM     81  C   UNL A   1      43.937  37.517  33.071  1.00  0.00     0.054 A 
BRANCH  81  82
ATOM     82  S   UNL A   1      44.480  39.109  33.747  1.00  0.00     0.124 S 
ATOM     83  O   UNL A   1      44.869  38.744  35.107  1.00  0.00    -0.237 OA
ATOM     84  O   UNL A   1      45.578  39.482  32.859  1.00  0.00    -0.237 OA
ATOM     85  O   UNL A   1      43.291  39.953  33.644  1.00  0.00    -0.744 OA
ENDBRANCH  81  82
ENDBRANCH  55  76
ENDBRANCH  29  30
ENDBRANCH  22  24
ENDBRANCH  21  22
ENDBRANCH  20  21
ENDBRANCH   1  20
TORSDOF 18
ENDMDL
MODEL 3
REMARK VINA RESULT:      -9.5      5.011     10.939
REMARK SMILES CC[C@@H]([NH3+])C(=O)N1CC[C@H](C(=O)OCCOC(=O)c2ccc(-c3c4nc(c(-c5ccc(S(=O)(=O)[O-])cc5)c5ccc([nH]5)c(-c5ccc(S(=O)(=O)[O-])cc5)c5nc(c(-c6ccc(S(=O)(=O)[O-])cc6)c6ccc3[nH]6)C=C5)C=C4)cc2)[C@@H]1C
REMARK SMILES IDX 14 1 13 2 11 3 12 4 10 5 7 6 8 7 79 8 9 9 80 10 5 11 6 12
REMARK SMILES IDX 3 13 2 14 1 15 4 16 15 20 16 21 17 22 18 23 19 24 20 25
REMARK SMILES IDX 78 26 21 27 77 28 22 29 23 30 24 31 71 32 25 33 76 34 70 35
REMARK SMILES IDX 72 36 26 37 75 38 69 39 68 40 27 42 57 43 38 44 56 45 39 46
REMARK SMILES IDX 42 47 55 48 73 49 40 50 41 51 54 53 74 54 43 55 28 56 29 57
REMARK SMILES IDX 37 58 30 59 36 60 31 61 32 62 33 63 34 64 35 65 58 66 59 67
REMARK SMILES IDX 67 68 60 69 66 70 61 71 62 72 63 73 64 74 65 75 44 76 45 77
REMARK SMILES IDX 53 78 46 79 52 80 47 81 48 82 49 83 50 84 51 85
REMARK H PARENT 4 17 4 18 4 19 72 41 42 52
REMARK Flexibility Score: inf
ROOT
ATOM      1  C   UNL A   1      37.387  23.785  25.879  1.00  0.00     0.274 C 
ENDROOT
BRANCH   1   2
ATOM      2  O   UNL A   1      37.382  22.857  24.776  1.00  0.00    -0.462 OA
BRANCH   2   3
ATOM      3  C   UNL A   1      36.213  22.806  24.072  1.00  0.00     0.311 C 
ATOM      4  O   UNL A   1      36.148  23.073  22.881  1.00  0.00    -0.252 OA
BRANCH   3   5
ATOM      5  C   UNL A   1      35.085  22.224  24.921  1.00  0.00     0.123 C 
ATOM      6  N   UNL A   1      33.902  20.149  24.675  1.00  0.00    -0.334 N 
ATOM      7  C   UNL A   1      33.334  21.087  23.730  1.00  0.00     0.121 C 
ATOM      8  C   UNL A   1      35.125  20.705  25.262  1.00  0.00     0.096 C 
ATOM      9  C   UNL A   1      33.695  22.440  24.314  1.00  0.00     0.039 C 
ATOM     10  C   UNL A   1      36.343  19.938  24.742  1.00  0.00     0.032 C 
BRANCH   6  11
ATOM     11  C   UNL A   1      33.266  18.951  24.927  1.00  0.00     0.280 C 
ATOM     12  O   UNL A   1      32.519  18.849  25.912  1.00  0.00    -0.268 OA
BRANCH  11  13
ATOM     13  C   UNL A   1      33.629  17.647  24.144  1.00  0.00     0.270 C 
BRANCH  13  14
ATOM     14  C   UNL A   1      34.050  16.397  24.921  1.00  0.00     0.072 C 
ATOM     15  C   UNL A   1      32.894  15.458  25.256  1.00  0.00     0.011 C 
ENDBRANCH  13  14
BRANCH  13  16
ATOM     16  N   UNL A   1      32.524  17.365  23.201  1.00  0.00    -0.347 N 
ATOM     17  H   UNL A   1      31.643  17.316  23.714  1.00  0.00     0.345 HD
ATOM     18  H   UNL A   1      32.695  16.474  22.733  1.00  0.00     0.345 HD
ATOM     19  H   UNL A   1      32.471  18.109  22.505  1.00  0.00     0.345 HD
ENDBRANCH  13  16
ENDBRANCH  11  13
ENDBRANCH   6  11
ENDBRANCH   3   5
ENDBRANCH   2   3
ENDBRANCH   1   2
BRANCH   1  20
ATOM     20  C   UNL A   1      38.783  23.940  26.499  1.00  0.00     0.275 C 
BRANCH  20  21
ATOM     21  O   UNL A   1      39.187  25.316  26.649  1.00  0.00    -0.458 OA
BRANCH  21  22
ATOM     22  C   UNL A   1      40.269  25.505  27.445  1.00  0.00     0.338 C 
ATOM     23  O   UNL A   1      41.376  25.015  27.285  1.00  0.00    -0.246 OA
BRANCH  22  24
ATOM     24  C   UNL A   1      39.996  26.495  28.509  1.00  0.00     0.060 A 
ATOM     25  C   UNL A   1      40.819  27.627  28.564  1.00  0.00     0.016 A 
ATOM     26  C   UNL A   1      39.041  26.278  29.506  1.00  0.00     0.016 A 
ATOM     27  C   UNL A   1      40.711  28.530  29.616  1.00  0.00     0.010 A 
ATOM     28  C   UNL A   1      38.947  27.176  30.578  1.00  0.00     0.010 A 
ATOM     29  C   UNL A   1      39.800  28.291  30.651  1.00  0.00    -0.014 A 
BRANCH  29  30
ATOM     30  C   UNL A   1      39.870  29.138  31.866  1.00  0.00     0.031 A 
ATOM     31  C   UNL A   1      41.018  28.951  32.823  1.00  0.00     0.074 A 
ATOM     32  C   UNL A   1      38.980  30.129  32.064  1.00  0.00     0.049 A 
ATOM     33  N   UNL A   1      41.295  29.605  33.921  1.00  0.00    -0.248 NA
ATOM     34  C   UNL A   1      41.989  27.896  32.488  1.00  0.00     0.031 C 
ATOM     35  C   UNL A   1      37.870  30.459  31.171  1.00  0.00     0.029 A 
ATOM     36  N   UNL A   1      38.884  31.050  33.076  1.00  0.00    -0.354 N 
ATOM     37  C   UNL A   1      42.474  29.049  34.405  1.00  0.00     0.074 A 
ATOM     38  C   UNL A   1      42.843  27.984  33.497  1.00  0.00     0.031 C 
ATOM     39  C   UNL A   1      37.206  31.516  31.674  1.00  0.00     0.029 A 
ATOM     40  C   UNL A   1      37.827  31.916  32.935  1.00  0.00     0.049 A 
ATOM     41  H   UNL A   1      39.515  31.088  33.831  1.00  0.00     0.167 HD
ATOM     42  C   UNL A   1      43.191  29.399  35.500  1.00  0.00     0.031 A 
ATOM     43  C   UNL A   1      37.403  32.912  33.739  1.00  0.00     0.031 A 
ATOM     44  C   UNL A   1      42.814  30.441  36.417  1.00  0.00     0.049 A 
ATOM     45  C   UNL A   1      38.167  33.216  35.002  1.00  0.00     0.074 A 
ATOM     46  C   UNL A   1      43.449  30.836  37.581  1.00  0.00     0.029 A 
ATOM     47  N   UNL A   1      41.702  31.255  36.272  1.00  0.00    -0.354 N 
ATOM     48  N   UNL A   1      39.266  32.663  35.458  1.00  0.00    -0.248 NA
ATOM     49  C   UNL A   1      37.636  34.291  35.853  1.00  0.00     0.031 C 
ATOM     50  C   UNL A   1      42.702  31.870  38.158  1.00  0.00     0.029 A 
ATOM     51  C   UNL A   1      41.630  32.148  37.326  1.00  0.00     0.049 A 
ATOM     52  H   UNL A   1      41.059  31.205  35.528  1.00  0.00     0.167 HD
ATOM     53  C   UNL A   1      39.577  33.348  36.629  1.00  0.00     0.074 A 
ATOM     54  C   UNL A   1      38.557  34.362  36.804  1.00  0.00     0.031 C 
ATOM     55  C   UNL A   1      40.615  33.159  37.481  1.00  0.00     0.031 A 
BRANCH  42  56
ATOM     56  C   UNL A   1      44.450  28.622  35.776  1.00  0.00    -0.014 A 
ATOM     57  C   UNL A   1      45.691  29.053  35.274  1.00  0.00     0.010 A 
ATOM     58  C   UNL A   1      44.398  27.465  36.574  1.00  0.00     0.010 A 
ATOM     59  C   UNL A   1      46.853  28.323  35.538  1.00  0.00     0.020 A 
ATOM     60  C   UNL A   1      45.561  26.745  36.859  1.00  0.00     0.020 A 
ATOM     61  C   UNL A   1      46.779  27.170  36.326  1.00  0.00     0.054 A 
BRANCH  61  62
ATOM     62  S   UNL A   1      48.305  26.251  36.672  1.00  0.00     0.124 S 
ATOM     63  O   UNL A   1      48.312  26.219  38.133  1.00  0.00    -0.237 OA
ATOM     64  O   UNL A   1      48.062  24.968  36.017  1.00  0.00    -0.237 OA
ATOM     65  O   UNL A   1      49.350  27.071  36.062  1.00  0.00    -0.744 OA
ENDBRANCH  61  62
ENDBRANCH  42  56
BRANCH  43  66
ATOM     66  C   UNL A   1      36.181  33.689  33.396  1.00  0.00    -0.014 A 
ATOM     67  C   UNL A   1      34.901  33.169  33.653  1.00  0.00     0.010 A 
ATOM     68  C   UNL A   1      36.296  34.941  32.762  1.00  0.00     0.010 A 
ATOM     69  C   UNL A   1      33.759  33.865  33.247  1.00  0.00     0.020 A 
ATOM     70  C   UNL A   1      35.156  35.652  32.380  1.00  0.00     0.020 A 
ATOM     71  C   UNL A   1      33.893  35.100  32.606  1.00  0.00     0.054 A 
BRANCH  71  72
ATOM     72  S   UNL A   1      32.401  35.994  32.092  1.00  0.00     0.124 S 
ATOM     73  O   UNL A   1      32.594  37.293  32.728  1.00  0.00    -0.237 OA
ATOM     74  O   UNL A   1      32.506  35.980  30.636  1.00  0.00    -0.237 OA
ATOM     75  O   UNL A   1      31.315  35.183  32.639  1.00  0.00    -0.744 OA
ENDBRANCH  71  72
ENDBRANCH  43  66
BRANCH  55  76
ATOM     76  C   UNL A   1      40.732  34.107  38.645  1.00  0.00    -0.014 A 
ATOM     77  C   UNL A   1      40.093  33.846  39.871  1.00  0.00     0.010 A 
ATOM     78  C   UNL A   1      41.514  35.269  38.512  1.00  0.00     0.010 A 
ATOM     79  C   UNL A   1      40.194  34.758  40.926  1.00  0.00     0.020 A 
ATOM     80  C   UNL A   1      41.639  36.168  39.573  1.00  0.00     0.020 A 
ATOM     81  C   UNL A   1      40.960  35.917  40.768  1.00  0.00     0.054 A 
BRANCH  81  82
ATOM     82  S   UNL A   1      41.088  37.081  42.152  1.00  0.00     0.124 S 
ATOM     83  O   UNL A   1      41.953  36.356  43.079  1.00  0.00    -0.237 OA
ATOM     84  O   UNL A   1      41.684  38.261  41.530  1.00  0.00    -0.237 OA
ATOM     85  O   UNL A   1      39.705  37.250  42.593  1.00  0.00    -0.744 OA
ENDBRANCH  81  82
ENDBRANCH  55  76
ENDBRANCH  29  30
ENDBRANCH  22  24
ENDBRANCH  21  22
ENDBRANCH  20  21
ENDBRANCH   1  20
TORSDOF 18
ENDMDL
