MODEL 1
REMARK VINA RESULT:     -12.2      0.000      0.000
REMARK SMILES O=C(OCCOC(=O)[C@@H](Cc1ccc(F)cc1)NC(=O)c1ccn(C2CCCC2)n1)c1ccc(-c2c3nc(c(-c4ccc(S(=O)(=O)[O-])cc4)c4ccc([nH]4)c(-c4ccc(S(=O)(=O)[O-])cc4)c4nc(c(-c5ccc(S(=O)(=O)[O-])cc5)c5ccc2[nH]5)C=C4)C=C3)cc1
REMARK SMILES IDX 4 1 3 2 2 3 1 4 31 5 32 6 90 7 33 8 89 9 34 10 35 11 36 12
REMARK SMILES IDX 83 13 37 14 88 15 82 16 84 17 38 18 87 19 81 20 80 21 39 23
REMARK SMILES IDX 69 24 50 25 68 26 51 27 54 28 67 29 85 30 52 31 53 32 66 34
REMARK SMILES IDX 86 35 55 36 40 37 41 38 49 39 42 40 48 41 43 42 44 43 45 44
REMARK SMILES IDX 46 45 47 46 70 47 71 48 79 49 72 50 78 51 73 52 74 53 75 54
REMARK SMILES IDX 76 55 77 56 56 57 57 58 65 59 58 60 64 61 59 62 60 63 61 64
REMARK SMILES IDX 62 65 63 66 5 67 6 68 7 69 8 70 9 71 10 72 11 73 12 74 17 75
REMARK SMILES IDX 13 76 16 77 14 78 15 79 18 80 19 81 20 83 21 84 22 85 30 86
REMARK SMILES IDX 23 87 24 88 25 89 26 90 29 91 27 92 28 93
REMARK H PARENT 84 22 54 33 18 82
REMARK Flexibility Score: inf
ROOT
ATOM      1  C   UNL A   1      32.484  30.647  26.506  1.00  0.00     0.275 C 
ENDROOT
BRANCH   1   2
ATOM      2  O   UNL A   1      33.663  30.316  27.273  1.00  0.00    -0.458 OA
BRANCH   2   3
ATOM      3  C   UNL A   1      34.442  31.315  27.734  1.00  0.00     0.338 C 
ATOM      4  O   UNL A   1      34.063  32.465  27.937  1.00  0.00    -0.246 OA
BRANCH   3   5
ATOM      5  C   UNL A   1      35.812  30.854  28.046  1.00  0.00     0.060 A 
ATOM      6  C   UNL A   1      36.764  31.701  28.632  1.00  0.00     0.016 A 
ATOM      7  C   UNL A   1      36.122  29.509  27.808  1.00  0.00     0.016 A 
ATOM      8  C   UNL A   1      38.024  31.209  28.954  1.00  0.00     0.010 A 
ATOM      9  C   UNL A   1      37.388  29.024  28.111  1.00  0.00     0.010 A 
ATOM     10  C   UNL A   1      38.343  29.879  28.668  1.00  0.00    -0.014 A 
BRANCH  10  11
ATOM     11  C   UNL A   1      39.678  29.393  29.000  1.00  0.00     0.031 A 
ATOM     12  C   UNL A   1      39.966  29.164  30.450  1.00  0.00     0.074 A 
ATOM     13  C   UNL A   1      40.562  29.027  28.049  1.00  0.00     0.049 A 
ATOM     14  N   UNL A   1      40.847  29.746  31.197  1.00  0.00    -0.248 NA
ATOM     15  C   UNL A   1      39.117  28.208  31.179  1.00  0.00     0.031 C 
ATOM     16  C   UNL A   1      40.336  28.892  26.606  1.00  0.00     0.029 A 
ATOM     17  N   UNL A   1      41.841  28.585  28.198  1.00  0.00    -0.354 N 
ATOM     18  C   UNL A   1      40.796  29.116  32.444  1.00  0.00     0.074 A 
ATOM     19  C   UNL A   1      39.639  28.256  32.407  1.00  0.00     0.031 C 
ATOM     20  C   UNL A   1      41.351  28.181  26.061  1.00  0.00     0.029 A 
ATOM     21  C   UNL A   1      42.362  27.950  27.077  1.00  0.00     0.049 A 
ATOM     22  H   UNL A   1      42.352  28.704  29.030  1.00  0.00     0.167 HD
ATOM     23  C   UNL A   1      41.807  29.215  33.355  1.00  0.00     0.031 A 
ATOM     24  C   UNL A   1      43.514  27.235  27.008  1.00  0.00     0.031 A 
ATOM     25  C   UNL A   1      42.715  30.280  33.032  1.00  0.00     0.049 A 
ATOM     26  C   UNL A   1      44.359  27.655  28.153  1.00  0.00     0.074 A 
ATOM     27  C   UNL A   1      42.611  31.652  32.920  1.00  0.00     0.029 A 
ATOM     28  N   UNL A   1      43.891  29.941  32.407  1.00  0.00    -0.354 N 
ATOM     29  N   UNL A   1      44.842  28.860  28.279  1.00  0.00    -0.248 NA
ATOM     30  C   UNL A   1      44.276  26.884  29.384  1.00  0.00     0.031 C 
ATOM     31  C   UNL A   1      43.432  31.982  31.804  1.00  0.00     0.029 A 
ATOM     32  C   UNL A   1      44.038  30.806  31.356  1.00  0.00     0.049 A 
ATOM     33  H   UNL A   1      44.506  29.217  32.664  1.00  0.00     0.167 HD
ATOM     34  C   UNL A   1      44.728  29.151  29.630  1.00  0.00     0.074 A 
ATOM     35  C   UNL A   1      44.448  27.867  30.273  1.00  0.00     0.031 C 
ATOM     36  C   UNL A   1      44.599  30.437  30.075  1.00  0.00     0.031 A 
BRANCH  23  37
ATOM     37  C   UNL A   1      42.196  28.139  34.346  1.00  0.00    -0.014 A 
ATOM     38  C   UNL A   1      41.989  28.382  35.724  1.00  0.00     0.010 A 
ATOM     39  C   UNL A   1      43.018  27.048  34.008  1.00  0.00     0.010 A 
ATOM     40  C   UNL A   1      42.656  27.639  36.707  1.00  0.00     0.020 A 
ATOM     41  C   UNL A   1      43.656  26.273  34.983  1.00  0.00     0.020 A 
ATOM     42  C   UNL A   1      43.505  26.601  36.325  1.00  0.00     0.054 A 
BRANCH  42  43
ATOM     43  S   UNL A   1      44.474  25.745  37.593  1.00  0.00     0.124 S 
ATOM     44  O   UNL A   1      43.858  26.232  38.823  1.00  0.00    -0.237 OA
ATOM     45  O   UNL A   1      44.231  24.341  37.275  1.00  0.00    -0.237 OA
ATOM     46  O   UNL A   1      45.839  26.208  37.350  1.00  0.00    -0.744 OA
ENDBRANCH  42  43
ENDBRANCH  23  37
BRANCH  24  47
ATOM     47  C   UNL A   1      43.737  25.970  26.256  1.00  0.00    -0.014 A 
ATOM     48  C   UNL A   1      44.929  25.725  25.549  1.00  0.00     0.010 A 
ATOM     49  C   UNL A   1      42.869  24.879  26.468  1.00  0.00     0.010 A 
ATOM     50  C   UNL A   1      45.257  24.427  25.109  1.00  0.00     0.020 A 
ATOM     51  C   UNL A   1      43.187  23.587  26.032  1.00  0.00     0.020 A 
ATOM     52  C   UNL A   1      44.390  23.363  25.370  1.00  0.00     0.054 A 
BRANCH  52  53
ATOM     53  S   UNL A   1      44.890  21.664  24.948  1.00  0.00     0.124 S 
ATOM     54  O   UNL A   1      44.702  21.635  23.500  1.00  0.00    -0.237 OA
ATOM     55  O   UNL A   1      46.274  21.615  25.407  1.00  0.00    -0.237 OA
ATOM     56  O   UNL A   1      43.958  20.833  25.710  1.00  0.00    -0.744 OA
ENDBRANCH  52  53
ENDBRANCH  24  47
BRANCH  36  57
ATOM     57  C   UNL A   1      44.805  31.572  29.101  1.00  0.00    -0.014 A 
ATOM     58  C   UNL A   1      46.039  32.232  28.930  1.00  0.00     0.010 A 
ATOM     59  C   UNL A   1      43.774  31.823  28.180  1.00  0.00     0.010 A 
ATOM     60  C   UNL A   1      46.231  33.121  27.860  1.00  0.00     0.020 A 
ATOM     61  C   UNL A   1      43.964  32.695  27.105  1.00  0.00     0.020 A 
ATOM     62  C   UNL A   1      45.192  33.340  26.950  1.00  0.00     0.054 A 
BRANCH  62  63
ATOM     63  S   UNL A   1      45.471  34.417  25.516  1.00  0.00     0.124 S 
ATOM     64  O   UNL A   1      44.965  35.705  25.982  1.00  0.00    -0.237 OA
ATOM     65  O   UNL A   1      46.919  34.341  25.329  1.00  0.00    -0.237 OA
ATOM     66  O   UNL A   1      44.686  33.792  24.452  1.00  0.00    -0.744 OA
ENDBRANCH  62  63
ENDBRANCH  36  57
ENDBRANCH  10  11
ENDBRANCH   3   5
ENDBRANCH   2   3
ENDBRANCH   1   2
BRANCH   1  67
ATOM     67  C   UNL A   1      32.080  29.680  25.393  1.00  0.00     0.274 C 
BRANCH  67  68
ATOM     68  O   UNL A   1      32.144  28.355  25.945  1.00  0.00    -0.461 OA
BRANCH  68  69
ATOM     69  C   UNL A   1      31.382  27.387  25.393  1.00  0.00     0.329 C 
ATOM     70  O   UNL A   1      30.313  27.590  24.831  1.00  0.00    -0.250 OA
BRANCH  69  71
ATOM     71  C   UNL A   1      32.058  26.006  25.503  1.00  0.00     0.197 C 
BRANCH  71  72
ATOM     72  C   UNL A   1      33.590  25.904  25.685  1.00  0.00     0.072 C 
BRANCH  72  73
ATOM     73  C   UNL A   1      34.361  24.661  25.283  1.00  0.00    -0.045 A 
ATOM     74  C   UNL A   1      34.854  23.761  26.242  1.00  0.00     0.007 A 
ATOM     75  C   UNL A   1      34.742  24.459  23.947  1.00  0.00     0.007 A 
ATOM     76  C   UNL A   1      35.625  22.655  25.886  1.00  0.00     0.039 A 
ATOM     77  C   UNL A   1      35.555  23.375  23.590  1.00  0.00     0.039 A 
ATOM     78  C   UNL A   1      35.972  22.473  24.560  1.00  0.00     0.123 A 
ATOM     79  F   UNL A   1      36.738  21.428  24.219  1.00  0.00    -0.207 F 
ENDBRANCH  72  73
ENDBRANCH  71  72
BRANCH  71  80
ATOM     80  N   UNL A   1      31.358  25.189  26.494  1.00  0.00    -0.337 N 
ATOM     81  C   UNL A   1      30.887  23.900  26.368  1.00  0.00     0.272 C 
ATOM     82  H   UNL A   1      31.201  25.617  27.366  1.00  0.00     0.164 HD
ATOM     83  O   UNL A   1      30.129  23.485  27.246  1.00  0.00    -0.267 OA
BRANCH  81  84
ATOM     84  C   UNL A   1      31.307  23.076  25.221  1.00  0.00     0.150 A 
ATOM     85  C   UNL A   1      31.150  23.327  23.828  1.00  0.00     0.056 A 
ATOM     86  N   UNL A   1      31.970  21.922  25.410  1.00  0.00    -0.167 NA
ATOM     87  C   UNL A   1      31.704  22.242  23.189  1.00  0.00     0.110 A 
ATOM     88  N   UNL A   1      32.194  21.440  24.177  1.00  0.00    -0.269 N 
BRANCH  88  89
ATOM     89  C   UNL A   1      32.927  20.203  24.010  1.00  0.00     0.107 C 
ATOM     90  C   UNL A   1      33.084  19.407  25.304  1.00  0.00     0.027 C 
ATOM     91  C   UNL A   1      32.255  19.207  23.064  1.00  0.00     0.027 C 
ATOM     92  C   UNL A   1      33.467  18.014  24.831  1.00  0.00     0.002 C 
ATOM     93  C   UNL A   1      32.808  17.840  23.463  1.00  0.00     0.002 C 
ENDBRANCH  88  89
ENDBRANCH  81  84
ENDBRANCH  71  80
ENDBRANCH  69  71
ENDBRANCH  68  69
ENDBRANCH  67  68
ENDBRANCH   1  67
TORSDOF 19
ENDMDL
MODEL 2
REMARK VINA RESULT:     -12.1      2.886      9.232
REMARK SMILES O=C(OCCOC(=O)[C@@H](Cc1ccc(F)cc1)NC(=O)c1ccn(C2CCCC2)n1)c1ccc(-c2c3nc(c(-c4ccc(S(=O)(=O)[O-])cc4)c4ccc([nH]4)c(-c4ccc(S(=O)(=O)[O-])cc4)c4nc(c(-c5ccc(S(=O)(=O)[O-])cc5)c5ccc2[nH]5)C=C4)C=C3)cc1
REMARK SMILES IDX 4 1 3 2 2 3 1 4 31 5 32 6 90 7 33 8 89 9 34 10 35 11 36 12
REMARK SMILES IDX 83 13 37 14 88 15 82 16 84 17 38 18 87 19 81 20 80 21 39 23
REMARK SMILES IDX 69 24 50 25 68 26 51 27 54 28 67 29 85 30 52 31 53 32 66 34
REMARK SMILES IDX 86 35 55 36 40 37 41 38 49 39 42 40 48 41 43 42 44 43 45 44
REMARK SMILES IDX 46 45 47 46 70 47 71 48 79 49 72 50 78 51 73 52 74 53 75 54
REMARK SMILES IDX 76 55 77 56 56 57 57 58 65 59 58 60 64 61 59 62 60 63 61 64
REMARK SMILES IDX 62 65 63 66 5 67 6 68 7 69 8 70 9 71 10 72 11 73 12 74 17 75
REMARK SMILES IDX 13 76 16 77 14 78 15 79 18 80 19 81 20 83 21 84 22 85 30 86
REMARK SMILES IDX 23 87 24 88 25 89 26 90 29 91 27 92 28 93
REMARK H PARENT 84 22 54 33 18 82
REMARK Flexibility Score: inf
ROOT
ATOM      1  C   UNL A   1      37.562  21.564  24.987  1.00  0.00     0.275 C 
ENDROOT
BRANCH   1   2
ATOM      2  O   UNL A   1      38.148  21.690  26.302  1.00  0.00    -0.458 OA
BRANCH   2   3
ATOM      3  C   UNL A   1      39.482  21.847  26.408  1.00  0.00     0.338 C 
ATOM      4  O   UNL A   1      40.318  21.022  26.047  1.00  0.00    -0.246 OA
BRANCH   3   5
ATOM      5  C   UNL A   1      39.845  23.174  26.950  1.00  0.00     0.060 A 
ATOM      6  C   UNL A   1      38.993  24.282  26.832  1.00  0.00     0.016 A 
ATOM      7  C   UNL A   1      41.046  23.286  27.662  1.00  0.00     0.016 A 
ATOM      8  C   UNL A   1      39.353  25.498  27.401  1.00  0.00     0.010 A 
ATOM      9  C   UNL A   1      41.416  24.507  28.212  1.00  0.00     0.010 A 
ATOM     10  C   UNL A   1      40.577  25.616  28.066  1.00  0.00    -0.014 A 
BRANCH  10  11
ATOM     11  C   UNL A   1      40.940  26.908  28.639  1.00  0.00     0.031 A 
ATOM     12  C   UNL A   1      42.105  27.611  28.021  1.00  0.00     0.074 A 
ATOM     13  C   UNL A   1      40.181  27.511  29.577  1.00  0.00     0.049 A 
ATOM     14  N   UNL A   1      43.231  27.936  28.569  1.00  0.00    -0.248 NA
ATOM     15  C   UNL A   1      42.034  27.937  26.588  1.00  0.00     0.031 C 
ATOM     16  C   UNL A   1      38.855  27.113  30.064  1.00  0.00     0.029 A 
ATOM     17  N   UNL A   1      40.397  28.690  30.221  1.00  0.00    -0.354 N 
ATOM     18  C   UNL A   1      43.947  28.664  27.614  1.00  0.00     0.074 A 
ATOM     19  C   UNL A   1      43.209  28.536  26.382  1.00  0.00     0.031 C 
ATOM     20  C   UNL A   1      38.296  28.149  30.731  1.00  0.00     0.029 A 
ATOM     21  C   UNL A   1      39.276  29.214  30.852  1.00  0.00     0.049 A 
ATOM     22  H   UNL A   1      41.275  29.135  30.237  1.00  0.00     0.167 HD
ATOM     23  C   UNL A   1      45.003  29.464  27.944  1.00  0.00     0.031 A 
ATOM     24  C   UNL A   1      39.145  30.458  31.381  1.00  0.00     0.031 A 
ATOM     25  C   UNL A   1      45.482  29.195  29.272  1.00  0.00     0.049 A 
ATOM     26  C   UNL A   1      40.514  30.973  31.628  1.00  0.00     0.074 A 
ATOM     27  C   UNL A   1      46.042  28.104  29.905  1.00  0.00     0.029 A 
ATOM     28  N   UNL A   1      45.079  30.046  30.273  1.00  0.00    -0.354 N 
ATOM     29  N   UNL A   1      41.333  30.439  32.492  1.00  0.00    -0.248 NA
ATOM     30  C   UNL A   1      41.139  31.780  30.591  1.00  0.00     0.031 C 
ATOM     31  C   UNL A   1      45.475  28.121  31.212  1.00  0.00     0.029 A 
ATOM     32  C   UNL A   1      44.667  29.257  31.313  1.00  0.00     0.049 A 
ATOM     33  H   UNL A   1      45.086  31.029  30.247  1.00  0.00     0.167 HD
ATOM     34  C   UNL A   1      42.576  30.483  31.879  1.00  0.00     0.074 A 
ATOM     35  C   UNL A   1      42.409  31.392  30.745  1.00  0.00     0.031 C 
ATOM     36  C   UNL A   1      43.552  29.574  32.178  1.00  0.00     0.031 A 
BRANCH  23  37
ATOM     37  C   UNL A   1      45.392  30.735  27.223  1.00  0.00    -0.014 A 
ATOM     38  C   UNL A   1      46.758  30.957  26.931  1.00  0.00     0.010 A 
ATOM     39  C   UNL A   1      44.526  31.838  27.093  1.00  0.00     0.010 A 
ATOM     40  C   UNL A   1      47.246  32.237  26.632  1.00  0.00     0.020 A 
ATOM     41  C   UNL A   1      44.997  33.112  26.753  1.00  0.00     0.020 A 
ATOM     42  C   UNL A   1      46.360  33.311  26.568  1.00  0.00     0.054 A 
BRANCH  42  43
ATOM     43  S   UNL A   1      47.018  34.981  26.327  1.00  0.00     0.124 S 
ATOM     44  O   UNL A   1      47.840  34.812  25.134  1.00  0.00    -0.237 OA
ATOM     45  O   UNL A   1      45.803  35.772  26.152  1.00  0.00    -0.237 OA
ATOM     46  O   UNL A   1      47.752  35.240  27.564  1.00  0.00    -0.744 OA
ENDBRANCH  42  43
ENDBRANCH  23  37
BRANCH  24  47
ATOM     47  C   UNL A   1      37.947  31.337  31.312  1.00  0.00    -0.014 A 
ATOM     48  C   UNL A   1      36.643  30.833  31.478  1.00  0.00     0.010 A 
ATOM     49  C   UNL A   1      38.114  32.737  31.355  1.00  0.00     0.010 A 
ATOM     50  C   UNL A   1      35.557  31.697  31.721  1.00  0.00     0.020 A 
ATOM     51  C   UNL A   1      37.039  33.602  31.593  1.00  0.00     0.020 A 
ATOM     52  C   UNL A   1      35.767  33.077  31.793  1.00  0.00     0.054 A 
BRANCH  52  53
ATOM     53  S   UNL A   1      34.396  34.176  32.268  1.00  0.00     0.124 S 
ATOM     54  O   UNL A   1      33.743  34.430  30.987  1.00  0.00    -0.237 OA
ATOM     55  O   UNL A   1      33.642  33.357  33.212  1.00  0.00    -0.237 OA
ATOM     56  O   UNL A   1      35.072  35.331  32.858  1.00  0.00    -0.744 OA
ENDBRANCH  52  53
ENDBRANCH  24  47
BRANCH  36  57
ATOM     57  C   UNL A   1      43.352  28.645  33.352  1.00  0.00    -0.014 A 
ATOM     58  C   UNL A   1      44.119  28.711  34.532  1.00  0.00     0.010 A 
ATOM     59  C   UNL A   1      42.205  27.832  33.338  1.00  0.00     0.010 A 
ATOM     60  C   UNL A   1      43.744  27.978  35.669  1.00  0.00     0.020 A 
ATOM     61  C   UNL A   1      41.820  27.113  34.472  1.00  0.00     0.020 A 
ATOM     62  C   UNL A   1      42.590  27.189  35.633  1.00  0.00     0.054 A 
BRANCH  62  63
ATOM     63  S   UNL A   1      42.056  26.315  37.131  1.00  0.00     0.124 S 
ATOM     64  O   UNL A   1      40.748  26.907  37.395  1.00  0.00    -0.237 OA
ATOM     65  O   UNL A   1      42.040  24.917  36.704  1.00  0.00    -0.237 OA
ATOM     66  O   UNL A   1      43.092  26.640  38.112  1.00  0.00    -0.744 OA
ENDBRANCH  62  63
ENDBRANCH  36  57
ENDBRANCH  10  11
ENDBRANCH   3   5
ENDBRANCH   2   3
ENDBRANCH   1   2
BRANCH   1  67
ATOM     67  C   UNL A   1      36.344  22.435  24.679  1.00  0.00     0.274 C 
BRANCH  67  68
ATOM     68  O   UNL A   1      35.220  21.551  24.544  1.00  0.00    -0.461 OA
BRANCH  68  69
ATOM     69  C   UNL A   1      34.289  21.534  25.522  1.00  0.00     0.329 C 
ATOM     70  O   UNL A   1      34.548  21.555  26.719  1.00  0.00    -0.250 OA
BRANCH  69  71
ATOM     71  C   UNL A   1      32.861  21.552  24.942  1.00  0.00     0.197 C 
BRANCH  71  72
ATOM     72  C   UNL A   1      32.364  20.378  24.065  1.00  0.00     0.072 C 
BRANCH  72  73
ATOM     73  C   UNL A   1      32.783  18.946  24.337  1.00  0.00    -0.045 A 
ATOM     74  C   UNL A   1      33.215  18.099  23.303  1.00  0.00     0.007 A 
ATOM     75  C   UNL A   1      32.597  18.377  25.607  1.00  0.00     0.007 A 
ATOM     76  C   UNL A   1      33.533  16.760  23.532  1.00  0.00     0.039 A 
ATOM     77  C   UNL A   1      32.871  17.021  25.832  1.00  0.00     0.039 A 
ATOM     78  C   UNL A   1      33.354  16.232  24.797  1.00  0.00     0.123 A 
ATOM     79  F   UNL A   1      33.629  14.939  25.014  1.00  0.00    -0.207 F 
ENDBRANCH  72  73
ENDBRANCH  71  72
BRANCH  71  80
ATOM     80  N   UNL A   1      31.899  21.856  26.001  1.00  0.00    -0.337 N 
ATOM     81  C   UNL A   1      31.526  23.087  26.496  1.00  0.00     0.272 C 
ATOM     82  H   UNL A   1      31.462  21.079  26.417  1.00  0.00     0.164 HD
ATOM     83  O   UNL A   1      30.873  23.105  27.541  1.00  0.00    -0.267 OA
BRANCH  81  84
ATOM     84  C   UNL A   1      31.901  24.313  25.769  1.00  0.00     0.150 A 
ATOM     85  C   UNL A   1      33.115  25.056  25.825  1.00  0.00     0.056 A 
ATOM     86  N   UNL A   1      31.061  24.868  24.879  1.00  0.00    -0.167 NA
ATOM     87  C   UNL A   1      32.943  26.115  24.964  1.00  0.00     0.110 A 
ATOM     88  N   UNL A   1      31.708  25.948  24.412  1.00  0.00    -0.269 N 
BRANCH  88  89
ATOM     89  C   UNL A   1      31.091  26.773  23.395  1.00  0.00     0.107 C 
ATOM     90  C   UNL A   1      29.655  27.178  23.725  1.00  0.00     0.027 C 
ATOM     91  C   UNL A   1      31.792  28.115  23.176  1.00  0.00     0.027 C 
ATOM     92  C   UNL A   1      29.381  28.344  22.790  1.00  0.00     0.002 C 
ATOM     93  C   UNL A   1      30.730  29.027  22.565  1.00  0.00     0.002 C 
ENDBRANCH  88  89
ENDBRANCH  81  84
ENDBRANCH  71  80
ENDBRANCH  69  71
ENDBRANCH  68  69
ENDBRANCH  67  68
ENDBRANCH   1  67
TORSDOF 19
ENDMDL
MODEL 3
REMARK VINA RESULT:     -12.0      2.462      3.762
REMARK SMILES O=C(OCCOC(=O)[C@@H](Cc1ccc(F)cc1)NC(=O)c1ccn(C2CCCC2)n1)c1ccc(-c2c3nc(c(-c4ccc(S(=O)(=O)[O-])cc4)c4ccc([nH]4)c(-c4ccc(S(=O)(=O)[O-])cc4)c4nc(c(-c5ccc(S(=O)(=O)[O-])cc5)c5ccc2[nH]5)C=C4)C=C3)cc1
REMARK SMILES IDX 4 1 3 2 2 3 1 4 31 5 32 6 90 7 33 8 89 9 34 10 35 11 36 12
REMARK SMILES IDX 83 13 37 14 88 15 82 16 84 17 38 18 87 19 81 20 80 21 39 23
REMARK SMILES IDX 69 24 50 25 68 26 51 27 54 28 67 29 85 30 52 31 53 32 66 34
REMARK SMILES IDX 86 35 55 36 40 37 41 38 49 39 42 40 48 41 43 42 44 43 45 44
REMARK SMILES IDX 46 45 47 46 70 47 71 48 79 49 72 50 78 51 73 52 74 53 75 54
REMARK SMILES IDX 76 55 77 56 56 57 57 58 65 59 58 60 64 61 59 62 60 63 61 64
REMARK SMILES IDX 62 65 63 66 5 67 6 68 7 69 8 70 9 71 10 72 11 73 12 74 17 75
REMARK SMILES IDX 13 76 16 77 14 78 15 79 18 80 19 81 20 83 21 84 22 85 30 86
REMARK SMILES IDX 23 87 24 88 25 89 26 90 29 91 27 92 28 93
REMARK H PARENT 84 22 54 33 18 82
REMARK Flexibility Score: inf
ROOT
ATOM      1  C   UNL A   1      32.446  30.403  26.929  1.00  0.00     0.275 C 
ENDROOT
BRANCH   1   2
ATOM      2  O   UNL A   1      33.884  30.535  26.897  1.00  0.00    -0.458 OA
BRANCH   2   3
ATOM      3  C   UNL A   1      34.486  31.320  27.812  1.00  0.00     0.338 C 
ATOM      4  O   UNL A   1      33.954  32.265  28.387  1.00  0.00    -0.246 OA
BRANCH   3   5
ATOM      5  C   UNL A   1      35.863  30.869  28.113  1.00  0.00     0.060 A 
ATOM      6  C   UNL A   1      36.820  31.728  28.672  1.00  0.00     0.016 A 
ATOM      7  C   UNL A   1      36.174  29.521  27.893  1.00  0.00     0.016 A 
ATOM      8  C   UNL A   1      38.085  31.246  28.985  1.00  0.00     0.010 A 
ATOM      9  C   UNL A   1      37.446  29.045  28.186  1.00  0.00     0.010 A 
ATOM     10  C   UNL A   1      38.405  29.913  28.716  1.00  0.00    -0.014 A 
BRANCH  10  11
ATOM     11  C   UNL A   1      39.747  29.437  29.038  1.00  0.00     0.031 A 
ATOM     12  C   UNL A   1      40.035  29.171  30.481  1.00  0.00     0.074 A 
ATOM     13  C   UNL A   1      40.638  29.111  28.079  1.00  0.00     0.049 A 
ATOM     14  N   UNL A   1      40.905  29.744  31.246  1.00  0.00    -0.248 NA
ATOM     15  C   UNL A   1      39.199  28.183  31.181  1.00  0.00     0.031 C 
ATOM     16  C   UNL A   1      40.417  29.013  26.632  1.00  0.00     0.029 A 
ATOM     17  N   UNL A   1      41.922  28.683  28.218  1.00  0.00    -0.354 N 
ATOM     18  C   UNL A   1      40.861  29.079  32.475  1.00  0.00     0.074 A 
ATOM     19  C   UNL A   1      39.717  28.204  32.411  1.00  0.00     0.031 C 
ATOM     20  C   UNL A   1      41.443  28.333  26.070  1.00  0.00     0.029 A 
ATOM     21  C   UNL A   1      42.455  28.088  27.082  1.00  0.00     0.049 A 
ATOM     22  H   UNL A   1      42.430  28.786  29.055  1.00  0.00     0.167 HD
ATOM     23  C   UNL A   1      41.869  29.166  33.391  1.00  0.00     0.031 A 
ATOM     24  C   UNL A   1      43.618  27.391  26.995  1.00  0.00     0.031 A 
ATOM     25  C   UNL A   1      42.762  30.254  33.100  1.00  0.00     0.049 A 
ATOM     26  C   UNL A   1      44.454  27.792  28.153  1.00  0.00     0.074 A 
ATOM     27  C   UNL A   1      42.638  31.626  33.027  1.00  0.00     0.029 A 
ATOM     28  N   UNL A   1      43.944  29.949  32.469  1.00  0.00    -0.354 N 
ATOM     29  N   UNL A   1      44.919  28.999  28.314  1.00  0.00    -0.248 NA
ATOM     30  C   UNL A   1      44.380  26.985  29.362  1.00  0.00     0.031 C 
ATOM     31  C   UNL A   1      43.457  32.000  31.923  1.00  0.00     0.029 A 
ATOM     32  C   UNL A   1      44.081  30.846  31.443  1.00  0.00     0.049 A 
ATOM     33  H   UNL A   1      44.569  29.227  32.707  1.00  0.00     0.167 HD
ATOM     34  C   UNL A   1      44.798  29.250  29.673  1.00  0.00     0.074 A 
ATOM     35  C   UNL A   1      44.536  27.945  30.278  1.00  0.00     0.031 C 
ATOM     36  C   UNL A   1      44.650  30.521  30.154  1.00  0.00     0.031 A 
BRANCH  23  37
ATOM     37  C   UNL A   1      42.271  28.069  34.352  1.00  0.00    -0.014 A 
ATOM     38  C   UNL A   1      42.464  28.399  35.714  1.00  0.00     0.010 A 
ATOM     39  C   UNL A   1      42.753  26.817  33.926  1.00  0.00     0.010 A 
ATOM     40  C   UNL A   1      43.193  27.567  36.574  1.00  0.00     0.020 A 
ATOM     41  C   UNL A   1      43.447  25.959  34.788  1.00  0.00     0.020 A 
ATOM     42  C   UNL A   1      43.700  26.360  36.095  1.00  0.00     0.054 A 
BRANCH  42  43
ATOM     43  S   UNL A   1      44.765  25.364  37.169  1.00  0.00     0.124 S 
ATOM     44  O   UNL A   1      44.573  24.024  36.623  1.00  0.00    -0.237 OA
ATOM     45  O   UNL A   1      46.079  25.959  36.942  1.00  0.00    -0.237 OA
ATOM     46  O   UNL A   1      44.207  25.585  38.501  1.00  0.00    -0.744 OA
ENDBRANCH  42  43
ENDBRANCH  23  37
BRANCH  24  47
ATOM     47  C   UNL A   1      43.860  26.152  26.208  1.00  0.00    -0.014 A 
ATOM     48  C   UNL A   1      45.137  25.820  25.718  1.00  0.00     0.010 A 
ATOM     49  C   UNL A   1      42.869  25.149  26.177  1.00  0.00     0.010 A 
ATOM     50  C   UNL A   1      45.420  24.519  25.254  1.00  0.00     0.020 A 
ATOM     51  C   UNL A   1      43.142  23.855  25.715  1.00  0.00     0.020 A 
ATOM     52  C   UNL A   1      44.423  23.541  25.273  1.00  0.00     0.054 A 
BRANCH  52  53
ATOM     53  S   UNL A   1      44.832  21.823  24.829  1.00  0.00     0.124 S 
ATOM     54  O   UNL A   1      46.247  21.740  25.182  1.00  0.00    -0.237 OA
ATOM     55  O   UNL A   1      43.924  21.051  25.671  1.00  0.00    -0.237 OA
ATOM     56  O   UNL A   1      44.546  21.762  23.396  1.00  0.00    -0.744 OA
ENDBRANCH  52  53
ENDBRANCH  24  47
BRANCH  36  57
ATOM     57  C   UNL A   1      44.841  31.686  29.213  1.00  0.00    -0.014 A 
ATOM     58  C   UNL A   1      45.978  32.519  29.232  1.00  0.00     0.010 A 
ATOM     59  C   UNL A   1      43.943  31.798  28.137  1.00  0.00     0.010 A 
ATOM     60  C   UNL A   1      46.207  33.440  28.197  1.00  0.00     0.020 A 
ATOM     61  C   UNL A   1      44.173  32.701  27.098  1.00  0.00     0.020 A 
ATOM     62  C   UNL A   1      45.304  33.518  27.131  1.00  0.00     0.054 A 
BRANCH  62  63
ATOM     63  S   UNL A   1      45.649  34.642  25.749  1.00  0.00     0.124 S 
ATOM     64  O   UNL A   1      46.966  34.201  25.301  1.00  0.00    -0.237 OA
ATOM     65  O   UNL A   1      44.547  34.371  24.827  1.00  0.00    -0.237 OA
ATOM     66  O   UNL A   1      45.616  35.970  26.363  1.00  0.00    -0.744 OA
ENDBRANCH  62  63
ENDBRANCH  36  57
ENDBRANCH  10  11
ENDBRANCH   3   5
ENDBRANCH   2   3
ENDBRANCH   1   2
BRANCH   1  67
ATOM     67  C   UNL A   1      31.842  29.170  26.256  1.00  0.00     0.274 C 
BRANCH  67  68
ATOM     68  O   UNL A   1      31.361  29.589  24.968  1.00  0.00    -0.461 OA
BRANCH  68  69
ATOM     69  C   UNL A   1      31.781  28.923  23.872  1.00  0.00     0.329 C 
ATOM     70  O   UNL A   1      32.910  29.011  23.404  1.00  0.00    -0.250 OA
BRANCH  69  71
ATOM     71  C   UNL A   1      30.684  27.989  23.324  1.00  0.00     0.197 C 
BRANCH  71  72
ATOM     72  C   UNL A   1      29.217  28.476  23.247  1.00  0.00     0.072 C 
BRANCH  72  73
ATOM     73  C   UNL A   1      28.855  29.832  22.672  1.00  0.00    -0.045 A 
ATOM     74  C   UNL A   1      28.532  30.919  23.501  1.00  0.00     0.007 A 
ATOM     75  C   UNL A   1      28.677  29.996  21.289  1.00  0.00     0.007 A 
ATOM     76  C   UNL A   1      28.129  32.148  22.981  1.00  0.00     0.039 A 
ATOM     77  C   UNL A   1      28.227  31.214  20.764  1.00  0.00     0.039 A 
ATOM     78  C   UNL A   1      27.977  32.284  21.613  1.00  0.00     0.123 A 
ATOM     79  F   UNL A   1      27.559  33.454  21.112  1.00  0.00    -0.207 F 
ENDBRANCH  72  73
ENDBRANCH  71  72
BRANCH  71  80
ATOM     80  N   UNL A   1      31.112  27.417  22.048  1.00  0.00    -0.337 N 
ATOM     81  C   UNL A   1      31.640  26.169  21.800  1.00  0.00     0.272 C 
ATOM     82  H   UNL A   1      31.011  28.001  21.262  1.00  0.00     0.164 HD
ATOM     83  O   UNL A   1      32.143  25.975  20.691  1.00  0.00    -0.267 OA
BRANCH  81  84
ATOM     84  C   UNL A   1      31.576  25.127  22.839  1.00  0.00     0.150 A 
ATOM     85  C   UNL A   1      30.452  24.387  23.304  1.00  0.00     0.056 A 
ATOM     86  N   UNL A   1      32.690  24.721  23.475  1.00  0.00    -0.167 NA
ATOM     87  C   UNL A   1      30.934  23.554  24.287  1.00  0.00     0.110 A 
ATOM     88  N   UNL A   1      32.277  23.780  24.339  1.00  0.00    -0.269 N 
BRANCH  88  89
ATOM     89  C   UNL A   1      33.241  23.098  25.176  1.00  0.00     0.107 C 
ATOM     90  C   UNL A   1      33.198  23.538  26.639  1.00  0.00     0.027 C 
ATOM     91  C   UNL A   1      33.032  21.586  25.258  1.00  0.00     0.027 C 
ATOM     92  C   UNL A   1      33.938  22.432  27.374  1.00  0.00     0.002 C 
ATOM     93  C   UNL A   1      33.701  21.159  26.563  1.00  0.00     0.002 C 
ENDBRANCH  88  89
ENDBRANCH  81  84
ENDBRANCH  71  80
ENDBRANCH  69  71
ENDBRANCH  68  69
ENDBRANCH  67  68
ENDBRANCH   1  67
TORSDOF 19
ENDMDL
