MODEL 1
REMARK VINA RESULT:     -10.1      0.000      0.000
REMARK SMILES COc1ccc(O[C@H](F)C(=O)OCCOC(=O)c2ccc(-c3c4nc(c(-c5ccc(S(=O)(=O)[O-])cc5)c5ccc([nH]5)c(-c5ccc(S(=O)(=O)[O-])cc5)c5nc(c(-c6ccc(S(=O)(=O)[O-])cc6)c6ccc3[nH]6)C=C5)C=C4)cc2)c(C(C)(C)C)c1
REMARK SMILES IDX 13 1 12 2 10 3 11 4 8 5 9 6 7 7 6 8 3 9 4 10 83 11 5 12
REMARK SMILES IDX 78 13 2 14 1 15 79 16 80 17 81 18 82 19 14 20 15 21 16 22
REMARK SMILES IDX 17 23 18 24 19 25 77 26 20 27 76 28 21 29 22 30 23 31 70 32
REMARK SMILES IDX 24 33 75 34 69 35 71 36 25 37 74 38 68 39 67 40 26 42 56 43
REMARK SMILES IDX 37 44 55 45 38 46 41 47 54 48 72 49 39 50 40 51 53 53 73 54
REMARK SMILES IDX 42 55 27 56 28 57 36 58 29 59 35 60 30 61 31 62 32 63 33 64
REMARK SMILES IDX 34 65 57 66 58 67 66 68 59 69 65 70 60 71 61 72 62 73 63 74
REMARK SMILES IDX 64 75 43 76 44 77 52 78 45 79 51 80 46 81 47 82 48 83 49 84
REMARK SMILES IDX 50 85
REMARK H PARENT 71 41 41 52
REMARK Flexibility Score: inf
ROOT
ATOM      1  C   UNL A   1      31.845  27.458  26.944  1.00  0.00     0.274 C 
ENDROOT
BRANCH   1   2
ATOM      2  O   UNL A   1      32.371  26.467  26.043  1.00  0.00    -0.457 OA
BRANCH   2   3
ATOM      3  C   UNL A   1      32.119  25.159  26.334  1.00  0.00     0.381 C 
ATOM      4  O   UNL A   1      31.006  24.702  26.573  1.00  0.00    -0.244 OA
BRANCH   3   5
ATOM      5  C   UNL A   1      33.406  24.313  26.313  1.00  0.00     0.461 C 
ATOM      6  F   UNL A   1      33.457  23.336  27.267  1.00  0.00    -0.189 F 
BRANCH   5   7
ATOM      7  O   UNL A   1      33.781  23.738  25.072  1.00  0.00    -0.450 OA
BRANCH   7   8
ATOM      8  C   UNL A   1      33.634  22.385  24.951  1.00  0.00     0.127 A 
ATOM      9  C   UNL A   1      33.370  19.634  24.666  1.00  0.00     0.119 A 
ATOM     10  C   UNL A   1      32.236  20.402  24.852  1.00  0.00     0.050 A 
ATOM     11  C   UNL A   1      34.636  20.226  24.617  1.00  0.00     0.054 A 
ATOM     12  C   UNL A   1      32.372  21.773  25.019  1.00  0.00     0.051 A 
ATOM     13  C   UNL A   1      34.810  21.617  24.786  1.00  0.00     0.003 A 
BRANCH   9  14
ATOM     14  O   UNL A   1      33.199  18.288  24.489  1.00  0.00    -0.497 OA
ATOM     15  C   UNL A   1      32.695  17.687  25.681  1.00  0.00     0.278 C 
ENDBRANCH   9  14
BRANCH  13  16
ATOM     16  C   UNL A   1      36.222  22.254  24.746  1.00  0.00    -0.009 C 
ATOM     17  C   UNL A   1      36.389  23.062  23.441  1.00  0.00     0.016 C 
ATOM     18  C   UNL A   1      36.476  23.182  25.960  1.00  0.00     0.016 C 
ATOM     19  C   UNL A   1      37.364  21.206  24.779  1.00  0.00     0.016 C 
ENDBRANCH  13  16
ENDBRANCH   7   8
ENDBRANCH   5   7
ENDBRANCH   3   5
ENDBRANCH   2   3
ENDBRANCH   1   2
BRANCH   1  20
ATOM     20  C   UNL A   1      32.616  28.770  26.780  1.00  0.00     0.275 C 
BRANCH  20  21
ATOM     21  O   UNL A   1      33.878  28.724  27.472  1.00  0.00    -0.458 OA
BRANCH  21  22
ATOM     22  C   UNL A   1      34.399  29.929  27.802  1.00  0.00     0.338 C 
ATOM     23  O   UNL A   1      33.807  30.988  27.911  1.00  0.00    -0.246 OA
BRANCH  22  24
ATOM     24  C   UNL A   1      35.807  29.765  28.176  1.00  0.00     0.060 A 
ATOM     25  C   UNL A   1      36.781  29.924  27.185  1.00  0.00     0.016 A 
ATOM     26  C   UNL A   1      36.159  29.383  29.469  1.00  0.00     0.016 A 
ATOM     27  C   UNL A   1      38.119  29.693  27.478  1.00  0.00     0.010 A 
ATOM     28  C   UNL A   1      37.502  29.154  29.764  1.00  0.00     0.010 A 
ATOM     29  C   UNL A   1      38.485  29.295  28.767  1.00  0.00    -0.014 A 
BRANCH  29  30
ATOM     30  C   UNL A   1      39.890  28.956  29.074  1.00  0.00     0.031 A 
ATOM     31  C   UNL A   1      40.792  30.018  29.624  1.00  0.00     0.074 A 
ATOM     32  C   UNL A   1      40.349  27.716  28.829  1.00  0.00     0.049 A 
ATOM     33  N   UNL A   1      42.089  30.001  29.776  1.00  0.00    -0.248 NA
ATOM     34  C   UNL A   1      40.149  31.274  30.049  1.00  0.00     0.031 C 
ATOM     35  C   UNL A   1      39.539  26.589  28.361  1.00  0.00     0.029 A 
ATOM     36  N   UNL A   1      41.617  27.204  28.919  1.00  0.00    -0.354 N 
ATOM     37  C   UNL A   1      42.424  31.251  30.282  1.00  0.00     0.074 A 
ATOM     38  C   UNL A   1      41.194  32.005  30.406  1.00  0.00     0.031 C 
ATOM     39  C   UNL A   1      40.336  25.522  28.189  1.00  0.00     0.029 A 
ATOM     40  C   UNL A   1      41.714  25.908  28.475  1.00  0.00     0.049 A 
ATOM     41  H   UNL A   1      42.383  27.715  29.268  1.00  0.00     0.167 HD
ATOM     42  C   UNL A   1      43.651  31.725  30.601  1.00  0.00     0.031 A 
ATOM     43  C   UNL A   1      42.800  25.135  28.275  1.00  0.00     0.031 A 
ATOM     44  C   UNL A   1      44.861  30.960  30.467  1.00  0.00     0.049 A 
ATOM     45  C   UNL A   1      44.160  25.706  28.571  1.00  0.00     0.074 A 
ATOM     46  C   UNL A   1      46.159  31.342  30.754  1.00  0.00     0.029 A 
ATOM     47  N   UNL A   1      44.919  29.652  30.006  1.00  0.00    -0.354 N 
ATOM     48  N   UNL A   1      44.471  26.900  29.022  1.00  0.00    -0.248 NA
ATOM     49  C   UNL A   1      45.316  24.833  28.329  1.00  0.00     0.031 C 
ATOM     50  C   UNL A   1      47.006  30.279  30.426  1.00  0.00     0.029 A 
ATOM     51  C   UNL A   1      46.231  29.216  29.989  1.00  0.00     0.049 A 
ATOM     52  H   UNL A   1      44.141  29.114  29.732  1.00  0.00     0.167 HD
ATOM     53  C   UNL A   1      45.854  26.907  29.151  1.00  0.00     0.074 A 
ATOM     54  C   UNL A   1      46.322  25.601  28.729  1.00  0.00     0.031 C 
ATOM     55  C   UNL A   1      46.666  27.903  29.583  1.00  0.00     0.031 A 
BRANCH  42  56
ATOM     56  C   UNL A   1      43.745  33.149  31.077  1.00  0.00    -0.014 A 
ATOM     57  C   UNL A   1      43.947  34.211  30.177  1.00  0.00     0.010 A 
ATOM     58  C   UNL A   1      43.603  33.431  32.448  1.00  0.00     0.010 A 
ATOM     59  C   UNL A   1      44.043  35.525  30.646  1.00  0.00     0.020 A 
ATOM     60  C   UNL A   1      43.673  34.745  32.917  1.00  0.00     0.020 A 
ATOM     61  C   UNL A   1      43.911  35.782  32.014  1.00  0.00     0.054 A 
BRANCH  61  62
ATOM     62  S   UNL A   1      44.025  37.497  32.594  1.00  0.00     0.124 S 
ATOM     63  O   UNL A   1      43.676  38.246  31.389  1.00  0.00    -0.237 OA
ATOM     64  O   UNL A   1      43.036  37.541  33.668  1.00  0.00    -0.237 OA
ATOM     65  O   UNL A   1      45.415  37.626  33.025  1.00  0.00    -0.744 OA
ENDBRANCH  61  62
ENDBRANCH  42  56
BRANCH  43  66
ATOM     66  C   UNL A   1      42.642  23.758  27.735  1.00  0.00    -0.014 A 
ATOM     67  C   UNL A   1      42.773  23.511  26.359  1.00  0.00     0.010 A 
ATOM     68  C   UNL A   1      42.380  22.680  28.602  1.00  0.00     0.010 A 
ATOM     69  C   UNL A   1      42.634  22.214  25.856  1.00  0.00     0.020 A 
ATOM     70  C   UNL A   1      42.267  21.378  28.107  1.00  0.00     0.020 A 
ATOM     71  C   UNL A   1      42.383  21.156  26.734  1.00  0.00     0.054 A 
BRANCH  71  72
ATOM     72  S   UNL A   1      42.260  19.473  26.065  1.00  0.00     0.124 S 
ATOM     73  O   UNL A   1      43.170  19.533  24.926  1.00  0.00    -0.237 OA
ATOM     74  O   UNL A   1      42.705  18.652  27.188  1.00  0.00    -0.237 OA
ATOM     75  O   UNL A   1      40.843  19.342  25.731  1.00  0.00    -0.744 OA
ENDBRANCH  71  72
ENDBRANCH  43  66
BRANCH  55  76
ATOM     76  C   UNL A   1      48.137  27.608  29.686  1.00  0.00    -0.014 A 
ATOM     77  C   UNL A   1      48.987  27.733  28.576  1.00  0.00     0.010 A 
ATOM     78  C   UNL A   1      48.685  27.293  30.944  1.00  0.00     0.010 A 
ATOM     79  C   UNL A   1      50.364  27.540  28.720  1.00  0.00     0.020 A 
ATOM     80  C   UNL A   1      50.062  27.123  31.096  1.00  0.00     0.020 A 
ATOM     81  C   UNL A   1      50.893  27.241  29.981  1.00  0.00     0.054 A 
BRANCH  81  82
ATOM     82  S   UNL A   1      52.691  27.077  30.158  1.00  0.00     0.124 S 
ATOM     83  O   UNL A   1      53.005  28.161  31.085  1.00  0.00    -0.237 OA
ATOM     84  O   UNL A   1      52.839  25.727  30.695  1.00  0.00    -0.237 OA
ATOM     85  O   UNL A   1      53.190  27.256  28.797  1.00  0.00    -0.744 OA
ENDBRANCH  81  82
ENDBRANCH  55  76
ENDBRANCH  29  30
ENDBRANCH  22  24
ENDBRANCH  21  22
ENDBRANCH  20  21
ENDBRANCH   1  20
TORSDOF 18
ENDMDL
MODEL 2
REMARK VINA RESULT:      -9.7      1.736      2.549
REMARK SMILES COc1ccc(O[C@H](F)C(=O)OCCOC(=O)c2ccc(-c3c4nc(c(-c5ccc(S(=O)(=O)[O-])cc5)c5ccc([nH]5)c(-c5ccc(S(=O)(=O)[O-])cc5)c5nc(c(-c6ccc(S(=O)(=O)[O-])cc6)c6ccc3[nH]6)C=C5)C=C4)cc2)c(C(C)(C)C)c1
REMARK SMILES IDX 13 1 12 2 10 3 11 4 8 5 9 6 7 7 6 8 3 9 4 10 83 11 5 12
REMARK SMILES IDX 78 13 2 14 1 15 79 16 80 17 81 18 82 19 14 20 15 21 16 22
REMARK SMILES IDX 17 23 18 24 19 25 77 26 20 27 76 28 21 29 22 30 23 31 70 32
REMARK SMILES IDX 24 33 75 34 69 35 71 36 25 37 74 38 68 39 67 40 26 42 56 43
REMARK SMILES IDX 37 44 55 45 38 46 41 47 54 48 72 49 39 50 40 51 53 53 73 54
REMARK SMILES IDX 42 55 27 56 28 57 36 58 29 59 35 60 30 61 31 62 32 63 33 64
REMARK SMILES IDX 34 65 57 66 58 67 66 68 59 69 65 70 60 71 61 72 62 73 63 74
REMARK SMILES IDX 64 75 43 76 44 77 52 78 45 79 51 80 46 81 47 82 48 83 49 84
REMARK SMILES IDX 50 85
REMARK H PARENT 71 41 41 52
REMARK Flexibility Score: inf
ROOT
ATOM      1  C   UNL A   1      32.172  28.706  26.093  1.00  0.00     0.274 C 
ENDROOT
BRANCH   1   2
ATOM      2  O   UNL A   1      32.007  28.584  24.669  1.00  0.00    -0.457 OA
BRANCH   2   3
ATOM      3  C   UNL A   1      30.757  28.791  24.164  1.00  0.00     0.381 C 
ATOM      4  O   UNL A   1      30.253  29.896  23.990  1.00  0.00    -0.244 OA
BRANCH   3   5
ATOM      5  C   UNL A   1      30.054  27.464  23.821  1.00  0.00     0.461 C 
ATOM      6  F   UNL A   1      29.108  27.561  22.841  1.00  0.00    -0.189 F 
BRANCH   5   7
ATOM      7  O   UNL A   1      30.884  26.352  23.525  1.00  0.00    -0.450 OA
BRANCH   7   8
ATOM      8  C   UNL A   1      31.166  25.502  24.557  1.00  0.00     0.127 A 
ATOM      9  C   UNL A   1      31.756  23.738  26.621  1.00  0.00     0.119 A 
ATOM     10  C   UNL A   1      30.558  24.428  26.648  1.00  0.00     0.050 A 
ATOM     11  C   UNL A   1      32.662  23.917  25.571  1.00  0.00     0.054 A 
ATOM     12  C   UNL A   1      30.276  25.327  25.629  1.00  0.00     0.051 A 
ATOM     13  C   UNL A   1      32.407  24.826  24.520  1.00  0.00     0.003 A 
BRANCH   9  14
ATOM     14  O   UNL A   1      31.996  22.848  27.633  1.00  0.00    -0.497 OA
ATOM     15  C   UNL A   1      33.342  22.381  27.578  1.00  0.00     0.278 C 
ENDBRANCH   9  14
BRANCH  13  16
ATOM     16  C   UNL A   1      33.430  25.024  23.373  1.00  0.00    -0.009 C 
ATOM     17  C   UNL A   1      32.775  24.653  22.025  1.00  0.00     0.016 C 
ATOM     18  C   UNL A   1      33.951  26.482  23.305  1.00  0.00     0.016 C 
ATOM     19  C   UNL A   1      34.693  24.138  23.522  1.00  0.00     0.016 C 
ENDBRANCH  13  16
ENDBRANCH   7   8
ENDBRANCH   5   7
ENDBRANCH   3   5
ENDBRANCH   2   3
ENDBRANCH   1   2
BRANCH   1  20
ATOM     20  C   UNL A   1      33.218  29.780  26.404  1.00  0.00     0.275 C 
BRANCH  20  21
ATOM     21  O   UNL A   1      33.852  29.538  27.674  1.00  0.00    -0.458 OA
BRANCH  21  22
ATOM     22  C   UNL A   1      34.650  30.537  28.120  1.00  0.00     0.338 C 
ATOM     23  O   UNL A   1      34.318  31.666  28.434  1.00  0.00    -0.246 OA
BRANCH  22  24
ATOM     24  C   UNL A   1      36.006  30.020  28.329  1.00  0.00     0.060 A 
ATOM     25  C   UNL A   1      36.351  29.559  29.604  1.00  0.00     0.016 A 
ATOM     26  C   UNL A   1      36.948  30.060  27.304  1.00  0.00     0.016 A 
ATOM     27  C   UNL A   1      37.650  29.143  29.867  1.00  0.00     0.010 A 
ATOM     28  C   UNL A   1      38.251  29.638  27.566  1.00  0.00     0.010 A 
ATOM     29  C   UNL A   1      38.610  29.191  28.851  1.00  0.00    -0.014 A 
BRANCH  29  30
ATOM     30  C   UNL A   1      40.016  28.839  29.134  1.00  0.00     0.031 A 
ATOM     31  C   UNL A   1      40.936  29.892  29.675  1.00  0.00     0.074 A 
ATOM     32  C   UNL A   1      40.463  27.598  28.874  1.00  0.00     0.049 A 
ATOM     33  N   UNL A   1      42.235  29.864  29.807  1.00  0.00    -0.248 NA
ATOM     34  C   UNL A   1      40.308  31.149  30.118  1.00  0.00     0.031 C 
ATOM     35  C   UNL A   1      39.637  26.480  28.412  1.00  0.00     0.029 A 
ATOM     36  N   UNL A   1      41.728  27.075  28.940  1.00  0.00    -0.354 N 
ATOM     37  C   UNL A   1      42.587  31.108  30.315  1.00  0.00     0.074 A 
ATOM     38  C   UNL A   1      41.365  31.870  30.463  1.00  0.00     0.031 C 
ATOM     39  C   UNL A   1      40.422  25.408  28.221  1.00  0.00     0.029 A 
ATOM     40  C   UNL A   1      41.808  25.782  28.486  1.00  0.00     0.049 A 
ATOM     41  H   UNL A   1      42.503  27.579  29.281  1.00  0.00     0.167 HD
ATOM     42  C   UNL A   1      43.822  31.571  30.618  1.00  0.00     0.031 A 
ATOM     43  C   UNL A   1      42.885  25.002  28.265  1.00  0.00     0.031 A 
ATOM     44  C   UNL A   1      45.024  30.798  30.459  1.00  0.00     0.049 A 
ATOM     45  C   UNL A   1      44.254  25.562  28.543  1.00  0.00     0.074 A 
ATOM     46  C   UNL A   1      46.329  31.168  30.728  1.00  0.00     0.029 A 
ATOM     47  N   UNL A   1      45.065  29.493  29.989  1.00  0.00    -0.354 N 
ATOM     48  N   UNL A   1      44.581  26.750  28.996  1.00  0.00    -0.248 NA
ATOM     49  C   UNL A   1      45.399  24.681  28.277  1.00  0.00     0.031 C 
ATOM     50  C   UNL A   1      47.163  30.101  30.380  1.00  0.00     0.029 A 
ATOM     51  C   UNL A   1      46.374  29.047  29.948  1.00  0.00     0.049 A 
ATOM     52  H   UNL A   1      44.279  28.962  29.725  1.00  0.00     0.167 HD
ATOM     53  C   UNL A   1      45.966  26.746  29.103  1.00  0.00     0.074 A 
ATOM     54  C   UNL A   1      46.417  25.439  28.666  1.00  0.00     0.031 C 
ATOM     55  C   UNL A   1      46.792  27.733  29.528  1.00  0.00     0.031 A 
BRANCH  42  56
ATOM     56  C   UNL A   1      43.935  32.991  31.101  1.00  0.00    -0.014 A 
ATOM     57  C   UNL A   1      43.750  33.321  32.456  1.00  0.00     0.010 A 
ATOM     58  C   UNL A   1      44.256  34.010  30.186  1.00  0.00     0.010 A 
ATOM     59  C   UNL A   1      43.848  34.651  32.878  1.00  0.00     0.020 A 
ATOM     60  C   UNL A   1      44.380  35.336  30.609  1.00  0.00     0.020 A 
ATOM     61  C   UNL A   1      44.157  35.650  31.950  1.00  0.00     0.054 A 
BRANCH  61  62
ATOM     62  S   UNL A   1      44.292  37.364  32.527  1.00  0.00     0.124 S 
ATOM     63  O   UNL A   1      43.366  37.375  33.657  1.00  0.00    -0.237 OA
ATOM     64  O   UNL A   1      45.706  37.478  32.874  1.00  0.00    -0.237 OA
ATOM     65  O   UNL A   1      43.872  38.154  31.371  1.00  0.00    -0.744 OA
ENDBRANCH  61  62
ENDBRANCH  42  56
BRANCH  43  66
ATOM     66  C   UNL A   1      42.708  23.630  27.719  1.00  0.00    -0.014 A 
ATOM     67  C   UNL A   1      42.519  22.538  28.582  1.00  0.00     0.010 A 
ATOM     68  C   UNL A   1      42.703  23.413  26.328  1.00  0.00     0.010 A 
ATOM     69  C   UNL A   1      42.342  21.250  28.065  1.00  0.00     0.020 A 
ATOM     70  C   UNL A   1      42.499  22.132  25.807  1.00  0.00     0.020 A 
ATOM     71  C   UNL A   1      42.331  21.057  26.681  1.00  0.00     0.054 A 
BRANCH  71  72
ATOM     72  S   UNL A   1      42.045  19.386  26.032  1.00  0.00     0.124 S 
ATOM     73  O   UNL A   1      42.517  18.550  27.131  1.00  0.00    -0.237 OA
ATOM     74  O   UNL A   1      40.603  19.377  25.804  1.00  0.00    -0.237 OA
ATOM     75  O   UNL A   1      42.860  19.347  24.819  1.00  0.00    -0.744 OA
ENDBRANCH  71  72
ENDBRANCH  43  66
BRANCH  55  76
ATOM     76  C   UNL A   1      48.262  27.427  29.606  1.00  0.00    -0.014 A 
ATOM     77  C   UNL A   1      49.131  27.739  28.548  1.00  0.00     0.010 A 
ATOM     78  C   UNL A   1      48.790  26.904  30.802  1.00  0.00     0.010 A 
ATOM     79  C   UNL A   1      50.506  27.526  28.682  1.00  0.00     0.020 A 
ATOM     80  C   UNL A   1      50.165  26.712  30.947  1.00  0.00     0.020 A 
ATOM     81  C   UNL A   1      51.014  27.019  29.883  1.00  0.00     0.054 A 
BRANCH  81  82
ATOM     82  S   UNL A   1      52.810  26.829  30.062  1.00  0.00     0.124 S 
ATOM     83  O   UNL A   1      52.906  25.887  31.174  1.00  0.00    -0.237 OA
ATOM     84  O   UNL A   1      53.208  26.305  28.758  1.00  0.00    -0.237 OA
ATOM     85  O   UNL A   1      53.274  28.183  30.350  1.00  0.00    -0.744 OA
ENDBRANCH  81  82
ENDBRANCH  55  76
ENDBRANCH  29  30
ENDBRANCH  22  24
ENDBRANCH  21  22
ENDBRANCH  20  21
ENDBRANCH   1  20
TORSDOF 18
ENDMDL
MODEL 3
REMARK VINA RESULT:      -9.6      3.170      9.601
REMARK SMILES COc1ccc(O[C@H](F)C(=O)OCCOC(=O)c2ccc(-c3c4nc(c(-c5ccc(S(=O)(=O)[O-])cc5)c5ccc([nH]5)c(-c5ccc(S(=O)(=O)[O-])cc5)c5nc(c(-c6ccc(S(=O)(=O)[O-])cc6)c6ccc3[nH]6)C=C5)C=C4)cc2)c(C(C)(C)C)c1
REMARK SMILES IDX 13 1 12 2 10 3 11 4 8 5 9 6 7 7 6 8 3 9 4 10 83 11 5 12
REMARK SMILES IDX 78 13 2 14 1 15 79 16 80 17 81 18 82 19 14 20 15 21 16 22
REMARK SMILES IDX 17 23 18 24 19 25 77 26 20 27 76 28 21 29 22 30 23 31 70 32
REMARK SMILES IDX 24 33 75 34 69 35 71 36 25 37 74 38 68 39 67 40 26 42 56 43
REMARK SMILES IDX 37 44 55 45 38 46 41 47 54 48 72 49 39 50 40 51 53 53 73 54
REMARK SMILES IDX 42 55 27 56 28 57 36 58 29 59 35 60 30 61 31 62 32 63 33 64
REMARK SMILES IDX 34 65 57 66 58 67 66 68 59 69 65 70 60 71 61 72 62 73 63 74
REMARK SMILES IDX 64 75 43 76 44 77 52 78 45 79 51 80 46 81 47 82 48 83 49 84
REMARK SMILES IDX 50 85
REMARK H PARENT 71 41 41 52
REMARK Flexibility Score: inf
ROOT
ATOM      1  C   UNL A   1      35.139  23.615  24.256  1.00  0.00     0.274 C 
ENDROOT
BRANCH   1   2
ATOM      2  O   UNL A   1      33.833  23.268  24.751  1.00  0.00    -0.457 OA
BRANCH   2   3
ATOM      3  C   UNL A   1      33.278  24.093  25.684  1.00  0.00     0.381 C 
ATOM      4  O   UNL A   1      33.475  24.007  26.892  1.00  0.00    -0.244 OA
BRANCH   3   5
ATOM      5  C   UNL A   1      32.379  25.162  25.036  1.00  0.00     0.461 C 
ATOM      6  F   UNL A   1      31.199  25.382  25.689  1.00  0.00    -0.189 F 
BRANCH   5   7
ATOM      7  O   UNL A   1      32.970  26.422  24.759  1.00  0.00    -0.450 OA
BRANCH   7   8
ATOM      8  C   UNL A   1      32.143  27.399  24.283  1.00  0.00     0.127 A 
ATOM      9  C   UNL A   1      30.436  29.389  23.360  1.00  0.00     0.119 A 
ATOM     10  C   UNL A   1      30.698  28.300  22.551  1.00  0.00     0.050 A 
ATOM     11  C   UNL A   1      31.016  29.494  24.629  1.00  0.00     0.054 A 
ATOM     12  C   UNL A   1      31.570  27.319  23.003  1.00  0.00     0.051 A 
ATOM     13  C   UNL A   1      31.909  28.515  25.118  1.00  0.00     0.003 A 
BRANCH   9  14
ATOM     14  O   UNL A   1      29.561  30.330  22.891  1.00  0.00    -0.497 OA
ATOM     15  C   UNL A   1      29.102  29.978  21.586  1.00  0.00     0.278 C 
ENDBRANCH   9  14
BRANCH  13  16
ATOM     16  C   UNL A   1      32.555  28.657  26.520  1.00  0.00    -0.009 C 
ATOM     17  C   UNL A   1      33.983  28.069  26.493  1.00  0.00     0.016 C 
ATOM     18  C   UNL A   1      32.617  30.133  26.985  1.00  0.00     0.016 C 
ATOM     19  C   UNL A   1      31.776  27.905  27.629  1.00  0.00     0.016 C 
ENDBRANCH  13  16
ENDBRANCH   7   8
ENDBRANCH   5   7
ENDBRANCH   3   5
ENDBRANCH   2   3
ENDBRANCH   1   2
BRANCH   1  20
ATOM     20  C   UNL A   1      36.215  22.972  25.135  1.00  0.00     0.275 C 
BRANCH  20  21
ATOM     21  O   UNL A   1      37.383  23.809  25.226  1.00  0.00    -0.458 OA
BRANCH  21  22
ATOM     22  C   UNL A   1      38.383  23.321  25.996  1.00  0.00     0.338 C 
ATOM     23  O   UNL A   1      38.827  22.187  26.004  1.00  0.00    -0.246 OA
BRANCH  22  24
ATOM     24  C   UNL A   1      38.997  24.419  26.750  1.00  0.00     0.060 A 
ATOM     25  C   UNL A   1      38.600  24.617  28.076  1.00  0.00     0.016 A 
ATOM     26  C   UNL A   1      39.895  25.289  26.135  1.00  0.00     0.016 A 
ATOM     27  C   UNL A   1      39.092  25.697  28.798  1.00  0.00     0.010 A 
ATOM     28  C   UNL A   1      40.392  26.371  26.860  1.00  0.00     0.010 A 
ATOM     29  C   UNL A   1      39.983  26.587  28.189  1.00  0.00    -0.014 A 
BRANCH  29  30
ATOM     30  C   UNL A   1      40.446  27.791  28.908  1.00  0.00     0.031 A 
ATOM     31  C   UNL A   1      41.780  27.764  29.590  1.00  0.00     0.074 A 
ATOM     32  C   UNL A   1      39.658  28.879  28.970  1.00  0.00     0.049 A 
ATOM     33  N   UNL A   1      42.293  28.620  30.432  1.00  0.00    -0.248 NA
ATOM     34  C   UNL A   1      42.649  26.612  29.291  1.00  0.00     0.031 C 
ATOM     35  C   UNL A   1      38.374  29.036  28.285  1.00  0.00     0.029 A 
ATOM     36  N   UNL A   1      39.815  30.051  29.663  1.00  0.00    -0.354 N 
ATOM     37  C   UNL A   1      43.528  28.096  30.793  1.00  0.00     0.074 A 
ATOM     38  C   UNL A   1      43.687  26.846  30.081  1.00  0.00     0.031 C 
ATOM     39  C   UNL A   1      37.852  30.231  28.606  1.00  0.00     0.029 A 
ATOM     40  C   UNL A   1      38.733  30.892  29.564  1.00  0.00     0.049 A 
ATOM     41  H   UNL A   1      40.624  30.269  30.180  1.00  0.00     0.167 HD
ATOM     42  C   UNL A   1      44.441  28.612  31.650  1.00  0.00     0.031 A 
ATOM     43  C   UNL A   1      38.463  32.043  30.211  1.00  0.00     0.031 A 
ATOM     44  C   UNL A   1      44.262  29.856  32.350  1.00  0.00     0.049 A 
ATOM     45  C   UNL A   1      39.459  32.563  31.211  1.00  0.00     0.074 A 
ATOM     46  C   UNL A   1      45.116  30.470  33.247  1.00  0.00     0.029 A 
ATOM     47  N   UNL A   1      43.148  30.675  32.228  1.00  0.00    -0.354 N 
ATOM     48  N   UNL A   1      40.613  32.047  31.567  1.00  0.00    -0.248 NA
ATOM     49  C   UNL A   1      39.119  33.815  31.900  1.00  0.00     0.031 C 
ATOM     50  C   UNL A   1      44.500  31.641  33.700  1.00  0.00     0.029 A 
ATOM     51  C   UNL A   1      43.287  31.784  33.043  1.00  0.00     0.049 A 
ATOM     52  H   UNL A   1      42.374  30.495  31.648  1.00  0.00     0.167 HD
ATOM     53  C   UNL A   1      41.152  32.930  32.496  1.00  0.00     0.074 A 
ATOM     54  C   UNL A   1      40.198  34.011  32.648  1.00  0.00     0.031 C 
ATOM     55  C   UNL A   1      42.331  32.856  33.160  1.00  0.00     0.031 A 
BRANCH  42  56
ATOM     56  C   UNL A   1      45.684  27.808  31.912  1.00  0.00    -0.014 A 
ATOM     57  C   UNL A   1      46.830  27.946  31.107  1.00  0.00     0.010 A 
ATOM     58  C   UNL A   1      45.714  26.916  32.999  1.00  0.00     0.010 A 
ATOM     59  C   UNL A   1      47.969  27.177  31.364  1.00  0.00     0.020 A 
ATOM     60  C   UNL A   1      46.861  26.165  33.273  1.00  0.00     0.020 A 
ATOM     61  C   UNL A   1      47.975  26.288  32.442  1.00  0.00     0.054 A 
BRANCH  61  62
ATOM     62  S   UNL A   1      49.471  25.313  32.762  1.00  0.00     0.124 S 
ATOM     63  O   UNL A   1      50.321  26.284  33.447  1.00  0.00    -0.237 OA
ATOM     64  O   UNL A   1      48.973  24.220  33.592  1.00  0.00    -0.237 OA
ATOM     65  O   UNL A   1      49.923  24.924  31.428  1.00  0.00    -0.744 OA
ENDBRANCH  61  62
ENDBRANCH  42  56
BRANCH  43  66
ATOM     66  C   UNL A   1      37.182  32.753  29.956  1.00  0.00    -0.014 A 
ATOM     67  C   UNL A   1      36.088  32.585  30.822  1.00  0.00     0.010 A 
ATOM     68  C   UNL A   1      37.056  33.622  28.856  1.00  0.00     0.010 A 
ATOM     69  C   UNL A   1      34.888  33.262  30.586  1.00  0.00     0.020 A 
ATOM     70  C   UNL A   1      35.867  34.321  28.631  1.00  0.00     0.020 A 
ATOM     71  C   UNL A   1      34.786  34.128  29.492  1.00  0.00     0.054 A 
BRANCH  71  72
ATOM     72  S   UNL A   1      33.237  35.038  29.236  1.00  0.00     0.124 S 
ATOM     73  O   UNL A   1      33.722  36.347  28.811  1.00  0.00    -0.237 OA
ATOM     74  O   UNL A   1      32.570  34.245  28.208  1.00  0.00    -0.237 OA
ATOM     75  O   UNL A   1      32.599  35.001  30.551  1.00  0.00    -0.744 OA
ENDBRANCH  71  72
ENDBRANCH  43  66
BRANCH  55  76
ATOM     76  C   UNL A   1      42.694  34.001  34.064  1.00  0.00    -0.014 A 
ATOM     77  C   UNL A   1      42.419  33.961  35.441  1.00  0.00     0.010 A 
ATOM     78  C   UNL A   1      43.411  35.091  33.535  1.00  0.00     0.010 A 
ATOM     79  C   UNL A   1      42.847  34.998  36.273  1.00  0.00     0.020 A 
ATOM     80  C   UNL A   1      43.860  36.116  34.368  1.00  0.00     0.020 A 
ATOM     81  C   UNL A   1      43.570  36.067  35.732  1.00  0.00     0.054 A 
BRANCH  81  82
ATOM     82  S   UNL A   1      44.186  37.359  36.846  1.00  0.00     0.124 S 
ATOM     83  O   UNL A   1      43.121  37.435  37.843  1.00  0.00    -0.237 OA
ATOM     84  O   UNL A   1      45.450  36.800  37.318  1.00  0.00    -0.237 OA
ATOM     85  O   UNL A   1      44.314  38.529  35.982  1.00  0.00    -0.744 OA
ENDBRANCH  81  82
ENDBRANCH  55  76
ENDBRANCH  29  30
ENDBRANCH  22  24
ENDBRANCH  21  22
ENDBRANCH  20  21
ENDBRANCH   1  20
TORSDOF 18
ENDMDL
