MODEL 1
REMARK VINA RESULT:      -9.4      0.000      0.000
REMARK SMILES CCOC(=O)c1sc(NC(=O)CCC(=O)OCCOC(=O)c2ccc(-c3c4nc(c(-c5ccc(S(=O)(=O)[O-])cc5)c5ccc([nH]5)c(-c5ccc(S(=O)(=O)[O-])cc5)c5nc(c(-c6ccc(S(=O)(=O)[O-])cc6)c6ccc3[nH]6)C=C5)C=C4)cc2)c(C#N)c1C
REMARK SMILES IDX 16 1 14 2 15 3 13 4 12 5 10 6 9 7 11 9 8 10 6 11 7 12 85 13
REMARK SMILES IDX 82 14 86 15 4 16 5 17 3 18 2 19 1 20 83 21 84 22 17 23 18 24
REMARK SMILES IDX 19 25 20 26 21 27 22 28 23 29 81 30 24 31 80 32 25 33 26 34
REMARK SMILES IDX 27 35 74 36 28 37 79 38 73 39 75 40 29 41 78 42 72 43 71 44
REMARK SMILES IDX 30 46 60 47 41 48 59 49 42 50 45 51 58 52 76 53 43 54 44 55
REMARK SMILES IDX 57 57 77 58 46 59 31 60 32 61 40 62 33 63 39 64 34 65 35 66
REMARK SMILES IDX 36 67 37 68 38 69 61 70 62 71 70 72 63 73 69 74 64 75 65 76
REMARK SMILES IDX 66 77 67 78 68 79 47 80 48 81 56 82 49 83 55 84 50 85 51 86
REMARK SMILES IDX 52 87 53 88 54 89
REMARK H PARENT 9 8 75 45 45 56
REMARK Flexibility Score: inf
ROOT
ATOM      1  O   UNL A   1      35.374  34.225  30.874  1.00  0.00    -0.462 OA
ENDROOT
BRANCH   1   2
ATOM      2  C   UNL A   1      35.076  33.458  31.948  1.00  0.00     0.306 C 
ATOM      3  O   UNL A   1      33.935  33.116  32.249  1.00  0.00    -0.252 OA
BRANCH   2   4
ATOM      4  C   UNL A   1      36.313  33.028  32.723  1.00  0.00     0.132 C 
BRANCH   4   5
ATOM      5  C   UNL A   1      36.487  31.548  33.198  1.00  0.00     0.112 C 
BRANCH   5   6
ATOM      6  C   UNL A   1      37.712  31.238  34.017  1.00  0.00     0.225 C 
ATOM      7  N   UNL A   1      38.534  32.005  34.774  1.00  0.00    -0.317 N 
ATOM      8  H   UNL A   1      39.282  31.437  35.068  1.00  0.00     0.170 HD
ATOM      9  O   UNL A   1      38.031  30.031  34.047  1.00  0.00    -0.275 OA
BRANCH   7  10
ATOM     10  C   UNL A   1      38.742  33.282  35.304  1.00  0.00     0.114 A 
ATOM     11  C   UNL A   1      39.370  35.238  36.745  1.00  0.00     0.118 A 
ATOM     12  S   UNL A   1      38.228  33.912  36.807  1.00  0.00    -0.109 S 
ATOM     13  C   UNL A   1      39.862  35.374  35.451  1.00  0.00    -0.006 A 
ATOM     14  C   UNL A   1      39.440  34.277  34.618  1.00  0.00     0.091 A 
ATOM     15  C   UNL A   1      40.935  36.358  35.069  1.00  0.00     0.048 C 
BRANCH  11  16
ATOM     16  C   UNL A   1      40.126  35.767  37.893  1.00  0.00     0.348 C 
ATOM     17  O   UNL A   1      41.061  35.127  38.370  1.00  0.00    -0.245 OA
BRANCH  16  18
ATOM     18  O   UNL A   1      39.853  37.049  38.278  1.00  0.00    -0.462 OA
BRANCH  18  19
ATOM     19  C   UNL A   1      39.265  37.156  39.613  1.00  0.00     0.230 C 
ATOM     20  C   UNL A   1      38.899  38.577  39.980  1.00  0.00     0.049 C 
ENDBRANCH  18  19
ENDBRANCH  16  18
ENDBRANCH  11  16
BRANCH  14  21
ATOM     21  C   UNL A   1      39.953  34.086  33.295  1.00  0.00     0.103 C 
ATOM     22  N   UNL A   1      40.319  33.931  32.197  1.00  0.00    -0.192 NA
ENDBRANCH  14  21
ENDBRANCH   7  10
ENDBRANCH   5   6
ENDBRANCH   4   5
ENDBRANCH   2   4
ENDBRANCH   1   2
BRANCH   1  23
ATOM     23  C   UNL A   1      34.243  34.545  30.056  1.00  0.00     0.274 C 
BRANCH  23  24
ATOM     24  C   UNL A   1      33.974  33.448  29.023  1.00  0.00     0.275 C 
BRANCH  24  25
ATOM     25  O   UNL A   1      34.940  33.085  27.998  1.00  0.00    -0.458 OA
BRANCH  25  26
ATOM     26  C   UNL A   1      35.073  31.758  27.732  1.00  0.00     0.338 C 
ATOM     27  O   UNL A   1      34.208  31.066  27.250  1.00  0.00    -0.246 OA
BRANCH  26  28
ATOM     28  C   UNL A   1      36.129  30.985  28.379  1.00  0.00     0.060 A 
ATOM     29  C   UNL A   1      36.878  31.481  29.477  1.00  0.00     0.016 A 
ATOM     30  C   UNL A   1      36.659  29.994  27.625  1.00  0.00     0.016 A 
ATOM     31  C   UNL A   1      38.248  31.142  29.621  1.00  0.00     0.010 A 
ATOM     32  C   UNL A   1      37.888  29.512  28.000  1.00  0.00     0.010 A 
ATOM     33  C   UNL A   1      38.821  30.238  28.735  1.00  0.00    -0.014 A 
BRANCH  33  34
ATOM     34  C   UNL A   1      40.182  29.634  28.797  1.00  0.00     0.031 A 
ATOM     35  C   UNL A   1      40.589  29.431  30.233  1.00  0.00     0.074 A 
ATOM     36  C   UNL A   1      40.888  29.031  27.792  1.00  0.00     0.049 A 
ATOM     37  N   UNL A   1      41.252  30.262  30.975  1.00  0.00    -0.248 NA
ATOM     38  C   UNL A   1      39.926  28.375  31.033  1.00  0.00     0.031 C 
ATOM     39  C   UNL A   1      40.575  28.844  26.365  1.00  0.00     0.029 A 
ATOM     40  N   UNL A   1      42.098  28.377  27.871  1.00  0.00    -0.354 N 
ATOM     41  C   UNL A   1      41.244  29.686  32.243  1.00  0.00     0.074 A 
ATOM     42  C   UNL A   1      40.119  28.812  32.273  1.00  0.00     0.031 C 
ATOM     43  C   UNL A   1      41.446  27.962  25.795  1.00  0.00     0.029 A 
ATOM     44  C   UNL A   1      42.472  27.601  26.759  1.00  0.00     0.049 A 
ATOM     45  H   UNL A   1      42.673  28.450  28.667  1.00  0.00     0.167 HD
ATOM     46  C   UNL A   1      42.345  29.627  33.039  1.00  0.00     0.031 A 
ATOM     47  C   UNL A   1      43.549  26.753  26.645  1.00  0.00     0.031 A 
ATOM     48  C   UNL A   1      43.387  30.471  32.527  1.00  0.00     0.049 A 
ATOM     49  C   UNL A   1      44.502  27.146  27.713  1.00  0.00     0.074 A 
ATOM     50  C   UNL A   1      43.472  31.820  32.248  1.00  0.00     0.029 A 
ATOM     51  N   UNL A   1      44.354  29.853  31.768  1.00  0.00    -0.354 N 
ATOM     52  N   UNL A   1      45.102  28.303  27.731  1.00  0.00    -0.248 NA
ATOM     53  C   UNL A   1      44.363  26.488  29.002  1.00  0.00     0.031 C 
ATOM     54  C   UNL A   1      44.136  31.885  30.991  1.00  0.00     0.029 A 
ATOM     55  C   UNL A   1      44.535  30.597  30.628  1.00  0.00     0.049 A 
ATOM     56  H   UNL A   1      44.831  29.023  31.999  1.00  0.00     0.167 HD
ATOM     57  C   UNL A   1      45.008  28.726  29.047  1.00  0.00     0.074 A 
ATOM     58  C   UNL A   1      44.580  27.540  29.797  1.00  0.00     0.031 C 
ATOM     59  C   UNL A   1      44.980  30.053  29.362  1.00  0.00     0.031 A 
BRANCH  46  60
ATOM     60  C   UNL A   1      42.616  28.504  34.015  1.00  0.00    -0.014 A 
ATOM     61  C   UNL A   1      43.235  27.340  33.532  1.00  0.00     0.010 A 
ATOM     62  C   UNL A   1      42.094  28.447  35.329  1.00  0.00     0.010 A 
ATOM     63  C   UNL A   1      43.285  26.169  34.301  1.00  0.00     0.020 A 
ATOM     64  C   UNL A   1      42.175  27.301  36.121  1.00  0.00     0.020 A 
ATOM     65  C   UNL A   1      42.747  26.157  35.589  1.00  0.00     0.054 A 
BRANCH  65  66
ATOM     66  S   UNL A   1      42.751  24.616  36.535  1.00  0.00     0.124 S 
ATOM     67  O   UNL A   1      41.395  24.591  37.073  1.00  0.00    -0.237 OA
ATOM     68  O   UNL A   1      43.047  23.626  35.504  1.00  0.00    -0.237 OA
ATOM     69  O   UNL A   1      43.812  24.822  37.519  1.00  0.00    -0.744 OA
ENDBRANCH  65  66
ENDBRANCH  46  60
BRANCH  47  70
ATOM     70  C   UNL A   1      43.714  25.432  25.936  1.00  0.00    -0.014 A 
ATOM     71  C   UNL A   1      44.823  25.124  25.103  1.00  0.00     0.010 A 
ATOM     72  C   UNL A   1      42.927  24.341  26.348  1.00  0.00     0.010 A 
ATOM     73  C   UNL A   1      45.140  23.790  24.736  1.00  0.00     0.020 A 
ATOM     74  C   UNL A   1      43.239  23.013  25.995  1.00  0.00     0.020 A 
ATOM     75  C   UNL A   1      44.351  22.737  25.202  1.00  0.00     0.054 A 
BRANCH  75  76
ATOM     76  S   UNL A   1      44.827  21.002  24.870  1.00  0.00     0.124 S 
ATOM     77  O   UNL A   1      43.858  20.249  25.662  1.00  0.00    -0.237 OA
ATOM     78  O   UNL A   1      44.677  20.896  23.421  1.00  0.00    -0.237 OA
ATOM     79  O   UNL A   1      46.206  20.928  25.351  1.00  0.00    -0.744 OA
ENDBRANCH  75  76
ENDBRANCH  47  70
BRANCH  59  80
ATOM     80  C   UNL A   1      45.263  31.065  28.270  1.00  0.00    -0.014 A 
ATOM     81  C   UNL A   1      44.304  31.535  27.345  1.00  0.00     0.010 A 
ATOM     82  C   UNL A   1      46.512  31.705  28.317  1.00  0.00     0.010 A 
ATOM     83  C   UNL A   1      44.602  32.610  26.488  1.00  0.00     0.020 A 
ATOM     84  C   UNL A   1      46.805  32.785  27.484  1.00  0.00     0.020 A 
ATOM     85  C   UNL A   1      45.853  33.230  26.567  1.00  0.00     0.054 A 
BRANCH  85  86
ATOM     86  S   UNL A   1      46.228  34.652  25.501  1.00  0.00     0.124 S 
ATOM     87  O   UNL A   1      45.832  35.783  26.335  1.00  0.00    -0.237 OA
ATOM     88  O   UNL A   1      47.663  34.513  25.267  1.00  0.00    -0.237 OA
ATOM     89  O   UNL A   1      45.393  34.432  24.321  1.00  0.00    -0.744 OA
ENDBRANCH  85  86
ENDBRANCH  59  80
ENDBRANCH  33  34
ENDBRANCH  26  28
ENDBRANCH  25  26
ENDBRANCH  24  25
ENDBRANCH  23  24
ENDBRANCH   1  23
TORSDOF 21
ENDMDL
MODEL 2
REMARK VINA RESULT:      -9.1      3.059     11.995
REMARK SMILES CCOC(=O)c1sc(NC(=O)CCC(=O)OCCOC(=O)c2ccc(-c3c4nc(c(-c5ccc(S(=O)(=O)[O-])cc5)c5ccc([nH]5)c(-c5ccc(S(=O)(=O)[O-])cc5)c5nc(c(-c6ccc(S(=O)(=O)[O-])cc6)c6ccc3[nH]6)C=C5)C=C4)cc2)c(C#N)c1C
REMARK SMILES IDX 16 1 14 2 15 3 13 4 12 5 10 6 9 7 11 9 8 10 6 11 7 12 85 13
REMARK SMILES IDX 82 14 86 15 4 16 5 17 3 18 2 19 1 20 83 21 84 22 17 23 18 24
REMARK SMILES IDX 19 25 20 26 21 27 22 28 23 29 81 30 24 31 80 32 25 33 26 34
REMARK SMILES IDX 27 35 74 36 28 37 79 38 73 39 75 40 29 41 78 42 72 43 71 44
REMARK SMILES IDX 30 46 60 47 41 48 59 49 42 50 45 51 58 52 76 53 43 54 44 55
REMARK SMILES IDX 57 57 77 58 46 59 31 60 32 61 40 62 33 63 39 64 34 65 35 66
REMARK SMILES IDX 36 67 37 68 38 69 61 70 62 71 70 72 63 73 69 74 64 75 65 76
REMARK SMILES IDX 66 77 67 78 68 79 47 80 48 81 56 82 49 83 55 84 50 85 51 86
REMARK SMILES IDX 52 87 53 88 54 89
REMARK H PARENT 9 8 75 45 45 56
REMARK Flexibility Score: inf
ROOT
ATOM      1  O   UNL A   1      43.528  21.848  25.663  1.00  0.00    -0.462 OA
ENDROOT
BRANCH   1   2
ATOM      2  C   UNL A   1      44.239  22.998  25.605  1.00  0.00     0.306 C 
ATOM      3  O   UNL A   1      43.917  23.969  24.924  1.00  0.00    -0.252 OA
BRANCH   2   4
ATOM      4  C   UNL A   1      45.463  22.978  26.510  1.00  0.00     0.132 C 
BRANCH   4   5
ATOM      5  C   UNL A   1      45.366  23.447  27.999  1.00  0.00     0.112 C 
BRANCH   5   6
ATOM      6  C   UNL A   1      44.782  24.813  28.244  1.00  0.00     0.225 C 
ATOM      7  N   UNL A   1      45.174  26.061  27.889  1.00  0.00    -0.317 N 
ATOM      8  H   UNL A   1      44.568  26.700  28.330  1.00  0.00     0.170 HD
ATOM      9  O   UNL A   1      43.699  24.818  28.866  1.00  0.00    -0.275 OA
BRANCH   7  10
ATOM     10  C   UNL A   1      46.097  26.803  27.145  1.00  0.00     0.114 A 
ATOM     11  C   UNL A   1      48.108  27.598  25.873  1.00  0.00     0.118 A 
ATOM     12  S   UNL A   1      47.717  27.187  27.529  1.00  0.00    -0.109 S 
ATOM     13  C   UNL A   1      46.937  27.770  25.142  1.00  0.00    -0.006 A 
ATOM     14  C   UNL A   1      45.784  27.370  25.908  1.00  0.00     0.091 A 
ATOM     15  C   UNL A   1      46.913  28.037  23.661  1.00  0.00     0.048 C 
BRANCH  11  16
ATOM     16  C   UNL A   1      49.376  27.282  25.192  1.00  0.00     0.348 C 
ATOM     17  O   UNL A   1      50.082  28.182  24.743  1.00  0.00    -0.245 OA
BRANCH  16  18
ATOM     18  O   UNL A   1      49.797  25.983  25.238  1.00  0.00    -0.462 OA
BRANCH  18  19
ATOM     19  C   UNL A   1      51.165  25.819  25.727  1.00  0.00     0.230 C 
ATOM     20  C   UNL A   1      51.231  25.601  27.223  1.00  0.00     0.049 C 
ENDBRANCH  18  19
ENDBRANCH  16  18
ENDBRANCH  11  16
BRANCH  14  21
ATOM     21  C   UNL A   1      44.479  27.282  25.328  1.00  0.00     0.103 C 
ATOM     22  N   UNL A   1      43.431  27.246  24.813  1.00  0.00    -0.192 NA
ENDBRANCH  14  21
ENDBRANCH   7  10
ENDBRANCH   5   6
ENDBRANCH   4   5
ENDBRANCH   2   4
ENDBRANCH   1   2
BRANCH   1  23
ATOM     23  C   UNL A   1      42.988  21.563  26.957  1.00  0.00     0.274 C 
BRANCH  23  24
ATOM     24  C   UNL A   1      41.465  21.422  26.908  1.00  0.00     0.275 C 
BRANCH  24  25
ATOM     25  O   UNL A   1      40.645  22.135  25.940  1.00  0.00    -0.458 OA
BRANCH  25  26
ATOM     26  C   UNL A   1      39.616  22.870  26.440  1.00  0.00     0.338 C 
ATOM     27  O   UNL A   1      38.454  22.544  26.391  1.00  0.00    -0.246 OA
BRANCH  26  28
ATOM     28  C   UNL A   1      39.799  24.293  26.711  1.00  0.00     0.060 A 
ATOM     29  C   UNL A   1      41.032  24.960  26.502  1.00  0.00     0.016 A 
ATOM     30  C   UNL A   1      38.907  24.831  27.577  1.00  0.00     0.016 A 
ATOM     31  C   UNL A   1      41.436  26.010  27.368  1.00  0.00     0.010 A 
ATOM     32  C   UNL A   1      39.253  26.016  28.174  1.00  0.00     0.010 A 
ATOM     33  C   UNL A   1      40.564  26.446  28.359  1.00  0.00    -0.014 A 
BRANCH  33  34
ATOM     34  C   UNL A   1      40.722  27.619  29.264  1.00  0.00     0.031 A 
ATOM     35  C   UNL A   1      41.793  28.536  28.735  1.00  0.00     0.074 A 
ATOM     36  C   UNL A   1      39.875  28.049  30.249  1.00  0.00     0.049 A 
ATOM     37  N   UNL A   1      43.053  28.513  29.039  1.00  0.00    -0.248 NA
ATOM     38  C   UNL A   1      41.528  29.331  27.513  1.00  0.00     0.031 C 
ATOM     39  C   UNL A   1      38.613  27.484  30.757  1.00  0.00     0.029 A 
ATOM     40  N   UNL A   1      39.963  29.192  31.013  1.00  0.00    -0.354 N 
ATOM     41  C   UNL A   1      43.639  29.446  28.187  1.00  0.00     0.074 A 
ATOM     42  C   UNL A   1      42.759  29.571  27.073  1.00  0.00     0.031 C 
ATOM     43  C   UNL A   1      37.976  28.381  31.564  1.00  0.00     0.029 A 
ATOM     44  C   UNL A   1      38.821  29.549  31.754  1.00  0.00     0.049 A 
ATOM     45  H   UNL A   1      40.786  29.732  31.040  1.00  0.00     0.167 HD
ATOM     46  C   UNL A   1      44.565  30.352  28.601  1.00  0.00     0.031 A 
ATOM     47  C   UNL A   1      38.610  30.700  32.475  1.00  0.00     0.031 A 
ATOM     48  C   UNL A   1      45.045  30.022  29.913  1.00  0.00     0.049 A 
ATOM     49  C   UNL A   1      39.950  31.287  32.725  1.00  0.00     0.074 A 
ATOM     50  C   UNL A   1      45.665  28.912  30.451  1.00  0.00     0.029 A 
ATOM     51  N   UNL A   1      44.458  30.690  30.963  1.00  0.00    -0.354 N 
ATOM     52  N   UNL A   1      40.850  30.699  33.460  1.00  0.00    -0.248 NA
ATOM     53  C   UNL A   1      40.456  32.227  31.737  1.00  0.00     0.031 C 
ATOM     54  C   UNL A   1      45.012  28.707  31.699  1.00  0.00     0.029 A 
ATOM     55  C   UNL A   1      44.125  29.764  31.919  1.00  0.00     0.049 A 
ATOM     56  H   UNL A   1      44.303  31.661  31.018  1.00  0.00     0.167 HD
ATOM     57  C   UNL A   1      42.029  30.835  32.746  1.00  0.00     0.074 A 
ATOM     58  C   UNL A   1      41.733  31.829  31.709  1.00  0.00     0.031 C 
ATOM     59  C   UNL A   1      43.032  29.916  32.856  1.00  0.00     0.031 A 
BRANCH  46  60
ATOM     60  C   UNL A   1      44.710  31.735  28.007  1.00  0.00    -0.014 A 
ATOM     61  C   UNL A   1      45.904  32.047  27.337  1.00  0.00     0.010 A 
ATOM     62  C   UNL A   1      43.828  32.810  28.267  1.00  0.00     0.010 A 
ATOM     63  C   UNL A   1      46.220  33.368  26.989  1.00  0.00     0.020 A 
ATOM     64  C   UNL A   1      44.111  34.123  27.887  1.00  0.00     0.020 A 
ATOM     65  C   UNL A   1      45.323  34.398  27.274  1.00  0.00     0.054 A 
BRANCH  65  66
ATOM     66  S   UNL A   1      45.781  36.104  26.889  1.00  0.00     0.124 S 
ATOM     67  O   UNL A   1      44.484  36.771  26.893  1.00  0.00    -0.237 OA
ATOM     68  O   UNL A   1      46.673  36.437  27.997  1.00  0.00    -0.237 OA
ATOM     69  O   UNL A   1      46.430  35.998  25.584  1.00  0.00    -0.744 OA
ENDBRANCH  65  66
ENDBRANCH  46  60
BRANCH  47  70
ATOM     70  C   UNL A   1      37.369  31.530  32.696  1.00  0.00    -0.014 A 
ATOM     71  C   UNL A   1      37.249  32.497  33.729  1.00  0.00     0.010 A 
ATOM     72  C   UNL A   1      36.409  31.597  31.669  1.00  0.00     0.010 A 
ATOM     73  C   UNL A   1      36.241  33.497  33.710  1.00  0.00     0.020 A 
ATOM     74  C   UNL A   1      35.411  32.591  31.638  1.00  0.00     0.020 A 
ATOM     75  C   UNL A   1      35.335  33.547  32.649  1.00  0.00     0.054 A 
BRANCH  75  76
ATOM     76  S   UNL A   1      34.126  34.915  32.523  1.00  0.00     0.124 S 
ATOM     77  O   UNL A   1      34.650  35.891  33.473  1.00  0.00    -0.237 OA
ATOM     78  O   UNL A   1      34.212  35.295  31.116  1.00  0.00    -0.237 OA
ATOM     79  O   UNL A   1      32.863  34.291  32.914  1.00  0.00    -0.744 OA
ENDBRANCH  75  76
ENDBRANCH  47  70
BRANCH  59  80
ATOM     80  C   UNL A   1      42.926  28.851  33.929  1.00  0.00    -0.014 A 
ATOM     81  C   UNL A   1      43.577  28.909  35.181  1.00  0.00     0.010 A 
ATOM     82  C   UNL A   1      41.968  27.846  33.723  1.00  0.00     0.010 A 
ATOM     83  C   UNL A   1      43.277  27.974  36.189  1.00  0.00     0.020 A 
ATOM     84  C   UNL A   1      41.651  26.929  34.726  1.00  0.00     0.020 A 
ATOM     85  C   UNL A   1      42.311  26.991  35.953  1.00  0.00     0.054 A 
BRANCH  85  86
ATOM     86  S   UNL A   1      41.879  25.813  37.266  1.00  0.00     0.124 S 
ATOM     87  O   UNL A   1      40.515  26.207  37.607  1.00  0.00    -0.237 OA
ATOM     88  O   UNL A   1      42.014  24.521  36.599  1.00  0.00    -0.237 OA
ATOM     89  O   UNL A   1      42.875  26.070  38.306  1.00  0.00    -0.744 OA
ENDBRANCH  85  86
ENDBRANCH  59  80
ENDBRANCH  33  34
ENDBRANCH  26  28
ENDBRANCH  25  26
ENDBRANCH  24  25
ENDBRANCH  23  24
ENDBRANCH   1  23
TORSDOF 21
ENDMDL
MODEL 3
REMARK VINA RESULT:      -9.1      7.107     12.677
REMARK SMILES CCOC(=O)c1sc(NC(=O)CCC(=O)OCCOC(=O)c2ccc(-c3c4nc(c(-c5ccc(S(=O)(=O)[O-])cc5)c5ccc([nH]5)c(-c5ccc(S(=O)(=O)[O-])cc5)c5nc(c(-c6ccc(S(=O)(=O)[O-])cc6)c6ccc3[nH]6)C=C5)C=C4)cc2)c(C#N)c1C
REMARK SMILES IDX 16 1 14 2 15 3 13 4 12 5 10 6 9 7 11 9 8 10 6 11 7 12 85 13
REMARK SMILES IDX 82 14 86 15 4 16 5 17 3 18 2 19 1 20 83 21 84 22 17 23 18 24
REMARK SMILES IDX 19 25 20 26 21 27 22 28 23 29 81 30 24 31 80 32 25 33 26 34
REMARK SMILES IDX 27 35 74 36 28 37 79 38 73 39 75 40 29 41 78 42 72 43 71 44
REMARK SMILES IDX 30 46 60 47 41 48 59 49 42 50 45 51 58 52 76 53 43 54 44 55
REMARK SMILES IDX 57 57 77 58 46 59 31 60 32 61 40 62 33 63 39 64 34 65 35 66
REMARK SMILES IDX 36 67 37 68 38 69 61 70 62 71 70 72 63 73 69 74 64 75 65 76
REMARK SMILES IDX 66 77 67 78 68 79 47 80 48 81 56 82 49 83 55 84 50 85 51 86
REMARK SMILES IDX 52 87 53 88 54 89
REMARK H PARENT 9 8 75 45 45 56
REMARK Flexibility Score: inf
ROOT
ATOM      1  O   UNL A   1      39.908  29.871  29.369  1.00  0.00    -0.462 OA
ENDROOT
BRANCH   1   2
ATOM      2  C   UNL A   1      38.974  28.958  29.014  1.00  0.00     0.306 C 
ATOM      3  O   UNL A   1      39.036  27.765  29.306  1.00  0.00    -0.252 OA
BRANCH   2   4
ATOM      4  C   UNL A   1      37.812  29.574  28.249  1.00  0.00     0.132 C 
BRANCH   4   5
ATOM      5  C   UNL A   1      36.400  29.710  28.908  1.00  0.00     0.112 C 
BRANCH   5   6
ATOM      6  C   UNL A   1      35.798  31.089  28.942  1.00  0.00     0.225 C 
ATOM      7  N   UNL A   1      35.464  31.926  29.955  1.00  0.00    -0.317 N 
ATOM      8  H   UNL A   1      35.002  32.701  29.561  1.00  0.00     0.170 HD
ATOM      9  O   UNL A   1      35.588  31.598  27.821  1.00  0.00    -0.275 OA
BRANCH   7  10
ATOM     10  C   UNL A   1      35.515  32.126  31.338  1.00  0.00     0.114 A 
ATOM     11  C   UNL A   1      36.243  32.451  33.717  1.00  0.00     0.118 A 
ATOM     12  S   UNL A   1      36.274  31.165  32.530  1.00  0.00    -0.109 S 
ATOM     13  C   UNL A   1      35.360  33.446  33.309  1.00  0.00    -0.006 A 
ATOM     14  C   UNL A   1      34.900  33.211  31.964  1.00  0.00     0.091 A 
ATOM     15  C   UNL A   1      35.165  34.740  34.053  1.00  0.00     0.048 C 
BRANCH  11  16
ATOM     16  C   UNL A   1      37.319  32.753  34.676  1.00  0.00     0.348 C 
ATOM     17  O   UNL A   1      37.074  32.848  35.877  1.00  0.00    -0.245 OA
BRANCH  16  18
ATOM     18  O   UNL A   1      38.598  32.750  34.195  1.00  0.00    -0.462 OA
BRANCH  18  19
ATOM     19  C   UNL A   1      39.309  34.014  34.388  1.00  0.00     0.230 C 
ATOM     20  C   UNL A   1      39.758  34.639  33.085  1.00  0.00     0.049 C 
ENDBRANCH  18  19
ENDBRANCH  16  18
ENDBRANCH  11  16
BRANCH  14  21
ATOM     21  C   UNL A   1      34.124  34.177  31.247  1.00  0.00     0.103 C 
ATOM     22  N   UNL A   1      33.463  34.924  30.639  1.00  0.00    -0.192 NA
ENDBRANCH  14  21
ENDBRANCH   7  10
ENDBRANCH   5   6
ENDBRANCH   4   5
ENDBRANCH   2   4
ENDBRANCH   1   2
BRANCH   1  23
ATOM     23  C   UNL A   1      40.090  29.996  30.784  1.00  0.00     0.274 C 
BRANCH  23  24
ATOM     24  C   UNL A   1      40.270  31.459  31.196  1.00  0.00     0.275 C 
BRANCH  24  25
ATOM     25  O   UNL A   1      40.279  32.547  30.230  1.00  0.00    -0.458 OA
BRANCH  25  26
ATOM     26  C   UNL A   1      41.490  33.092  29.941  1.00  0.00     0.338 C 
ATOM     27  O   UNL A   1      42.553  32.578  30.199  1.00  0.00    -0.246 OA
BRANCH  26  28
ATOM     28  C   UNL A   1      41.601  34.521  29.663  1.00  0.00     0.060 A 
ATOM     29  C   UNL A   1      40.985  35.133  28.543  1.00  0.00     0.016 A 
ATOM     30  C   UNL A   1      42.660  35.138  30.241  1.00  0.00     0.016 A 
ATOM     31  C   UNL A   1      41.617  36.216  27.879  1.00  0.00     0.010 A 
ATOM     32  C   UNL A   1      43.046  36.343  29.711  1.00  0.00     0.010 A 
ATOM     33  C   UNL A   1      42.796  36.737  28.400  1.00  0.00    -0.014 A 
BRANCH  33  34
ATOM     34  C   UNL A   1      43.532  37.954  27.955  1.00  0.00     0.031 A 
ATOM     35  C   UNL A   1      45.002  37.649  27.833  1.00  0.00     0.074 A 
ATOM     36  C   UNL A   1      43.021  39.102  27.414  1.00  0.00     0.049 A 
ATOM     37  N   UNL A   1      45.904  37.806  28.750  1.00  0.00    -0.248 NA
ATOM     38  C   UNL A   1      45.474  36.784  26.727  1.00  0.00     0.031 C 
ATOM     39  C   UNL A   1      41.632  39.519  27.160  1.00  0.00     0.029 A 
ATOM     40  N   UNL A   1      43.705  40.183  26.903  1.00  0.00    -0.354 N 
ATOM     41  C   UNL A   1      47.060  37.250  28.206  1.00  0.00     0.074 A 
ATOM     42  C   UNL A   1      46.625  36.328  27.211  1.00  0.00     0.031 C 
ATOM     43  C   UNL A   1      41.602  40.632  26.370  1.00  0.00     0.029 A 
ATOM     44  C   UNL A   1      42.958  41.107  26.149  1.00  0.00     0.049 A 
ATOM     45  H   UNL A   1      44.670  40.304  27.059  1.00  0.00     0.167 HD
ATOM     46  C   UNL A   1      48.281  37.843  28.291  1.00  0.00     0.031 A 
ATOM     47  C   UNL A   1      43.424  42.180  25.427  1.00  0.00     0.031 A 
ATOM     48  C   UNL A   1      48.255  38.924  29.235  1.00  0.00     0.049 A 
ATOM     49  C   UNL A   1      44.782  42.475  25.949  1.00  0.00     0.074 A 
ATOM     50  C   UNL A   1      47.950  39.010  30.578  1.00  0.00     0.029 A 
ATOM     51  N   UNL A   1      48.084  40.186  28.713  1.00  0.00    -0.354 N 
ATOM     52  N   UNL A   1      44.992  42.889  27.167  1.00  0.00    -0.248 NA
ATOM     53  C   UNL A   1      45.900  41.802  25.308  1.00  0.00     0.031 C 
ATOM     54  C   UNL A   1      47.149  40.181  30.690  1.00  0.00     0.029 A 
ATOM     55  C   UNL A   1      47.111  40.818  29.447  1.00  0.00     0.049 A 
ATOM     56  H   UNL A   1      48.572  40.568  27.948  1.00  0.00     0.167 HD
ATOM     57  C   UNL A   1      46.077  42.146  27.605  1.00  0.00     0.074 A 
ATOM     58  C   UNL A   1      46.625  41.522  26.396  1.00  0.00     0.031 C 
ATOM     59  C   UNL A   1      46.244  41.854  28.928  1.00  0.00     0.031 A 
BRANCH  46  60
ATOM     60  C   UNL A   1      49.350  37.719  27.228  1.00  0.00    -0.014 A 
ATOM     61  C   UNL A   1      49.077  36.923  26.103  1.00  0.00     0.010 A 
ATOM     62  C   UNL A   1      50.684  38.161  27.385  1.00  0.00     0.010 A 
ATOM     63  C   UNL A   1      50.093  36.551  25.212  1.00  0.00     0.020 A 
ATOM     64  C   UNL A   1      51.697  37.834  26.481  1.00  0.00     0.020 A 
ATOM     65  C   UNL A   1      51.398  37.004  25.412  1.00  0.00     0.054 A 
BRANCH  65  66
ATOM     66  S   UNL A   1      52.709  36.450  24.297  1.00  0.00     0.124 S 
ATOM     67  O   UNL A   1      53.648  35.826  25.224  1.00  0.00    -0.237 OA
ATOM     68  O   UNL A   1      51.990  35.540  23.410  1.00  0.00    -0.237 OA
ATOM     69  O   UNL A   1      53.173  37.687  23.672  1.00  0.00    -0.744 OA
ENDBRANCH  65  66
ENDBRANCH  46  60
BRANCH  47  70
ATOM     70  C   UNL A   1      42.974  42.778  24.117  1.00  0.00    -0.014 A 
ATOM     71  C   UNL A   1      43.753  43.699  23.368  1.00  0.00     0.010 A 
ATOM     72  C   UNL A   1      41.898  42.179  23.435  1.00  0.00     0.010 A 
ATOM     73  C   UNL A   1      43.486  43.974  22.001  1.00  0.00     0.020 A 
ATOM     74  C   UNL A   1      41.630  42.440  22.077  1.00  0.00     0.020 A 
ATOM     75  C   UNL A   1      42.430  43.325  21.357  1.00  0.00     0.054 A 
BRANCH  75  76
ATOM     76  S   UNL A   1      42.160  43.547  19.561  1.00  0.00     0.124 S 
ATOM     77  O   UNL A   1      40.707  43.649  19.469  1.00  0.00    -0.237 OA
ATOM     78  O   UNL A   1      42.899  44.772  19.271  1.00  0.00    -0.237 OA
ATOM     79  O   UNL A   1      42.731  42.333  18.978  1.00  0.00    -0.744 OA
ENDBRANCH  75  76
ENDBRANCH  47  70
BRANCH  59  80
ATOM     80  C   UNL A   1      45.340  42.529  29.941  1.00  0.00    -0.014 A 
ATOM     81  C   UNL A   1      44.080  42.035  30.344  1.00  0.00     0.010 A 
ATOM     82  C   UNL A   1      45.890  43.609  30.650  1.00  0.00     0.010 A 
ATOM     83  C   UNL A   1      43.393  42.620  31.423  1.00  0.00     0.020 A 
ATOM     84  C   UNL A   1      45.222  44.180  31.734  1.00  0.00     0.020 A 
ATOM     85  C   UNL A   1      43.973  43.689  32.113  1.00  0.00     0.054 A 
BRANCH  85  86
ATOM     86  S   UNL A   1      43.118  44.417  33.540  1.00  0.00     0.124 S 
ATOM     87  O   UNL A   1      44.116  44.301  34.599  1.00  0.00    -0.237 OA
ATOM     88  O   UNL A   1      42.833  45.776  33.089  1.00  0.00    -0.237 OA
ATOM     89  O   UNL A   1      41.938  43.569  33.708  1.00  0.00    -0.744 OA
ENDBRANCH  85  86
ENDBRANCH  59  80
ENDBRANCH  33  34
ENDBRANCH  26  28
ENDBRANCH  25  26
ENDBRANCH  24  25
ENDBRANCH  23  24
ENDBRANCH   1  23
TORSDOF 21
ENDMDL
