MODEL 1
REMARK VINA RESULT:     -11.6      0.000      0.000
REMARK SMILES CC1(C)Cc2c(-c3ccccc3)c(-c3ccc(Cl)cc3)c(CC(=O)OCCOC(=O)c3ccc(-c4c5nc(c(-c6ccc(S(=O)(=O)[O-])cc6)c6ccc([nH]6)c(-c6ccc(S(=O)(=O)[O-])cc6)c6nc(c(-c7ccc(S(=O)(=O)[O-])cc7)c7ccc4[nH]7)C=C6)C=C5)cc3)n2C1
REMARK SMILES IDX 27 1 26 2 25 3 23 4 24 5 22 6 21 7 1 8 2 9 3 10 4 11 92 12
REMARK SMILES IDX 5 13 91 14 6 15 13 16 7 17 8 18 12 19 9 20 11 21 10 22 14 23
REMARK SMILES IDX 15 24 20 25 16 26 19 27 17 28 18 29 28 30 29 31 30 32 31 33
REMARK SMILES IDX 32 34 90 35 33 36 89 37 34 38 35 39 36 40 83 41 37 42 88 43
REMARK SMILES IDX 82 44 84 45 38 46 87 47 81 48 80 49 39 51 69 52 50 53 68 54
REMARK SMILES IDX 51 55 54 56 67 57 85 58 52 59 53 60 66 62 86 63 55 64 40 65
REMARK SMILES IDX 41 66 49 67 42 68 48 69 43 70 44 71 45 72 46 73 47 74 70 75
REMARK SMILES IDX 71 76 79 77 72 78 78 79 73 80 74 81 75 82 76 83 77 84 56 85
REMARK SMILES IDX 57 86 65 87 58 88 64 89 59 90 60 91 61 92 62 93 63 94
REMARK H PARENT 84 50 54 61
REMARK Flexibility Score: inf
ROOT
ATOM      1  C   UNL A   1      39.113  19.835  24.931  1.00  0.00     0.275 C 
ENDROOT
BRANCH   1   2
ATOM      2  C   UNL A   1      37.833  20.480  25.470  1.00  0.00     0.274 C 
BRANCH   2   3
ATOM      3  O   UNL A   1      38.128  21.834  25.852  1.00  0.00    -0.462 OA
BRANCH   3   4
ATOM      4  C   UNL A   1      37.177  22.772  25.627  1.00  0.00     0.311 C 
ATOM      5  O   UNL A   1      37.053  23.796  26.295  1.00  0.00    -0.252 OA
BRANCH   4   6
ATOM      6  C   UNL A   1      36.355  22.486  24.388  1.00  0.00     0.177 C 
BRANCH   6   7
ATOM      7  C   UNL A   1      34.857  22.602  24.493  1.00  0.00     0.037 A 
ATOM      8  C   UNL A   1      32.547  18.181  24.701  1.00  0.00     0.013 C 
ATOM      9  C   UNL A   1      32.750  19.605  24.167  1.00  0.00    -0.012 C 
ATOM     10  C   UNL A   1      32.380  19.659  22.669  1.00  0.00     0.013 C 
ATOM     11  C   UNL A   1      31.890  20.654  24.955  1.00  0.00     0.063 C 
ATOM     12  C   UNL A   1      34.220  20.091  24.368  1.00  0.00     0.129 C 
ATOM     13  C   UNL A   1      32.762  21.846  24.921  1.00  0.00     0.027 A 
ATOM     14  N   UNL A   1      34.053  21.512  24.633  1.00  0.00    -0.346 N 
ATOM     15  C   UNL A   1      32.667  23.208  24.965  1.00  0.00     0.011 A 
ATOM     16  C   UNL A   1      33.981  23.693  24.589  1.00  0.00     0.011 A 
BRANCH  15  17
ATOM     17  C   UNL A   1      31.430  23.959  25.137  1.00  0.00    -0.016 A 
ATOM     18  C   UNL A   1      30.964  24.254  26.423  1.00  0.00     0.009 A 
ATOM     19  C   UNL A   1      30.798  24.550  24.033  1.00  0.00     0.009 A 
ATOM     20  C   UNL A   1      29.925  25.174  26.597  1.00  0.00     0.001 A 
ATOM     21  C   UNL A   1      29.786  25.493  24.211  1.00  0.00     0.001 A 
ATOM     22  C   UNL A   1      29.354  25.811  25.494  1.00  0.00     0.000 A 
ENDBRANCH  15  17
BRANCH  16  23
ATOM     23  C   UNL A   1      34.191  25.011  24.005  1.00  0.00    -0.016 A 
ATOM     24  C   UNL A   1      34.238  26.167  24.795  1.00  0.00     0.010 A 
ATOM     25  C   UNL A   1      33.831  25.124  22.658  1.00  0.00     0.010 A 
ATOM     26  C   UNL A   1      33.813  27.393  24.253  1.00  0.00     0.021 A 
ATOM     27  C   UNL A   1      33.464  26.339  22.107  1.00  0.00     0.021 A 
ATOM     28  C   UNL A   1      33.378  27.449  22.928  1.00  0.00     0.041 A 
ATOM     29  Cl  UNL A   1      32.496  28.786  22.306  1.00  0.00    -0.084 Cl
ENDBRANCH  16  23
ENDBRANCH   6   7
ENDBRANCH   4   6
ENDBRANCH   3   4
ENDBRANCH   2   3
ENDBRANCH   1   2
BRANCH   1  30
ATOM     30  O   UNL A   1      39.875  19.091  25.900  1.00  0.00    -0.458 OA
BRANCH  30  31
ATOM     31  C   UNL A   1      41.209  19.362  25.955  1.00  0.00     0.338 C 
ATOM     32  O   UNL A   1      42.072  18.659  25.497  1.00  0.00    -0.246 OA
BRANCH  31  33
ATOM     33  C   UNL A   1      41.462  20.678  26.603  1.00  0.00     0.060 A 
ATOM     34  C   UNL A   1      42.250  21.606  25.913  1.00  0.00     0.016 A 
ATOM     35  C   UNL A   1      40.962  20.990  27.871  1.00  0.00     0.016 A 
ATOM     36  C   UNL A   1      42.591  22.812  26.520  1.00  0.00     0.010 A 
ATOM     37  C   UNL A   1      41.296  22.199  28.474  1.00  0.00     0.010 A 
ATOM     38  C   UNL A   1      42.140  23.100  27.816  1.00  0.00    -0.014 A 
BRANCH  38  39
ATOM     39  C   UNL A   1      42.368  24.445  28.365  1.00  0.00     0.031 A 
ATOM     40  C   UNL A   1      41.310  25.417  28.016  1.00  0.00     0.074 A 
ATOM     41  C   UNL A   1      43.338  24.765  29.248  1.00  0.00     0.049 A 
ATOM     42  N   UNL A   1      41.456  26.541  27.397  1.00  0.00    -0.248 NA
ATOM     43  C   UNL A   1      39.909  25.024  28.245  1.00  0.00     0.031 C 
ATOM     44  C   UNL A   1      44.356  23.854  29.741  1.00  0.00     0.029 A 
ATOM     45  N   UNL A   1      43.569  25.897  29.984  1.00  0.00    -0.354 N 
ATOM     46  C   UNL A   1      40.194  27.115  27.390  1.00  0.00     0.074 A 
ATOM     47  C   UNL A   1      39.264  26.063  27.715  1.00  0.00     0.031 C 
ATOM     48  C   UNL A   1      44.948  24.354  30.839  1.00  0.00     0.029 A 
ATOM     49  C   UNL A   1      44.406  25.675  31.083  1.00  0.00     0.049 A 
ATOM     50  H   UNL A   1      43.185  26.776  29.763  1.00  0.00     0.167 HD
ATOM     51  C   UNL A   1      40.042  28.464  27.462  1.00  0.00     0.031 A 
ATOM     52  C   UNL A   1      44.633  26.473  32.156  1.00  0.00     0.031 A 
ATOM     53  C   UNL A   1      41.236  29.168  27.064  1.00  0.00     0.049 A 
ATOM     54  C   UNL A   1      44.336  27.856  31.732  1.00  0.00     0.074 A 
ATOM     55  C   UNL A   1      42.016  29.193  25.926  1.00  0.00     0.029 A 
ATOM     56  N   UNL A   1      41.989  29.734  28.064  1.00  0.00    -0.354 N 
ATOM     57  N   UNL A   1      45.059  28.496  30.855  1.00  0.00    -0.248 NA
ATOM     58  C   UNL A   1      43.003  28.393  31.950  1.00  0.00     0.031 C 
ATOM     59  C   UNL A   1      43.347  29.416  26.379  1.00  0.00     0.029 A 
ATOM     60  C   UNL A   1      43.317  29.566  27.766  1.00  0.00     0.049 A 
ATOM     61  H   UNL A   1      41.634  30.186  28.864  1.00  0.00     0.167 HD
ATOM     62  C   UNL A   1      44.136  29.190  30.089  1.00  0.00     0.074 A 
ATOM     63  C   UNL A   1      42.919  29.210  30.895  1.00  0.00     0.031 C 
ATOM     64  C   UNL A   1      44.362  29.420  28.763  1.00  0.00     0.031 A 
BRANCH  51  65
ATOM     65  C   UNL A   1      38.984  29.088  28.341  1.00  0.00    -0.014 A 
ATOM     66  C   UNL A   1      37.989  29.892  27.756  1.00  0.00     0.010 A 
ATOM     67  C   UNL A   1      39.108  29.147  29.748  1.00  0.00     0.010 A 
ATOM     68  C   UNL A   1      37.207  30.755  28.536  1.00  0.00     0.020 A 
ATOM     69  C   UNL A   1      38.303  29.962  30.538  1.00  0.00     0.020 A 
ATOM     70  C   UNL A   1      37.382  30.792  29.922  1.00  0.00     0.054 A 
BRANCH  70  71
ATOM     71  S   UNL A   1      36.459  31.989  30.912  1.00  0.00     0.124 S 
ATOM     72  O   UNL A   1      35.849  32.820  29.878  1.00  0.00    -0.237 OA
ATOM     73  O   UNL A   1      35.545  31.132  31.662  1.00  0.00    -0.237 OA
ATOM     74  O   UNL A   1      37.493  32.641  31.712  1.00  0.00    -0.744 OA
ENDBRANCH  70  71
ENDBRANCH  51  65
BRANCH  52  75
ATOM     75  C   UNL A   1      44.876  26.064  33.567  1.00  0.00    -0.014 A 
ATOM     76  C   UNL A   1      45.857  26.692  34.357  1.00  0.00     0.010 A 
ATOM     77  C   UNL A   1      43.956  25.223  34.229  1.00  0.00     0.010 A 
ATOM     78  C   UNL A   1      45.870  26.542  35.757  1.00  0.00     0.020 A 
ATOM     79  C   UNL A   1      43.967  25.059  35.620  1.00  0.00     0.020 A 
ATOM     80  C   UNL A   1      44.906  25.746  36.383  1.00  0.00     0.054 A 
BRANCH  80  81
ATOM     81  S   UNL A   1      44.794  25.727  38.198  1.00  0.00     0.124 S 
ATOM     82  O   UNL A   1      46.015  26.422  38.596  1.00  0.00    -0.237 OA
ATOM     83  O   UNL A   1      43.547  26.446  38.447  1.00  0.00    -0.237 OA
ATOM     84  O   UNL A   1      44.757  24.302  38.526  1.00  0.00    -0.744 OA
ENDBRANCH  80  81
ENDBRANCH  52  75
BRANCH  64  85
ATOM     85  C   UNL A   1      45.775  29.280  28.237  1.00  0.00    -0.014 A 
ATOM     86  C   UNL A   1      46.723  30.322  28.236  1.00  0.00     0.010 A 
ATOM     87  C   UNL A   1      46.200  27.991  27.868  1.00  0.00     0.010 A 
ATOM     88  C   UNL A   1      48.054  30.081  27.859  1.00  0.00     0.020 A 
ATOM     89  C   UNL A   1      47.526  27.740  27.510  1.00  0.00     0.020 A 
ATOM     90  C   UNL A   1      48.449  28.787  27.501  1.00  0.00     0.054 A 
BRANCH  90  91
ATOM     91  S   UNL A   1      50.187  28.461  27.082  1.00  0.00     0.124 S 
ATOM     92  O   UNL A   1      50.902  29.048  28.212  1.00  0.00    -0.237 OA
ATOM     93  O   UNL A   1      50.235  27.003  26.995  1.00  0.00    -0.237 OA
ATOM     94  O   UNL A   1      50.373  29.155  25.807  1.00  0.00    -0.744 OA
ENDBRANCH  90  91
ENDBRANCH  64  85
ENDBRANCH  38  39
ENDBRANCH  31  33
ENDBRANCH  30  31
ENDBRANCH   1  30
TORSDOF 17
ENDMDL
MODEL 2
REMARK VINA RESULT:     -11.1     15.847     21.737
REMARK SMILES CC1(C)Cc2c(-c3ccccc3)c(-c3ccc(Cl)cc3)c(CC(=O)OCCOC(=O)c3ccc(-c4c5nc(c(-c6ccc(S(=O)(=O)[O-])cc6)c6ccc([nH]6)c(-c6ccc(S(=O)(=O)[O-])cc6)c6nc(c(-c7ccc(S(=O)(=O)[O-])cc7)c7ccc4[nH]7)C=C6)C=C5)cc3)n2C1
REMARK SMILES IDX 27 1 26 2 25 3 23 4 24 5 22 6 21 7 1 8 2 9 3 10 4 11 92 12
REMARK SMILES IDX 5 13 91 14 6 15 13 16 7 17 8 18 12 19 9 20 11 21 10 22 14 23
REMARK SMILES IDX 15 24 20 25 16 26 19 27 17 28 18 29 28 30 29 31 30 32 31 33
REMARK SMILES IDX 32 34 90 35 33 36 89 37 34 38 35 39 36 40 83 41 37 42 88 43
REMARK SMILES IDX 82 44 84 45 38 46 87 47 81 48 80 49 39 51 69 52 50 53 68 54
REMARK SMILES IDX 51 55 54 56 67 57 85 58 52 59 53 60 66 62 86 63 55 64 40 65
REMARK SMILES IDX 41 66 49 67 42 68 48 69 43 70 44 71 45 72 46 73 47 74 70 75
REMARK SMILES IDX 71 76 79 77 72 78 78 79 73 80 74 81 75 82 76 83 77 84 56 85
REMARK SMILES IDX 57 86 65 87 58 88 64 89 59 90 60 91 61 92 62 93 63 94
REMARK H PARENT 84 50 54 61
REMARK Flexibility Score: inf
ROOT
ATOM      1  C   UNL A   1      42.236  42.996  18.985  1.00  0.00     0.275 C 
ENDROOT
BRANCH   1   2
ATOM      2  C   UNL A   1      41.398  44.010  18.203  1.00  0.00     0.274 C 
BRANCH   2   3
ATOM      3  O   UNL A   1      42.075  45.278  18.222  1.00  0.00    -0.462 OA
BRANCH   3   4
ATOM      4  C   UNL A   1      42.807  45.616  17.135  1.00  0.00     0.311 C 
ATOM      5  O   UNL A   1      42.340  46.161  16.137  1.00  0.00    -0.252 OA
BRANCH   4   6
ATOM      6  C   UNL A   1      44.288  45.364  17.325  1.00  0.00     0.177 C 
BRANCH   6   7
ATOM      7  C   UNL A   1      44.980  46.059  18.469  1.00  0.00     0.037 A 
ATOM      8  C   UNL A   1      43.329  50.706  19.243  1.00  0.00     0.013 C 
ATOM      9  C   UNL A   1      44.422  49.646  19.053  1.00  0.00    -0.012 C 
ATOM     10  C   UNL A   1      45.623  50.264  18.303  1.00  0.00     0.013 C 
ATOM     11  C   UNL A   1      44.910  49.057  20.423  1.00  0.00     0.063 C 
ATOM     12  C   UNL A   1      43.891  48.404  18.271  1.00  0.00     0.129 C 
ATOM     13  C   UNL A   1      45.224  47.661  20.055  1.00  0.00     0.027 A 
ATOM     14  N   UNL A   1      44.623  47.305  18.884  1.00  0.00    -0.346 N 
ATOM     15  C   UNL A   1      46.036  46.636  20.453  1.00  0.00     0.011 A 
ATOM     16  C   UNL A   1      45.961  45.655  19.387  1.00  0.00     0.011 A 
BRANCH  15  17
ATOM     17  C   UNL A   1      46.934  46.673  21.600  1.00  0.00    -0.016 A 
ATOM     18  C   UNL A   1      46.769  45.759  22.647  1.00  0.00     0.009 A 
ATOM     19  C   UNL A   1      48.074  47.488  21.584  1.00  0.00     0.009 A 
ATOM     20  C   UNL A   1      47.762  45.624  23.623  1.00  0.00     0.001 A 
ATOM     21  C   UNL A   1      49.080  47.328  22.538  1.00  0.00     0.001 A 
ATOM     22  C   UNL A   1      48.927  46.390  23.553  1.00  0.00     0.000 A 
ENDBRANCH  15  17
BRANCH  16  23
ATOM     23  C   UNL A   1      47.022  44.690  19.135  1.00  0.00    -0.016 A 
ATOM     24  C   UNL A   1      47.114  43.492  19.856  1.00  0.00     0.010 A 
ATOM     25  C   UNL A   1      48.178  45.224  18.554  1.00  0.00     0.010 A 
ATOM     26  C   UNL A   1      48.376  42.913  20.077  1.00  0.00     0.021 A 
ATOM     27  C   UNL A   1      49.415  44.626  18.725  1.00  0.00     0.021 A 
ATOM     28  C   UNL A   1      49.518  43.522  19.553  1.00  0.00     0.041 A 
ATOM     29  Cl  UNL A   1      51.101  43.115  20.082  1.00  0.00    -0.084 Cl
ENDBRANCH  16  23
ENDBRANCH   6   7
ENDBRANCH   4   6
ENDBRANCH   3   4
ENDBRANCH   2   3
ENDBRANCH   1   2
BRANCH   1  30
ATOM     30  O   UNL A   1      42.725  43.461  20.257  1.00  0.00    -0.458 OA
BRANCH  30  31
ATOM     31  C   UNL A   1      42.025  43.062  21.355  1.00  0.00     0.338 C 
ATOM     32  O   UNL A   1      40.834  42.888  21.385  1.00  0.00    -0.246 OA
BRANCH  31  33
ATOM     33  C   UNL A   1      42.933  42.808  22.506  1.00  0.00     0.060 A 
ATOM     34  C   UNL A   1      44.301  43.038  22.323  1.00  0.00     0.016 A 
ATOM     35  C   UNL A   1      42.462  42.330  23.734  1.00  0.00     0.016 A 
ATOM     36  C   UNL A   1      45.199  42.725  23.341  1.00  0.00     0.010 A 
ATOM     37  C   UNL A   1      43.359  42.025  24.753  1.00  0.00     0.010 A 
ATOM     38  C   UNL A   1      44.733  42.188  24.549  1.00  0.00    -0.014 A 
BRANCH  38  39
ATOM     39  C   UNL A   1      45.677  42.028  25.666  1.00  0.00     0.031 A 
ATOM     40  C   UNL A   1      46.313  40.694  25.721  1.00  0.00     0.074 A 
ATOM     41  C   UNL A   1      46.087  43.024  26.480  1.00  0.00     0.049 A 
ATOM     42  N   UNL A   1      46.286  39.857  26.703  1.00  0.00    -0.248 NA
ATOM     43  C   UNL A   1      46.920  40.167  24.486  1.00  0.00     0.031 C 
ATOM     44  C   UNL A   1      45.607  44.394  26.435  1.00  0.00     0.029 A 
ATOM     45  N   UNL A   1      47.076  43.085  27.426  1.00  0.00    -0.354 N 
ATOM     46  C   UNL A   1      47.092  38.803  26.300  1.00  0.00     0.074 A 
ATOM     47  C   UNL A   1      47.266  38.942  24.876  1.00  0.00     0.031 C 
ATOM     48  C   UNL A   1      46.430  45.207  27.119  1.00  0.00     0.029 A 
ATOM     49  C   UNL A   1      47.461  44.395  27.732  1.00  0.00     0.049 A 
ATOM     50  H   UNL A   1      47.474  42.290  27.847  1.00  0.00     0.167 HD
ATOM     51  C   UNL A   1      47.833  38.109  27.204  1.00  0.00     0.031 A 
ATOM     52  C   UNL A   1      48.560  44.825  28.401  1.00  0.00     0.031 A 
ATOM     53  C   UNL A   1      47.329  38.253  28.547  1.00  0.00     0.049 A 
ATOM     54  C   UNL A   1      48.994  43.714  29.270  1.00  0.00     0.074 A 
ATOM     55  C   UNL A   1      46.119  38.004  29.163  1.00  0.00     0.029 A 
ATOM     56  N   UNL A   1      48.036  39.072  29.395  1.00  0.00    -0.354 N 
ATOM     57  N   UNL A   1      48.295  43.300  30.289  1.00  0.00    -0.248 NA
ATOM     58  C   UNL A   1      49.990  42.776  28.777  1.00  0.00     0.031 C 
ATOM     59  C   UNL A   1      45.994  38.998  30.175  1.00  0.00     0.029 A 
ATOM     60  C   UNL A   1      47.150  39.779  30.167  1.00  0.00     0.049 A 
ATOM     61  H   UNL A   1      49.017  39.140  29.440  1.00  0.00     0.167 HD
ATOM     62  C   UNL A   1      48.421  41.921  30.256  1.00  0.00     0.074 A 
ATOM     63  C   UNL A   1      49.584  41.672  29.410  1.00  0.00     0.031 C 
ATOM     64  C   UNL A   1      47.401  41.115  30.674  1.00  0.00     0.031 A 
BRANCH  51  65
ATOM     65  C   UNL A   1      49.261  37.713  26.909  1.00  0.00    -0.014 A 
ATOM     66  C   UNL A   1      50.305  38.583  27.271  1.00  0.00     0.010 A 
ATOM     67  C   UNL A   1      49.587  36.654  26.031  1.00  0.00     0.010 A 
ATOM     68  C   UNL A   1      51.590  38.435  26.728  1.00  0.00     0.020 A 
ATOM     69  C   UNL A   1      50.870  36.466  25.526  1.00  0.00     0.020 A 
ATOM     70  C   UNL A   1      51.856  37.384  25.848  1.00  0.00     0.054 A 
BRANCH  70  71
ATOM     71  S   UNL A   1      53.476  37.263  25.057  1.00  0.00     0.124 S 
ATOM     72  O   UNL A   1      54.153  36.297  25.916  1.00  0.00    -0.237 OA
ATOM     73  O   UNL A   1      53.134  36.796  23.718  1.00  0.00    -0.237 OA
ATOM     74  O   UNL A   1      53.991  38.630  25.124  1.00  0.00    -0.744 OA
ENDBRANCH  70  71
ENDBRANCH  51  65
BRANCH  52  75
ATOM     75  C   UNL A   1      49.359  46.056  28.152  1.00  0.00    -0.014 A 
ATOM     76  C   UNL A   1      50.595  46.008  27.481  1.00  0.00     0.010 A 
ATOM     77  C   UNL A   1      48.779  47.329  28.345  1.00  0.00     0.010 A 
ATOM     78  C   UNL A   1      51.187  47.176  26.962  1.00  0.00     0.020 A 
ATOM     79  C   UNL A   1      49.365  48.497  27.842  1.00  0.00     0.020 A 
ATOM     80  C   UNL A   1      50.554  48.411  27.123  1.00  0.00     0.054 A 
BRANCH  80  81
ATOM     81  S   UNL A   1      51.209  49.878  26.270  1.00  0.00     0.124 S 
ATOM     82  O   UNL A   1      50.529  50.971  26.959  1.00  0.00    -0.237 OA
ATOM     83  O   UNL A   1      52.645  49.773  26.513  1.00  0.00    -0.237 OA
ATOM     84  O   UNL A   1      50.805  49.677  24.879  1.00  0.00    -0.744 OA
ENDBRANCH  80  81
ENDBRANCH  52  75
BRANCH  64  85
ATOM     85  C   UNL A   1      46.315  41.719  31.539  1.00  0.00    -0.014 A 
ATOM     86  C   UNL A   1      45.334  42.613  31.064  1.00  0.00     0.010 A 
ATOM     87  C   UNL A   1      46.199  41.240  32.856  1.00  0.00     0.010 A 
ATOM     88  C   UNL A   1      44.277  43.025  31.893  1.00  0.00     0.020 A 
ATOM     89  C   UNL A   1      45.141  41.631  33.679  1.00  0.00     0.020 A 
ATOM     90  C   UNL A   1      44.186  42.527  33.196  1.00  0.00     0.054 A 
BRANCH  90  91
ATOM     91  S   UNL A   1      42.780  43.006  34.244  1.00  0.00     0.124 S 
ATOM     92  O   UNL A   1      42.337  44.255  33.632  1.00  0.00    -0.237 OA
ATOM     93  O   UNL A   1      41.864  41.875  34.101  1.00  0.00    -0.237 OA
ATOM     94  O   UNL A   1      43.370  43.146  35.575  1.00  0.00    -0.744 OA
ENDBRANCH  90  91
ENDBRANCH  64  85
ENDBRANCH  38  39
ENDBRANCH  31  33
ENDBRANCH  30  31
ENDBRANCH   1  30
TORSDOF 17
ENDMDL
MODEL 3
REMARK VINA RESULT:     -10.9      4.846     10.523
REMARK SMILES CC1(C)Cc2c(-c3ccccc3)c(-c3ccc(Cl)cc3)c(CC(=O)OCCOC(=O)c3ccc(-c4c5nc(c(-c6ccc(S(=O)(=O)[O-])cc6)c6ccc([nH]6)c(-c6ccc(S(=O)(=O)[O-])cc6)c6nc(c(-c7ccc(S(=O)(=O)[O-])cc7)c7ccc4[nH]7)C=C6)C=C5)cc3)n2C1
REMARK SMILES IDX 27 1 26 2 25 3 23 4 24 5 22 6 21 7 1 8 2 9 3 10 4 11 92 12
REMARK SMILES IDX 5 13 91 14 6 15 13 16 7 17 8 18 12 19 9 20 11 21 10 22 14 23
REMARK SMILES IDX 15 24 20 25 16 26 19 27 17 28 18 29 28 30 29 31 30 32 31 33
REMARK SMILES IDX 32 34 90 35 33 36 89 37 34 38 35 39 36 40 83 41 37 42 88 43
REMARK SMILES IDX 82 44 84 45 38 46 87 47 81 48 80 49 39 51 69 52 50 53 68 54
REMARK SMILES IDX 51 55 54 56 67 57 85 58 52 59 53 60 66 62 86 63 55 64 40 65
REMARK SMILES IDX 41 66 49 67 42 68 48 69 43 70 44 71 45 72 46 73 47 74 70 75
REMARK SMILES IDX 71 76 79 77 72 78 78 79 73 80 74 81 75 82 76 83 77 84 56 85
REMARK SMILES IDX 57 86 65 87 58 88 64 89 59 90 60 91 61 92 62 93 63 94
REMARK H PARENT 84 50 54 61
REMARK Flexibility Score: inf
ROOT
ATOM      1  C   UNL A   1      36.970  33.333  33.762  1.00  0.00     0.275 C 
ENDROOT
BRANCH   1   2
ATOM      2  C   UNL A   1      35.598  33.995  33.913  1.00  0.00     0.274 C 
BRANCH   2   3
ATOM      3  O   UNL A   1      35.182  34.490  32.630  1.00  0.00    -0.462 OA
BRANCH   3   4
ATOM      4  C   UNL A   1      34.812  33.583  31.696  1.00  0.00     0.311 C 
ATOM      5  O   UNL A   1      33.947  32.728  31.876  1.00  0.00    -0.252 OA
BRANCH   4   6
ATOM      6  C   UNL A   1      35.488  33.809  30.360  1.00  0.00     0.177 C 
BRANCH   6   7
ATOM      7  C   UNL A   1      36.595  32.869  29.962  1.00  0.00     0.037 A 
ATOM      8  C   UNL A   1      41.097  34.342  31.536  1.00  0.00     0.013 C 
ATOM      9  C   UNL A   1      40.106  33.830  30.483  1.00  0.00    -0.012 C 
ATOM     10  C   UNL A   1      40.468  34.412  29.099  1.00  0.00     0.013 C 
ATOM     11  C   UNL A   1      40.095  32.263  30.403  1.00  0.00     0.063 C 
ATOM     12  C   UNL A   1      38.635  34.203  30.847  1.00  0.00     0.129 C 
ATOM     13  C   UNL A   1      38.683  31.989  30.069  1.00  0.00     0.027 A 
ATOM     14  N   UNL A   1      37.884  33.057  30.356  1.00  0.00    -0.346 N 
ATOM     15  C   UNL A   1      37.926  31.040  29.441  1.00  0.00     0.011 A 
ATOM     16  C   UNL A   1      36.617  31.644  29.279  1.00  0.00     0.011 A 
BRANCH  15  17
ATOM     17  C   UNL A   1      38.435  29.796  28.877  1.00  0.00    -0.016 A 
ATOM     18  C   UNL A   1      39.203  29.821  27.708  1.00  0.00     0.009 A 
ATOM     19  C   UNL A   1      38.324  28.595  29.592  1.00  0.00     0.009 A 
ATOM     20  C   UNL A   1      39.896  28.676  27.300  1.00  0.00     0.001 A 
ATOM     21  C   UNL A   1      39.044  27.464  29.204  1.00  0.00     0.001 A 
ATOM     22  C   UNL A   1      39.837  27.508  28.061  1.00  0.00     0.000 A 
ENDBRANCH  15  17
BRANCH  16  23
ATOM     23  C   UNL A   1      35.688  31.230  28.236  1.00  0.00    -0.016 A 
ATOM     24  C   UNL A   1      34.633  32.053  27.820  1.00  0.00     0.010 A 
ATOM     25  C   UNL A   1      35.581  29.846  28.057  1.00  0.00     0.010 A 
ATOM     26  C   UNL A   1      33.447  31.468  27.342  1.00  0.00     0.021 A 
ATOM     27  C   UNL A   1      34.436  29.271  27.535  1.00  0.00     0.021 A 
ATOM     28  C   UNL A   1      33.346  30.078  27.258  1.00  0.00     0.041 A 
ATOM     29  Cl  UNL A   1      31.840  29.277  27.057  1.00  0.00    -0.084 Cl
ENDBRANCH  16  23
ENDBRANCH   6   7
ENDBRANCH   4   6
ENDBRANCH   3   4
ENDBRANCH   2   3
ENDBRANCH   1   2
BRANCH   1  30
ATOM     30  O   UNL A   1      37.053  31.983  34.255  1.00  0.00    -0.458 OA
BRANCH  30  31
ATOM     31  C   UNL A   1      37.028  30.995  33.316  1.00  0.00     0.338 C 
ATOM     32  O   UNL A   1      36.112  30.784  32.565  1.00  0.00    -0.246 OA
BRANCH  31  33
ATOM     33  C   UNL A   1      38.313  30.244  33.297  1.00  0.00     0.060 A 
ATOM     34  C   UNL A   1      39.478  30.929  33.658  1.00  0.00     0.016 A 
ATOM     35  C   UNL A   1      38.383  28.902  32.908  1.00  0.00     0.016 A 
ATOM     36  C   UNL A   1      40.714  30.294  33.564  1.00  0.00     0.010 A 
ATOM     37  C   UNL A   1      39.617  28.265  32.823  1.00  0.00     0.010 A 
ATOM     38  C   UNL A   1      40.790  28.968  33.116  1.00  0.00    -0.014 A 
BRANCH  38  39
ATOM     39  C   UNL A   1      42.081  28.267  33.190  1.00  0.00     0.031 A 
ATOM     40  C   UNL A   1      42.499  27.933  34.568  1.00  0.00     0.074 A 
ATOM     41  C   UNL A   1      42.768  27.798  32.126  1.00  0.00     0.049 A 
ATOM     42  N   UNL A   1      43.590  28.286  35.160  1.00  0.00    -0.248 NA
ATOM     43  C   UNL A   1      41.522  27.257  35.441  1.00  0.00     0.031 C 
ATOM     44  C   UNL A   1      42.384  27.976  30.737  1.00  0.00     0.029 A 
ATOM     45  N   UNL A   1      43.863  26.981  32.031  1.00  0.00    -0.354 N 
ATOM     46  C   UNL A   1      43.550  27.657  36.395  1.00  0.00     0.074 A 
ATOM     47  C   UNL A   1      42.186  27.233  36.595  1.00  0.00     0.031 C 
ATOM     48  C   UNL A   1      43.059  27.124  29.946  1.00  0.00     0.029 A 
ATOM     49  C   UNL A   1      43.999  26.392  30.769  1.00  0.00     0.049 A 
ATOM     50  H   UNL A   1      44.490  26.825  32.773  1.00  0.00     0.167 HD
ATOM     51  C   UNL A   1      44.692  27.226  36.995  1.00  0.00     0.031 A 
ATOM     52  C   UNL A   1      44.782  25.349  30.397  1.00  0.00     0.031 A 
ATOM     53  C   UNL A   1      45.861  27.898  36.485  1.00  0.00     0.049 A 
ATOM     54  C   UNL A   1      45.905  25.294  31.353  1.00  0.00     0.074 A 
ATOM     55  C   UNL A   1      46.261  29.216  36.390  1.00  0.00     0.029 A 
ATOM     56  N   UNL A   1      46.670  27.184  35.634  1.00  0.00    -0.354 N 
ATOM     57  N   UNL A   1      46.825  26.216  31.417  1.00  0.00    -0.248 NA
ATOM     58  C   UNL A   1      45.794  24.444  32.528  1.00  0.00     0.031 C 
ATOM     59  C   UNL A   1      47.033  29.296  35.197  1.00  0.00     0.029 A 
ATOM     60  C   UNL A   1      47.113  28.018  34.640  1.00  0.00     0.049 A 
ATOM     61  H   UNL A   1      46.895  26.229  35.723  1.00  0.00     0.167 HD
ATOM     62  C   UNL A   1      47.065  26.369  32.773  1.00  0.00     0.074 A 
ATOM     63  C   UNL A   1      46.523  25.162  33.388  1.00  0.00     0.031 C 
ATOM     64  C   UNL A   1      47.411  27.585  33.288  1.00  0.00     0.031 A 
BRANCH  51  65
ATOM     65  C   UNL A   1      44.760  25.880  37.678  1.00  0.00    -0.014 A 
ATOM     66  C   UNL A   1      45.052  25.820  39.052  1.00  0.00     0.010 A 
ATOM     67  C   UNL A   1      44.833  24.668  36.954  1.00  0.00     0.010 A 
ATOM     68  C   UNL A   1      45.460  24.619  39.651  1.00  0.00     0.020 A 
ATOM     69  C   UNL A   1      45.186  23.460  37.549  1.00  0.00     0.020 A 
ATOM     70  C   UNL A   1      45.536  23.452  38.888  1.00  0.00     0.054 A 
BRANCH  70  71
ATOM     71  S   UNL A   1      46.174  21.933  39.633  1.00  0.00     0.124 S 
ATOM     72  O   UNL A   1      47.549  22.312  39.945  1.00  0.00    -0.237 OA
ATOM     73  O   UNL A   1      45.287  21.752  40.777  1.00  0.00    -0.237 OA
ATOM     74  O   UNL A   1      46.022  20.943  38.569  1.00  0.00    -0.744 OA
ENDBRANCH  70  71
ENDBRANCH  51  65
BRANCH  52  75
ATOM     75  C   UNL A   1      44.479  24.286  29.399  1.00  0.00    -0.014 A 
ATOM     76  C   UNL A   1      43.395  23.405  29.568  1.00  0.00     0.010 A 
ATOM     77  C   UNL A   1      45.105  24.304  28.133  1.00  0.00     0.010 A 
ATOM     78  C   UNL A   1      42.912  22.631  28.495  1.00  0.00     0.020 A 
ATOM     79  C   UNL A   1      44.639  23.529  27.063  1.00  0.00     0.020 A 
ATOM     80  C   UNL A   1      43.522  22.718  27.241  1.00  0.00     0.054 A 
BRANCH  80  81
ATOM     81  S   UNL A   1      42.768  21.884  25.812  1.00  0.00     0.124 S 
ATOM     82  O   UNL A   1      41.343  21.952  26.125  1.00  0.00    -0.237 OA
ATOM     83  O   UNL A   1      43.209  22.711  24.691  1.00  0.00    -0.237 OA
ATOM     84  O   UNL A   1      43.347  20.542  25.850  1.00  0.00    -0.744 OA
ENDBRANCH  80  81
ENDBRANCH  52  75
BRANCH  64  85
ATOM     85  C   UNL A   1      47.923  28.650  32.340  1.00  0.00    -0.014 A 
ATOM     86  C   UNL A   1      49.286  28.862  32.056  1.00  0.00     0.010 A 
ATOM     87  C   UNL A   1      46.967  29.363  31.596  1.00  0.00     0.010 A 
ATOM     88  C   UNL A   1      49.678  29.776  31.063  1.00  0.00     0.020 A 
ATOM     89  C   UNL A   1      47.348  30.260  30.596  1.00  0.00     0.020 A 
ATOM     90  C   UNL A   1      48.704  30.468  30.336  1.00  0.00     0.054 A 
BRANCH  90  91
ATOM     91  S   UNL A   1      49.209  31.598  29.005  1.00  0.00     0.124 S 
ATOM     92  O   UNL A   1      49.436  32.851  29.720  1.00  0.00    -0.237 OA
ATOM     93  O   UNL A   1      50.406  30.955  28.466  1.00  0.00    -0.237 OA
ATOM     94  O   UNL A   1      48.061  31.604  28.099  1.00  0.00    -0.744 OA
ENDBRANCH  90  91
ENDBRANCH  64  85
ENDBRANCH  38  39
ENDBRANCH  31  33
ENDBRANCH  30  31
ENDBRANCH   1  30
TORSDOF 17
ENDMDL
