MODEL 1
REMARK VINA RESULT:     -11.0      0.000      0.000
REMARK SMILES CCCCc1cc(S(F)(F)(F)(F)F)cc2c1O[C@@H](C(F)(F)F)C(C(=O)OCCOC(=O)c1ccc(-c3c4nc(c(-c5ccc(S(=O)(=O)[O-])cc5)c5ccc([nH]5)c(-c5ccc(S(=O)(=O)[O-])cc5)c5nc(c(-c6ccc(S(=O)(=O)[O-])cc6)c6ccc3[nH]6)C=C5)C=C4)cc1)=C2
REMARK SMILES IDX 27 1 26 2 24 3 25 4 23 5 5 6 6 7 16 8 7 9 15 10 17 11 14 12
REMARK SMILES IDX 92 13 18 14 4 15 3 16 2 17 1 18 8 19 9 20 10 21 11 22 12 23
REMARK SMILES IDX 13 24 19 25 20 26 21 27 22 28 28 29 29 30 30 31 31 32 32 33
REMARK SMILES IDX 33 34 91 35 34 36 90 37 35 38 36 39 37 40 84 41 38 42 89 43
REMARK SMILES IDX 83 44 85 45 39 46 88 47 82 48 81 49 40 51 70 52 51 53 69 54
REMARK SMILES IDX 52 55 55 56 68 57 86 58 53 59 54 60 67 62 87 63 56 64 41 65
REMARK SMILES IDX 42 66 50 67 43 68 49 69 44 70 45 71 46 72 47 73 48 74 71 75
REMARK SMILES IDX 72 76 80 77 73 78 79 79 74 80 75 81 76 82 77 83 78 84 57 85
REMARK SMILES IDX 58 86 66 87 59 88 65 89 60 90 61 91 62 92 63 93 64 94
REMARK H PARENT 85 50 55 61
REMARK Flexibility Score: inf
ROOT
ATOM      1  C   UNL A   1      36.248  21.082  25.320  1.00  0.00     0.275 C 
ENDROOT
BRANCH   1   2
ATOM      2  O   UNL A   1      35.439  21.935  26.116  1.00  0.00    -0.459 OA
BRANCH   2   3
ATOM      3  C   UNL A   1      34.106  22.225  25.718  1.00  0.00     0.338 C 
ATOM      4  O   UNL A   1      33.229  21.306  25.718  1.00  0.00    -0.246 OA
BRANCH   3   5
ATOM      5  C   UNL A   1      33.731  23.635  25.291  1.00  0.00     0.087 C 
ATOM      6  C   UNL A   1      33.101  27.486  23.802  1.00  0.00    -0.004 A 
ATOM      7  C   UNL A   1      33.281  28.582  24.624  1.00  0.00     0.032 A 
ATOM      8  C   UNL A   1      33.367  26.234  24.302  1.00  0.00     0.131 A 
ATOM      9  C   UNL A   1      33.720  28.431  25.914  1.00  0.00     0.108 A 
ATOM     10  C   UNL A   1      33.794  26.042  25.602  1.00  0.00     0.019 A 
ATOM     11  O   UNL A   1      33.293  25.167  23.440  1.00  0.00    -0.475 OA
ATOM     12  C   UNL A   1      33.969  27.166  26.402  1.00  0.00     0.036 A 
ATOM     13  C   UNL A   1      34.085  24.682  26.025  1.00  0.00     0.027 C 
ATOM     14  C   UNL A   1      32.941  23.876  24.013  1.00  0.00     0.316 C 
BRANCH   6  15
ATOM     15  C   UNL A   1      32.619  27.662  22.370  1.00  0.00     0.039 C 
BRANCH  15  16
ATOM     16  C   UNL A   1      31.229  27.061  22.227  1.00  0.00     0.005 C 
BRANCH  16  17
ATOM     17  C   UNL A   1      30.204  28.007  22.829  1.00  0.00    -0.003 C 
ATOM     18  C   UNL A   1      30.387  29.396  22.239  1.00  0.00     0.004 C 
ENDBRANCH  16  17
ENDBRANCH  15  16
ENDBRANCH   6  15
BRANCH   9  19
ATOM     19  S   UNL A   1      33.973  29.880  26.967  1.00  0.00     0.310 S 
ATOM     20  F   UNL A   1      34.421  28.986  28.198  1.00  0.00    -0.094 F 
ATOM     21  F   UNL A   1      32.492  29.729  27.485  1.00  0.00    -0.094 F 
ATOM     22  F   UNL A   1      34.191  31.126  27.872  1.00  0.00    -0.094 F 
ATOM     23  F   UNL A   1      35.494  29.932  26.544  1.00  0.00    -0.094 F 
ATOM     24  F   UNL A   1      33.800  28.550  26.131  1.00  0.00    -0.094 F 
ENDBRANCH   9  19
BRANCH  14  25
ATOM     25  C   UNL A   1      33.273  22.782  23.009  1.00  0.00     0.430 C 
ATOM     26  F   UNL A   1      32.541  21.703  23.273  1.00  0.00    -0.167 F 
ATOM     27  F   UNL A   1      33.003  23.211  21.781  1.00  0.00    -0.167 F 
ATOM     28  F   UNL A   1      34.563  22.475  23.099  1.00  0.00    -0.167 F 
ENDBRANCH  14  25
ENDBRANCH   3   5
ENDBRANCH   2   3
ENDBRANCH   1   2
BRANCH   1  29
ATOM     29  C   UNL A   1      37.313  21.908  24.616  1.00  0.00     0.275 C 
BRANCH  29  30
ATOM     30  O   UNL A   1      37.692  22.997  25.446  1.00  0.00    -0.458 OA
BRANCH  30  31
ATOM     31  C   UNL A   1      38.968  23.005  26.067  1.00  0.00     0.338 C 
ATOM     32  O   UNL A   1      39.728  21.990  25.971  1.00  0.00    -0.246 OA
BRANCH  31  33
ATOM     33  C   UNL A   1      39.427  24.226  26.848  1.00  0.00     0.060 A 
ATOM     34  C   UNL A   1      39.071  24.353  28.181  1.00  0.00     0.016 A 
ATOM     35  C   UNL A   1      40.161  25.151  26.241  1.00  0.00     0.016 A 
ATOM     36  C   UNL A   1      39.298  25.642  28.715  1.00  0.00     0.010 A 
ATOM     37  C   UNL A   1      40.459  26.334  26.873  1.00  0.00     0.010 A 
ATOM     38  C   UNL A   1      40.088  26.550  28.171  1.00  0.00    -0.014 A 
BRANCH  38  39
ATOM     39  C   UNL A   1      40.559  27.770  28.945  1.00  0.00     0.031 A 
ATOM     40  C   UNL A   1      39.691  28.858  29.050  1.00  0.00     0.074 A 
ATOM     41  C   UNL A   1      41.826  27.735  29.504  1.00  0.00     0.049 A 
ATOM     42  N   UNL A   1      39.894  30.002  29.705  1.00  0.00    -0.248 NA
ATOM     43  C   UNL A   1      38.358  28.911  28.430  1.00  0.00     0.031 C 
ATOM     44  C   UNL A   1      42.706  26.638  29.409  1.00  0.00     0.029 A 
ATOM     45  N   UNL A   1      42.457  28.720  30.229  1.00  0.00    -0.354 N 
ATOM     46  C   UNL A   1      38.825  30.794  29.593  1.00  0.00     0.074 A 
ATOM     47  C   UNL A   1      37.825  30.105  28.766  1.00  0.00     0.031 C 
ATOM     48  C   UNL A   1      43.854  26.962  30.060  1.00  0.00     0.029 A 
ATOM     49  C   UNL A   1      43.712  28.266  30.571  1.00  0.00     0.049 A 
ATOM     50  H   UNL A   1      42.077  29.598  30.463  1.00  0.00     0.167 HD
ATOM     51  C   UNL A   1      38.646  32.060  30.150  1.00  0.00     0.031 A 
ATOM     52  C   UNL A   1      44.691  28.936  31.286  1.00  0.00     0.031 A 
ATOM     53  C   UNL A   1      39.609  32.714  30.901  1.00  0.00     0.049 A 
ATOM     54  C   UNL A   1      44.534  30.229  31.794  1.00  0.00     0.074 A 
ATOM     55  C   UNL A   1      39.441  33.988  31.476  1.00  0.00     0.029 A 
ATOM     56  N   UNL A   1      40.873  32.269  31.222  1.00  0.00    -0.354 N 
ATOM     57  N   UNL A   1      43.451  31.004  31.715  1.00  0.00    -0.248 NA
ATOM     58  C   UNL A   1      45.576  30.961  32.524  1.00  0.00     0.031 C 
ATOM     59  C   UNL A   1      40.591  34.312  32.126  1.00  0.00     0.029 A 
ATOM     60  C   UNL A   1      41.496  33.245  31.967  1.00  0.00     0.049 A 
ATOM     61  H   UNL A   1      41.263  31.403  30.964  1.00  0.00     0.167 HD
ATOM     62  C   UNL A   1      43.671  32.165  32.335  1.00  0.00     0.074 A 
ATOM     63  C   UNL A   1      45.044  32.156  32.858  1.00  0.00     0.031 C 
ATOM     64  C   UNL A   1      42.781  33.228  32.489  1.00  0.00     0.031 A 
BRANCH  51  65
ATOM     65  C   UNL A   1      37.318  32.764  29.917  1.00  0.00    -0.014 A 
ATOM     66  C   UNL A   1      37.249  33.681  28.880  1.00  0.00     0.010 A 
ATOM     67  C   UNL A   1      36.241  32.439  30.622  1.00  0.00     0.010 A 
ATOM     68  C   UNL A   1      36.044  34.423  28.851  1.00  0.00     0.020 A 
ATOM     69  C   UNL A   1      35.059  33.115  30.445  1.00  0.00     0.020 A 
ATOM     70  C   UNL A   1      34.936  34.076  29.480  1.00  0.00     0.054 A 
BRANCH  70  71
ATOM     71  S   UNL A   1      33.339  34.831  29.083  1.00  0.00     0.124 S 
ATOM     72  O   UNL A   1      32.592  33.947  28.082  1.00  0.00    -0.237 OA
ATOM     73  O   UNL A   1      32.508  34.969  30.361  1.00  0.00    -0.237 OA
ATOM     74  O   UNL A   1      33.594  36.376  28.399  1.00  0.00    -0.744 OA
ENDBRANCH  70  71
ENDBRANCH  51  65
BRANCH  52  75
ATOM     75  C   UNL A   1      46.013  28.226  31.532  1.00  0.00    -0.014 A 
ATOM     76  C   UNL A   1      47.030  28.333  30.597  1.00  0.00     0.010 A 
ATOM     77  C   UNL A   1      46.133  27.438  32.593  1.00  0.00     0.010 A 
ATOM     78  C   UNL A   1      48.029  27.339  30.721  1.00  0.00     0.020 A 
ATOM     79  C   UNL A   1      47.205  26.588  32.716  1.00  0.00     0.020 A 
ATOM     80  C   UNL A   1      48.219  26.598  31.799  1.00  0.00     0.054 A 
BRANCH  80  81
ATOM     81  S   UNL A   1      49.738  25.647  32.045  1.00  0.00     0.124 S 
ATOM     82  O   UNL A   1      50.159  25.004  30.721  1.00  0.00    -0.237 OA
ATOM     83  O   UNL A   1      50.849  26.578  32.536  1.00  0.00    -0.237 OA
ATOM     84  O   UNL A   1      49.464  24.426  33.210  1.00  0.00    -0.744 OA
ENDBRANCH  80  81
ENDBRANCH  52  75
BRANCH  64  85
ATOM     85  C   UNL A   1      43.248  34.442  33.276  1.00  0.00    -0.014 A 
ATOM     86  C   UNL A   1      43.843  35.497  32.606  1.00  0.00     0.010 A 
ATOM     87  C   UNL A   1      43.076  34.471  34.592  1.00  0.00     0.010 A 
ATOM     88  C   UNL A   1      44.492  36.424  33.456  1.00  0.00     0.020 A 
ATOM     89  C   UNL A   1      43.623  35.481  35.347  1.00  0.00     0.020 A 
ATOM     90  C   UNL A   1      44.276  36.526  34.755  1.00  0.00     0.054 A 
BRANCH  90  91
ATOM     91  S   UNL A   1      44.818  37.971  35.701  1.00  0.00     0.124 S 
ATOM     92  O   UNL A   1      46.340  37.932  35.866  1.00  0.00    -0.237 OA
ATOM     93  O   UNL A   1      44.418  39.247  34.958  1.00  0.00    -0.237 OA
ATOM     94  O   UNL A   1      44.079  37.953  37.243  1.00  0.00    -0.744 OA
ENDBRANCH  90  91
ENDBRANCH  64  85
ENDBRANCH  38  39
ENDBRANCH  31  33
ENDBRANCH  30  31
ENDBRANCH  29  30
ENDBRANCH   1  29
TORSDOF 19
ENDMDL
MODEL 2
REMARK VINA RESULT:     -10.5      3.603      5.489
REMARK SMILES CCCCc1cc(S(F)(F)(F)(F)F)cc2c1O[C@@H](C(F)(F)F)C(C(=O)OCCOC(=O)c1ccc(-c3c4nc(c(-c5ccc(S(=O)(=O)[O-])cc5)c5ccc([nH]5)c(-c5ccc(S(=O)(=O)[O-])cc5)c5nc(c(-c6ccc(S(=O)(=O)[O-])cc6)c6ccc3[nH]6)C=C5)C=C4)cc1)=C2
REMARK SMILES IDX 27 1 26 2 24 3 25 4 23 5 5 6 6 7 16 8 7 9 15 10 17 11 14 12
REMARK SMILES IDX 92 13 18 14 4 15 3 16 2 17 1 18 8 19 9 20 10 21 11 22 12 23
REMARK SMILES IDX 13 24 19 25 20 26 21 27 22 28 28 29 29 30 30 31 31 32 32 33
REMARK SMILES IDX 33 34 91 35 34 36 90 37 35 38 36 39 37 40 84 41 38 42 89 43
REMARK SMILES IDX 83 44 85 45 39 46 88 47 82 48 81 49 40 51 70 52 51 53 69 54
REMARK SMILES IDX 52 55 55 56 68 57 86 58 53 59 54 60 67 62 87 63 56 64 41 65
REMARK SMILES IDX 42 66 50 67 43 68 49 69 44 70 45 71 46 72 47 73 48 74 71 75
REMARK SMILES IDX 72 76 80 77 73 78 79 79 74 80 75 81 76 82 77 83 78 84 57 85
REMARK SMILES IDX 58 86 66 87 59 88 65 89 60 90 61 91 62 92 63 93 64 94
REMARK H PARENT 85 50 55 61
REMARK Flexibility Score: inf
ROOT
ATOM      1  C   UNL A   1      42.546  21.785  25.926  1.00  0.00     0.275 C 
ENDROOT
BRANCH   1   2
ATOM      2  O   UNL A   1      41.216  22.129  25.564  1.00  0.00    -0.459 OA
BRANCH   2   3
ATOM      3  C   UNL A   1      40.138  21.809  26.432  1.00  0.00     0.338 C 
ATOM      4  O   UNL A   1      40.365  21.229  27.539  1.00  0.00    -0.246 OA
BRANCH   3   5
ATOM      5  C   UNL A   1      38.713  22.161  26.036  1.00  0.00     0.087 C 
ATOM      6  C   UNL A   1      34.712  23.203  25.449  1.00  0.00    -0.004 A 
ATOM      7  C   UNL A   1      33.809  22.254  25.004  1.00  0.00     0.032 A 
ATOM      8  C   UNL A   1      36.009  22.820  25.685  1.00  0.00     0.131 A 
ATOM      9  C   UNL A   1      34.195  20.954  24.806  1.00  0.00     0.108 A 
ATOM     10  C   UNL A   1      36.438  21.522  25.478  1.00  0.00     0.019 A 
ATOM     11  O   UNL A   1      36.864  23.745  26.232  1.00  0.00    -0.475 OA
ATOM     12  C   UNL A   1      35.505  20.591  25.036  1.00  0.00     0.036 A 
ATOM     13  C   UNL A   1      37.822  21.208  25.793  1.00  0.00     0.027 C 
ATOM     14  C   UNL A   1      38.278  23.614  25.910  1.00  0.00     0.316 C 
BRANCH   6  15
ATOM     15  C   UNL A   1      34.275  24.642  25.672  1.00  0.00     0.039 C 
BRANCH  15  16
ATOM     16  C   UNL A   1      33.464  25.116  24.477  1.00  0.00     0.005 C 
BRANCH  16  17
ATOM     17  C   UNL A   1      33.028  26.555  24.698  1.00  0.00    -0.003 C 
ATOM     18  C   UNL A   1      31.650  26.574  25.339  1.00  0.00     0.004 C 
ENDBRANCH  16  17
ENDBRANCH  15  16
ENDBRANCH   6  15
BRANCH   9  19
ATOM     19  S   UNL A   1      32.992  19.722  24.248  1.00  0.00     0.310 S 
ATOM     20  F   UNL A   1      31.801  20.453  24.998  1.00  0.00    -0.094 F 
ATOM     21  F   UNL A   1      33.242  18.914  25.577  1.00  0.00    -0.094 F 
ATOM     22  F   UNL A   1      31.959  18.664  23.767  1.00  0.00    -0.094 F 
ATOM     23  F   UNL A   1      32.651  20.614  22.990  1.00  0.00    -0.094 F 
ATOM     24  F   UNL A   1      33.954  20.860  24.776  1.00  0.00    -0.094 F 
ENDBRANCH   9  19
BRANCH  14  25
ATOM     25  C   UNL A   1      39.088  24.461  26.879  1.00  0.00     0.430 C 
ATOM     26  F   UNL A   1      38.369  25.516  27.251  1.00  0.00    -0.167 F 
ATOM     27  F   UNL A   1      39.397  23.737  27.950  1.00  0.00    -0.167 F 
ATOM     28  F   UNL A   1      40.204  24.871  26.284  1.00  0.00    -0.167 F 
ENDBRANCH  14  25
ENDBRANCH   3   5
ENDBRANCH   2   3
ENDBRANCH   1   2
BRANCH   1  29
ATOM     29  C   UNL A   1      43.462  22.971  25.670  1.00  0.00     0.275 C 
BRANCH  29  30
ATOM     30  O   UNL A   1      42.735  24.178  25.845  1.00  0.00    -0.458 OA
BRANCH  30  31
ATOM     31  C   UNL A   1      43.426  25.392  26.095  1.00  0.00     0.338 C 
ATOM     32  O   UNL A   1      44.353  25.770  25.312  1.00  0.00    -0.246 OA
BRANCH  31  33
ATOM     33  C   UNL A   1      43.058  26.241  27.302  1.00  0.00     0.060 A 
ATOM     34  C   UNL A   1      42.348  25.668  28.344  1.00  0.00     0.016 A 
ATOM     35  C   UNL A   1      43.423  27.516  27.339  1.00  0.00     0.016 A 
ATOM     36  C   UNL A   1      41.816  26.606  29.260  1.00  0.00     0.010 A 
ATOM     37  C   UNL A   1      42.976  28.345  28.339  1.00  0.00     0.010 A 
ATOM     38  C   UNL A   1      42.221  27.858  29.370  1.00  0.00    -0.014 A 
BRANCH  38  39
ATOM     39  C   UNL A   1      41.866  28.712  30.576  1.00  0.00     0.031 A 
ATOM     40  C   UNL A   1      40.790  29.594  30.463  1.00  0.00     0.074 A 
ATOM     41  C   UNL A   1      42.632  28.569  31.720  1.00  0.00     0.049 A 
ATOM     42  N   UNL A   1      40.298  30.402  31.402  1.00  0.00    -0.248 NA
ATOM     43  C   UNL A   1      39.996  29.772  29.238  1.00  0.00     0.031 C 
ATOM     44  C   UNL A   1      43.715  27.676  31.845  1.00  0.00     0.029 A 
ATOM     45  N   UNL A   1      42.501  29.241  32.915  1.00  0.00    -0.354 N 
ATOM     46  C   UNL A   1      39.252  31.081  30.926  1.00  0.00     0.074 A 
ATOM     47  C   UNL A   1      39.047  30.689  29.525  1.00  0.00     0.031 C 
ATOM     48  C   UNL A   1      44.234  27.815  33.093  1.00  0.00     0.029 A 
ATOM     49  C   UNL A   1      43.486  28.797  33.769  1.00  0.00     0.049 A 
ATOM     50  H   UNL A   1      41.820  29.920  33.122  1.00  0.00     0.167 HD
ATOM     51  C   UNL A   1      38.461  32.008  31.605  1.00  0.00     0.031 A 
ATOM     52  C   UNL A   1      43.735  29.214  35.066  1.00  0.00     0.031 A 
ATOM     53  C   UNL A   1      38.684  32.394  32.917  1.00  0.00     0.049 A 
ATOM     54  C   UNL A   1      42.979  30.186  35.728  1.00  0.00     0.074 A 
ATOM     55  C   UNL A   1      37.891  33.322  33.620  1.00  0.00     0.029 A 
ATOM     56  N   UNL A   1      39.684  31.968  33.764  1.00  0.00    -0.354 N 
ATOM     57  N   UNL A   1      41.910  30.835  35.264  1.00  0.00    -0.248 NA
ATOM     58  C   UNL A   1      43.254  30.659  37.091  1.00  0.00     0.031 C 
ATOM     59  C   UNL A   1      38.412  33.462  34.868  1.00  0.00     0.029 A 
ATOM     60  C   UNL A   1      39.538  32.623  34.965  1.00  0.00     0.049 A 
ATOM     61  H   UNL A   1      40.383  31.309  33.546  1.00  0.00     0.167 HD
ATOM     62  C   UNL A   1      41.444  31.674  36.191  1.00  0.00     0.074 A 
ATOM     63  C   UNL A   1      42.306  31.578  37.376  1.00  0.00     0.031 C 
ATOM     64  C   UNL A   1      40.332  32.512  36.097  1.00  0.00     0.031 A 
BRANCH  51  65
ATOM     65  C   UNL A   1      37.290  32.631  30.863  1.00  0.00    -0.014 A 
ATOM     66  C   UNL A   1      36.017  32.178  31.173  1.00  0.00     0.010 A 
ATOM     67  C   UNL A   1      37.476  33.639  30.019  1.00  0.00     0.010 A 
ATOM     68  C   UNL A   1      35.008  32.671  30.311  1.00  0.00     0.020 A 
ATOM     69  C   UNL A   1      36.421  34.163  29.311  1.00  0.00     0.020 A 
ATOM     70  C   UNL A   1      35.145  33.721  29.523  1.00  0.00     0.054 A 
BRANCH  70  71
ATOM     71  S   UNL A   1      33.716  34.534  28.763  1.00  0.00     0.124 S 
ATOM     72  O   UNL A   1      33.092  33.601  27.723  1.00  0.00    -0.237 OA
ATOM     73  O   UNL A   1      32.681  34.861  29.842  1.00  0.00    -0.237 OA
ATOM     74  O   UNL A   1      34.221  35.979  28.001  1.00  0.00    -0.744 OA
ENDBRANCH  70  71
ENDBRANCH  51  65
BRANCH  52  75
ATOM     75  C   UNL A   1      44.897  28.580  35.813  1.00  0.00    -0.014 A 
ATOM     76  C   UNL A   1      46.170  29.106  35.671  1.00  0.00     0.010 A 
ATOM     77  C   UNL A   1      44.684  27.472  36.514  1.00  0.00     0.010 A 
ATOM     78  C   UNL A   1      47.203  28.225  36.068  1.00  0.00     0.020 A 
ATOM     79  C   UNL A   1      45.740  26.731  36.989  1.00  0.00     0.020 A 
ATOM     80  C   UNL A   1      47.028  27.161  36.833  1.00  0.00     0.054 A 
BRANCH  80  81
ATOM     81  S   UNL A   1      48.418  26.320  37.629  1.00  0.00     0.124 S 
ATOM     82  O   UNL A   1      49.165  25.476  36.593  1.00  0.00    -0.237 OA
ATOM     83  O   UNL A   1      49.371  27.360  38.223  1.00  0.00    -0.237 OA
ATOM     84  O   UNL A   1      47.833  25.307  38.875  1.00  0.00    -0.744 OA
ENDBRANCH  80  81
ENDBRANCH  52  75
BRANCH  64  85
ATOM     85  C   UNL A   1      39.970  33.356  37.309  1.00  0.00    -0.014 A 
ATOM     86  C   UNL A   1      39.065  32.862  38.233  1.00  0.00     0.010 A 
ATOM     87  C   UNL A   1      40.528  34.550  37.462  1.00  0.00     0.010 A 
ATOM     88  C   UNL A   1      38.589  33.834  39.145  1.00  0.00     0.020 A 
ATOM     89  C   UNL A   1      40.108  35.397  38.460  1.00  0.00     0.020 A 
ATOM     90  C   UNL A   1      39.174  34.996  39.374  1.00  0.00     0.054 A 
BRANCH  90  91
ATOM     91  S   UNL A   1      38.759  36.004  40.818  1.00  0.00     0.124 S 
ATOM     92  O   UNL A   1      39.950  36.036  41.779  1.00  0.00    -0.237 OA
ATOM     93  O   UNL A   1      38.426  37.428  40.370  1.00  0.00    -0.237 OA
ATOM     94  O   UNL A   1      37.405  35.327  41.615  1.00  0.00    -0.744 OA
ENDBRANCH  90  91
ENDBRANCH  64  85
ENDBRANCH  38  39
ENDBRANCH  31  33
ENDBRANCH  30  31
ENDBRANCH  29  30
ENDBRANCH   1  29
TORSDOF 19
ENDMDL
MODEL 3
REMARK VINA RESULT:     -10.4      3.957      9.557
REMARK SMILES CCCCc1cc(S(F)(F)(F)(F)F)cc2c1O[C@@H](C(F)(F)F)C(C(=O)OCCOC(=O)c1ccc(-c3c4nc(c(-c5ccc(S(=O)(=O)[O-])cc5)c5ccc([nH]5)c(-c5ccc(S(=O)(=O)[O-])cc5)c5nc(c(-c6ccc(S(=O)(=O)[O-])cc6)c6ccc3[nH]6)C=C5)C=C4)cc1)=C2
REMARK SMILES IDX 27 1 26 2 24 3 25 4 23 5 5 6 6 7 16 8 7 9 15 10 17 11 14 12
REMARK SMILES IDX 92 13 18 14 4 15 3 16 2 17 1 18 8 19 9 20 10 21 11 22 12 23
REMARK SMILES IDX 13 24 19 25 20 26 21 27 22 28 28 29 29 30 30 31 31 32 32 33
REMARK SMILES IDX 33 34 91 35 34 36 90 37 35 38 36 39 37 40 84 41 38 42 89 43
REMARK SMILES IDX 83 44 85 45 39 46 88 47 82 48 81 49 40 51 70 52 51 53 69 54
REMARK SMILES IDX 52 55 55 56 68 57 86 58 53 59 54 60 67 62 87 63 56 64 41 65
REMARK SMILES IDX 42 66 50 67 43 68 49 69 44 70 45 71 46 72 47 73 48 74 71 75
REMARK SMILES IDX 72 76 80 77 73 78 79 79 74 80 75 81 76 82 77 83 78 84 57 85
REMARK SMILES IDX 58 86 66 87 59 88 65 89 60 90 61 91 62 92 63 93 64 94
REMARK H PARENT 85 50 55 61
REMARK Flexibility Score: inf
ROOT
ATOM      1  C   UNL A   1      33.054  34.210  28.183  1.00  0.00     0.275 C 
ENDROOT
BRANCH   1   2
ATOM      2  O   UNL A   1      34.151  33.349  27.913  1.00  0.00    -0.459 OA
BRANCH   2   3
ATOM      3  C   UNL A   1      34.154  32.022  28.419  1.00  0.00     0.338 C 
ATOM      4  O   UNL A   1      34.468  31.805  29.631  1.00  0.00    -0.246 OA
BRANCH   3   5
ATOM      5  C   UNL A   1      33.781  30.861  27.511  1.00  0.00     0.087 C 
ATOM      6  C   UNL A   1      33.150  27.815  24.724  1.00  0.00    -0.004 A 
ATOM      7  C   UNL A   1      32.019  27.829  23.930  1.00  0.00     0.032 A 
ATOM      8  C   UNL A   1      33.360  28.857  25.594  1.00  0.00     0.131 A 
ATOM      9  C   UNL A   1      31.120  28.862  24.002  1.00  0.00     0.108 A 
ATOM     10  C   UNL A   1      32.467  29.907  25.706  1.00  0.00     0.019 A 
ATOM     11  O   UNL A   1      34.542  28.886  26.292  1.00  0.00    -0.475 OA
ATOM     12  C   UNL A   1      31.341  29.892  24.891  1.00  0.00     0.036 A 
ATOM     13  C   UNL A   1      32.796  30.980  26.629  1.00  0.00     0.027 C 
ATOM     14  C   UNL A   1      34.528  29.538  27.594  1.00  0.00     0.316 C 
BRANCH   6  15
ATOM     15  C   UNL A   1      34.145  26.668  24.635  1.00  0.00     0.039 C 
BRANCH  15  16
ATOM     16  C   UNL A   1      33.394  25.347  24.632  1.00  0.00     0.005 C 
BRANCH  16  17
ATOM     17  C   UNL A   1      34.296  24.252  24.086  1.00  0.00    -0.003 C 
ATOM     18  C   UNL A   1      33.704  23.704  22.797  1.00  0.00     0.004 C 
ENDBRANCH  16  17
ENDBRANCH  15  16
ENDBRANCH   6  15
BRANCH   9  19
ATOM     19  S   UNL A   1      29.658  28.874  22.936  1.00  0.00     0.310 S 
ATOM     20  F   UNL A   1      29.029  30.109  23.708  1.00  0.00    -0.094 F 
ATOM     21  F   UNL A   1      28.926  27.941  23.975  1.00  0.00    -0.094 F 
ATOM     22  F   UNL A   1      28.401  28.884  22.021  1.00  0.00    -0.094 F 
ATOM     23  F   UNL A   1      30.354  29.919  21.979  1.00  0.00    -0.094 F 
ATOM     24  F   UNL A   1      30.898  28.963  23.912  1.00  0.00    -0.094 F 
ENDBRANCH   9  19
BRANCH  14  25
ATOM     25  C   UNL A   1      35.960  29.802  28.032  1.00  0.00     0.430 C 
ATOM     26  F   UNL A   1      36.339  31.002  27.602  1.00  0.00    -0.167 F 
ATOM     27  F   UNL A   1      36.033  29.763  29.358  1.00  0.00    -0.167 F 
ATOM     28  F   UNL A   1      36.759  28.873  27.516  1.00  0.00    -0.167 F 
ENDBRANCH  14  25
ENDBRANCH   3   5
ENDBRANCH   2   3
ENDBRANCH   1   2
BRANCH   1  29
ATOM     29  C   UNL A   1      33.439  35.191  29.278  1.00  0.00     0.275 C 
BRANCH  29  30
ATOM     30  O   UNL A   1      32.560  35.036  30.384  1.00  0.00    -0.458 OA
BRANCH  30  31
ATOM     31  C   UNL A   1      33.037  35.245  31.704  1.00  0.00     0.338 C 
ATOM     32  O   UNL A   1      32.368  35.957  32.517  1.00  0.00    -0.246 OA
BRANCH  31  33
ATOM     33  C   UNL A   1      34.350  34.618  32.146  1.00  0.00     0.060 A 
ATOM     34  C   UNL A   1      35.509  35.376  32.115  1.00  0.00     0.016 A 
ATOM     35  C   UNL A   1      34.365  33.355  32.555  1.00  0.00     0.016 A 
ATOM     36  C   UNL A   1      36.694  34.618  32.264  1.00  0.00     0.010 A 
ATOM     37  C   UNL A   1      35.553  32.716  32.813  1.00  0.00     0.010 A 
ATOM     38  C   UNL A   1      36.742  33.389  32.746  1.00  0.00    -0.014 A 
BRANCH  38  39
ATOM     39  C   UNL A   1      38.047  32.756  33.198  1.00  0.00     0.031 A 
ATOM     40  C   UNL A   1      38.717  31.919  32.304  1.00  0.00     0.074 A 
ATOM     41  C   UNL A   1      38.499  33.043  34.476  1.00  0.00     0.049 A 
ATOM     42  N   UNL A   1      39.880  31.295  32.489  1.00  0.00    -0.248 NA
ATOM     43  C   UNL A   1      38.222  31.586  30.960  1.00  0.00     0.031 C 
ATOM     44  C   UNL A   1      37.833  33.892  35.381  1.00  0.00     0.029 A 
ATOM     45  N   UNL A   1      39.637  32.577  35.094  1.00  0.00    -0.354 N 
ATOM     46  C   UNL A   1      40.209  30.599  31.399  1.00  0.00     0.074 A 
ATOM     47  C   UNL A   1      39.144  30.772  30.402  1.00  0.00     0.031 C 
ATOM     48  C   UNL A   1      38.555  33.930  36.532  1.00  0.00     0.029 A 
ATOM     49  C   UNL A   1      39.683  33.105  36.365  1.00  0.00     0.049 A 
ATOM     50  H   UNL A   1      40.304  31.972  34.695  1.00  0.00     0.167 HD
ATOM     51  C   UNL A   1      41.356  29.831  31.196  1.00  0.00     0.031 A 
ATOM     52  C   UNL A   1      40.644  32.889  37.340  1.00  0.00     0.031 A 
ATOM     53  C   UNL A   1      42.339  29.649  32.155  1.00  0.00     0.049 A 
ATOM     54  C   UNL A   1      41.763  32.071  37.158  1.00  0.00     0.074 A 
ATOM     55  C   UNL A   1      43.506  28.883  31.965  1.00  0.00     0.029 A 
ATOM     56  N   UNL A   1      42.373  30.156  33.436  1.00  0.00    -0.354 N 
ATOM     57  N   UNL A   1      42.111  31.408  36.054  1.00  0.00    -0.248 NA
ATOM     58  C   UNL A   1      42.770  31.809  38.194  1.00  0.00     0.031 C 
ATOM     59  C   UNL A   1      44.227  28.919  33.117  1.00  0.00     0.029 A 
ATOM     60  C   UNL A   1      43.523  29.709  34.046  1.00  0.00     0.049 A 
ATOM     61  H   UNL A   1      41.691  30.738  33.844  1.00  0.00     0.167 HD
ATOM     62  C   UNL A   1      43.255  30.750  36.254  1.00  0.00     0.074 A 
ATOM     63  C   UNL A   1      43.691  30.993  37.636  1.00  0.00     0.031 C 
ATOM     64  C   UNL A   1      43.953  29.961  35.340  1.00  0.00     0.031 A 
BRANCH  51  65
ATOM     65  C   UNL A   1      41.537  29.153  29.847  1.00  0.00    -0.014 A 
ATOM     66  C   UNL A   1      42.255  29.833  28.877  1.00  0.00     0.010 A 
ATOM     67  C   UNL A   1      41.102  27.915  29.642  1.00  0.00     0.010 A 
ATOM     68  C   UNL A   1      42.216  29.220  27.601  1.00  0.00     0.020 A 
ATOM     69  C   UNL A   1      41.219  27.328  28.406  1.00  0.00     0.020 A 
ATOM     70  C   UNL A   1      41.864  27.966  27.383  1.00  0.00     0.054 A 
BRANCH  70  71
ATOM     71  S   UNL A   1      42.218  27.136  25.813  1.00  0.00     0.124 S 
ATOM     72  O   UNL A   1      41.066  26.192  25.464  1.00  0.00    -0.237 OA
ATOM     73  O   UNL A   1      42.375  28.182  24.707  1.00  0.00    -0.237 OA
ATOM     74  O   UNL A   1      43.666  26.239  25.958  1.00  0.00    -0.744 OA
ENDBRANCH  70  71
ENDBRANCH  51  65
BRANCH  52  75
ATOM     75  C   UNL A   1      40.471  33.578  38.683  1.00  0.00    -0.014 A 
ATOM     76  C   UNL A   1      39.681  32.990  39.657  1.00  0.00     0.010 A 
ATOM     77  C   UNL A   1      41.005  34.780  38.863  1.00  0.00     0.010 A 
ATOM     78  C   UNL A   1      39.272  33.879  40.678  1.00  0.00     0.020 A 
ATOM     79  C   UNL A   1      40.664  35.541  39.955  1.00  0.00     0.020 A 
ATOM     80  C   UNL A   1      39.841  35.046  40.928  1.00  0.00     0.054 A 
BRANCH  80  81
ATOM     81  S   UNL A   1      39.545  35.938  42.474  1.00  0.00     0.124 S 
ATOM     82  O   UNL A   1      39.546  37.445  42.202  1.00  0.00    -0.237 OA
ATOM     83  O   UNL A   1      38.189  35.525  43.051  1.00  0.00    -0.237 OA
ATOM     84  O   UNL A   1      40.780  35.560  43.595  1.00  0.00    -0.744 OA
ENDBRANCH  80  81
ENDBRANCH  52  75
BRANCH  64  85
ATOM     85  C   UNL A   1      45.266  29.340  35.790  1.00  0.00    -0.014 A 
ATOM     86  C   UNL A   1      46.446  30.039  35.606  1.00  0.00     0.010 A 
ATOM     87  C   UNL A   1      45.258  28.138  36.353  1.00  0.00     0.010 A 
ATOM     88  C   UNL A   1      47.611  29.257  35.788  1.00  0.00     0.020 A 
ATOM     89  C   UNL A   1      46.437  27.487  36.628  1.00  0.00     0.020 A 
ATOM     90  C   UNL A   1      47.643  28.096  36.416  1.00  0.00     0.054 A 
BRANCH  90  91
ATOM     91  S   UNL A   1      49.198  27.352  36.966  1.00  0.00     0.124 S 
ATOM     92  O   UNL A   1      49.740  26.432  35.868  1.00  0.00    -0.237 OA
ATOM     93  O   UNL A   1      50.217  28.455  37.258  1.00  0.00    -0.237 OA
ATOM     94  O   UNL A   1      48.922  26.439  38.386  1.00  0.00    -0.744 OA
ENDBRANCH  90  91
ENDBRANCH  64  85
ENDBRANCH  38  39
ENDBRANCH  31  33
ENDBRANCH  30  31
ENDBRANCH  29  30
ENDBRANCH   1  29
TORSDOF 19
ENDMDL
