MODEL 1
REMARK VINA RESULT:     -12.7      0.000      0.000
REMARK SMILES CC(C)CCn1nc(C(=O)OCCOC(=O)c2ccc(-c3c4nc(c(-c5ccc(S(=O)(=O)[O-])cc5)c5ccc([nH]5)c(-c5ccc(S(=O)(=O)[O-])cc5)c5nc(c(-c6ccc(S(=O)(=O)[O-])cc6)c6ccc3[nH]6)C=C5)C=C4)cc2)c2c1CCN(C(=O)[C@@H]1CCc3nn(C)c(=O)n3C1)C2
REMARK SMILES IDX 12 1 11 2 9 3 10 4 8 5 6 6 7 7 78 8 77 9 79 10 95 11 80 12
REMARK SMILES IDX 81 13 5 14 4 15 2 16 1 17 3 18 82 19 83 20 84 21 85 22 94 23
REMARK SMILES IDX 86 24 93 25 87 26 91 27 88 28 89 29 92 30 90 31 13 32 14 33
REMARK SMILES IDX 15 34 16 35 17 36 18 37 76 38 19 39 75 40 20 41 21 42 22 43
REMARK SMILES IDX 69 44 23 45 74 46 68 47 70 48 24 49 73 50 67 51 66 52 25 54
REMARK SMILES IDX 55 55 36 56 54 57 37 58 40 59 53 60 71 61 38 62 39 63 52 65
REMARK SMILES IDX 72 66 41 67 26 68 27 69 35 70 28 71 34 72 29 73 30 74 31 75
REMARK SMILES IDX 32 76 33 77 56 78 57 79 65 80 58 81 64 82 59 83 60 84 61 85
REMARK SMILES IDX 62 86 63 87 42 88 43 89 51 90 44 91 50 92 45 93 46 94 47 95
REMARK SMILES IDX 48 96 49 97
REMARK H PARENT 70 53 40 64
REMARK Flexibility Score: inf
ROOT
ATOM      1  C   UNL A   1      37.810  21.839  25.359  1.00  0.00     0.275 C 
ENDROOT
BRANCH   1   2
ATOM      2  O   UNL A   1      36.621  21.150  25.765  1.00  0.00    -0.457 OA
BRANCH   2   3
ATOM      3  C   UNL A   1      35.467  21.879  25.895  1.00  0.00     0.359 C 
ATOM      4  O   UNL A   1      35.387  22.921  26.533  1.00  0.00    -0.244 OA
BRANCH   3   5
ATOM      5  C   UNL A   1      34.367  21.243  25.152  1.00  0.00     0.175 A 
ATOM      6  N   UNL A   1      33.128  19.743  24.263  1.00  0.00    -0.268 N 
ATOM      7  N   UNL A   1      34.160  19.905  25.117  1.00  0.00    -0.165 NA
ATOM      8  C   UNL A   1      32.788  20.904  23.654  1.00  0.00     0.046 A 
ATOM      9  C   UNL A   1      33.387  21.916  24.368  1.00  0.00     0.028 A 
ATOM     10  C   UNL A   1      31.971  21.129  22.448  1.00  0.00     0.078 C 
ATOM     11  C   UNL A   1      33.102  23.374  24.165  1.00  0.00     0.159 C 
ATOM     12  C   UNL A   1      32.337  22.552  21.976  1.00  0.00     0.126 C 
ATOM     13  N   UNL A   1      32.159  23.547  23.035  1.00  0.00    -0.338 N 
BRANCH   6  14
ATOM     14  C   UNL A   1      32.492  18.451  24.094  1.00  0.00     0.145 C 
BRANCH  14  15
ATOM     15  C   UNL A   1      32.554  17.572  25.343  1.00  0.00     0.027 C 
BRANCH  15  16
ATOM     16  C   UNL A   1      33.432  16.318  25.193  1.00  0.00    -0.016 C 
ATOM     17  C   UNL A   1      32.643  15.034  25.447  1.00  0.00     0.007 C 
ATOM     18  C   UNL A   1      34.058  16.282  23.798  1.00  0.00     0.007 C 
ENDBRANCH  15  16
ENDBRANCH  14  15
ENDBRANCH   6  14
BRANCH  13  19
ATOM     19  C   UNL A   1      31.354  24.668  23.046  1.00  0.00     0.227 C 
ATOM     20  O   UNL A   1      30.428  24.743  23.869  1.00  0.00    -0.274 OA
BRANCH  19  21
ATOM     21  C   UNL A   1      31.505  25.872  22.088  1.00  0.00     0.099 C 
ATOM     22  C   UNL A   1      32.865  26.045  21.402  1.00  0.00     0.023 C 
ATOM     23  C   UNL A   1      30.900  27.194  22.542  1.00  0.00     0.142 C 
ATOM     24  C   UNL A   1      33.850  26.980  22.090  1.00  0.00     0.078 C 
ATOM     25  N   UNL A   1      31.879  28.102  23.094  1.00  0.00    -0.278 N 
ATOM     26  C   UNL A   1      33.218  28.001  22.987  1.00  0.00     0.133 A 
ATOM     27  C   UNL A   1      31.639  28.951  24.148  1.00  0.00     0.345 A 
ATOM     28  N   UNL A   1      33.890  28.714  23.847  1.00  0.00    -0.155 NA
ATOM     29  N   UNL A   1      32.910  29.318  24.608  1.00  0.00    -0.216 N 
ATOM     30  O   UNL A   1      30.562  29.197  24.669  1.00  0.00    -0.246 OA
ATOM     31  C   UNL A   1      33.174  29.839  25.922  1.00  0.00     0.179 C 
ENDBRANCH  19  21
ENDBRANCH  13  19
ENDBRANCH   3   5
ENDBRANCH   2   3
ENDBRANCH   1   2
BRANCH   1  32
ATOM     32  C   UNL A   1      39.029  21.009  25.732  1.00  0.00     0.275 C 
BRANCH  32  33
ATOM     33  O   UNL A   1      39.868  21.766  26.599  1.00  0.00    -0.458 OA
BRANCH  33  34
ATOM     34  C   UNL A   1      41.161  21.904  26.226  1.00  0.00     0.338 C 
ATOM     35  O   UNL A   1      41.898  21.032  25.807  1.00  0.00    -0.246 OA
BRANCH  34  36
ATOM     36  C   UNL A   1      41.583  23.275  26.540  1.00  0.00     0.060 A 
ATOM     37  C   UNL A   1      42.594  23.453  27.491  1.00  0.00     0.016 A 
ATOM     38  C   UNL A   1      40.815  24.347  26.067  1.00  0.00     0.016 A 
ATOM     39  C   UNL A   1      42.712  24.686  28.100  1.00  0.00     0.010 A 
ATOM     40  C   UNL A   1      40.917  25.565  26.689  1.00  0.00     0.010 A 
ATOM     41  C   UNL A   1      41.814  25.696  27.746  1.00  0.00    -0.014 A 
BRANCH  41  42
ATOM     42  C   UNL A   1      41.819  26.927  28.502  1.00  0.00     0.031 A 
ATOM     43  C   UNL A   1      42.987  27.800  28.264  1.00  0.00     0.074 A 
ATOM     44  C   UNL A   1      40.744  27.324  29.205  1.00  0.00     0.049 A 
ATOM     45  N   UNL A   1      43.879  28.181  29.114  1.00  0.00    -0.248 NA
ATOM     46  C   UNL A   1      43.254  28.212  26.876  1.00  0.00     0.031 C 
ATOM     47  C   UNL A   1      39.404  26.729  29.214  1.00  0.00     0.029 A 
ATOM     48  N   UNL A   1      40.590  28.453  29.944  1.00  0.00    -0.354 N 
ATOM     49  C   UNL A   1      44.725  29.032  28.413  1.00  0.00     0.074 A 
ATOM     50  C   UNL A   1      44.394  28.885  27.018  1.00  0.00     0.031 C 
ATOM     51  C   UNL A   1      38.529  27.633  29.710  1.00  0.00     0.029 A 
ATOM     52  C   UNL A   1      39.266  28.804  30.160  1.00  0.00     0.049 A 
ATOM     53  H   UNL A   1      41.348  28.973  30.295  1.00  0.00     0.167 HD
ATOM     54  C   UNL A   1      45.488  29.972  29.035  1.00  0.00     0.031 A 
ATOM     55  C   UNL A   1      38.820  30.019  30.563  1.00  0.00     0.031 A 
ATOM     56  C   UNL A   1      45.591  29.741  30.450  1.00  0.00     0.049 A 
ATOM     57  C   UNL A   1      39.971  30.733  31.179  1.00  0.00     0.074 A 
ATOM     58  C   UNL A   1      46.040  28.688  31.223  1.00  0.00     0.029 A 
ATOM     59  N   UNL A   1      44.819  30.518  31.284  1.00  0.00    -0.354 N 
ATOM     60  N   UNL A   1      40.555  30.348  32.281  1.00  0.00    -0.248 NA
ATOM     61  C   UNL A   1      40.765  31.618  30.338  1.00  0.00     0.031 C 
ATOM     62  C   UNL A   1      45.130  28.621  32.318  1.00  0.00     0.029 A 
ATOM     63  C   UNL A   1      44.216  29.668  32.178  1.00  0.00     0.049 A 
ATOM     64  H   UNL A   1      44.718  31.496  31.246  1.00  0.00     0.167 HD
ATOM     65  C   UNL A   1      41.909  30.589  32.078  1.00  0.00     0.074 A 
ATOM     66  C   UNL A   1      41.964  31.463  30.908  1.00  0.00     0.031 C 
ATOM     67  C   UNL A   1      42.872  29.840  32.696  1.00  0.00     0.031 A 
BRANCH  54  68
ATOM     68  C   UNL A   1      45.832  31.289  28.397  1.00  0.00    -0.014 A 
ATOM     69  C   UNL A   1      44.807  32.210  28.118  1.00  0.00     0.010 A 
ATOM     70  C   UNL A   1      47.100  31.542  27.832  1.00  0.00     0.010 A 
ATOM     71  C   UNL A   1      45.033  33.307  27.275  1.00  0.00     0.020 A 
ATOM     72  C   UNL A   1      47.350  32.656  27.033  1.00  0.00     0.020 A 
ATOM     73  C   UNL A   1      46.302  33.514  26.730  1.00  0.00     0.054 A 
BRANCH  73  74
ATOM     74  S   UNL A   1      46.559  34.868  25.559  1.00  0.00     0.124 S 
ATOM     75  O   UNL A   1      46.314  36.038  26.397  1.00  0.00    -0.237 OA
ATOM     76  O   UNL A   1      47.944  34.663  25.145  1.00  0.00    -0.237 OA
ATOM     77  O   UNL A   1      45.561  34.618  24.522  1.00  0.00    -0.744 OA
ENDBRANCH  73  74
ENDBRANCH  54  68
BRANCH  55  78
ATOM     78  C   UNL A   1      37.581  30.701  30.103  1.00  0.00    -0.014 A 
ATOM     79  C   UNL A   1      36.576  31.076  31.010  1.00  0.00     0.010 A 
ATOM     80  C   UNL A   1      37.494  31.209  28.788  1.00  0.00     0.010 A 
ATOM     81  C   UNL A   1      35.552  31.962  30.629  1.00  0.00     0.020 A 
ATOM     82  C   UNL A   1      36.472  32.079  28.397  1.00  0.00     0.020 A 
ATOM     83  C   UNL A   1      35.517  32.470  29.328  1.00  0.00     0.054 A 
BRANCH  83  84
ATOM     84  S   UNL A   1      34.293  33.738  28.887  1.00  0.00     0.124 S 
ATOM     85  O   UNL A   1      33.749  34.110  30.190  1.00  0.00    -0.237 OA
ATOM     86  O   UNL A   1      35.110  34.752  28.229  1.00  0.00    -0.237 OA
ATOM     87  O   UNL A   1      33.363  33.030  28.007  1.00  0.00    -0.744 OA
ENDBRANCH  83  84
ENDBRANCH  55  78
BRANCH  67  88
ATOM     88  C   UNL A   1      42.468  28.911  33.822  1.00  0.00    -0.014 A 
ATOM     89  C   UNL A   1      41.861  27.657  33.613  1.00  0.00     0.010 A 
ATOM     90  C   UNL A   1      42.883  29.240  35.126  1.00  0.00     0.010 A 
ATOM     91  C   UNL A   1      41.652  26.771  34.681  1.00  0.00     0.020 A 
ATOM     92  C   UNL A   1      42.697  28.354  36.191  1.00  0.00     0.020 A 
ATOM     93  C   UNL A   1      42.075  27.125  35.966  1.00  0.00     0.054 A 
BRANCH  93  94
ATOM     94  S   UNL A   1      41.863  25.947  37.330  1.00  0.00     0.124 S 
ATOM     95  O   UNL A   1      40.482  26.185  37.743  1.00  0.00    -0.237 OA
ATOM     96  O   UNL A   1      42.115  24.657  36.692  1.00  0.00    -0.237 OA
ATOM     97  O   UNL A   1      42.875  26.354  38.304  1.00  0.00    -0.744 OA
ENDBRANCH  93  94
ENDBRANCH  67  88
ENDBRANCH  41  42
ENDBRANCH  34  36
ENDBRANCH  33  34
ENDBRANCH  32  33
ENDBRANCH   1  32
TORSDOF 19
ENDMDL
MODEL 2
REMARK VINA RESULT:     -12.4      1.275      2.044
REMARK SMILES CC(C)CCn1nc(C(=O)OCCOC(=O)c2ccc(-c3c4nc(c(-c5ccc(S(=O)(=O)[O-])cc5)c5ccc([nH]5)c(-c5ccc(S(=O)(=O)[O-])cc5)c5nc(c(-c6ccc(S(=O)(=O)[O-])cc6)c6ccc3[nH]6)C=C5)C=C4)cc2)c2c1CCN(C(=O)[C@@H]1CCc3nn(C)c(=O)n3C1)C2
REMARK SMILES IDX 12 1 11 2 9 3 10 4 8 5 6 6 7 7 78 8 77 9 79 10 95 11 80 12
REMARK SMILES IDX 81 13 5 14 4 15 2 16 1 17 3 18 82 19 83 20 84 21 85 22 94 23
REMARK SMILES IDX 86 24 93 25 87 26 91 27 88 28 89 29 92 30 90 31 13 32 14 33
REMARK SMILES IDX 15 34 16 35 17 36 18 37 76 38 19 39 75 40 20 41 21 42 22 43
REMARK SMILES IDX 69 44 23 45 74 46 68 47 70 48 24 49 73 50 67 51 66 52 25 54
REMARK SMILES IDX 55 55 36 56 54 57 37 58 40 59 53 60 71 61 38 62 39 63 52 65
REMARK SMILES IDX 72 66 41 67 26 68 27 69 35 70 28 71 34 72 29 73 30 74 31 75
REMARK SMILES IDX 32 76 33 77 56 78 57 79 65 80 58 81 64 82 59 83 60 84 61 85
REMARK SMILES IDX 62 86 63 87 42 88 43 89 51 90 44 91 50 92 45 93 46 94 47 95
REMARK SMILES IDX 48 96 49 97
REMARK H PARENT 70 53 40 64
REMARK Flexibility Score: inf
ROOT
ATOM      1  C   UNL A   1      38.797  21.886  25.790  1.00  0.00     0.275 C 
ENDROOT
BRANCH   1   2
ATOM      2  O   UNL A   1      37.676  21.128  25.317  1.00  0.00    -0.457 OA
BRANCH   2   3
ATOM      3  C   UNL A   1      36.753  21.766  24.530  1.00  0.00     0.359 C 
ATOM      4  O   UNL A   1      37.044  22.562  23.646  1.00  0.00    -0.244 OA
BRANCH   3   5
ATOM      5  C   UNL A   1      35.389  21.344  24.887  1.00  0.00     0.175 A 
ATOM      6  N   UNL A   1      33.673  20.108  25.205  1.00  0.00    -0.268 N 
ATOM      7  N   UNL A   1      34.994  20.049  24.940  1.00  0.00    -0.165 NA
ATOM      8  C   UNL A   1      33.205  21.378  25.169  1.00  0.00     0.046 A 
ATOM      9  C   UNL A   1      34.303  22.205  25.210  1.00  0.00     0.028 A 
ATOM     10  C   UNL A   1      31.818  21.867  25.073  1.00  0.00     0.078 C 
ATOM     11  C   UNL A   1      34.233  23.691  25.403  1.00  0.00     0.159 C 
ATOM     12  C   UNL A   1      31.940  23.326  24.587  1.00  0.00     0.126 C 
ATOM     13  N   UNL A   1      32.815  24.123  25.450  1.00  0.00    -0.338 N 
BRANCH   6  14
ATOM     14  C   UNL A   1      32.917  18.908  25.512  1.00  0.00     0.145 C 
BRANCH  14  15
ATOM     15  C   UNL A   1      32.553  18.084  24.278  1.00  0.00     0.027 C 
BRANCH  15  16
ATOM     16  C   UNL A   1      33.136  16.662  24.270  1.00  0.00    -0.016 C 
ATOM     17  C   UNL A   1      34.664  16.670  24.322  1.00  0.00     0.007 C 
ATOM     18  C   UNL A   1      32.575  15.860  25.446  1.00  0.00     0.007 C 
ENDBRANCH  15  16
ENDBRANCH  14  15
ENDBRANCH   6  14
BRANCH  13  19
ATOM     19  C   UNL A   1      32.525  25.271  26.159  1.00  0.00     0.227 C 
ATOM     20  O   UNL A   1      31.550  25.280  26.927  1.00  0.00    -0.274 OA
BRANCH  19  21
ATOM     21  C   UNL A   1      33.328  26.589  26.071  1.00  0.00     0.099 C 
ATOM     22  C   UNL A   1      32.964  27.690  27.073  1.00  0.00     0.023 C 
ATOM     23  C   UNL A   1      33.612  27.130  24.676  1.00  0.00     0.142 C 
ATOM     24  C   UNL A   1      31.966  28.734  26.592  1.00  0.00     0.078 C 
ATOM     25  N   UNL A   1      32.713  28.192  24.289  1.00  0.00    -0.278 N 
ATOM     26  C   UNL A   1      31.893  28.886  25.103  1.00  0.00     0.133 A 
ATOM     27  C   UNL A   1      32.238  28.378  23.013  1.00  0.00     0.345 A 
ATOM     28  N   UNL A   1      30.937  29.530  24.494  1.00  0.00    -0.155 NA
ATOM     29  N   UNL A   1      31.124  29.214  23.164  1.00  0.00    -0.216 N 
ATOM     30  O   UNL A   1      32.605  27.808  21.997  1.00  0.00    -0.246 OA
ATOM     31  C   UNL A   1      30.072  29.340  22.192  1.00  0.00     0.179 C 
ENDBRANCH  19  21
ENDBRANCH  13  19
ENDBRANCH   3   5
ENDBRANCH   2   3
ENDBRANCH   1   2
BRANCH   1  32
ATOM     32  C   UNL A   1      39.951  20.945  26.102  1.00  0.00     0.275 C 
BRANCH  32  33
ATOM     33  O   UNL A   1      40.968  21.660  26.796  1.00  0.00    -0.458 OA
BRANCH  33  34
ATOM     34  C   UNL A   1      42.069  21.995  26.086  1.00  0.00     0.338 C 
ATOM     35  O   UNL A   1      42.711  21.272  25.348  1.00  0.00    -0.246 OA
BRANCH  34  36
ATOM     36  C   UNL A   1      42.455  23.361  26.458  1.00  0.00     0.060 A 
ATOM     37  C   UNL A   1      43.301  23.532  27.559  1.00  0.00     0.016 A 
ATOM     38  C   UNL A   1      41.790  24.441  25.862  1.00  0.00     0.016 A 
ATOM     39  C   UNL A   1      43.337  24.767  28.174  1.00  0.00     0.010 A 
ATOM     40  C   UNL A   1      41.808  25.662  26.487  1.00  0.00     0.010 A 
ATOM     41  C   UNL A   1      42.523  25.788  27.674  1.00  0.00    -0.014 A 
BRANCH  41  42
ATOM     42  C   UNL A   1      42.424  27.024  28.415  1.00  0.00     0.031 A 
ATOM     43  C   UNL A   1      43.490  28.008  28.133  1.00  0.00     0.074 A 
ATOM     44  C   UNL A   1      41.335  27.319  29.146  1.00  0.00     0.049 A 
ATOM     45  N   UNL A   1      44.362  28.490  28.951  1.00  0.00    -0.248 NA
ATOM     46  C   UNL A   1      43.672  28.424  26.733  1.00  0.00     0.031 C 
ATOM     47  C   UNL A   1      40.064  26.590  29.203  1.00  0.00     0.029 A 
ATOM     48  N   UNL A   1      41.087  28.437  29.877  1.00  0.00    -0.354 N 
ATOM     49  C   UNL A   1      45.095  29.413  28.215  1.00  0.00     0.074 A 
ATOM     50  C   UNL A   1      44.741  29.212  26.832  1.00  0.00     0.031 C 
ATOM     51  C   UNL A   1      39.116  27.408  29.715  1.00  0.00     0.029 A 
ATOM     52  C   UNL A   1      39.742  28.654  30.128  1.00  0.00     0.049 A 
ATOM     53  H   UNL A   1      41.798  29.036  30.199  1.00  0.00     0.167 HD
ATOM     54  C   UNL A   1      45.776  30.434  28.803  1.00  0.00     0.031 A 
ATOM     55  C   UNL A   1      39.185  29.823  30.530  1.00  0.00     0.031 A 
ATOM     56  C   UNL A   1      45.942  30.236  30.217  1.00  0.00     0.049 A 
ATOM     57  C   UNL A   1      40.274  30.659  31.103  1.00  0.00     0.074 A 
ATOM     58  C   UNL A   1      46.520  29.245  30.988  1.00  0.00     0.029 A 
ATOM     59  N   UNL A   1      45.119  30.942  31.065  1.00  0.00    -0.354 N 
ATOM     60  N   UNL A   1      40.926  30.352  32.192  1.00  0.00    -0.248 NA
ATOM     61  C   UNL A   1      40.948  31.609  30.229  1.00  0.00     0.031 C 
ATOM     62  C   UNL A   1      45.653  29.102  32.111  1.00  0.00     0.029 A 
ATOM     63  C   UNL A   1      44.633  30.048  31.986  1.00  0.00     0.049 A 
ATOM     64  H   UNL A   1      44.918  31.904  31.019  1.00  0.00     0.167 HD
ATOM     65  C   UNL A   1      42.241  30.727  31.945  1.00  0.00     0.074 A 
ATOM     66  C   UNL A   1      42.173  31.585  30.765  1.00  0.00     0.031 C 
ATOM     67  C   UNL A   1      43.294  30.090  32.543  1.00  0.00     0.031 A 
BRANCH  54  68
ATOM     68  C   UNL A   1      45.965  31.770  28.140  1.00  0.00    -0.014 A 
ATOM     69  C   UNL A   1      47.257  32.320  28.052  1.00  0.00     0.010 A 
ATOM     70  C   UNL A   1      44.879  32.617  27.830  1.00  0.00     0.010 A 
ATOM     71  C   UNL A   1      47.444  33.667  27.713  1.00  0.00     0.020 A 
ATOM     72  C   UNL A   1      45.057  33.943  27.442  1.00  0.00     0.020 A 
ATOM     73  C   UNL A   1      46.341  34.471  27.421  1.00  0.00     0.054 A 
BRANCH  73  74
ATOM     74  S   UNL A   1      46.582  36.232  27.090  1.00  0.00     0.124 S 
ATOM     75  O   UNL A   1      46.944  36.222  25.676  1.00  0.00    -0.237 OA
ATOM     76  O   UNL A   1      45.271  36.792  27.406  1.00  0.00    -0.237 OA
ATOM     77  O   UNL A   1      47.654  36.610  28.009  1.00  0.00    -0.744 OA
ENDBRANCH  73  74
ENDBRANCH  54  68
BRANCH  55  78
ATOM     78  C   UNL A   1      37.870  30.368  30.101  1.00  0.00    -0.014 A 
ATOM     79  C   UNL A   1      37.033  31.049  31.001  1.00  0.00     0.010 A 
ATOM     80  C   UNL A   1      37.541  30.434  28.728  1.00  0.00     0.010 A 
ATOM     81  C   UNL A   1      35.940  31.805  30.541  1.00  0.00     0.020 A 
ATOM     82  C   UNL A   1      36.448  31.171  28.265  1.00  0.00     0.020 A 
ATOM     83  C   UNL A   1      35.664  31.873  29.173  1.00  0.00     0.054 A 
BRANCH  83  84
ATOM     84  S   UNL A   1      34.355  32.979  28.572  1.00  0.00     0.124 S 
ATOM     85  O   UNL A   1      35.077  33.835  27.635  1.00  0.00    -0.237 OA
ATOM     86  O   UNL A   1      33.403  32.048  27.974  1.00  0.00    -0.237 OA
ATOM     87  O   UNL A   1      33.883  33.648  29.784  1.00  0.00    -0.744 OA
ENDBRANCH  83  84
ENDBRANCH  55  78
BRANCH  67  88
ATOM     88  C   UNL A   1      43.020  29.140  33.690  1.00  0.00    -0.014 A 
ATOM     89  C   UNL A   1      43.000  29.540  35.041  1.00  0.00     0.010 A 
ATOM     90  C   UNL A   1      42.591  27.837  33.377  1.00  0.00     0.010 A 
ATOM     91  C   UNL A   1      42.587  28.656  36.049  1.00  0.00     0.020 A 
ATOM     92  C   UNL A   1      42.158  26.958  34.373  1.00  0.00     0.020 A 
ATOM     93  C   UNL A   1      42.165  27.368  35.707  1.00  0.00     0.054 A 
BRANCH  93  94
ATOM     94  S   UNL A   1      41.568  26.251  37.007  1.00  0.00     0.124 S 
ATOM     95  O   UNL A   1      41.338  25.007  36.277  1.00  0.00    -0.237 OA
ATOM     96  O   UNL A   1      42.681  26.228  37.955  1.00  0.00    -0.237 OA
ATOM     97  O   UNL A   1      40.359  26.908  37.504  1.00  0.00    -0.744 OA
ENDBRANCH  93  94
ENDBRANCH  67  88
ENDBRANCH  41  42
ENDBRANCH  34  36
ENDBRANCH  33  34
ENDBRANCH  32  33
ENDBRANCH   1  32
TORSDOF 19
ENDMDL
MODEL 3
REMARK VINA RESULT:     -12.2      2.907      8.900
REMARK SMILES CC(C)CCn1nc(C(=O)OCCOC(=O)c2ccc(-c3c4nc(c(-c5ccc(S(=O)(=O)[O-])cc5)c5ccc([nH]5)c(-c5ccc(S(=O)(=O)[O-])cc5)c5nc(c(-c6ccc(S(=O)(=O)[O-])cc6)c6ccc3[nH]6)C=C5)C=C4)cc2)c2c1CCN(C(=O)[C@@H]1CCc3nn(C)c(=O)n3C1)C2
REMARK SMILES IDX 12 1 11 2 9 3 10 4 8 5 6 6 7 7 78 8 77 9 79 10 95 11 80 12
REMARK SMILES IDX 81 13 5 14 4 15 2 16 1 17 3 18 82 19 83 20 84 21 85 22 94 23
REMARK SMILES IDX 86 24 93 25 87 26 91 27 88 28 89 29 92 30 90 31 13 32 14 33
REMARK SMILES IDX 15 34 16 35 17 36 18 37 76 38 19 39 75 40 20 41 21 42 22 43
REMARK SMILES IDX 69 44 23 45 74 46 68 47 70 48 24 49 73 50 67 51 66 52 25 54
REMARK SMILES IDX 55 55 36 56 54 57 37 58 40 59 53 60 71 61 38 62 39 63 52 65
REMARK SMILES IDX 72 66 41 67 26 68 27 69 35 70 28 71 34 72 29 73 30 74 31 75
REMARK SMILES IDX 32 76 33 77 56 78 57 79 65 80 58 81 64 82 59 83 60 84 61 85
REMARK SMILES IDX 62 86 63 87 42 88 43 89 51 90 44 91 50 92 45 93 46 94 47 95
REMARK SMILES IDX 48 96 49 97
REMARK H PARENT 70 53 40 64
REMARK Flexibility Score: inf
ROOT
ATOM      1  C   UNL A   1      31.417  31.887  26.717  1.00  0.00     0.275 C 
ENDROOT
BRANCH   1   2
ATOM      2  O   UNL A   1      31.683  30.504  26.982  1.00  0.00    -0.457 OA
BRANCH   2   3
ATOM      3  C   UNL A   1      32.458  29.815  26.087  1.00  0.00     0.359 C 
ATOM      4  O   UNL A   1      33.683  29.836  26.087  1.00  0.00    -0.244 OA
BRANCH   3   5
ATOM      5  C   UNL A   1      31.616  29.045  25.156  1.00  0.00     0.175 A 
ATOM      6  N   UNL A   1      30.182  28.581  23.639  1.00  0.00    -0.268 N 
ATOM      7  N   UNL A   1      30.856  29.612  24.190  1.00  0.00    -0.165 NA
ATOM      8  C   UNL A   1      30.378  27.427  24.320  1.00  0.00     0.046 A 
ATOM      9  C   UNL A   1      31.465  27.630  25.138  1.00  0.00     0.028 A 
ATOM     10  C   UNL A   1      29.611  26.170  24.279  1.00  0.00     0.078 C 
ATOM     11  C   UNL A   1      32.155  26.544  25.908  1.00  0.00     0.159 C 
ATOM     12  C   UNL A   1      29.987  25.428  25.578  1.00  0.00     0.126 C 
ATOM     13  N   UNL A   1      31.435  25.262  25.720  1.00  0.00    -0.338 N 
BRANCH   6  14
ATOM     14  C   UNL A   1      29.386  28.763  22.440  1.00  0.00     0.145 C 
BRANCH  14  15
ATOM     15  C   UNL A   1      27.932  29.135  22.724  1.00  0.00     0.027 C 
BRANCH  15  16
ATOM     16  C   UNL A   1      27.585  30.605  22.434  1.00  0.00    -0.016 C 
ATOM     17  C   UNL A   1      27.661  31.470  23.692  1.00  0.00     0.007 C 
ATOM     18  C   UNL A   1      28.521  31.160  21.359  1.00  0.00     0.007 C 
ENDBRANCH  15  16
ENDBRANCH  14  15
ENDBRANCH   6  14
BRANCH  13  19
ATOM     19  C   UNL A   1      32.168  24.099  25.841  1.00  0.00     0.227 C 
ATOM     20  O   UNL A   1      32.875  23.929  26.846  1.00  0.00    -0.274 OA
BRANCH  19  21
ATOM     21  C   UNL A   1      32.190  22.958  24.797  1.00  0.00     0.099 C 
ATOM     22  C   UNL A   1      31.910  21.542  25.312  1.00  0.00     0.023 C 
ATOM     23  C   UNL A   1      33.302  22.999  23.756  1.00  0.00     0.142 C 
ATOM     24  C   UNL A   1      33.131  20.703  25.666  1.00  0.00     0.078 C 
ATOM     25  N   UNL A   1      34.399  22.113  24.067  1.00  0.00    -0.278 N 
ATOM     26  C   UNL A   1      34.395  21.118  24.977  1.00  0.00     0.133 A 
ATOM     27  C   UNL A   1      35.719  22.395  23.811  1.00  0.00     0.345 A 
ATOM     28  N   UNL A   1      35.577  20.699  25.332  1.00  0.00    -0.155 NA
ATOM     29  N   UNL A   1      36.438  21.503  24.615  1.00  0.00    -0.216 N 
ATOM     30  O   UNL A   1      36.162  23.325  23.155  1.00  0.00    -0.246 OA
ATOM     31  C   UNL A   1      37.810  21.693  25.005  1.00  0.00     0.179 C 
ENDBRANCH  19  21
ENDBRANCH  13  19
ENDBRANCH   3   5
ENDBRANCH   2   3
ENDBRANCH   1   2
BRANCH   1  32
ATOM     32  C   UNL A   1      32.668  32.706  26.996  1.00  0.00     0.275 C 
BRANCH  32  33
ATOM     33  O   UNL A   1      32.778  32.939  28.397  1.00  0.00    -0.458 OA
BRANCH  33  34
ATOM     34  C   UNL A   1      33.186  34.170  28.779  1.00  0.00     0.338 C 
ATOM     35  O   UNL A   1      32.560  35.209  28.689  1.00  0.00    -0.246 OA
BRANCH  34  36
ATOM     36  C   UNL A   1      34.588  34.076  29.204  1.00  0.00     0.060 A 
ATOM     37  C   UNL A   1      35.585  34.312  28.252  1.00  0.00     0.016 A 
ATOM     38  C   UNL A   1      34.881  33.529  30.461  1.00  0.00     0.016 A 
ATOM     39  C   UNL A   1      36.855  33.832  28.498  1.00  0.00     0.010 A 
ATOM     40  C   UNL A   1      36.137  33.032  30.696  1.00  0.00     0.010 A 
ATOM     41  C   UNL A   1      37.086  33.125  29.682  1.00  0.00    -0.014 A 
BRANCH  41  42
ATOM     42  C   UNL A   1      38.361  32.471  29.863  1.00  0.00     0.031 A 
ATOM     43  C   UNL A   1      38.381  31.035  29.517  1.00  0.00     0.074 A 
ATOM     44  C   UNL A   1      39.477  33.171  30.133  1.00  0.00     0.049 A 
ATOM     45  N   UNL A   1      38.633  30.034  30.291  1.00  0.00    -0.248 NA
ATOM     46  C   UNL A   1      37.959  30.661  28.157  1.00  0.00     0.031 C 
ATOM     47  C   UNL A   1      39.649  34.626  30.132  1.00  0.00     0.029 A 
ATOM     48  N   UNL A   1      40.740  32.707  30.313  1.00  0.00    -0.354 N 
ATOM     49  C   UNL A   1      38.581  28.909  29.478  1.00  0.00     0.074 A 
ATOM     50  C   UNL A   1      38.006  29.332  28.225  1.00  0.00     0.031 C 
ATOM     51  C   UNL A   1      40.969  34.909  30.049  1.00  0.00     0.029 A 
ATOM     52  C   UNL A   1      41.722  33.666  30.118  1.00  0.00     0.049 A 
ATOM     53  H   UNL A   1      40.941  31.775  30.559  1.00  0.00     0.167 HD
ATOM     54  C   UNL A   1      39.220  27.752  29.798  1.00  0.00     0.031 A 
ATOM     55  C   UNL A   1      43.039  33.426  29.906  1.00  0.00     0.031 A 
ATOM     56  C   UNL A   1      39.621  27.714  31.178  1.00  0.00     0.049 A 
ATOM     57  C   UNL A   1      43.322  32.046  30.385  1.00  0.00     0.074 A 
ATOM     58  C   UNL A   1      38.945  27.817  32.379  1.00  0.00     0.029 A 
ATOM     59  N   UNL A   1      40.945  27.956  31.469  1.00  0.00    -0.354 N 
ATOM     60  N   UNL A   1      43.242  31.683  31.637  1.00  0.00    -0.248 NA
ATOM     61  C   UNL A   1      43.259  30.955  29.422  1.00  0.00     0.031 C 
ATOM     62  C   UNL A   1      39.802  28.588  33.218  1.00  0.00     0.029 A 
ATOM     63  C   UNL A   1      40.968  28.862  32.500  1.00  0.00     0.049 A 
ATOM     64  H   UNL A   1      41.725  27.556  31.022  1.00  0.00     0.167 HD
ATOM     65  C   UNL A   1      42.706  30.402  31.609  1.00  0.00     0.074 A 
ATOM     66  C   UNL A   1      42.834  29.970  30.220  1.00  0.00     0.031 C 
ATOM     67  C   UNL A   1      41.956  29.915  32.645  1.00  0.00     0.031 A 
BRANCH  54  68
ATOM     68  C   UNL A   1      39.788  26.824  28.760  1.00  0.00    -0.014 A 
ATOM     69  C   UNL A   1      39.278  25.518  28.649  1.00  0.00     0.010 A 
ATOM     70  C   UNL A   1      40.980  27.114  28.063  1.00  0.00     0.010 A 
ATOM     71  C   UNL A   1      39.958  24.539  27.911  1.00  0.00     0.020 A 
ATOM     72  C   UNL A   1      41.637  26.163  27.285  1.00  0.00     0.020 A 
ATOM     73  C   UNL A   1      41.139  24.868  27.244  1.00  0.00     0.054 A 
BRANCH  73  74
ATOM     74  S   UNL A   1      42.067  23.576  26.383  1.00  0.00     0.124 S 
ATOM     75  O   UNL A   1      41.030  22.577  26.139  1.00  0.00    -0.237 OA
ATOM     76  O   UNL A   1      42.560  24.280  25.203  1.00  0.00    -0.237 OA
ATOM     77  O   UNL A   1      43.094  23.191  27.348  1.00  0.00    -0.744 OA
ENDBRANCH  73  74
ENDBRANCH  54  68
BRANCH  55  78
ATOM     78  C   UNL A   1      43.936  34.177  28.989  1.00  0.00    -0.014 A 
ATOM     79  C   UNL A   1      45.036  34.904  29.477  1.00  0.00     0.010 A 
ATOM     80  C   UNL A   1      43.855  33.979  27.592  1.00  0.00     0.010 A 
ATOM     81  C   UNL A   1      46.038  35.370  28.606  1.00  0.00     0.020 A 
ATOM     82  C   UNL A   1      44.838  34.452  26.719  1.00  0.00     0.020 A 
ATOM     83  C   UNL A   1      45.939  35.127  27.234  1.00  0.00     0.054 A 
BRANCH  83  84
ATOM     84  S   UNL A   1      47.312  35.586  26.136  1.00  0.00     0.124 S 
ATOM     85  O   UNL A   1      46.980  36.963  25.783  1.00  0.00    -0.237 OA
ATOM     86  O   UNL A   1      48.477  35.416  26.998  1.00  0.00    -0.237 OA
ATOM     87  O   UNL A   1      47.212  34.624  25.038  1.00  0.00    -0.744 OA
ENDBRANCH  83  84
ENDBRANCH  55  78
BRANCH  67  88
ATOM     88  C   UNL A   1      41.929  30.678  33.952  1.00  0.00    -0.014 A 
ATOM     89  C   UNL A   1      41.271  31.913  34.117  1.00  0.00     0.010 A 
ATOM     90  C   UNL A   1      42.432  30.035  35.099  1.00  0.00     0.010 A 
ATOM     91  C   UNL A   1      41.144  32.499  35.386  1.00  0.00     0.020 A 
ATOM     92  C   UNL A   1      42.291  30.602  36.368  1.00  0.00     0.020 A 
ATOM     93  C   UNL A   1      41.654  31.835  36.507  1.00  0.00     0.054 A 
BRANCH  93  94
ATOM     94  S   UNL A   1      41.427  32.565  38.153  1.00  0.00     0.124 S 
ATOM     95  O   UNL A   1      39.985  32.451  38.356  1.00  0.00    -0.237 OA
ATOM     96  O   UNL A   1      42.251  31.712  39.006  1.00  0.00    -0.237 OA
ATOM     97  O   UNL A   1      41.922  33.933  37.999  1.00  0.00    -0.744 OA
ENDBRANCH  93  94
ENDBRANCH  67  88
ENDBRANCH  41  42
ENDBRANCH  34  36
ENDBRANCH  33  34
ENDBRANCH  32  33
ENDBRANCH   1  32
TORSDOF 19
ENDMDL
