MODEL 1
REMARK VINA RESULT:     -11.3      0.000      0.000
REMARK SMILES CCC[C@@H]1C[N@@H+](Cc2cc(OC)c3c(c2)OCO3)C[C@H]1C(=O)OCCOC(=O)c1ccc(-c2c3nc(c(-c4ccc(S(=O)(=O)[O-])cc4)c4ccc([nH]4)c(-c4ccc(S(=O)(=O)[O-])cc4)c4nc(c(-c5ccc(S(=O)(=O)[O-])cc5)c5ccc2[nH]5)C=C4)C=C3)cc1
REMARK SMILES IDX 24 1 23 2 21 3 22 4 20 5 4 6 5 7 6 8 19 9 3 11 2 12 1 13
REMARK SMILES IDX 7 14 8 15 9 16 15 17 10 18 14 19 13 20 16 21 18 22 17 23
REMARK SMILES IDX 11 24 12 25 25 26 26 27 27 28 28 29 29 30 30 31 88 32 31 33
REMARK SMILES IDX 87 34 32 35 33 36 34 37 81 38 35 39 86 40 80 41 82 42 36 43
REMARK SMILES IDX 85 44 79 45 78 46 37 48 67 49 48 50 66 51 49 52 52 53 65 54
REMARK SMILES IDX 83 55 50 56 51 57 64 59 84 60 53 61 38 62 39 63 47 64 40 65
REMARK SMILES IDX 46 66 41 67 42 68 43 69 44 70 45 71 68 72 69 73 77 74 70 75
REMARK SMILES IDX 76 76 71 77 72 78 73 79 74 80 75 81 54 82 55 83 63 84 56 85
REMARK SMILES IDX 62 86 57 87 58 88 59 89 60 90 61 91
REMARK H PARENT 6 10 82 47 52 58
REMARK Flexibility Score: inf
ROOT
ATOM      1  C   UNL A   1      34.095  29.128  26.324  1.00  0.00     0.274 C 
ENDROOT
BRANCH   1   2
ATOM      2  O   UNL A   1      32.952  29.570  25.546  1.00  0.00    -0.462 OA
BRANCH   2   3
ATOM      3  C   UNL A   1      32.662  28.825  24.449  1.00  0.00     0.315 C 
ATOM      4  O   UNL A   1      33.249  28.929  23.375  1.00  0.00    -0.252 OA
BRANCH   3   5
ATOM      5  C   UNL A   1      31.415  27.973  24.565  1.00  0.00     0.163 C 
ATOM      6  C   UNL A   1      30.473  27.731  23.379  1.00  0.00     0.064 C 
ATOM      7  C   UNL A   1      30.067  26.261  23.610  1.00  0.00     0.267 C 
ATOM      8  N   UNL A   1      31.232  25.584  24.158  1.00  0.00    -0.330 N 
ATOM      9  C   UNL A   1      31.961  26.582  24.937  1.00  0.00     0.278 C 
ATOM     10  H   UNL A   1      30.925  24.822  24.763  1.00  0.00     0.348 HD
BRANCH   6  11
ATOM     11  C   UNL A   1      29.154  28.532  23.267  1.00  0.00     0.010 C 
BRANCH  11  12
ATOM     12  C   UNL A   1      29.206  30.023  22.971  1.00  0.00    -0.003 C 
ATOM     13  C   UNL A   1      27.859  30.707  23.086  1.00  0.00     0.004 C 
ENDBRANCH  11  12
ENDBRANCH   6  11
BRANCH   8  14
ATOM     14  C   UNL A   1      32.031  24.789  23.222  1.00  0.00     0.299 C 
BRANCH  14  15
ATOM     15  C   UNL A   1      32.695  23.539  23.759  1.00  0.00     0.014 A 
ATOM     16  C   UNL A   1      34.099  23.400  23.764  1.00  0.00     0.060 A 
ATOM     17  C   UNL A   1      31.908  22.481  24.240  1.00  0.00     0.060 A 
ATOM     18  C   UNL A   1      34.722  22.211  24.184  1.00  0.00     0.165 A 
ATOM     19  C   UNL A   1      32.536  21.321  24.638  1.00  0.00     0.170 A 
ATOM     20  C   UNL A   1      33.906  21.178  24.611  1.00  0.00     0.207 A 
ATOM     21  O   UNL A   1      31.893  20.210  25.084  1.00  0.00    -0.453 OA
ATOM     22  O   UNL A   1      34.281  19.948  25.059  1.00  0.00    -0.450 OA
ATOM     23  C   UNL A   1      33.005  19.322  25.288  1.00  0.00     0.468 C 
BRANCH  18  24
ATOM     24  O   UNL A   1      36.086  22.218  24.125  1.00  0.00    -0.493 OA
ATOM     25  C   UNL A   1      36.728  23.443  24.460  1.00  0.00     0.278 C 
ENDBRANCH  18  24
ENDBRANCH  14  15
ENDBRANCH   8  14
ENDBRANCH   3   5
ENDBRANCH   2   3
ENDBRANCH   1   2
BRANCH   1  26
ATOM     26  C   UNL A   1      34.360  30.065  27.496  1.00  0.00     0.275 C 
BRANCH  26  27
ATOM     27  O   UNL A   1      35.365  29.448  28.306  1.00  0.00    -0.458 OA
BRANCH  27  28
ATOM     28  C   UNL A   1      36.120  30.270  29.066  1.00  0.00     0.338 C 
ATOM     29  O   UNL A   1      35.742  31.193  29.763  1.00  0.00    -0.246 OA
BRANCH  28  30
ATOM     30  C   UNL A   1      37.520  29.814  28.953  1.00  0.00     0.060 A 
ATOM     31  C   UNL A   1      38.122  29.740  27.691  1.00  0.00     0.016 A 
ATOM     32  C   UNL A   1      38.212  29.390  30.082  1.00  0.00     0.016 A 
ATOM     33  C   UNL A   1      39.403  29.233  27.544  1.00  0.00     0.010 A 
ATOM     34  C   UNL A   1      39.534  28.960  29.947  1.00  0.00     0.010 A 
ATOM     35  C   UNL A   1      40.139  28.888  28.677  1.00  0.00    -0.014 A 
BRANCH  35  36
ATOM     36  C   UNL A   1      41.564  28.513  28.553  1.00  0.00     0.031 A 
ATOM     37  C   UNL A   1      42.627  29.564  28.646  1.00  0.00     0.074 A 
ATOM     38  C   UNL A   1      41.883  27.227  28.303  1.00  0.00     0.049 A 
ATOM     39  N   UNL A   1      43.884  29.491  28.298  1.00  0.00    -0.248 NA
ATOM     40  C   UNL A   1      42.221  30.870  29.191  1.00  0.00     0.031 C 
ATOM     41  C   UNL A   1      40.938  26.106  28.259  1.00  0.00     0.029 A 
ATOM     42  N   UNL A   1      43.093  26.648  28.019  1.00  0.00    -0.354 N 
ATOM     43  C   UNL A   1      44.412  30.753  28.541  1.00  0.00     0.074 A 
ATOM     44  C   UNL A   1      43.342  31.569  29.071  1.00  0.00     0.031 C 
ATOM     45  C   UNL A   1      41.602  24.978  27.966  1.00  0.00     0.029 A 
ATOM     46  C   UNL A   1      42.997  25.310  27.713  1.00  0.00     0.049 A 
ATOM     47  H   UNL A   1      43.945  27.140  28.033  1.00  0.00     0.167 HD
ATOM     48  C   UNL A   1      45.678  31.182  28.324  1.00  0.00     0.031 A 
ATOM     49  C   UNL A   1      43.914  24.459  27.218  1.00  0.00     0.031 A 
ATOM     50  C   UNL A   1      46.726  30.348  27.798  1.00  0.00     0.049 A 
ATOM     51  C   UNL A   1      45.286  24.980  26.911  1.00  0.00     0.074 A 
ATOM     52  C   UNL A   1      48.040  30.685  27.522  1.00  0.00     0.029 A 
ATOM     53  N   UNL A   1      46.581  29.006  27.478  1.00  0.00    -0.354 N 
ATOM     54  N   UNL A   1      45.759  26.192  27.077  1.00  0.00    -0.248 NA
ATOM     55  C   UNL A   1      46.240  24.027  26.331  1.00  0.00     0.031 C 
ATOM     56  C   UNL A   1      48.679  29.553  27.002  1.00  0.00     0.029 A 
ATOM     57  C   UNL A   1      47.777  28.502  26.997  1.00  0.00     0.049 A 
ATOM     58  H   UNL A   1      45.749  28.489  27.580  1.00  0.00     0.167 HD
ATOM     59  C   UNL A   1      47.074  26.146  26.632  1.00  0.00     0.074 A 
ATOM     60  C   UNL A   1      47.323  24.782  26.205  1.00  0.00     0.031 C 
ATOM     61  C   UNL A   1      47.992  27.141  26.577  1.00  0.00     0.031 A 
BRANCH  48  62
ATOM     62  C   UNL A   1      45.985  32.626  28.614  1.00  0.00    -0.014 A 
ATOM     63  C   UNL A   1      45.798  33.622  27.640  1.00  0.00     0.010 A 
ATOM     64  C   UNL A   1      46.421  32.997  29.899  1.00  0.00     0.010 A 
ATOM     65  C   UNL A   1      46.066  34.961  27.939  1.00  0.00     0.020 A 
ATOM     66  C   UNL A   1      46.670  34.338  30.209  1.00  0.00     0.020 A 
ATOM     67  C   UNL A   1      46.502  35.310  29.221  1.00  0.00     0.054 A 
BRANCH  67  68
ATOM     68  S   UNL A   1      46.809  37.060  29.593  1.00  0.00     0.124 S 
ATOM     69  O   UNL A   1      47.453  36.979  30.902  1.00  0.00    -0.237 OA
ATOM     70  O   UNL A   1      47.673  37.477  28.492  1.00  0.00    -0.237 OA
ATOM     71  O   UNL A   1      45.473  37.653  29.592  1.00  0.00    -0.744 OA
ENDBRANCH  67  68
ENDBRANCH  48  62
BRANCH  49  72
ATOM     72  C   UNL A   1      43.534  23.053  26.922  1.00  0.00    -0.014 A 
ATOM     73  C   UNL A   1      43.862  22.471  25.686  1.00  0.00     0.010 A 
ATOM     74  C   UNL A   1      42.867  22.277  27.888  1.00  0.00     0.010 A 
ATOM     75  C   UNL A   1      43.521  21.143  25.418  1.00  0.00     0.020 A 
ATOM     76  C   UNL A   1      42.548  20.941  27.635  1.00  0.00     0.020 A 
ATOM     77  C   UNL A   1      42.867  20.385  26.394  1.00  0.00     0.054 A 
BRANCH  77  78
ATOM     78  S   UNL A   1      42.483  18.645  26.051  1.00  0.00     0.124 S 
ATOM     79  O   UNL A   1      41.062  18.708  25.725  1.00  0.00    -0.237 OA
ATOM     80  O   UNL A   1      43.375  18.335  24.936  1.00  0.00    -0.237 OA
ATOM     81  O   UNL A   1      42.812  17.972  27.305  1.00  0.00    -0.744 OA
ENDBRANCH  77  78
ENDBRANCH  49  72
BRANCH  61  82
ATOM     82  C   UNL A   1      49.357  26.774  26.069  1.00  0.00    -0.014 A 
ATOM     83  C   UNL A   1      50.256  26.050  26.869  1.00  0.00     0.010 A 
ATOM     84  C   UNL A   1      49.726  27.131  24.760  1.00  0.00     0.010 A 
ATOM     85  C   UNL A   1      51.518  25.712  26.377  1.00  0.00     0.020 A 
ATOM     86  C   UNL A   1      50.979  26.775  24.258  1.00  0.00     0.020 A 
ATOM     87  C   UNL A   1      51.872  26.080  25.075  1.00  0.00     0.054 A 
BRANCH  87  88
ATOM     88  S   UNL A   1      53.502  25.598  24.442  1.00  0.00     0.124 S 
ATOM     89  O   UNL A   1      53.356  25.844  23.011  1.00  0.00    -0.237 OA
ATOM     90  O   UNL A   1      54.403  26.507  25.147  1.00  0.00    -0.237 OA
ATOM     91  O   UNL A   1      53.620  24.193  24.826  1.00  0.00    -0.744 OA
ENDBRANCH  87  88
ENDBRANCH  61  82
ENDBRANCH  35  36
ENDBRANCH  28  30
ENDBRANCH  27  28
ENDBRANCH  26  27
ENDBRANCH   1  26
TORSDOF 19
ENDMDL
MODEL 2
REMARK VINA RESULT:     -11.1      4.872     10.799
REMARK SMILES CCC[C@@H]1C[N@@H+](Cc2cc(OC)c3c(c2)OCO3)C[C@H]1C(=O)OCCOC(=O)c1ccc(-c2c3nc(c(-c4ccc(S(=O)(=O)[O-])cc4)c4ccc([nH]4)c(-c4ccc(S(=O)(=O)[O-])cc4)c4nc(c(-c5ccc(S(=O)(=O)[O-])cc5)c5ccc2[nH]5)C=C4)C=C3)cc1
REMARK SMILES IDX 24 1 23 2 21 3 22 4 20 5 4 6 5 7 6 8 19 9 3 11 2 12 1 13
REMARK SMILES IDX 7 14 8 15 9 16 15 17 10 18 14 19 13 20 16 21 18 22 17 23
REMARK SMILES IDX 11 24 12 25 25 26 26 27 27 28 28 29 29 30 30 31 88 32 31 33
REMARK SMILES IDX 87 34 32 35 33 36 34 37 81 38 35 39 86 40 80 41 82 42 36 43
REMARK SMILES IDX 85 44 79 45 78 46 37 48 67 49 48 50 66 51 49 52 52 53 65 54
REMARK SMILES IDX 83 55 50 56 51 57 64 59 84 60 53 61 38 62 39 63 47 64 40 65
REMARK SMILES IDX 46 66 41 67 42 68 43 69 44 70 45 71 68 72 69 73 77 74 70 75
REMARK SMILES IDX 76 76 71 77 72 78 73 79 74 80 75 81 54 82 55 83 63 84 56 85
REMARK SMILES IDX 62 86 57 87 58 88 59 89 60 90 61 91
REMARK H PARENT 6 10 82 47 52 58
REMARK Flexibility Score: inf
ROOT
ATOM      1  C   UNL A   1      36.030  23.544  23.932  1.00  0.00     0.274 C 
ENDROOT
BRANCH   1   2
ATOM      2  O   UNL A   1      34.605  23.656  24.187  1.00  0.00    -0.462 OA
BRANCH   2   3
ATOM      3  C   UNL A   1      33.792  23.170  23.215  1.00  0.00     0.315 C 
ATOM      4  O   UNL A   1      33.975  23.353  22.014  1.00  0.00    -0.252 OA
BRANCH   3   5
ATOM      5  C   UNL A   1      32.507  22.538  23.709  1.00  0.00     0.163 C 
ATOM      6  C   UNL A   1      32.343  22.029  25.146  1.00  0.00     0.064 C 
ATOM      7  C   UNL A   1      30.877  22.411  25.437  1.00  0.00     0.267 C 
ATOM      8  N   UNL A   1      30.627  23.669  24.753  1.00  0.00    -0.330 N 
ATOM      9  C   UNL A   1      31.469  23.665  23.558  1.00  0.00     0.278 C 
ATOM     10  H   UNL A   1      29.643  23.719  24.487  1.00  0.00     0.348 HD
BRANCH   6  11
ATOM     11  C   UNL A   1      32.465  20.516  25.446  1.00  0.00     0.010 C 
BRANCH  11  12
ATOM     12  C   UNL A   1      32.589  19.531  24.294  1.00  0.00    -0.003 C 
ATOM     13  C   UNL A   1      33.861  18.709  24.339  1.00  0.00     0.004 C 
ENDBRANCH  11  12
ENDBRANCH   6  11
BRANCH   8  14
ATOM     14  C   UNL A   1      30.676  24.884  25.570  1.00  0.00     0.299 C 
BRANCH  14  15
ATOM     15  C   UNL A   1      30.538  26.212  24.857  1.00  0.00     0.014 A 
ATOM     16  C   UNL A   1      31.542  27.199  24.946  1.00  0.00     0.060 A 
ATOM     17  C   UNL A   1      29.381  26.487  24.111  1.00  0.00     0.060 A 
ATOM     18  C   UNL A   1      31.385  28.466  24.354  1.00  0.00     0.165 A 
ATOM     19  C   UNL A   1      29.243  27.736  23.548  1.00  0.00     0.170 A 
ATOM     20  C   UNL A   1      30.212  28.708  23.664  1.00  0.00     0.207 A 
ATOM     21  O   UNL A   1      28.158  28.146  22.838  1.00  0.00    -0.453 OA
ATOM     22  O   UNL A   1      29.844  29.849  23.016  1.00  0.00    -0.450 OA
ATOM     23  C   UNL A   1      28.522  29.509  22.559  1.00  0.00     0.468 C 
BRANCH  18  24
ATOM     24  O   UNL A   1      32.435  29.322  24.531  1.00  0.00    -0.493 OA
ATOM     25  C   UNL A   1      32.457  30.053  25.751  1.00  0.00     0.278 C 
ENDBRANCH  18  24
ENDBRANCH  14  15
ENDBRANCH   8  14
ENDBRANCH   3   5
ENDBRANCH   2   3
ENDBRANCH   1   2
BRANCH   1  26
ATOM     26  C   UNL A   1      36.763  22.975  25.140  1.00  0.00     0.275 C 
BRANCH  26  27
ATOM     27  O   UNL A   1      38.109  23.454  25.077  1.00  0.00    -0.458 OA
BRANCH  27  28
ATOM     28  C   UNL A   1      38.936  23.074  26.073  1.00  0.00     0.338 C 
ATOM     29  O   UNL A   1      39.339  21.951  26.318  1.00  0.00    -0.246 OA
BRANCH  28  30
ATOM     30  C   UNL A   1      39.331  24.291  26.810  1.00  0.00     0.060 A 
ATOM     31  C   UNL A   1      38.871  24.486  28.117  1.00  0.00     0.016 A 
ATOM     32  C   UNL A   1      40.092  25.273  26.184  1.00  0.00     0.016 A 
ATOM     33  C   UNL A   1      39.151  25.658  28.801  1.00  0.00     0.010 A 
ATOM     34  C   UNL A   1      40.447  26.417  26.902  1.00  0.00     0.010 A 
ATOM     35  C   UNL A   1      39.985  26.611  28.218  1.00  0.00    -0.014 A 
BRANCH  35  36
ATOM     36  C   UNL A   1      40.436  27.783  28.999  1.00  0.00     0.031 A 
ATOM     37  C   UNL A   1      41.725  27.726  29.760  1.00  0.00     0.074 A 
ATOM     38  C   UNL A   1      39.646  28.874  29.057  1.00  0.00     0.049 A 
ATOM     39  N   UNL A   1      42.155  28.520  30.703  1.00  0.00    -0.248 NA
ATOM     40  C   UNL A   1      42.645  26.628  29.423  1.00  0.00     0.031 C 
ATOM     41  C   UNL A   1      38.403  29.068  28.303  1.00  0.00     0.029 A 
ATOM     42  N   UNL A   1      39.764  30.021  29.799  1.00  0.00    -0.354 N 
ATOM     43  C   UNL A   1      43.377  27.996  31.106  1.00  0.00     0.074 A 
ATOM     44  C   UNL A   1      43.622  26.820  30.300  1.00  0.00     0.031 C 
ATOM     45  C   UNL A   1      37.874  30.259  28.622  1.00  0.00     0.029 A 
ATOM     46  C   UNL A   1      38.689  30.868  29.663  1.00  0.00     0.049 A 
ATOM     47  H   UNL A   1      40.540  30.218  30.371  1.00  0.00     0.167 HD
ATOM     48  C   UNL A   1      44.205  28.457  32.072  1.00  0.00     0.031 A 
ATOM     49  C   UNL A   1      38.359  31.978  30.349  1.00  0.00     0.031 A 
ATOM     50  C   UNL A   1      43.939  29.633  32.859  1.00  0.00     0.049 A 
ATOM     51  C   UNL A   1      39.252  32.423  31.469  1.00  0.00     0.074 A 
ATOM     52  C   UNL A   1      44.700  30.182  33.876  1.00  0.00     0.029 A 
ATOM     53  N   UNL A   1      42.827  30.449  32.706  1.00  0.00    -0.354 N 
ATOM     54  N   UNL A   1      40.369  31.881  31.891  1.00  0.00    -0.248 NA
ATOM     55  C   UNL A   1      38.830  33.612  32.217  1.00  0.00     0.031 C 
ATOM     56  C   UNL A   1      44.029  31.310  34.363  1.00  0.00     0.029 A 
ATOM     57  C   UNL A   1      42.874  31.490  33.618  1.00  0.00     0.049 A 
ATOM     58  H   UNL A   1      42.110  30.308  32.046  1.00  0.00     0.167 HD
ATOM     59  C   UNL A   1      40.793  32.673  32.950  1.00  0.00     0.074 A 
ATOM     60  C   UNL A   1      39.818  33.737  33.092  1.00  0.00     0.031 C 
ATOM     61  C   UNL A   1      41.887  32.532  33.737  1.00  0.00     0.031 A 
BRANCH  48  62
ATOM     62  C   UNL A   1      45.451  27.667  32.361  1.00  0.00    -0.014 A 
ATOM     63  C   UNL A   1      46.708  28.087  31.894  1.00  0.00     0.010 A 
ATOM     64  C   UNL A   1      45.367  26.509  33.157  1.00  0.00     0.010 A 
ATOM     65  C   UNL A   1      47.856  27.351  32.197  1.00  0.00     0.020 A 
ATOM     66  C   UNL A   1      46.517  25.780  33.479  1.00  0.00     0.020 A 
ATOM     67  C   UNL A   1      47.753  26.201  32.985  1.00  0.00     0.054 A 
BRANCH  67  68
ATOM     68  S   UNL A   1      49.265  25.282  33.393  1.00  0.00     0.124 S 
ATOM     69  O   UNL A   1      48.724  24.066  33.995  1.00  0.00    -0.237 OA
ATOM     70  O   UNL A   1      49.898  25.108  32.088  1.00  0.00    -0.237 OA
ATOM     71  O   UNL A   1      49.973  26.171  34.311  1.00  0.00    -0.744 OA
ENDBRANCH  67  68
ENDBRANCH  48  62
BRANCH  49  72
ATOM     72  C   UNL A   1      37.094  32.693  30.035  1.00  0.00    -0.014 A 
ATOM     73  C   UNL A   1      35.950  32.499  30.826  1.00  0.00     0.010 A 
ATOM     74  C   UNL A   1      37.037  33.597  28.958  1.00  0.00     0.010 A 
ATOM     75  C   UNL A   1      34.768  33.188  30.540  1.00  0.00     0.020 A 
ATOM     76  C   UNL A   1      35.866  34.308  28.684  1.00  0.00     0.020 A 
ATOM     77  C   UNL A   1      34.733  34.089  29.471  1.00  0.00     0.054 A 
BRANCH  77  78
ATOM     78  S   UNL A   1      33.208  35.018  29.149  1.00  0.00     0.124 S 
ATOM     79  O   UNL A   1      32.594  35.057  30.472  1.00  0.00    -0.237 OA
ATOM     80  O   UNL A   1      33.711  36.294  28.646  1.00  0.00    -0.237 OA
ATOM     81  O   UNL A   1      32.515  34.198  28.158  1.00  0.00    -0.744 OA
ENDBRANCH  77  78
ENDBRANCH  49  72
BRANCH  61  82
ATOM     82  C   UNL A   1      42.098  33.576  34.796  1.00  0.00    -0.014 A 
ATOM     83  C   UNL A   1      41.643  33.375  36.109  1.00  0.00     0.010 A 
ATOM     84  C   UNL A   1      42.791  34.756  34.474  1.00  0.00     0.010 A 
ATOM     85  C   UNL A   1      41.854  34.354  37.082  1.00  0.00     0.020 A 
ATOM     86  C   UNL A   1      43.022  35.727  35.450  1.00  0.00     0.020 A 
ATOM     87  C   UNL A   1      42.540  35.526  36.745  1.00  0.00     0.054 A 
BRANCH  87  88
ATOM     88  S   UNL A   1      42.837  36.768  38.032  1.00  0.00     0.124 S 
ATOM     89  O   UNL A   1      43.559  37.801  37.296  1.00  0.00    -0.237 OA
ATOM     90  O   UNL A   1      41.484  37.126  38.452  1.00  0.00    -0.237 OA
ATOM     91  O   UNL A   1      43.621  36.048  39.032  1.00  0.00    -0.744 OA
ENDBRANCH  87  88
ENDBRANCH  61  82
ENDBRANCH  35  36
ENDBRANCH  28  30
ENDBRANCH  27  28
ENDBRANCH  26  27
ENDBRANCH   1  26
TORSDOF 19
ENDMDL
MODEL 3
REMARK VINA RESULT:     -10.9      2.435      9.339
REMARK SMILES CCC[C@@H]1C[N@@H+](Cc2cc(OC)c3c(c2)OCO3)C[C@H]1C(=O)OCCOC(=O)c1ccc(-c2c3nc(c(-c4ccc(S(=O)(=O)[O-])cc4)c4ccc([nH]4)c(-c4ccc(S(=O)(=O)[O-])cc4)c4nc(c(-c5ccc(S(=O)(=O)[O-])cc5)c5ccc2[nH]5)C=C4)C=C3)cc1
REMARK SMILES IDX 24 1 23 2 21 3 22 4 20 5 4 6 5 7 6 8 19 9 3 11 2 12 1 13
REMARK SMILES IDX 7 14 8 15 9 16 15 17 10 18 14 19 13 20 16 21 18 22 17 23
REMARK SMILES IDX 11 24 12 25 25 26 26 27 27 28 28 29 29 30 30 31 88 32 31 33
REMARK SMILES IDX 87 34 32 35 33 36 34 37 81 38 35 39 86 40 80 41 82 42 36 43
REMARK SMILES IDX 85 44 79 45 78 46 37 48 67 49 48 50 66 51 49 52 52 53 65 54
REMARK SMILES IDX 83 55 50 56 51 57 64 59 84 60 53 61 38 62 39 63 47 64 40 65
REMARK SMILES IDX 46 66 41 67 42 68 43 69 44 70 45 71 68 72 69 73 77 74 70 75
REMARK SMILES IDX 76 76 71 77 72 78 73 79 74 80 75 81 54 82 55 83 63 84 56 85
REMARK SMILES IDX 62 86 57 87 58 88 59 89 60 90 61 91
REMARK H PARENT 6 10 82 47 52 58
REMARK Flexibility Score: inf
ROOT
ATOM      1  C   UNL A   1      35.300  32.471  32.773  1.00  0.00     0.274 C 
ENDROOT
BRANCH   1   2
ATOM      2  O   UNL A   1      34.701  32.220  31.474  1.00  0.00    -0.462 OA
BRANCH   2   3
ATOM      3  C   UNL A   1      34.505  33.314  30.695  1.00  0.00     0.315 C 
ATOM      4  O   UNL A   1      33.765  34.247  30.997  1.00  0.00    -0.252 OA
BRANCH   3   5
ATOM      5  C   UNL A   1      35.111  33.231  29.309  1.00  0.00     0.163 C 
ATOM      6  C   UNL A   1      36.426  32.493  29.032  1.00  0.00     0.064 C 
ATOM      7  C   UNL A   1      36.135  31.864  27.653  1.00  0.00     0.267 C 
ATOM      8  N   UNL A   1      34.727  31.502  27.645  1.00  0.00    -0.330 N 
ATOM      9  C   UNL A   1      34.044  32.477  28.493  1.00  0.00     0.278 C 
ATOM     10  H   UNL A   1      34.370  31.557  26.691  1.00  0.00     0.348 HD
BRANCH   6  11
ATOM     11  C   UNL A   1      37.741  33.294  28.874  1.00  0.00     0.010 C 
BRANCH  11  12
ATOM     12  C   UNL A   1      38.424  33.863  30.108  1.00  0.00    -0.003 C 
ATOM     13  C   UNL A   1      39.560  33.001  30.619  1.00  0.00     0.004 C 
ENDBRANCH  11  12
ENDBRANCH   6  11
BRANCH   8  14
ATOM     14  C   UNL A   1      34.408  30.095  27.898  1.00  0.00     0.299 C 
BRANCH  14  15
ATOM     15  C   UNL A   1      33.525  29.387  26.892  1.00  0.00     0.014 A 
ATOM     16  C   UNL A   1      32.620  28.382  27.291  1.00  0.00     0.060 A 
ATOM     17  C   UNL A   1      33.620  29.712  25.530  1.00  0.00     0.060 A 
ATOM     18  C   UNL A   1      31.856  27.662  26.354  1.00  0.00     0.165 A 
ATOM     19  C   UNL A   1      32.871  28.990  24.628  1.00  0.00     0.170 A 
ATOM     20  C   UNL A   1      32.011  27.987  25.019  1.00  0.00     0.207 A 
ATOM     21  O   UNL A   1      32.898  29.173  23.280  1.00  0.00    -0.453 OA
ATOM     22  O   UNL A   1      31.382  27.432  23.945  1.00  0.00    -0.450 OA
ATOM     23  C   UNL A   1      31.998  28.137  22.852  1.00  0.00     0.468 C 
BRANCH  18  24
ATOM     24  O   UNL A   1      31.030  26.713  26.885  1.00  0.00    -0.493 OA
ATOM     25  C   UNL A   1      31.205  25.383  26.410  1.00  0.00     0.278 C 
ENDBRANCH  18  24
ENDBRANCH  14  15
ENDBRANCH   8  14
ENDBRANCH   3   5
ENDBRANCH   2   3
ENDBRANCH   1   2
BRANCH   1  26
ATOM     26  C   UNL A   1      36.674  31.822  32.880  1.00  0.00     0.275 C 
BRANCH  26  27
ATOM     27  O   UNL A   1      36.688  30.717  31.973  1.00  0.00    -0.458 OA
BRANCH  27  28
ATOM     28  C   UNL A   1      37.347  29.610  32.376  1.00  0.00     0.338 C 
ATOM     29  O   UNL A   1      37.022  28.828  33.250  1.00  0.00    -0.246 OA
BRANCH  28  30
ATOM     30  C   UNL A   1      38.539  29.467  31.516  1.00  0.00     0.060 A 
ATOM     31  C   UNL A   1      39.791  29.248  32.102  1.00  0.00     0.016 A 
ATOM     32  C   UNL A   1      38.431  29.623  30.138  1.00  0.00     0.016 A 
ATOM     33  C   UNL A   1      40.939  29.198  31.328  1.00  0.00     0.010 A 
ATOM     34  C   UNL A   1      39.575  29.487  29.348  1.00  0.00     0.010 A 
ATOM     35  C   UNL A   1      40.834  29.265  29.940  1.00  0.00    -0.014 A 
BRANCH  35  36
ATOM     36  C   UNL A   1      42.024  29.038  29.092  1.00  0.00     0.031 A 
ATOM     37  C   UNL A   1      42.276  27.685  28.501  1.00  0.00     0.074 A 
ATOM     38  C   UNL A   1      42.898  30.048  28.907  1.00  0.00     0.049 A 
ATOM     39  N   UNL A   1      43.373  27.214  27.971  1.00  0.00    -0.248 NA
ATOM     40  C   UNL A   1      41.152  26.735  28.516  1.00  0.00     0.031 C 
ATOM     41  C   UNL A   1      42.722  31.426  29.377  1.00  0.00     0.029 A 
ATOM     42  N   UNL A   1      44.121  30.065  28.288  1.00  0.00    -0.354 N 
ATOM     43  C   UNL A   1      43.088  25.899  27.628  1.00  0.00     0.074 A 
ATOM     44  C   UNL A   1      41.714  25.648  28.003  1.00  0.00     0.031 C 
ATOM     45  C   UNL A   1      43.795  32.152  29.031  1.00  0.00     0.029 A 
ATOM     46  C   UNL A   1      44.769  31.273  28.398  1.00  0.00     0.049 A 
ATOM     47  H   UNL A   1      44.498  29.290  27.812  1.00  0.00     0.167 HD
ATOM     48  C   UNL A   1      43.914  24.987  27.062  1.00  0.00     0.031 A 
ATOM     49  C   UNL A   1      46.031  31.620  28.087  1.00  0.00     0.031 A 
ATOM     50  C   UNL A   1      45.278  25.262  26.695  1.00  0.00     0.049 A 
ATOM     51  C   UNL A   1      46.950  30.570  27.537  1.00  0.00     0.074 A 
ATOM     52  C   UNL A   1      46.209  24.408  26.132  1.00  0.00     0.029 A 
ATOM     53  N   UNL A   1      45.903  26.492  26.846  1.00  0.00    -0.354 N 
ATOM     54  N   UNL A   1      46.694  29.310  27.281  1.00  0.00    -0.248 NA
ATOM     55  C   UNL A   1      48.329  30.982  27.253  1.00  0.00     0.031 C 
ATOM     56  C   UNL A   1      47.409  25.112  25.975  1.00  0.00     0.029 A 
ATOM     57  C   UNL A   1      47.210  26.417  26.398  1.00  0.00     0.049 A 
ATOM     58  H   UNL A   1      45.477  27.299  27.217  1.00  0.00     0.167 HD
ATOM     59  C   UNL A   1      47.880  28.777  26.793  1.00  0.00     0.074 A 
ATOM     60  C   UNL A   1      48.847  29.858  26.777  1.00  0.00     0.031 C 
ATOM     61  C   UNL A   1      48.149  27.509  26.398  1.00  0.00     0.031 A 
BRANCH  48  62
ATOM     62  C   UNL A   1      43.378  23.598  26.847  1.00  0.00    -0.014 A 
ATOM     63  C   UNL A   1      43.028  23.141  25.564  1.00  0.00     0.010 A 
ATOM     64  C   UNL A   1      43.271  22.719  27.940  1.00  0.00     0.010 A 
ATOM     65  C   UNL A   1      42.556  21.838  25.384  1.00  0.00     0.020 A 
ATOM     66  C   UNL A   1      42.819  21.408  27.761  1.00  0.00     0.020 A 
ATOM     67  C   UNL A   1      42.452  20.981  26.483  1.00  0.00     0.054 A 
BRANCH  67  68
ATOM     68  S   UNL A   1      41.871  19.282  26.215  1.00  0.00     0.124 S 
ATOM     69  O   UNL A   1      42.665  18.872  25.059  1.00  0.00    -0.237 OA
ATOM     70  O   UNL A   1      42.210  18.623  27.474  1.00  0.00    -0.237 OA
ATOM     71  O   UNL A   1      40.440  19.441  25.964  1.00  0.00    -0.744 OA
ENDBRANCH  67  68
ENDBRANCH  48  62
BRANCH  49  72
ATOM     72  C   UNL A   1      46.507  33.002  28.358  1.00  0.00    -0.014 A 
ATOM     73  C   UNL A   1      47.111  33.320  29.585  1.00  0.00     0.010 A 
ATOM     74  C   UNL A   1      46.386  34.002  27.375  1.00  0.00     0.010 A 
ATOM     75  C   UNL A   1      47.575  34.616  29.830  1.00  0.00     0.020 A 
ATOM     76  C   UNL A   1      46.872  35.291  27.605  1.00  0.00     0.020 A 
ATOM     77  C   UNL A   1      47.454  35.593  28.838  1.00  0.00     0.054 A 
BRANCH  77  78
ATOM     78  S   UNL A   1      48.114  37.255  29.150  1.00  0.00     0.124 S 
ATOM     79  O   UNL A   1      49.351  37.238  28.377  1.00  0.00    -0.237 OA
ATOM     80  O   UNL A   1      47.056  38.121  28.636  1.00  0.00    -0.237 OA
ATOM     81  O   UNL A   1      48.280  37.285  30.602  1.00  0.00    -0.744 OA
ENDBRANCH  77  78
ENDBRANCH  49  72
BRANCH  61  82
ATOM     82  C   UNL A   1      49.534  27.240  25.884  1.00  0.00    -0.014 A 
ATOM     83  C   UNL A   1      50.566  26.853  26.755  1.00  0.00     0.010 A 
ATOM     84  C   UNL A   1      49.792  27.344  24.506  1.00  0.00     0.010 A 
ATOM     85  C   UNL A   1      51.845  26.600  26.258  1.00  0.00     0.020 A 
ATOM     86  C   UNL A   1      51.065  27.071  24.003  1.00  0.00     0.020 A 
ATOM     87  C   UNL A   1      52.088  26.714  24.885  1.00  0.00     0.054 A 
BRANCH  87  88
ATOM     88  S   UNL A   1      53.747  26.344  24.254  1.00  0.00     0.124 S 
ATOM     89  O   UNL A   1      54.569  27.304  24.984  1.00  0.00    -0.237 OA
ATOM     90  O   UNL A   1      53.931  24.944  24.631  1.00  0.00    -0.237 OA
ATOM     91  O   UNL A   1      53.632  26.584  22.818  1.00  0.00    -0.744 OA
ENDBRANCH  87  88
ENDBRANCH  61  82
ENDBRANCH  35  36
ENDBRANCH  28  30
ENDBRANCH  27  28
ENDBRANCH  26  27
ENDBRANCH   1  26
TORSDOF 19
ENDMDL
