MODEL 1
REMARK VINA RESULT:     -11.1      0.000      0.000
REMARK SMILES Nc1nc(N2CCCCC2)nc2c1[C@H](C(=O)OCCOC(=O)c1ccc(-c3c4nc(c(-c5ccc(S(=O)(=O)[O-])cc5)c5ccc([nH]5)c(-c5ccc(S(=O)(=O)[O-])cc5)c5nc(c(-c6ccc(S(=O)(=O)[O-])cc6)c6ccc3[nH]6)C=C5)C=C4)cc1)CC(=O)N2
REMARK SMILES IDX 19 1 18 2 17 3 15 4 16 5 14 6 2 7 3 8 13 9 4 10 12 11 11 12
REMARK SMILES IDX 86 13 83 14 84 15 85 17 1 18 5 21 6 22 10 23 7 24 9 25 8 26
REMARK SMILES IDX 20 27 21 28 22 29 23 30 24 31 82 32 25 33 81 34 26 35 27 36
REMARK SMILES IDX 28 37 75 38 29 39 80 40 74 41 76 42 30 43 79 44 73 45 72 46
REMARK SMILES IDX 31 48 61 49 42 50 60 51 43 52 46 53 59 54 77 55 44 56 45 57
REMARK SMILES IDX 58 59 78 60 47 61 32 62 33 63 41 64 34 65 40 66 35 67 36 68
REMARK SMILES IDX 37 69 38 70 39 71 62 72 63 73 71 74 64 75 70 76 65 77 66 78
REMARK SMILES IDX 67 79 68 80 69 81 48 82 49 83 57 84 50 85 56 86 51 87 52 88
REMARK SMILES IDX 53 89 54 90 55 91
REMARK H PARENT 86 16 1 19 1 20 76 47 46 58
REMARK Flexibility Score: inf
ROOT
ATOM      1  C   UNL A   1      33.193  32.376  27.660  1.00  0.00     0.275 C 
ENDROOT
BRANCH   1   2
ATOM      2  C   UNL A   1      33.186  33.906  27.763  1.00  0.00     0.274 C 
BRANCH   2   3
ATOM      3  O   UNL A   1      34.116  34.365  28.764  1.00  0.00    -0.462 OA
BRANCH   3   4
ATOM      4  C   UNL A   1      33.732  35.454  29.489  1.00  0.00     0.314 C 
ATOM      5  O   UNL A   1      33.679  36.591  29.039  1.00  0.00    -0.252 OA
BRANCH   4   6
ATOM      6  C   UNL A   1      33.261  35.061  30.883  1.00  0.00     0.146 C 
ATOM      7  C   UNL A   1      34.934  33.367  31.774  1.00  0.00     0.135 A 
ATOM      8  N   UNL A   1      35.992  33.059  32.530  1.00  0.00    -0.196 NA
ATOM      9  C   UNL A   1      34.378  34.627  31.779  1.00  0.00     0.052 A 
ATOM     10  C   UNL A   1      36.491  34.007  33.338  1.00  0.00     0.229 A 
ATOM     11  C   UNL A   1      34.965  35.529  32.635  1.00  0.00     0.144 A 
ATOM     12  N   UNL A   1      35.998  35.245  33.428  1.00  0.00    -0.195 NA
ATOM     13  N   UNL A   1      34.494  36.834  32.680  1.00  0.00    -0.310 N 
ATOM     14  C   UNL A   1      32.454  36.199  31.511  1.00  0.00     0.120 C 
ATOM     15  C   UNL A   1      33.350  37.270  32.081  1.00  0.00     0.226 C 
ATOM     16  H   UNL A   1      35.026  37.493  33.182  1.00  0.00     0.171 HD
ATOM     17  O   UNL A   1      33.026  38.452  32.119  1.00  0.00    -0.275 OA
BRANCH   7  18
ATOM     18  N   UNL A   1      34.384  32.324  31.057  1.00  0.00    -0.383 N 
ATOM     19  H   UNL A   1      34.613  31.394  31.288  1.00  0.00     0.158 HD
ATOM     20  H   UNL A   1      33.765  32.509  30.315  1.00  0.00     0.158 HD
ENDBRANCH   7  18
BRANCH  10  21
ATOM     21  N   UNL A   1      37.573  33.694  34.109  1.00  0.00    -0.341 N 
ATOM     22  C   UNL A   1      38.725  34.566  34.114  1.00  0.00     0.119 C 
ATOM     23  C   UNL A   1      37.585  32.469  34.875  1.00  0.00     0.119 C 
ATOM     24  C   UNL A   1      39.969  33.777  33.725  1.00  0.00     0.022 C 
ATOM     25  C   UNL A   1      38.818  31.655  34.469  1.00  0.00     0.022 C 
ATOM     26  C   UNL A   1      40.095  32.495  34.551  1.00  0.00     0.004 C 
ENDBRANCH  10  21
ENDBRANCH   4   6
ENDBRANCH   3   4
ENDBRANCH   2   3
ENDBRANCH   1   2
BRANCH   1  27
ATOM     27  O   UNL A   1      34.436  31.802  28.106  1.00  0.00    -0.458 OA
BRANCH  27  28
ATOM     28  C   UNL A   1      34.521  30.451  28.003  1.00  0.00     0.338 C 
ATOM     29  O   UNL A   1      33.639  29.700  27.628  1.00  0.00    -0.246 OA
BRANCH  28  30
ATOM     30  C   UNL A   1      35.918  30.015  28.229  1.00  0.00     0.060 A 
ATOM     31  C   UNL A   1      36.241  29.495  29.488  1.00  0.00     0.016 A 
ATOM     32  C   UNL A   1      36.902  30.120  27.244  1.00  0.00     0.016 A 
ATOM     33  C   UNL A   1      37.526  29.032  29.755  1.00  0.00     0.010 A 
ATOM     34  C   UNL A   1      38.205  29.693  27.525  1.00  0.00     0.010 A 
ATOM     35  C   UNL A   1      38.520  29.142  28.779  1.00  0.00    -0.014 A 
BRANCH  35  36
ATOM     36  C   UNL A   1      39.908  28.755  29.112  1.00  0.00     0.031 A 
ATOM     37  C   UNL A   1      40.778  29.720  29.863  1.00  0.00     0.074 A 
ATOM     38  C   UNL A   1      40.362  27.529  28.795  1.00  0.00     0.049 A 
ATOM     39  N   UNL A   1      42.029  29.600  30.216  1.00  0.00    -0.248 NA
ATOM     40  C   UNL A   1      40.146  30.981  30.285  1.00  0.00     0.031 C 
ATOM     41  C   UNL A   1      39.571  26.472  28.165  1.00  0.00     0.029 A 
ATOM     42  N   UNL A   1      41.600  26.965  28.971  1.00  0.00    -0.354 N 
ATOM     43  C   UNL A   1      42.338  30.764  30.907  1.00  0.00     0.074 A 
ATOM     44  C   UNL A   1      41.150  31.590  30.902  1.00  0.00     0.031 C 
ATOM     45  C   UNL A   1      40.346  25.386  28.006  1.00  0.00     0.029 A 
ATOM     46  C   UNL A   1      41.695  25.686  28.479  1.00  0.00     0.049 A 
ATOM     47  H   UNL A   1      42.348  27.433  29.407  1.00  0.00     0.167 HD
ATOM     48  C   UNL A   1      43.508  31.110  31.495  1.00  0.00     0.031 A 
ATOM     49  C   UNL A   1      42.758  24.860  28.402  1.00  0.00     0.031 A 
ATOM     50  C   UNL A   1      44.698  30.299  31.457  1.00  0.00     0.049 A 
ATOM     51  C   UNL A   1      44.086  25.327  28.935  1.00  0.00     0.074 A 
ATOM     52  C   UNL A   1      45.950  30.583  31.974  1.00  0.00     0.029 A 
ATOM     53  N   UNL A   1      44.784  29.047  30.866  1.00  0.00    -0.354 N 
ATOM     54  N   UNL A   1      44.383  26.453  29.539  1.00  0.00    -0.248 NA
ATOM     55  C   UNL A   1      45.222  24.408  28.781  1.00  0.00     0.031 C 
ATOM     56  C   UNL A   1      46.807  29.527  31.646  1.00  0.00     0.029 A 
ATOM     57  C   UNL A   1      46.072  28.552  30.990  1.00  0.00     0.049 A 
ATOM     58  H   UNL A   1      44.040  28.579  30.423  1.00  0.00     0.167 HD
ATOM     59  C   UNL A   1      45.731  26.363  29.872  1.00  0.00     0.074 A 
ATOM     60  C   UNL A   1      46.189  25.069  29.405  1.00  0.00     0.031 C 
ATOM     61  C   UNL A   1      46.515  27.264  30.517  1.00  0.00     0.031 A 
BRANCH  48  62
ATOM     62  C   UNL A   1      43.567  32.444  32.191  1.00  0.00    -0.014 A 
ATOM     63  C   UNL A   1      43.597  33.645  31.458  1.00  0.00     0.010 A 
ATOM     64  C   UNL A   1      43.557  32.501  33.596  1.00  0.00     0.010 A 
ATOM     65  C   UNL A   1      43.651  34.876  32.119  1.00  0.00     0.020 A 
ATOM     66  C   UNL A   1      43.582  33.730  34.260  1.00  0.00     0.020 A 
ATOM     67  C   UNL A   1      43.644  34.910  33.517  1.00  0.00     0.054 A 
BRANCH  67  68
ATOM     68  S   UNL A   1      43.697  36.523  34.345  1.00  0.00     0.124 S 
ATOM     69  O   UNL A   1      44.283  36.179  35.638  1.00  0.00    -0.237 OA
ATOM     70  O   UNL A   1      44.550  37.309  33.457  1.00  0.00    -0.237 OA
ATOM     71  O   UNL A   1      42.297  36.939  34.389  1.00  0.00    -0.744 OA
ENDBRANCH  67  68
ENDBRANCH  48  62
BRANCH  49  72
ATOM     72  C   UNL A   1      42.606  23.510  27.792  1.00  0.00    -0.014 A 
ATOM     73  C   UNL A   1      42.882  23.307  26.429  1.00  0.00     0.010 A 
ATOM     74  C   UNL A   1      42.201  22.413  28.576  1.00  0.00     0.010 A 
ATOM     75  C   UNL A   1      42.753  22.036  25.860  1.00  0.00     0.020 A 
ATOM     76  C   UNL A   1      42.097  21.135  28.017  1.00  0.00     0.020 A 
ATOM     77  C   UNL A   1      42.367  20.957  26.660  1.00  0.00     0.054 A 
BRANCH  77  78
ATOM     78  S   UNL A   1      42.264  19.308  25.909  1.00  0.00     0.124 S 
ATOM     79  O   UNL A   1      40.833  19.176  25.657  1.00  0.00    -0.237 OA
ATOM     80  O   UNL A   1      43.104  19.450  24.724  1.00  0.00    -0.237 OA
ATOM     81  O   UNL A   1      42.800  18.425  26.943  1.00  0.00    -0.744 OA
ENDBRANCH  77  78
ENDBRANCH  49  72
BRANCH  61  82
ATOM     82  C   UNL A   1      47.941  26.867  30.806  1.00  0.00    -0.014 A 
ATOM     83  C   UNL A   1      48.992  27.205  29.935  1.00  0.00     0.010 A 
ATOM     84  C   UNL A   1      48.237  26.189  32.003  1.00  0.00     0.010 A 
ATOM     85  C   UNL A   1      50.306  26.838  30.239  1.00  0.00     0.020 A 
ATOM     86  C   UNL A   1      49.553  25.848  32.325  1.00  0.00     0.020 A 
ATOM     87  C   UNL A   1      50.579  26.161  31.432  1.00  0.00     0.054 A 
BRANCH  87  88
ATOM     88  S   UNL A   1      52.297  25.723  31.814  1.00  0.00     0.124 S 
ATOM     89  O   UNL A   1      52.964  25.971  30.540  1.00  0.00    -0.237 OA
ATOM     90  O   UNL A   1      52.631  26.652  32.890  1.00  0.00    -0.237 OA
ATOM     91  O   UNL A   1      52.217  24.319  32.213  1.00  0.00    -0.744 OA
ENDBRANCH  87  88
ENDBRANCH  61  82
ENDBRANCH  35  36
ENDBRANCH  28  30
ENDBRANCH  27  28
ENDBRANCH   1  27
TORSDOF 16
ENDMDL
MODEL 2
REMARK VINA RESULT:     -10.5      4.123      7.117
REMARK SMILES Nc1nc(N2CCCCC2)nc2c1[C@H](C(=O)OCCOC(=O)c1ccc(-c3c4nc(c(-c5ccc(S(=O)(=O)[O-])cc5)c5ccc([nH]5)c(-c5ccc(S(=O)(=O)[O-])cc5)c5nc(c(-c6ccc(S(=O)(=O)[O-])cc6)c6ccc3[nH]6)C=C5)C=C4)cc1)CC(=O)N2
REMARK SMILES IDX 19 1 18 2 17 3 15 4 16 5 14 6 2 7 3 8 13 9 4 10 12 11 11 12
REMARK SMILES IDX 86 13 83 14 84 15 85 17 1 18 5 21 6 22 10 23 7 24 9 25 8 26
REMARK SMILES IDX 20 27 21 28 22 29 23 30 24 31 82 32 25 33 81 34 26 35 27 36
REMARK SMILES IDX 28 37 75 38 29 39 80 40 74 41 76 42 30 43 79 44 73 45 72 46
REMARK SMILES IDX 31 48 61 49 42 50 60 51 43 52 46 53 59 54 77 55 44 56 45 57
REMARK SMILES IDX 58 59 78 60 47 61 32 62 33 63 41 64 34 65 40 66 35 67 36 68
REMARK SMILES IDX 37 69 38 70 39 71 62 72 63 73 71 74 64 75 70 76 65 77 66 78
REMARK SMILES IDX 67 79 68 80 69 81 48 82 49 83 57 84 50 85 56 86 51 87 52 88
REMARK SMILES IDX 53 89 54 90 55 91
REMARK H PARENT 86 16 1 19 1 20 76 47 46 58
REMARK Flexibility Score: inf
ROOT
ATOM      1  C   UNL A   1      32.495  28.920  26.229  1.00  0.00     0.275 C 
ENDROOT
BRANCH   1   2
ATOM      2  C   UNL A   1      32.355  27.419  26.511  1.00  0.00     0.274 C 
BRANCH   2   3
ATOM      3  O   UNL A   1      31.408  26.807  25.615  1.00  0.00    -0.462 OA
BRANCH   3   4
ATOM      4  C   UNL A   1      31.849  25.716  24.926  1.00  0.00     0.314 C 
ATOM      5  O   UNL A   1      32.678  24.925  25.356  1.00  0.00    -0.252 OA
BRANCH   4   6
ATOM      6  C   UNL A   1      31.092  25.537  23.616  1.00  0.00     0.146 C 
ATOM      7  C   UNL A   1      28.998  26.968  23.775  1.00  0.00     0.135 A 
ATOM      8  N   UNL A   1      28.327  28.089  23.494  1.00  0.00    -0.196 NA
ATOM      9  C   UNL A   1      30.250  26.720  23.258  1.00  0.00     0.052 A 
ATOM     10  C   UNL A   1      28.889  28.969  22.651  1.00  0.00     0.229 A 
ATOM     11  C   UNL A   1      30.742  27.686  22.413  1.00  0.00     0.144 A 
ATOM     12  N   UNL A   1      30.086  28.797  22.082  1.00  0.00    -0.195 NA
ATOM     13  N   UNL A   1      32.013  27.538  21.873  1.00  0.00    -0.310 N 
ATOM     14  C   UNL A   1      32.062  25.182  22.487  1.00  0.00     0.120 C 
ATOM     15  C   UNL A   1      32.765  26.404  21.950  1.00  0.00     0.226 C 
ATOM     16  H   UNL A   1      32.399  28.310  21.399  1.00  0.00     0.171 HD
ATOM     17  O   UNL A   1      33.903  26.366  21.495  1.00  0.00    -0.275 OA
BRANCH   7  18
ATOM     18  N   UNL A   1      28.323  26.042  24.545  1.00  0.00    -0.383 N 
ATOM     19  H   UNL A   1      28.336  25.090  24.292  1.00  0.00     0.158 HD
ATOM     20  H   UNL A   1      27.829  26.333  25.345  1.00  0.00     0.158 HD
ENDBRANCH   7  18
BRANCH  10  21
ATOM     21  N   UNL A   1      28.206  30.116  22.365  1.00  0.00    -0.341 N 
ATOM     22  C   UNL A   1      27.938  30.466  20.989  1.00  0.00     0.119 C 
ATOM     23  C   UNL A   1      27.800  31.001  23.433  1.00  0.00     0.119 C 
ATOM     24  C   UNL A   1      28.496  31.852  20.693  1.00  0.00     0.022 C 
ATOM     25  C   UNL A   1      28.381  32.391  23.158  1.00  0.00     0.022 C 
ATOM     26  C   UNL A   1      28.045  32.870  21.743  1.00  0.00     0.004 C 
ENDBRANCH  10  21
ENDBRANCH   4   6
ENDBRANCH   3   4
ENDBRANCH   2   3
ENDBRANCH   1   2
BRANCH   1  27
ATOM     27  O   UNL A   1      33.866  29.359  26.262  1.00  0.00    -0.458 OA
BRANCH  27  28
ATOM     28  C   UNL A   1      34.179  30.209  27.273  1.00  0.00     0.338 C 
ATOM     29  O   UNL A   1      33.426  31.005  27.804  1.00  0.00    -0.246 OA
BRANCH  28  30
ATOM     30  C   UNL A   1      35.534  29.905  27.787  1.00  0.00     0.060 A 
ATOM     31  C   UNL A   1      36.602  29.972  26.886  1.00  0.00     0.016 A 
ATOM     32  C   UNL A   1      35.764  29.546  29.117  1.00  0.00     0.016 A 
ATOM     33  C   UNL A   1      37.905  29.734  27.312  1.00  0.00     0.010 A 
ATOM     34  C   UNL A   1      37.070  29.266  29.538  1.00  0.00     0.010 A 
ATOM     35  C   UNL A   1      38.145  29.365  28.638  1.00  0.00    -0.014 A 
BRANCH  35  36
ATOM     36  C   UNL A   1      39.517  29.001  29.052  1.00  0.00     0.031 A 
ATOM     37  C   UNL A   1      40.328  29.985  29.844  1.00  0.00     0.074 A 
ATOM     38  C   UNL A   1      40.007  27.781  28.770  1.00  0.00     0.049 A 
ATOM     39  N   UNL A   1      41.560  29.887  30.267  1.00  0.00    -0.248 NA
ATOM     40  C   UNL A   1      39.655  31.239  30.220  1.00  0.00     0.031 C 
ATOM     41  C   UNL A   1      39.269  26.707  28.105  1.00  0.00     0.029 A 
ATOM     42  N   UNL A   1      41.241  27.237  29.021  1.00  0.00    -0.354 N 
ATOM     43  C   UNL A   1      41.812  31.060  30.966  1.00  0.00     0.074 A 
ATOM     44  C   UNL A   1      40.613  31.867  30.887  1.00  0.00     0.031 C 
ATOM     45  C   UNL A   1      40.069  25.632  27.998  1.00  0.00     0.029 A 
ATOM     46  C   UNL A   1      41.384  25.956  28.544  1.00  0.00     0.049 A 
ATOM     47  H   UNL A   1      41.957  27.719  29.495  1.00  0.00     0.167 HD
ATOM     48  C   UNL A   1      42.941  31.428  31.617  1.00  0.00     0.031 A 
ATOM     49  C   UNL A   1      42.462  25.146  28.535  1.00  0.00     0.031 A 
ATOM     50  C   UNL A   1      44.143  30.636  31.652  1.00  0.00     0.049 A 
ATOM     51  C   UNL A   1      43.750  25.637  29.138  1.00  0.00     0.074 A 
ATOM     52  C   UNL A   1      45.359  30.943  32.237  1.00  0.00     0.029 A 
ATOM     53  N   UNL A   1      44.282  29.381  31.076  1.00  0.00    -0.354 N 
ATOM     54  N   UNL A   1      43.996  26.773  29.749  1.00  0.00    -0.248 NA
ATOM     55  C   UNL A   1      44.908  24.736  29.055  1.00  0.00     0.031 C 
ATOM     56  C   UNL A   1      46.250  29.898  31.966  1.00  0.00     0.029 A 
ATOM     57  C   UNL A   1      45.567  28.908  31.277  1.00  0.00     0.049 A 
ATOM     58  H   UNL A   1      43.571  28.899  30.595  1.00  0.00     0.167 HD
ATOM     59  C   UNL A   1      45.324  26.706  30.158  1.00  0.00     0.074 A 
ATOM     60  C   UNL A   1      45.827  25.416  29.728  1.00  0.00     0.031 C 
ATOM     61  C   UNL A   1      46.057  27.623  30.839  1.00  0.00     0.031 A 
BRANCH  48  62
ATOM     62  C   UNL A   1      42.940  32.768  32.304  1.00  0.00    -0.014 A 
ATOM     63  C   UNL A   1      42.606  32.887  33.666  1.00  0.00     0.010 A 
ATOM     64  C   UNL A   1      43.310  33.921  31.588  1.00  0.00     0.010 A 
ATOM     65  C   UNL A   1      42.609  34.138  34.289  1.00  0.00     0.020 A 
ATOM     66  C   UNL A   1      43.342  35.170  32.215  1.00  0.00     0.020 A 
ATOM     67  C   UNL A   1      42.977  35.272  33.559  1.00  0.00     0.054 A 
BRANCH  67  68
ATOM     68  S   UNL A   1      42.989  36.879  34.400  1.00  0.00     0.124 S 
ATOM     69  O   UNL A   1      43.969  36.658  35.460  1.00  0.00    -0.237 OA
ATOM     70  O   UNL A   1      43.406  37.791  33.338  1.00  0.00    -0.237 OA
ATOM     71  O   UNL A   1      41.610  37.044  34.854  1.00  0.00    -0.744 OA
ENDBRANCH  67  68
ENDBRANCH  48  62
BRANCH  49  72
ATOM     72  C   UNL A   1      42.366  23.790  27.927  1.00  0.00    -0.014 A 
ATOM     73  C   UNL A   1      42.787  23.568  26.605  1.00  0.00     0.010 A 
ATOM     74  C   UNL A   1      41.868  22.706  28.675  1.00  0.00     0.010 A 
ATOM     75  C   UNL A   1      42.709  22.291  26.040  1.00  0.00     0.020 A 
ATOM     76  C   UNL A   1      41.814  21.422  28.123  1.00  0.00     0.020 A 
ATOM     77  C   UNL A   1      42.229  21.225  26.805  1.00  0.00     0.054 A 
BRANCH  77  78
ATOM     78  S   UNL A   1      42.194  19.567  26.067  1.00  0.00     0.124 S 
ATOM     79  O   UNL A   1      43.091  19.722  24.926  1.00  0.00    -0.237 OA
ATOM     80  O   UNL A   1      42.692  18.729  27.154  1.00  0.00    -0.237 OA
ATOM     81  O   UNL A   1      40.785  19.370  25.732  1.00  0.00    -0.744 OA
ENDBRANCH  77  78
ENDBRANCH  49  72
BRANCH  61  82
ATOM     82  C   UNL A   1      47.470  27.251  31.211  1.00  0.00    -0.014 A 
ATOM     83  C   UNL A   1      47.756  26.494  32.361  1.00  0.00     0.010 A 
ATOM     84  C   UNL A   1      48.526  27.624  30.358  1.00  0.00     0.010 A 
ATOM     85  C   UNL A   1      49.075  26.151  32.670  1.00  0.00     0.020 A 
ATOM     86  C   UNL A   1      49.842  27.255  30.647  1.00  0.00     0.020 A 
ATOM     87  C   UNL A   1      50.110  26.534  31.811  1.00  0.00     0.054 A 
BRANCH  87  88
ATOM     88  S   UNL A   1      51.809  26.049  32.222  1.00  0.00     0.124 S 
ATOM     89  O   UNL A   1      52.593  26.946  31.379  1.00  0.00    -0.237 OA
ATOM     90  O   UNL A   1      51.878  26.314  33.656  1.00  0.00    -0.237 OA
ATOM     91  O   UNL A   1      51.867  24.637  31.851  1.00  0.00    -0.744 OA
ENDBRANCH  87  88
ENDBRANCH  61  82
ENDBRANCH  35  36
ENDBRANCH  28  30
ENDBRANCH  27  28
ENDBRANCH   1  27
TORSDOF 16
ENDMDL
MODEL 3
REMARK VINA RESULT:     -10.3      2.882      3.477
REMARK SMILES Nc1nc(N2CCCCC2)nc2c1[C@H](C(=O)OCCOC(=O)c1ccc(-c3c4nc(c(-c5ccc(S(=O)(=O)[O-])cc5)c5ccc([nH]5)c(-c5ccc(S(=O)(=O)[O-])cc5)c5nc(c(-c6ccc(S(=O)(=O)[O-])cc6)c6ccc3[nH]6)C=C5)C=C4)cc1)CC(=O)N2
REMARK SMILES IDX 19 1 18 2 17 3 15 4 16 5 14 6 2 7 3 8 13 9 4 10 12 11 11 12
REMARK SMILES IDX 86 13 83 14 84 15 85 17 1 18 5 21 6 22 10 23 7 24 9 25 8 26
REMARK SMILES IDX 20 27 21 28 22 29 23 30 24 31 82 32 25 33 81 34 26 35 27 36
REMARK SMILES IDX 28 37 75 38 29 39 80 40 74 41 76 42 30 43 79 44 73 45 72 46
REMARK SMILES IDX 31 48 61 49 42 50 60 51 43 52 46 53 59 54 77 55 44 56 45 57
REMARK SMILES IDX 58 59 78 60 47 61 32 62 33 63 41 64 34 65 40 66 35 67 36 68
REMARK SMILES IDX 37 69 38 70 39 71 62 72 63 73 71 74 64 75 70 76 65 77 66 78
REMARK SMILES IDX 67 79 68 80 69 81 48 82 49 83 57 84 50 85 56 86 51 87 52 88
REMARK SMILES IDX 53 89 54 90 55 91
REMARK H PARENT 86 16 1 19 1 20 76 47 46 58
REMARK Flexibility Score: inf
ROOT
ATOM      1  C   UNL A   1      35.206  32.452  27.999  1.00  0.00     0.275 C 
ENDROOT
BRANCH   1   2
ATOM      2  C   UNL A   1      34.881  33.951  27.989  1.00  0.00     0.274 C 
BRANCH   2   3
ATOM      3  O   UNL A   1      34.845  34.485  29.327  1.00  0.00    -0.462 OA
BRANCH   3   4
ATOM      4  C   UNL A   1      33.745  35.222  29.652  1.00  0.00     0.314 C 
ATOM      5  O   UNL A   1      33.153  35.950  28.866  1.00  0.00    -0.252 OA
BRANCH   4   6
ATOM      6  C   UNL A   1      33.275  34.931  31.072  1.00  0.00     0.146 C 
ATOM      7  C   UNL A   1      34.958  33.319  32.087  1.00  0.00     0.135 A 
ATOM      8  N   UNL A   1      36.017  33.075  32.864  1.00  0.00    -0.196 NA
ATOM      9  C   UNL A   1      34.394  34.572  31.998  1.00  0.00     0.052 A 
ATOM     10  C   UNL A   1      36.509  34.083  33.600  1.00  0.00     0.229 A 
ATOM     11  C   UNL A   1      34.975  35.539  32.784  1.00  0.00     0.144 A 
ATOM     12  N   UNL A   1      36.008  35.322  33.597  1.00  0.00    -0.195 NA
ATOM     13  N   UNL A   1      34.495  36.841  32.732  1.00  0.00    -0.310 N 
ATOM     14  C   UNL A   1      32.460  36.108  31.612  1.00  0.00     0.120 C 
ATOM     15  C   UNL A   1      33.349  37.224  32.102  1.00  0.00     0.226 C 
ATOM     16  H   UNL A   1      35.022  37.539  33.184  1.00  0.00     0.171 HD
ATOM     17  O   UNL A   1      33.017  38.403  32.052  1.00  0.00    -0.275 OA
BRANCH   7  18
ATOM     18  N   UNL A   1      34.415  32.222  31.449  1.00  0.00    -0.383 N 
ATOM     19  H   UNL A   1      33.671  31.730  31.865  1.00  0.00     0.158 HD
ATOM     20  H   UNL A   1      34.774  31.931  30.580  1.00  0.00     0.158 HD
ENDBRANCH   7  18
BRANCH  10  21
ATOM     21  N   UNL A   1      37.592  33.837  34.392  1.00  0.00    -0.341 N 
ATOM     22  C   UNL A   1      37.444  33.026  35.578  1.00  0.00     0.119 C 
ATOM     23  C   UNL A   1      38.872  34.429  34.072  1.00  0.00     0.119 C 
ATOM     24  C   UNL A   1      37.924  33.804  36.797  1.00  0.00     0.022 C 
ATOM     25  C   UNL A   1      39.349  35.238  35.282  1.00  0.00     0.022 C 
ATOM     26  C   UNL A   1      39.313  34.402  36.564  1.00  0.00     0.004 C 
ENDBRANCH  10  21
ENDBRANCH   4   6
ENDBRANCH   3   4
ENDBRANCH   2   3
ENDBRANCH   1   2
BRANCH   1  27
ATOM     27  O   UNL A   1      36.357  32.146  28.810  1.00  0.00    -0.458 OA
BRANCH  27  28
ATOM     28  C   UNL A   1      36.447  30.856  29.225  1.00  0.00     0.338 C 
ATOM     29  O   UNL A   1      35.535  30.171  29.652  1.00  0.00    -0.246 OA
BRANCH  28  30
ATOM     30  C   UNL A   1      37.788  30.317  28.907  1.00  0.00     0.060 A 
ATOM     31  C   UNL A   1      38.751  30.323  29.923  1.00  0.00     0.016 A 
ATOM     32  C   UNL A   1      38.115  29.827  27.641  1.00  0.00     0.016 A 
ATOM     33  C   UNL A   1      40.019  29.796  29.702  1.00  0.00     0.010 A 
ATOM     34  C   UNL A   1      39.404  29.335  27.405  1.00  0.00     0.010 A 
ATOM     35  C   UNL A   1      40.358  29.313  28.436  1.00  0.00    -0.014 A 
BRANCH  35  36
ATOM     36  C   UNL A   1      41.744  28.863  28.179  1.00  0.00     0.031 A 
ATOM     37  C   UNL A   1      42.864  29.858  28.265  1.00  0.00     0.074 A 
ATOM     38  C   UNL A   1      41.997  27.566  27.930  1.00  0.00     0.049 A 
ATOM     39  N   UNL A   1      44.139  29.685  28.036  1.00  0.00    -0.248 NA
ATOM     40  C   UNL A   1      42.501  31.222  28.679  1.00  0.00     0.031 C 
ATOM     41  C   UNL A   1      41.002  26.495  27.932  1.00  0.00     0.029 A 
ATOM     42  N   UNL A   1      43.177  26.930  27.637  1.00  0.00    -0.354 N 
ATOM     43  C   UNL A   1      44.734  30.916  28.284  1.00  0.00     0.074 A 
ATOM     44  C   UNL A   1      43.678  31.832  28.655  1.00  0.00     0.031 C 
ATOM     45  C   UNL A   1      41.615  25.332  27.651  1.00  0.00     0.029 A 
ATOM     46  C   UNL A   1      43.032  25.584  27.405  1.00  0.00     0.049 A 
ATOM     47  H   UNL A   1      44.044  27.394  27.595  1.00  0.00     0.167 HD
ATOM     48  C   UNL A   1      46.045  31.248  28.210  1.00  0.00     0.031 A 
ATOM     49  C   UNL A   1      43.939  24.664  27.019  1.00  0.00     0.031 A 
ATOM     50  C   UNL A   1      47.083  30.339  27.797  1.00  0.00     0.049 A 
ATOM     51  C   UNL A   1      45.366  25.092  26.803  1.00  0.00     0.074 A 
ATOM     52  C   UNL A   1      48.434  30.591  27.636  1.00  0.00     0.029 A 
ATOM     53  N   UNL A   1      46.885  29.003  27.477  1.00  0.00    -0.354 N 
ATOM     54  N   UNL A   1      45.912  26.272  26.986  1.00  0.00    -0.248 NA
ATOM     55  C   UNL A   1      46.303  24.062  26.333  1.00  0.00     0.031 C 
ATOM     56  C   UNL A   1      49.043  29.422  27.165  1.00  0.00     0.029 A 
ATOM     57  C   UNL A   1      48.085  28.422  27.104  1.00  0.00     0.049 A 
ATOM     58  H   UNL A   1      46.018  28.537  27.511  1.00  0.00     0.167 HD
ATOM     59  C   UNL A   1      47.263  26.117  26.691  1.00  0.00     0.074 A 
ATOM     60  C   UNL A   1      47.451  24.728  26.322  1.00  0.00     0.031 C 
ATOM     61  C   UNL A   1      48.258  27.038  26.735  1.00  0.00     0.031 A 
BRANCH  48  62
ATOM     62  C   UNL A   1      46.420  32.668  28.540  1.00  0.00    -0.014 A 
ATOM     63  C   UNL A   1      46.416  33.670  27.552  1.00  0.00     0.010 A 
ATOM     64  C   UNL A   1      46.748  33.015  29.863  1.00  0.00     0.010 A 
ATOM     65  C   UNL A   1      46.766  34.984  27.875  1.00  0.00     0.020 A 
ATOM     66  C   UNL A   1      47.072  34.333  30.196  1.00  0.00     0.020 A 
ATOM     67  C   UNL A   1      47.092  35.307  29.196  1.00  0.00     0.054 A 
BRANCH  67  68
ATOM     68  S   UNL A   1      47.526  37.024  29.587  1.00  0.00     0.124 S 
ATOM     69  O   UNL A   1      48.106  37.483  28.327  1.00  0.00    -0.237 OA
ATOM     70  O   UNL A   1      46.234  37.608  29.935  1.00  0.00    -0.237 OA
ATOM     71  O   UNL A   1      48.470  36.901  30.696  1.00  0.00    -0.744 OA
ENDBRANCH  67  68
ENDBRANCH  48  62
BRANCH  49  72
ATOM     72  C   UNL A   1      43.520  23.251  26.807  1.00  0.00    -0.014 A 
ATOM     73  C   UNL A   1      43.654  22.647  25.545  1.00  0.00     0.010 A 
ATOM     74  C   UNL A   1      43.001  22.492  27.874  1.00  0.00     0.010 A 
ATOM     75  C   UNL A   1      43.273  21.316  25.350  1.00  0.00     0.020 A 
ATOM     76  C   UNL A   1      42.645  21.153  27.691  1.00  0.00     0.020 A 
ATOM     77  C   UNL A   1      42.777  20.575  26.427  1.00  0.00     0.054 A 
BRANCH  77  78
ATOM     78  S   UNL A   1      42.345  18.833  26.162  1.00  0.00     0.124 S 
ATOM     79  O   UNL A   1      40.940  18.921  25.778  1.00  0.00    -0.237 OA
ATOM     80  O   UNL A   1      43.267  18.439  25.100  1.00  0.00    -0.237 OA
ATOM     81  O   UNL A   1      42.600  18.213  27.460  1.00  0.00    -0.744 OA
ENDBRANCH  77  78
ENDBRANCH  49  72
BRANCH  61  82
ATOM     82  C   UNL A   1      49.657  26.569  26.424  1.00  0.00    -0.014 A 
ATOM     83  C   UNL A   1      50.201  26.672  25.132  1.00  0.00     0.010 A 
ATOM     84  C   UNL A   1      50.460  26.064  27.465  1.00  0.00     0.010 A 
ATOM     85  C   UNL A   1      51.507  26.243  24.879  1.00  0.00     0.020 A 
ATOM     86  C   UNL A   1      51.776  25.665  27.223  1.00  0.00     0.020 A 
ATOM     87  C   UNL A   1      52.287  25.742  25.927  1.00  0.00     0.054 A 
BRANCH  87  88
ATOM     88  S   UNL A   1      53.988  25.220  25.576  1.00  0.00     0.124 S 
ATOM     89  O   UNL A   1      54.535  26.397  24.907  1.00  0.00    -0.237 OA
ATOM     90  O   UNL A   1      54.520  24.952  26.909  1.00  0.00    -0.237 OA
ATOM     91  O   UNL A   1      53.823  24.042  24.728  1.00  0.00    -0.744 OA
ENDBRANCH  87  88
ENDBRANCH  61  82
ENDBRANCH  35  36
ENDBRANCH  28  30
ENDBRANCH  27  28
ENDBRANCH   1  27
TORSDOF 16
ENDMDL
