MODEL 1
REMARK VINA RESULT:     -10.0      0.000      0.000
REMARK SMILES CC(C)c1nc(N(C)C[C@@H]2CC[N@@H+](C)C2)sc1C(=O)OCCOC(=O)c1ccc(-c2c3nc(c(-c4ccc(S(=O)(=O)[O-])cc4)c4ccc([nH]4)c(-c4ccc(S(=O)(=O)[O-])cc4)c4nc(c(-c5ccc(S(=O)(=O)[O-])cc5)c5ccc2[nH]5)C=C4)C=C3)cc1
REMARK SMILES IDX 21 1 20 2 18 3 19 4 17 5 4 6 5 7 6 8 16 9 2 10 1 11 3 12
REMARK SMILES IDX 7 13 8 14 9 15 10 16 11 17 15 18 12 19 13 20 14 21 22 23
REMARK SMILES IDX 23 24 24 25 25 26 26 27 27 28 85 29 28 30 84 31 29 32 30 33
REMARK SMILES IDX 31 34 78 35 32 36 83 37 77 38 79 39 33 40 82 41 76 42 75 43
REMARK SMILES IDX 34 45 64 46 45 47 63 48 46 49 49 50 62 51 80 52 47 53 48 54
REMARK SMILES IDX 61 56 81 57 50 58 35 59 36 60 44 61 37 62 43 63 38 64 39 65
REMARK SMILES IDX 40 66 41 67 42 68 65 69 66 70 74 71 67 72 73 73 68 74 69 75
REMARK SMILES IDX 70 76 71 77 72 78 51 79 52 80 60 81 53 82 59 83 54 84 55 85
REMARK SMILES IDX 56 86 57 87 58 88
REMARK H PARENT 13 22 79 44 49 55
REMARK Flexibility Score: inf
ROOT
ATOM      1  C   UNL A   1      38.148  22.285  25.729  1.00  0.00     0.275 C 
ENDROOT
BRANCH   1   2
ATOM      2  O   UNL A   1      37.004  22.005  24.896  1.00  0.00    -0.458 OA
BRANCH   2   3
ATOM      3  C   UNL A   1      36.412  20.784  25.057  1.00  0.00     0.350 C 
ATOM      4  O   UNL A   1      37.022  19.724  24.997  1.00  0.00    -0.245 OA
BRANCH   3   5
ATOM      5  C   UNL A   1      35.005  20.932  25.370  1.00  0.00     0.137 A 
ATOM      6  C   UNL A   1      33.870  20.258  24.947  1.00  0.00     0.071 A 
ATOM      7  N   UNL A   1      32.675  20.828  25.383  1.00  0.00    -0.224 NA
ATOM      8  C   UNL A   1      32.880  21.935  26.064  1.00  0.00     0.186 A 
ATOM      9  S   UNL A   1      34.536  22.122  26.516  1.00  0.00    -0.089 S 
BRANCH   6  10
ATOM     10  C   UNL A   1      33.804  19.007  24.103  1.00  0.00     0.034 C 
ATOM     11  C   UNL A   1      33.951  17.755  24.976  1.00  0.00     0.014 C 
ATOM     12  C   UNL A   1      32.509  18.905  23.289  1.00  0.00     0.014 C 
ENDBRANCH   6  10
BRANCH   8  13
ATOM     13  N   UNL A   1      31.903  22.823  26.405  1.00  0.00    -0.351 N 
ATOM     14  C   UNL A   1      30.495  22.575  26.120  1.00  0.00     0.146 C 
BRANCH  13  15
ATOM     15  C   UNL A   1      32.252  24.147  26.921  1.00  0.00     0.128 C 
BRANCH  15  16
ATOM     16  C   UNL A   1      32.172  25.272  25.880  1.00  0.00     0.069 C 
ATOM     17  C   UNL A   1      33.522  25.622  25.235  1.00  0.00     0.072 C 
ATOM     18  C   UNL A   1      31.713  26.582  26.535  1.00  0.00     0.267 C 
ATOM     19  C   UNL A   1      33.699  27.115  25.469  1.00  0.00     0.262 C 
ATOM     20  N   UNL A   1      32.959  27.328  26.714  1.00  0.00    -0.337 N 
ATOM     21  C   UNL A   1      32.740  28.738  26.994  1.00  0.00     0.332 C 
ATOM     22  H   UNL A   1      33.479  27.001  27.529  1.00  0.00     0.347 HD
ENDBRANCH  15  16
ENDBRANCH  13  15
ENDBRANCH   8  13
ENDBRANCH   3   5
ENDBRANCH   2   3
ENDBRANCH   1   2
BRANCH   1  23
ATOM     23  C   UNL A   1      38.270  23.778  26.052  1.00  0.00     0.275 C 
BRANCH  23  24
ATOM     24  O   UNL A   1      39.411  24.043  26.886  1.00  0.00    -0.458 OA
BRANCH  24  25
ATOM     25  C   UNL A   1      40.125  25.143  26.547  1.00  0.00     0.338 C 
ATOM     26  O   UNL A   1      40.479  25.473  25.427  1.00  0.00    -0.246 OA
BRANCH  25  27
ATOM     27  C   UNL A   1      40.277  26.010  27.724  1.00  0.00     0.060 A 
ATOM     28  C   UNL A   1      39.333  25.865  28.738  1.00  0.00     0.016 A 
ATOM     29  C   UNL A   1      41.254  26.999  27.810  1.00  0.00     0.016 A 
ATOM     30  C   UNL A   1      39.344  26.703  29.845  1.00  0.00     0.010 A 
ATOM     31  C   UNL A   1      41.274  27.842  28.931  1.00  0.00     0.010 A 
ATOM     32  C   UNL A   1      40.311  27.707  29.951  1.00  0.00    -0.014 A 
BRANCH  32  33
ATOM     33  C   UNL A   1      40.259  28.648  31.100  1.00  0.00     0.031 A 
ATOM     34  C   UNL A   1      39.251  29.763  31.106  1.00  0.00     0.074 A 
ATOM     35  C   UNL A   1      41.077  28.472  32.156  1.00  0.00     0.049 A 
ATOM     36  N   UNL A   1      39.099  30.734  31.970  1.00  0.00    -0.248 NA
ATOM     37  C   UNL A   1      38.286  29.790  29.995  1.00  0.00     0.031 C 
ATOM     38  C   UNL A   1      42.049  27.386  32.303  1.00  0.00     0.029 A 
ATOM     39  N   UNL A   1      41.214  29.199  33.312  1.00  0.00    -0.354 N 
ATOM     40  C   UNL A   1      38.049  31.508  31.488  1.00  0.00     0.074 A 
ATOM     41  C   UNL A   1      37.605  30.898  30.254  1.00  0.00     0.031 C 
ATOM     42  C   UNL A   1      42.668  27.509  33.488  1.00  0.00     0.029 A 
ATOM     43  C   UNL A   1      42.186  28.714  34.156  1.00  0.00     0.049 A 
ATOM     44  H   UNL A   1      40.669  29.993  33.518  1.00  0.00     0.167 HD
ATOM     45  C   UNL A   1      37.507  32.628  32.026  1.00  0.00     0.031 A 
ATOM     46  C   UNL A   1      42.658  29.202  35.320  1.00  0.00     0.031 A 
ATOM     47  C   UNL A   1      37.942  33.220  33.264  1.00  0.00     0.049 A 
ATOM     48  C   UNL A   1      42.084  30.481  35.865  1.00  0.00     0.074 A 
ATOM     49  C   UNL A   1      37.455  34.352  33.894  1.00  0.00     0.029 A 
ATOM     50  N   UNL A   1      38.962  32.725  34.064  1.00  0.00    -0.354 N 
ATOM     51  N   UNL A   1      41.113  31.219  35.381  1.00  0.00    -0.248 NA
ATOM     52  C   UNL A   1      42.673  30.998  37.107  1.00  0.00     0.031 C 
ATOM     53  C   UNL A   1      38.213  34.569  35.049  1.00  0.00     0.029 A 
ATOM     54  C   UNL A   1      39.134  33.540  35.170  1.00  0.00     0.049 A 
ATOM     55  H   UNL A   1      39.486  31.914  33.872  1.00  0.00     0.167 HD
ATOM     56  C   UNL A   1      40.962  32.277  36.271  1.00  0.00     0.074 A 
ATOM     57  C   UNL A   1      41.930  32.074  37.329  1.00  0.00     0.031 C 
ATOM     58  C   UNL A   1      40.102  33.323  36.215  1.00  0.00     0.031 A 
BRANCH  45  59
ATOM     59  C   UNL A   1      36.417  33.318  31.249  1.00  0.00    -0.014 A 
ATOM     60  C   UNL A   1      35.138  33.520  31.796  1.00  0.00     0.010 A 
ATOM     61  C   UNL A   1      36.695  33.805  29.958  1.00  0.00     0.010 A 
ATOM     62  C   UNL A   1      34.145  34.164  31.051  1.00  0.00     0.020 A 
ATOM     63  C   UNL A   1      35.711  34.472  29.220  1.00  0.00     0.020 A 
ATOM     64  C   UNL A   1      34.437  34.631  29.766  1.00  0.00     0.054 A 
BRANCH  64  65
ATOM     65  S   UNL A   1      33.136  35.478  28.827  1.00  0.00     0.124 S 
ATOM     66  O   UNL A   1      32.548  34.378  28.067  1.00  0.00    -0.237 OA
ATOM     67  O   UNL A   1      32.291  36.036  29.880  1.00  0.00    -0.237 OA
ATOM     68  O   UNL A   1      33.867  36.463  28.032  1.00  0.00    -0.744 OA
ENDBRANCH  64  65
ENDBRANCH  45  59
BRANCH  46  69
ATOM     69  C   UNL A   1      43.766  28.500  36.027  1.00  0.00    -0.014 A 
ATOM     70  C   UNL A   1      45.108  28.838  35.777  1.00  0.00     0.010 A 
ATOM     71  C   UNL A   1      43.480  27.487  36.961  1.00  0.00     0.010 A 
ATOM     72  C   UNL A   1      46.142  28.166  36.436  1.00  0.00     0.020 A 
ATOM     73  C   UNL A   1      44.510  26.834  37.644  1.00  0.00     0.020 A 
ATOM     74  C   UNL A   1      45.836  27.169  37.367  1.00  0.00     0.054 A 
BRANCH  74  75
ATOM     75  S   UNL A   1      47.190  26.344  38.249  1.00  0.00     0.124 S 
ATOM     76  O   UNL A   1      48.148  26.101  37.176  1.00  0.00    -0.237 OA
ATOM     77  O   UNL A   1      47.585  27.347  39.236  1.00  0.00    -0.237 OA
ATOM     78  O   UNL A   1      46.558  25.150  38.807  1.00  0.00    -0.744 OA
ENDBRANCH  74  75
ENDBRANCH  46  69
BRANCH  58  79
ATOM     79  C   UNL A   1      40.143  34.312  37.349  1.00  0.00    -0.014 A 
ATOM     80  C   UNL A   1      41.092  35.347  37.379  1.00  0.00     0.010 A 
ATOM     81  C   UNL A   1      39.180  34.231  38.372  1.00  0.00     0.010 A 
ATOM     82  C   UNL A   1      41.099  36.269  38.431  1.00  0.00     0.020 A 
ATOM     83  C   UNL A   1      39.168  35.165  39.411  1.00  0.00     0.020 A 
ATOM     84  C   UNL A   1      40.137  36.170  39.441  1.00  0.00     0.054 A 
BRANCH  84  85
ATOM     85  S   UNL A   1      40.138  37.403  40.772  1.00  0.00     0.124 S 
ATOM     86  O   UNL A   1      39.478  36.678  41.856  1.00  0.00    -0.237 OA
ATOM     87  O   UNL A   1      41.560  37.666  40.967  1.00  0.00    -0.237 OA
ATOM     88  O   UNL A   1      39.376  38.517  40.213  1.00  0.00    -0.744 OA
ENDBRANCH  84  85
ENDBRANCH  58  79
ENDBRANCH  32  33
ENDBRANCH  25  27
ENDBRANCH  24  25
ENDBRANCH  23  24
ENDBRANCH   1  23
TORSDOF 18
ENDMDL
MODEL 2
REMARK VINA RESULT:     -10.0      4.565     10.008
REMARK SMILES CC(C)c1nc(N(C)C[C@@H]2CC[N@@H+](C)C2)sc1C(=O)OCCOC(=O)c1ccc(-c2c3nc(c(-c4ccc(S(=O)(=O)[O-])cc4)c4ccc([nH]4)c(-c4ccc(S(=O)(=O)[O-])cc4)c4nc(c(-c5ccc(S(=O)(=O)[O-])cc5)c5ccc2[nH]5)C=C4)C=C3)cc1
REMARK SMILES IDX 21 1 20 2 18 3 19 4 17 5 4 6 5 7 6 8 16 9 2 10 1 11 3 12
REMARK SMILES IDX 7 13 8 14 9 15 10 16 11 17 15 18 12 19 13 20 14 21 22 23
REMARK SMILES IDX 23 24 24 25 25 26 26 27 27 28 85 29 28 30 84 31 29 32 30 33
REMARK SMILES IDX 31 34 78 35 32 36 83 37 77 38 79 39 33 40 82 41 76 42 75 43
REMARK SMILES IDX 34 45 64 46 45 47 63 48 46 49 49 50 62 51 80 52 47 53 48 54
REMARK SMILES IDX 61 56 81 57 50 58 35 59 36 60 44 61 37 62 43 63 38 64 39 65
REMARK SMILES IDX 40 66 41 67 42 68 65 69 66 70 74 71 67 72 73 73 68 74 69 75
REMARK SMILES IDX 70 76 71 77 72 78 51 79 52 80 60 81 53 82 59 83 54 84 55 85
REMARK SMILES IDX 56 86 57 87 58 88
REMARK H PARENT 13 22 79 44 49 55
REMARK Flexibility Score: inf
ROOT
ATOM      1  C   UNL A   1      32.611  29.716  25.486  1.00  0.00     0.275 C 
ENDROOT
BRANCH   1   2
ATOM      2  O   UNL A   1      31.520  29.097  26.198  1.00  0.00    -0.458 OA
BRANCH   2   3
ATOM      3  C   UNL A   1      31.384  27.744  26.058  1.00  0.00     0.350 C 
ATOM      4  O   UNL A   1      31.105  26.994  26.986  1.00  0.00    -0.245 OA
BRANCH   3   5
ATOM      5  C   UNL A   1      31.546  27.351  24.674  1.00  0.00     0.137 A 
ATOM      6  C   UNL A   1      30.812  27.616  23.528  1.00  0.00     0.071 A 
ATOM      7  N   UNL A   1      31.235  26.905  22.406  1.00  0.00    -0.224 NA
ATOM      8  C   UNL A   1      32.219  26.078  22.692  1.00  0.00     0.186 A 
ATOM      9  S   UNL A   1      32.910  26.402  24.241  1.00  0.00    -0.089 S 
BRANCH   6  10
ATOM     10  C   UNL A   1      29.651  28.570  23.378  1.00  0.00     0.034 C 
ATOM     11  C   UNL A   1      29.882  29.525  22.201  1.00  0.00     0.014 C 
ATOM     12  C   UNL A   1      28.310  27.852  23.189  1.00  0.00     0.014 C 
ENDBRANCH   6  10
BRANCH   8  13
ATOM     13  N   UNL A   1      32.668  25.097  21.858  1.00  0.00    -0.351 N 
ATOM     14  C   UNL A   1      32.607  25.223  20.407  1.00  0.00     0.146 C 
BRANCH  13  15
ATOM     15  C   UNL A   1      33.075  23.798  22.395  1.00  0.00     0.128 C 
BRANCH  15  16
ATOM     16  C   UNL A   1      31.921  22.963  22.969  1.00  0.00     0.069 C 
ATOM     17  C   UNL A   1      31.875  22.936  24.504  1.00  0.00     0.072 C 
ATOM     18  C   UNL A   1      32.071  21.489  22.569  1.00  0.00     0.267 C 
ATOM     19  C   UNL A   1      31.896  21.462  24.877  1.00  0.00     0.262 C 
ATOM     20  N   UNL A   1      32.638  20.866  23.765  1.00  0.00    -0.337 N 
ATOM     21  C   UNL A   1      32.542  19.415  23.749  1.00  0.00     0.332 C 
ATOM     22  H   UNL A   1      33.641  21.038  23.839  1.00  0.00     0.347 HD
ENDBRANCH  15  16
ENDBRANCH  13  15
ENDBRANCH   8  13
ENDBRANCH   3   5
ENDBRANCH   2   3
ENDBRANCH   1   2
BRANCH   1  23
ATOM     23  C   UNL A   1      33.953  29.495  26.192  1.00  0.00     0.275 C 
BRANCH  23  24
ATOM     24  O   UNL A   1      33.841  29.704  27.610  1.00  0.00    -0.458 OA
BRANCH  24  25
ATOM     25  C   UNL A   1      34.634  30.683  28.108  1.00  0.00     0.338 C 
ATOM     26  O   UNL A   1      34.287  31.791  28.482  1.00  0.00    -0.246 OA
BRANCH  25  27
ATOM     27  C   UNL A   1      35.992  30.157  28.310  1.00  0.00     0.060 A 
ATOM     28  C   UNL A   1      36.269  29.589  29.551  1.00  0.00     0.016 A 
ATOM     29  C   UNL A   1      36.999  30.287  27.356  1.00  0.00     0.016 A 
ATOM     30  C   UNL A   1      37.549  29.149  29.862  1.00  0.00     0.010 A 
ATOM     31  C   UNL A   1      38.291  29.837  27.664  1.00  0.00     0.010 A 
ATOM     32  C   UNL A   1      38.578  29.275  28.923  1.00  0.00    -0.014 A 
BRANCH  32  33
ATOM     33  C   UNL A   1      39.958  28.877  29.301  1.00  0.00     0.031 A 
ATOM     34  C   UNL A   1      40.817  29.822  30.095  1.00  0.00     0.074 A 
ATOM     35  C   UNL A   1      40.421  27.653  28.979  1.00  0.00     0.049 A 
ATOM     36  N   UNL A   1      42.070  29.698  30.451  1.00  0.00    -0.248 NA
ATOM     37  C   UNL A   1      40.183  31.071  30.548  1.00  0.00     0.031 C 
ATOM     38  C   UNL A   1      39.661  26.618  28.274  1.00  0.00     0.029 A 
ATOM     39  N   UNL A   1      41.641  27.069  29.211  1.00  0.00    -0.354 N 
ATOM     40  C   UNL A   1      42.386  30.867  31.135  1.00  0.00     0.074 A 
ATOM     41  C   UNL A   1      41.196  31.689  31.140  1.00  0.00     0.031 C 
ATOM     42  C   UNL A   1      40.426  25.522  28.148  1.00  0.00     0.029 A 
ATOM     43  C   UNL A   1      41.748  25.795  28.703  1.00  0.00     0.049 A 
ATOM     44  H   UNL A   1      42.371  27.518  29.695  1.00  0.00     0.167 HD
ATOM     45  C   UNL A   1      43.564  31.221  31.705  1.00  0.00     0.031 A 
ATOM     46  C   UNL A   1      42.800  24.954  28.660  1.00  0.00     0.031 A 
ATOM     47  C   UNL A   1      44.738  30.390  31.713  1.00  0.00     0.049 A 
ATOM     48  C   UNL A   1      44.115  25.396  29.244  1.00  0.00     0.074 A 
ATOM     49  C   UNL A   1      45.978  30.657  32.267  1.00  0.00     0.029 A 
ATOM     50  N   UNL A   1      44.819  29.127  31.145  1.00  0.00    -0.354 N 
ATOM     51  N   UNL A   1      44.406  26.517  29.860  1.00  0.00    -0.248 NA
ATOM     52  C   UNL A   1      45.243  24.464  29.120  1.00  0.00     0.031 C 
ATOM     53  C   UNL A   1      46.822  29.577  31.991  1.00  0.00     0.029 A 
ATOM     54  C   UNL A   1      46.093  28.611  31.316  1.00  0.00     0.049 A 
ATOM     55  H   UNL A   1      44.080  28.665  30.688  1.00  0.00     0.167 HD
ATOM     56  C   UNL A   1      45.747  26.416  30.214  1.00  0.00     0.074 A 
ATOM     57  C   UNL A   1      46.204  25.119  29.759  1.00  0.00     0.031 C 
ATOM     58  C   UNL A   1      46.530  27.317  30.857  1.00  0.00     0.031 A 
BRANCH  45  59
ATOM     59  C   UNL A   1      43.654  32.591  32.323  1.00  0.00    -0.014 A 
ATOM     60  C   UNL A   1      43.360  32.808  33.681  1.00  0.00     0.010 A 
ATOM     61  C   UNL A   1      44.080  33.676  31.534  1.00  0.00     0.010 A 
ATOM     62  C   UNL A   1      43.453  34.091  34.228  1.00  0.00     0.020 A 
ATOM     63  C   UNL A   1      44.198  34.956  32.083  1.00  0.00     0.020 A 
ATOM     64  C   UNL A   1      43.867  35.158  33.423  1.00  0.00     0.054 A 
BRANCH  64  65
ATOM     65  S   UNL A   1      43.996  36.810  34.162  1.00  0.00     0.124 S 
ATOM     66  O   UNL A   1      44.473  37.607  33.035  1.00  0.00    -0.237 OA
ATOM     67  O   UNL A   1      42.625  37.081  34.587  1.00  0.00    -0.237 OA
ATOM     68  O   UNL A   1      44.958  36.631  35.248  1.00  0.00    -0.744 OA
ENDBRANCH  64  65
ENDBRANCH  45  59
BRANCH  46  69
ATOM     69  C   UNL A   1      42.666  23.625  28.000  1.00  0.00    -0.014 A 
ATOM     70  C   UNL A   1      43.017  23.454  26.650  1.00  0.00     0.010 A 
ATOM     71  C   UNL A   1      42.186  22.520  28.727  1.00  0.00     0.010 A 
ATOM     72  C   UNL A   1      42.876  22.205  26.035  1.00  0.00     0.020 A 
ATOM     73  C   UNL A   1      42.072  21.264  28.124  1.00  0.00     0.020 A 
ATOM     74  C   UNL A   1      42.406  21.118  26.777  1.00  0.00     0.054 A 
BRANCH  74  75
ATOM     75  S   UNL A   1      42.278  19.495  25.975  1.00  0.00     0.124 S 
ATOM     76  O   UNL A   1      42.719  18.596  27.036  1.00  0.00    -0.237 OA
ATOM     77  O   UNL A   1      40.859  19.422  25.632  1.00  0.00    -0.237 OA
ATOM     78  O   UNL A   1      43.181  19.607  24.831  1.00  0.00    -0.744 OA
ENDBRANCH  74  75
ENDBRANCH  46  69
BRANCH  58  79
ATOM     79  C   UNL A   1      47.954  26.918  31.138  1.00  0.00    -0.014 A 
ATOM     80  C   UNL A   1      48.297  26.214  32.304  1.00  0.00     0.010 A 
ATOM     81  C   UNL A   1      48.954  27.209  30.191  1.00  0.00     0.010 A 
ATOM     82  C   UNL A   1      49.623  25.834  32.535  1.00  0.00     0.020 A 
ATOM     83  C   UNL A   1      50.275  26.809  30.406  1.00  0.00     0.020 A 
ATOM     84  C   UNL A   1      50.603  26.135  31.584  1.00  0.00     0.054 A 
BRANCH  84  85
ATOM     85  S   UNL A   1      52.308  25.594  31.885  1.00  0.00     0.124 S 
ATOM     86  O   UNL A   1      52.697  26.430  33.017  1.00  0.00    -0.237 OA
ATOM     87  O   UNL A   1      52.148  24.173  32.179  1.00  0.00    -0.237 OA
ATOM     88  O   UNL A   1      52.992  25.890  30.628  1.00  0.00    -0.744 OA
ENDBRANCH  84  85
ENDBRANCH  58  79
ENDBRANCH  32  33
ENDBRANCH  25  27
ENDBRANCH  24  25
ENDBRANCH  23  24
ENDBRANCH   1  23
TORSDOF 18
ENDMDL
MODEL 3
REMARK VINA RESULT:      -9.9      5.096      9.251
REMARK SMILES CC(C)c1nc(N(C)C[C@@H]2CC[N@@H+](C)C2)sc1C(=O)OCCOC(=O)c1ccc(-c2c3nc(c(-c4ccc(S(=O)(=O)[O-])cc4)c4ccc([nH]4)c(-c4ccc(S(=O)(=O)[O-])cc4)c4nc(c(-c5ccc(S(=O)(=O)[O-])cc5)c5ccc2[nH]5)C=C4)C=C3)cc1
REMARK SMILES IDX 21 1 20 2 18 3 19 4 17 5 4 6 5 7 6 8 16 9 2 10 1 11 3 12
REMARK SMILES IDX 7 13 8 14 9 15 10 16 11 17 15 18 12 19 13 20 14 21 22 23
REMARK SMILES IDX 23 24 24 25 25 26 26 27 27 28 85 29 28 30 84 31 29 32 30 33
REMARK SMILES IDX 31 34 78 35 32 36 83 37 77 38 79 39 33 40 82 41 76 42 75 43
REMARK SMILES IDX 34 45 64 46 45 47 63 48 46 49 49 50 62 51 80 52 47 53 48 54
REMARK SMILES IDX 61 56 81 57 50 58 35 59 36 60 44 61 37 62 43 63 38 64 39 65
REMARK SMILES IDX 40 66 41 67 42 68 65 69 66 70 74 71 67 72 73 73 68 74 69 75
REMARK SMILES IDX 70 76 71 77 72 78 51 79 52 80 60 81 53 82 59 83 54 84 55 85
REMARK SMILES IDX 56 86 57 87 58 88
REMARK H PARENT 13 22 79 44 49 55
REMARK Flexibility Score: inf
ROOT
ATOM      1  C   UNL A   1      36.544  22.668  23.722  1.00  0.00     0.275 C 
ENDROOT
BRANCH   1   2
ATOM      2  O   UNL A   1      35.136  22.393  23.873  1.00  0.00    -0.458 OA
BRANCH   2   3
ATOM      3  C   UNL A   1      34.271  23.302  23.331  1.00  0.00     0.350 C 
ATOM      4  O   UNL A   1      34.018  23.363  22.134  1.00  0.00    -0.245 OA
BRANCH   3   5
ATOM      5  C   UNL A   1      33.663  24.114  24.365  1.00  0.00     0.137 A 
ATOM      6  C   UNL A   1      32.803  23.817  25.411  1.00  0.00     0.071 A 
ATOM      7  N   UNL A   1      32.330  24.938  26.092  1.00  0.00    -0.224 NA
ATOM      8  C   UNL A   1      32.761  26.058  25.552  1.00  0.00     0.186 A 
ATOM      9  S   UNL A   1      34.048  25.786  24.434  1.00  0.00    -0.089 S 
BRANCH   6  10
ATOM     10  C   UNL A   1      32.353  22.451  25.875  1.00  0.00     0.034 C 
ATOM     11  C   UNL A   1      33.134  22.018  27.122  1.00  0.00     0.014 C 
ATOM     12  C   UNL A   1      30.851  22.387  26.172  1.00  0.00     0.014 C 
ENDBRANCH   6  10
BRANCH   8  13
ATOM     13  N   UNL A   1      32.278  27.296  25.856  1.00  0.00    -0.351 N 
ATOM     14  C   UNL A   1      31.313  27.983  25.005  1.00  0.00     0.146 C 
BRANCH  13  15
ATOM     15  C   UNL A   1      32.844  28.061  26.967  1.00  0.00     0.128 C 
BRANCH  15  16
ATOM     16  C   UNL A   1      33.888  29.105  26.548  1.00  0.00     0.069 C 
ATOM     17  C   UNL A   1      35.169  29.083  27.398  1.00  0.00     0.072 C 
ATOM     18  C   UNL A   1      33.336  30.525  26.734  1.00  0.00     0.267 C 
ATOM     19  C   UNL A   1      35.321  30.501  27.924  1.00  0.00     0.262 C 
ATOM     20  N   UNL A   1      33.934  30.962  27.996  1.00  0.00    -0.337 N 
ATOM     21  C   UNL A   1      33.837  32.398  28.203  1.00  0.00     0.332 C 
ATOM     22  H   UNL A   1      33.442  30.571  28.800  1.00  0.00     0.347 HD
ENDBRANCH  15  16
ENDBRANCH  13  15
ENDBRANCH   8  13
ENDBRANCH   3   5
ENDBRANCH   2   3
ENDBRANCH   1   2
BRANCH   1  23
ATOM     23  C   UNL A   1      37.368  22.083  24.873  1.00  0.00     0.275 C 
BRANCH  23  24
ATOM     24  O   UNL A   1      37.739  23.099  25.822  1.00  0.00    -0.458 OA
BRANCH  24  25
ATOM     25  C   UNL A   1      38.977  22.961  26.353  1.00  0.00     0.338 C 
ATOM     26  O   UNL A   1      39.709  21.989  26.269  1.00  0.00    -0.246 OA
BRANCH  25  27
ATOM     27  C   UNL A   1      39.412  24.247  26.918  1.00  0.00     0.060 A 
ATOM     28  C   UNL A   1      39.969  25.166  26.033  1.00  0.00     0.016 A 
ATOM     29  C   UNL A   1      39.363  24.524  28.283  1.00  0.00     0.016 A 
ATOM     30  C   UNL A   1      40.491  26.369  26.492  1.00  0.00     0.010 A 
ATOM     31  C   UNL A   1      39.881  25.742  28.749  1.00  0.00     0.010 A 
ATOM     32  C   UNL A   1      40.459  26.668  27.858  1.00  0.00    -0.014 A 
BRANCH  32  33
ATOM     33  C   UNL A   1      41.094  27.920  28.343  1.00  0.00     0.031 A 
ATOM     34  C   UNL A   1      42.581  28.103  28.210  1.00  0.00     0.074 A 
ATOM     35  C   UNL A   1      40.336  28.910  28.852  1.00  0.00     0.049 A 
ATOM     36  N   UNL A   1      43.335  29.080  28.643  1.00  0.00    -0.248 NA
ATOM     37  C   UNL A   1      43.317  27.046  27.496  1.00  0.00     0.031 C 
ATOM     38  C   UNL A   1      38.876  28.886  28.968  1.00  0.00     0.029 A 
ATOM     39  N   UNL A   1      40.689  30.136  29.359  1.00  0.00    -0.354 N 
ATOM     40  C   UNL A   1      44.636  28.740  28.289  1.00  0.00     0.074 A 
ATOM     41  C   UNL A   1      44.570  27.463  27.611  1.00  0.00     0.031 C 
ATOM     42  C   UNL A   1      38.458  30.048  29.494  1.00  0.00     0.029 A 
ATOM     43  C   UNL A   1      39.619  30.873  29.812  1.00  0.00     0.049 A 
ATOM     44  H   UNL A   1      41.618  30.458  29.395  1.00  0.00     0.167 HD
ATOM     45  C   UNL A   1      45.782  29.429  28.513  1.00  0.00     0.031 A 
ATOM     46  C   UNL A   1      39.580  32.064  30.441  1.00  0.00     0.031 A 
ATOM     47  C   UNL A   1      45.838  30.707  29.172  1.00  0.00     0.049 A 
ATOM     48  C   UNL A   1      40.870  32.781  30.735  1.00  0.00     0.074 A 
ATOM     49  C   UNL A   1      46.949  31.487  29.443  1.00  0.00     0.029 A 
ATOM     50  N   UNL A   1      44.737  31.397  29.660  1.00  0.00    -0.354 N 
ATOM     51  N   UNL A   1      42.095  32.431  30.422  1.00  0.00    -0.248 NA
ATOM     52  C   UNL A   1      40.774  34.047  31.472  1.00  0.00     0.031 C 
ATOM     53  C   UNL A   1      46.525  32.625  30.138  1.00  0.00     0.029 A 
ATOM     54  C   UNL A   1      45.144  32.582  30.249  1.00  0.00     0.049 A 
ATOM     55  H   UNL A   1      43.805  31.089  29.596  1.00  0.00     0.167 HD
ATOM     56  C   UNL A   1      42.913  33.444  30.907  1.00  0.00     0.074 A 
ATOM     57  C   UNL A   1      42.044  34.427  31.520  1.00  0.00     0.031 C 
ATOM     58  C   UNL A   1      44.264  33.550  30.853  1.00  0.00     0.031 A 
BRANCH  45  59
ATOM     59  C   UNL A   1      47.075  28.788  28.086  1.00  0.00    -0.014 A 
ATOM     60  C   UNL A   1      47.782  27.919  28.936  1.00  0.00     0.010 A 
ATOM     61  C   UNL A   1      47.572  29.035  26.793  1.00  0.00     0.010 A 
ATOM     62  C   UNL A   1      48.982  27.338  28.513  1.00  0.00     0.020 A 
ATOM     63  C   UNL A   1      48.758  28.436  26.357  1.00  0.00     0.020 A 
ATOM     64  C   UNL A   1      49.464  27.604  27.227  1.00  0.00     0.054 A 
BRANCH  64  65
ATOM     65  S   UNL A   1      51.014  26.824  26.697  1.00  0.00     0.124 S 
ATOM     66  O   UNL A   1      51.665  27.911  25.970  1.00  0.00    -0.237 OA
ATOM     67  O   UNL A   1      51.638  26.453  27.964  1.00  0.00    -0.237 OA
ATOM     68  O   UNL A   1      50.572  25.701  25.872  1.00  0.00    -0.744 OA
ENDBRANCH  64  65
ENDBRANCH  45  59
BRANCH  46  69
ATOM     69  C   UNL A   1      38.274  32.634  30.878  1.00  0.00    -0.014 A 
ATOM     70  C   UNL A   1      37.525  33.457  30.018  1.00  0.00     0.010 A 
ATOM     71  C   UNL A   1      37.771  32.351  32.161  1.00  0.00     0.010 A 
ATOM     72  C   UNL A   1      36.306  33.997  30.440  1.00  0.00     0.020 A 
ATOM     73  C   UNL A   1      36.539  32.865  32.576  1.00  0.00     0.020 A 
ATOM     74  C   UNL A   1      35.820  33.696  31.716  1.00  0.00     0.054 A 
BRANCH  74  75
ATOM     75  S   UNL A   1      34.213  34.366  32.227  1.00  0.00     0.124 S 
ATOM     76  O   UNL A   1      33.724  33.330  33.130  1.00  0.00    -0.237 OA
ATOM     77  O   UNL A   1      34.583  35.632  32.856  1.00  0.00    -0.237 OA
ATOM     78  O   UNL A   1      33.482  34.497  30.968  1.00  0.00    -0.744 OA
ENDBRANCH  74  75
ENDBRANCH  46  69
BRANCH  58  79
ATOM     79  C   UNL A   1      44.884  34.789  31.442  1.00  0.00    -0.014 A 
ATOM     80  C   UNL A   1      45.317  34.823  32.778  1.00  0.00     0.010 A 
ATOM     81  C   UNL A   1      45.081  35.918  30.626  1.00  0.00     0.010 A 
ATOM     82  C   UNL A   1      45.910  35.978  33.298  1.00  0.00     0.020 A 
ATOM     83  C   UNL A   1      45.696  37.065  31.135  1.00  0.00     0.020 A 
ATOM     84  C   UNL A   1      46.094  37.091  32.473  1.00  0.00     0.054 A 
BRANCH  84  85
ATOM     85  S   UNL A   1      46.905  38.563  33.158  1.00  0.00     0.124 S 
ATOM     86  O   UNL A   1      46.873  38.286  34.592  1.00  0.00    -0.237 OA
ATOM     87  O   UNL A   1      48.227  38.519  32.539  1.00  0.00    -0.237 OA
ATOM     88  O   UNL A   1      46.053  39.665  32.716  1.00  0.00    -0.744 OA
ENDBRANCH  84  85
ENDBRANCH  58  79
ENDBRANCH  32  33
ENDBRANCH  25  27
ENDBRANCH  24  25
ENDBRANCH  23  24
ENDBRANCH   1  23
TORSDOF 18
ENDMDL
