MODEL 1
REMARK VINA RESULT:     -11.6      0.000      0.000
REMARK SMILES O=C(OCCOC(=O)c1ccc(-c2c3nc(c(-c4ccc(S(=O)(=O)[O-])cc4)c4ccc([nH]4)c(-c4ccc(S(=O)(=O)[O-])cc4)c4nc(c(-c5ccc(S(=O)(=O)[O-])cc5)c5ccc2[nH]5)C=C4)C=C3)cc1)C1=Cc2cc(Cl)cc(-c3ccccc3)c2O[C@@H]1C(F)(F)F
REMARK SMILES IDX 5 1 4 2 3 3 2 4 1 5 69 6 70 7 85 8 71 9 84 10 72 11 83 12
REMARK SMILES IDX 73 13 76 14 74 15 75 16 86 17 87 18 88 19 89 20 77 21 78 22
REMARK SMILES IDX 82 23 79 24 81 25 80 26 6 27 7 28 8 29 9 30 10 31 68 32
REMARK SMILES IDX 11 33 67 34 12 35 13 36 14 37 61 38 15 39 66 40 60 41 62 42
REMARK SMILES IDX 16 43 65 44 59 45 58 46 17 48 47 49 28 50 46 51 29 52 32 53
REMARK SMILES IDX 45 54 63 55 30 56 31 57 44 59 64 60 33 61 18 62 19 63 27 64
REMARK SMILES IDX 20 65 26 66 21 67 22 68 23 69 24 70 25 71 48 72 49 73 57 74
REMARK SMILES IDX 50 75 56 76 51 77 52 78 53 79 54 80 55 81 34 82 35 83 43 84
REMARK SMILES IDX 36 85 42 86 37 87 38 88 39 89 40 90 41 91
REMARK H PARENT 62 47 32 58
REMARK Flexibility Score: inf
ROOT
ATOM      1  C   UNL A   1      36.000  22.587  26.056  1.00  0.00     0.275 C 
ENDROOT
BRANCH   1   2
ATOM      2  C   UNL A   1      34.818  23.164  26.880  1.00  0.00     0.275 C 
BRANCH   2   3
ATOM      3  O   UNL A   1      33.519  22.593  26.558  1.00  0.00    -0.459 OA
BRANCH   3   4
ATOM      4  C   UNL A   1      32.468  23.453  26.393  1.00  0.00     0.338 C 
ATOM      5  O   UNL A   1      31.781  23.855  27.319  1.00  0.00    -0.246 OA
BRANCH   4   6
ATOM      6  C   UNL A   1      32.273  23.869  24.983  1.00  0.00     0.087 C 
ATOM      7  C   UNL A   1      31.047  24.129  24.495  1.00  0.00     0.027 C 
ATOM      8  C   UNL A   1      33.419  24.462  24.245  1.00  0.00     0.316 C 
ATOM      9  C   UNL A   1      30.945  25.541  24.019  1.00  0.00     0.019 A 
ATOM     10  O   UNL A   1      33.325  25.907  24.326  1.00  0.00    -0.475 OA
ATOM     11  C   UNL A   1      29.710  26.093  23.685  1.00  0.00     0.032 A 
ATOM     12  C   UNL A   1      32.041  26.407  24.265  1.00  0.00     0.135 A 
ATOM     13  C   UNL A   1      29.562  27.481  23.667  1.00  0.00     0.042 A 
ATOM     14  C   UNL A   1      31.815  27.774  24.533  1.00  0.00     0.026 A 
ATOM     15  Cl  UNL A   1      28.053  28.180  23.230  1.00  0.00    -0.084 Cl
ATOM     16  C   UNL A   1      30.582  28.309  24.134  1.00  0.00     0.033 A 
BRANCH   8  17
ATOM     17  C   UNL A   1      33.605  23.818  22.854  1.00  0.00     0.430 C 
ATOM     18  F   UNL A   1      34.891  23.401  22.710  1.00  0.00    -0.167 F 
ATOM     19  F   UNL A   1      32.823  22.737  22.638  1.00  0.00    -0.167 F 
ATOM     20  F   UNL A   1      33.363  24.699  21.858  1.00  0.00    -0.167 F 
ENDBRANCH   8  17
BRANCH  14  21
ATOM     21  C   UNL A   1      32.589  28.560  25.531  1.00  0.00    -0.015 A 
ATOM     22  C   UNL A   1      32.047  29.800  25.957  1.00  0.00     0.009 A 
ATOM     23  C   UNL A   1      33.835  28.194  26.049  1.00  0.00     0.009 A 
ATOM     24  C   UNL A   1      32.718  30.640  26.851  1.00  0.00     0.001 A 
ATOM     25  C   UNL A   1      34.507  29.035  26.954  1.00  0.00     0.001 A 
ATOM     26  C   UNL A   1      33.954  30.256  27.350  1.00  0.00     0.000 A 
ENDBRANCH  14  21
ENDBRANCH   4   6
ENDBRANCH   3   4
ENDBRANCH   2   3
ENDBRANCH   1   2
BRANCH   1  27
ATOM     27  O   UNL A   1      37.017  23.546  25.752  1.00  0.00    -0.458 OA
BRANCH  27  28
ATOM     28  C   UNL A   1      38.257  23.169  26.125  1.00  0.00     0.338 C 
ATOM     29  O   UNL A   1      38.829  22.142  25.791  1.00  0.00    -0.246 OA
BRANCH  28  30
ATOM     30  C   UNL A   1      38.918  24.318  26.782  1.00  0.00     0.060 A 
ATOM     31  C   UNL A   1      38.666  24.478  28.145  1.00  0.00     0.016 A 
ATOM     32  C   UNL A   1      39.805  25.182  26.123  1.00  0.00     0.016 A 
ATOM     33  C   UNL A   1      39.236  25.539  28.839  1.00  0.00     0.010 A 
ATOM     34  C   UNL A   1      40.401  26.234  26.833  1.00  0.00     0.010 A 
ATOM     35  C   UNL A   1      40.080  26.448  28.185  1.00  0.00    -0.014 A 
BRANCH  35  36
ATOM     36  C   UNL A   1      40.437  27.701  28.902  1.00  0.00     0.031 A 
ATOM     37  C   UNL A   1      41.857  27.882  29.372  1.00  0.00     0.074 A 
ATOM     38  C   UNL A   1      39.563  28.724  28.994  1.00  0.00     0.049 A 
ATOM     39  N   UNL A   1      42.456  28.966  29.797  1.00  0.00    -0.248 NA
ATOM     40  C   UNL A   1      42.723  26.691  29.349  1.00  0.00     0.031 C 
ATOM     41  C   UNL A   1      38.161  28.683  28.577  1.00  0.00     0.029 A 
ATOM     42  N   UNL A   1      39.740  30.011  29.440  1.00  0.00    -0.354 N 
ATOM     43  C   UNL A   1      43.771  28.593  30.054  1.00  0.00     0.074 A 
ATOM     44  C   UNL A   1      43.865  27.171  29.815  1.00  0.00     0.031 C 
ATOM     45  C   UNL A   1      37.612  29.897  28.764  1.00  0.00     0.029 A 
ATOM     46  C   UNL A   1      38.620  30.801  29.317  1.00  0.00     0.049 A 
ATOM     47  H   UNL A   1      40.590  30.339  29.813  1.00  0.00     0.167 HD
ATOM     48  C   UNL A   1      44.821  29.366  30.415  1.00  0.00     0.031 A 
ATOM     49  C   UNL A   1      38.432  32.105  29.604  1.00  0.00     0.031 A 
ATOM     50  C   UNL A   1      44.732  30.775  30.682  1.00  0.00     0.049 A 
ATOM     51  C   UNL A   1      39.604  32.930  30.085  1.00  0.00     0.074 A 
ATOM     52  C   UNL A   1      45.739  31.644  31.062  1.00  0.00     0.029 A 
ATOM     53  N   UNL A   1      43.566  31.520  30.602  1.00  0.00    -0.354 N 
ATOM     54  N   UNL A   1      40.857  32.573  30.249  1.00  0.00    -0.248 NA
ATOM     55  C   UNL A   1      39.339  34.343  30.393  1.00  0.00     0.031 C 
ATOM     56  C   UNL A   1      45.170  32.904  31.268  1.00  0.00     0.029 A 
ATOM     57  C   UNL A   1      43.823  32.834  30.951  1.00  0.00     0.049 A 
ATOM     58  H   UNL A   1      42.687  31.167  30.336  1.00  0.00     0.167 HD
ATOM     59  C   UNL A   1      41.531  33.725  30.646  1.00  0.00     0.074 A 
ATOM     60  C   UNL A   1      40.555  34.793  30.671  1.00  0.00     0.031 C 
ATOM     61  C   UNL A   1      42.840  33.888  30.967  1.00  0.00     0.031 A 
BRANCH  48  62
ATOM     62  C   UNL A   1      46.159  28.690  30.541  1.00  0.00    -0.014 A 
ATOM     63  C   UNL A   1      46.629  28.257  31.795  1.00  0.00     0.010 A 
ATOM     64  C   UNL A   1      46.945  28.461  29.398  1.00  0.00     0.010 A 
ATOM     65  C   UNL A   1      47.876  27.637  31.908  1.00  0.00     0.020 A 
ATOM     66  C   UNL A   1      48.181  27.816  29.504  1.00  0.00     0.020 A 
ATOM     67  C   UNL A   1      48.643  27.421  30.760  1.00  0.00     0.054 A 
BRANCH  67  68
ATOM     68  S   UNL A   1      50.244  26.587  30.935  1.00  0.00     0.124 S 
ATOM     69  O   UNL A   1      50.814  27.268  32.096  1.00  0.00    -0.237 OA
ATOM     70  O   UNL A   1      49.857  25.195  31.151  1.00  0.00    -0.237 OA
ATOM     71  O   UNL A   1      50.916  26.855  29.667  1.00  0.00    -0.744 OA
ENDBRANCH  67  68
ENDBRANCH  48  62
BRANCH  49  72
ATOM     72  C   UNL A   1      37.085  32.732  29.461  1.00  0.00    -0.014 A 
ATOM     73  C   UNL A   1      36.576  33.094  28.199  1.00  0.00     0.010 A 
ATOM     74  C   UNL A   1      36.330  33.040  30.608  1.00  0.00     0.010 A 
ATOM     75  C   UNL A   1      35.369  33.795  28.093  1.00  0.00     0.020 A 
ATOM     76  C   UNL A   1      35.108  33.710  30.504  1.00  0.00     0.020 A 
ATOM     77  C   UNL A   1      34.646  34.104  29.248  1.00  0.00     0.054 A 
BRANCH  77  78
ATOM     78  S   UNL A   1      33.086  35.021  29.090  1.00  0.00     0.124 S 
ATOM     79  O   UNL A   1      32.378  34.242  28.079  1.00  0.00    -0.237 OA
ATOM     80  O   UNL A   1      32.542  34.950  30.442  1.00  0.00    -0.237 OA
ATOM     81  O   UNL A   1      33.515  36.353  28.667  1.00  0.00    -0.744 OA
ENDBRANCH  77  78
ENDBRANCH  49  72
BRANCH  61  82
ATOM     82  C   UNL A   1      43.301  35.275  31.338  1.00  0.00    -0.014 A 
ATOM     83  C   UNL A   1      43.754  36.183  30.364  1.00  0.00     0.010 A 
ATOM     84  C   UNL A   1      43.240  35.690  32.682  1.00  0.00     0.010 A 
ATOM     85  C   UNL A   1      44.185  37.460  30.733  1.00  0.00     0.020 A 
ATOM     86  C   UNL A   1      43.636  36.978  33.050  1.00  0.00     0.020 A 
ATOM     87  C   UNL A   1      44.126  37.848  32.075  1.00  0.00     0.054 A 
BRANCH  87  88
ATOM     88  S   UNL A   1      44.671  39.519  32.525  1.00  0.00     0.124 S 
ATOM     89  O   UNL A   1      43.723  40.355  31.794  1.00  0.00    -0.237 OA
ATOM     90  O   UNL A   1      44.522  39.524  33.979  1.00  0.00    -0.237 OA
ATOM     91  O   UNL A   1      46.051  39.576  32.047  1.00  0.00    -0.744 OA
ENDBRANCH  87  88
ENDBRANCH  61  82
ENDBRANCH  35  36
ENDBRANCH  28  30
ENDBRANCH  27  28
ENDBRANCH   1  27
TORSDOF 16
ENDMDL
MODEL 2
REMARK VINA RESULT:     -11.5      4.874     10.926
REMARK SMILES O=C(OCCOC(=O)c1ccc(-c2c3nc(c(-c4ccc(S(=O)(=O)[O-])cc4)c4ccc([nH]4)c(-c4ccc(S(=O)(=O)[O-])cc4)c4nc(c(-c5ccc(S(=O)(=O)[O-])cc5)c5ccc2[nH]5)C=C4)C=C3)cc1)C1=Cc2cc(Cl)cc(-c3ccccc3)c2O[C@@H]1C(F)(F)F
REMARK SMILES IDX 5 1 4 2 3 3 2 4 1 5 69 6 70 7 85 8 71 9 84 10 72 11 83 12
REMARK SMILES IDX 73 13 76 14 74 15 75 16 86 17 87 18 88 19 89 20 77 21 78 22
REMARK SMILES IDX 82 23 79 24 81 25 80 26 6 27 7 28 8 29 9 30 10 31 68 32
REMARK SMILES IDX 11 33 67 34 12 35 13 36 14 37 61 38 15 39 66 40 60 41 62 42
REMARK SMILES IDX 16 43 65 44 59 45 58 46 17 48 47 49 28 50 46 51 29 52 32 53
REMARK SMILES IDX 45 54 63 55 30 56 31 57 44 59 64 60 33 61 18 62 19 63 27 64
REMARK SMILES IDX 20 65 26 66 21 67 22 68 23 69 24 70 25 71 48 72 49 73 57 74
REMARK SMILES IDX 50 75 56 76 51 77 52 78 53 79 54 80 55 81 34 82 35 83 43 84
REMARK SMILES IDX 36 85 42 86 37 87 38 88 39 89 40 90 41 91
REMARK H PARENT 62 47 32 58
REMARK Flexibility Score: inf
ROOT
ATOM      1  C   UNL A   1      33.299  31.776  27.982  1.00  0.00     0.275 C 
ENDROOT
BRANCH   1   2
ATOM      2  C   UNL A   1      33.131  33.303  27.753  1.00  0.00     0.275 C 
BRANCH   2   3
ATOM      3  O   UNL A   1      33.355  34.122  28.935  1.00  0.00    -0.459 OA
BRANCH   3   4
ATOM      4  C   UNL A   1      34.619  34.153  29.458  1.00  0.00     0.338 C 
ATOM      5  O   UNL A   1      35.608  34.438  28.801  1.00  0.00    -0.246 OA
BRANCH   4   6
ATOM      6  C   UNL A   1      34.656  33.837  30.906  1.00  0.00     0.087 C 
ATOM      7  C   UNL A   1      34.723  32.565  31.341  1.00  0.00     0.027 C 
ATOM      8  C   UNL A   1      35.102  34.887  31.859  1.00  0.00     0.316 C 
ATOM      9  C   UNL A   1      35.963  32.334  32.142  1.00  0.00     0.019 A 
ATOM     10  O   UNL A   1      36.513  34.698  32.130  1.00  0.00    -0.475 OA
ATOM     11  C   UNL A   1      36.349  31.044  32.500  1.00  0.00     0.032 A 
ATOM     12  C   UNL A   1      36.916  33.381  32.208  1.00  0.00     0.135 A 
ATOM     13  C   UNL A   1      37.679  30.800  32.848  1.00  0.00     0.042 A 
ATOM     14  C   UNL A   1      38.294  33.080  32.268  1.00  0.00     0.026 A 
ATOM     15  Cl  UNL A   1      38.168  29.220  33.320  1.00  0.00    -0.084 Cl
ATOM     16  C   UNL A   1      38.648  31.788  32.685  1.00  0.00     0.033 A 
BRANCH   8  17
ATOM     17  C   UNL A   1      34.138  35.024  33.058  1.00  0.00     0.430 C 
ATOM     18  F   UNL A   1      34.415  36.168  33.740  1.00  0.00    -0.167 F 
ATOM     19  F   UNL A   1      32.834  35.088  32.713  1.00  0.00    -0.167 F 
ATOM     20  F   UNL A   1      34.278  34.002  33.931  1.00  0.00    -0.167 F 
ENDBRANCH   8  17
BRANCH  14  21
ATOM     21  C   UNL A   1      39.343  33.861  31.562  1.00  0.00    -0.015 A 
ATOM     22  C   UNL A   1      39.114  34.196  30.203  1.00  0.00     0.009 A 
ATOM     23  C   UNL A   1      40.564  34.252  32.121  1.00  0.00     0.009 A 
ATOM     24  C   UNL A   1      40.058  34.882  29.433  1.00  0.00     0.001 A 
ATOM     25  C   UNL A   1      41.512  34.949  31.349  1.00  0.00     0.001 A 
ATOM     26  C   UNL A   1      41.263  35.258  30.009  1.00  0.00     0.000 A 
ENDBRANCH  14  21
ENDBRANCH   4   6
ENDBRANCH   3   4
ENDBRANCH   2   3
ENDBRANCH   1   2
BRANCH   1  27
ATOM     27  O   UNL A   1      34.580  31.270  27.594  1.00  0.00    -0.458 OA
BRANCH  27  28
ATOM     28  C   UNL A   1      34.742  29.951  27.825  1.00  0.00     0.338 C 
ATOM     29  O   UNL A   1      33.937  29.069  27.564  1.00  0.00    -0.246 OA
BRANCH  28  30
ATOM     30  C   UNL A   1      36.154  29.711  28.195  1.00  0.00     0.060 A 
ATOM     31  C   UNL A   1      37.105  29.996  27.214  1.00  0.00     0.016 A 
ATOM     32  C   UNL A   1      36.560  29.283  29.467  1.00  0.00     0.016 A 
ATOM     33  C   UNL A   1      38.456  29.788  27.471  1.00  0.00     0.010 A 
ATOM     34  C   UNL A   1      37.925  29.101  29.733  1.00  0.00     0.010 A 
ATOM     35  C   UNL A   1      38.877  29.304  28.719  1.00  0.00    -0.014 A 
BRANCH  35  36
ATOM     36  C   UNL A   1      40.287  28.848  28.844  1.00  0.00     0.031 A 
ATOM     37  C   UNL A   1      41.277  29.748  29.538  1.00  0.00     0.074 A 
ATOM     38  C   UNL A   1      40.647  27.597  28.493  1.00  0.00     0.049 A 
ATOM     39  N   UNL A   1      42.480  29.473  29.973  1.00  0.00    -0.248 NA
ATOM     40  C   UNL A   1      40.853  31.136  29.787  1.00  0.00     0.031 C 
ATOM     41  C   UNL A   1      39.788  26.624  27.816  1.00  0.00     0.029 A 
ATOM     42  N   UNL A   1      41.826  26.919  28.690  1.00  0.00    -0.354 N 
ATOM     43  C   UNL A   1      42.937  30.640  30.577  1.00  0.00     0.074 A 
ATOM     44  C   UNL A   1      41.919  31.646  30.383  1.00  0.00     0.031 C 
ATOM     45  C   UNL A   1      40.461  25.467  27.678  1.00  0.00     0.029 A 
ATOM     46  C   UNL A   1      41.798  25.616  28.250  1.00  0.00     0.049 A 
ATOM     47  H   UNL A   1      42.618  27.328  29.108  1.00  0.00     0.167 HD
ATOM     48  C   UNL A   1      44.081  30.849  31.269  1.00  0.00     0.031 A 
ATOM     49  C   UNL A   1      42.738  24.650  28.313  1.00  0.00     0.031 A 
ATOM     50  C   UNL A   1      45.111  29.864  31.444  1.00  0.00     0.049 A 
ATOM     51  C   UNL A   1      44.042  24.936  29.021  1.00  0.00     0.074 A 
ATOM     52  C   UNL A   1      46.310  29.984  32.122  1.00  0.00     0.029 A 
ATOM     53  N   UNL A   1      45.066  28.577  30.931  1.00  0.00    -0.354 N 
ATOM     54  N   UNL A   1      44.422  26.023  29.651  1.00  0.00    -0.248 NA
ATOM     55  C   UNL A   1      45.033  23.850  29.051  1.00  0.00     0.031 C 
ATOM     56  C   UNL A   1      47.017  28.787  31.970  1.00  0.00     0.029 A 
ATOM     57  C   UNL A   1      46.228  27.900  31.255  1.00  0.00     0.049 A 
ATOM     58  H   UNL A   1      44.318  28.201  30.413  1.00  0.00     0.167 HD
ATOM     59  C   UNL A   1      45.680  25.738  30.177  1.00  0.00     0.074 A 
ATOM     60  C   UNL A   1      45.982  24.370  29.816  1.00  0.00     0.031 C 
ATOM     61  C   UNL A   1      46.514  26.535  30.891  1.00  0.00     0.031 A 
BRANCH  48  62
ATOM     62  C   UNL A   1      44.268  32.208  31.888  1.00  0.00    -0.014 A 
ATOM     63  C   UNL A   1      43.813  32.470  33.194  1.00  0.00     0.010 A 
ATOM     64  C   UNL A   1      44.925  33.225  31.174  1.00  0.00     0.010 A 
ATOM     65  C   UNL A   1      43.981  33.735  33.762  1.00  0.00     0.020 A 
ATOM     66  C   UNL A   1      45.120  34.484  31.750  1.00  0.00     0.020 A 
ATOM     67  C   UNL A   1      44.635  34.734  33.035  1.00  0.00     0.054 A 
BRANCH  67  68
ATOM     68  S   UNL A   1      44.865  36.357  33.810  1.00  0.00     0.124 S 
ATOM     69  O   UNL A   1      44.109  37.230  32.914  1.00  0.00    -0.237 OA
ATOM     70  O   UNL A   1      44.282  36.162  35.136  1.00  0.00    -0.237 OA
ATOM     71  O   UNL A   1      46.313  36.549  33.791  1.00  0.00    -0.744 OA
ENDBRANCH  67  68
ENDBRANCH  48  62
BRANCH  49  72
ATOM     72  C   UNL A   1      42.504  23.316  27.685  1.00  0.00    -0.014 A 
ATOM     73  C   UNL A   1      41.862  22.279  28.388  1.00  0.00     0.010 A 
ATOM     74  C   UNL A   1      42.997  23.054  26.393  1.00  0.00     0.010 A 
ATOM     75  C   UNL A   1      41.763  20.998  27.832  1.00  0.00     0.020 A 
ATOM     76  C   UNL A   1      42.871  21.785  25.821  1.00  0.00     0.020 A 
ATOM     77  C   UNL A   1      42.275  20.757  26.555  1.00  0.00     0.054 A 
BRANCH  77  78
ATOM     78  S   UNL A   1      42.146  19.087  25.855  1.00  0.00     0.124 S 
ATOM     79  O   UNL A   1      42.649  18.261  26.948  1.00  0.00    -0.237 OA
ATOM     80  O   UNL A   1      40.718  18.972  25.578  1.00  0.00    -0.237 OA
ATOM     81  O   UNL A   1      43.001  19.145  24.670  1.00  0.00    -0.744 OA
ENDBRANCH  77  78
ENDBRANCH  49  72
BRANCH  61  82
ATOM     82  C   UNL A   1      47.818  25.940  31.360  1.00  0.00    -0.014 A 
ATOM     83  C   UNL A   1      48.944  25.887  30.519  1.00  0.00     0.010 A 
ATOM     84  C   UNL A   1      47.929  25.463  32.680  1.00  0.00     0.010 A 
ATOM     85  C   UNL A   1      50.139  25.322  30.972  1.00  0.00     0.020 A 
ATOM     86  C   UNL A   1      49.132  24.931  33.148  1.00  0.00     0.020 A 
ATOM     87  C   UNL A   1      50.225  24.845  32.283  1.00  0.00     0.054 A 
BRANCH  87  88
ATOM     88  S   UNL A   1      51.794  24.136  32.854  1.00  0.00     0.124 S 
ATOM     89  O   UNL A   1      51.653  22.735  32.467  1.00  0.00    -0.237 OA
ATOM     90  O   UNL A   1      52.785  24.901  32.099  1.00  0.00    -0.237 OA
ATOM     91  O   UNL A   1      51.787  24.389  34.293  1.00  0.00    -0.744 OA
ENDBRANCH  87  88
ENDBRANCH  61  82
ENDBRANCH  35  36
ENDBRANCH  28  30
ENDBRANCH  27  28
ENDBRANCH   1  27
TORSDOF 16
ENDMDL
MODEL 3
REMARK VINA RESULT:     -11.3      5.664     11.604
REMARK SMILES O=C(OCCOC(=O)c1ccc(-c2c3nc(c(-c4ccc(S(=O)(=O)[O-])cc4)c4ccc([nH]4)c(-c4ccc(S(=O)(=O)[O-])cc4)c4nc(c(-c5ccc(S(=O)(=O)[O-])cc5)c5ccc2[nH]5)C=C4)C=C3)cc1)C1=Cc2cc(Cl)cc(-c3ccccc3)c2O[C@@H]1C(F)(F)F
REMARK SMILES IDX 5 1 4 2 3 3 2 4 1 5 69 6 70 7 85 8 71 9 84 10 72 11 83 12
REMARK SMILES IDX 73 13 76 14 74 15 75 16 86 17 87 18 88 19 89 20 77 21 78 22
REMARK SMILES IDX 82 23 79 24 81 25 80 26 6 27 7 28 8 29 9 30 10 31 68 32
REMARK SMILES IDX 11 33 67 34 12 35 13 36 14 37 61 38 15 39 66 40 60 41 62 42
REMARK SMILES IDX 16 43 65 44 59 45 58 46 17 48 47 49 28 50 46 51 29 52 32 53
REMARK SMILES IDX 45 54 63 55 30 56 31 57 44 59 64 60 33 61 18 62 19 63 27 64
REMARK SMILES IDX 20 65 26 66 21 67 22 68 23 69 24 70 25 71 48 72 49 73 57 74
REMARK SMILES IDX 50 75 56 76 51 77 52 78 53 79 54 80 55 81 34 82 35 83 43 84
REMARK SMILES IDX 36 85 42 86 37 87 38 88 39 89 40 90 41 91
REMARK H PARENT 62 47 32 58
REMARK Flexibility Score: inf
ROOT
ATOM      1  C   UNL A   1      34.004  33.273  27.745  1.00  0.00     0.275 C 
ENDROOT
BRANCH   1   2
ATOM      2  C   UNL A   1      33.690  34.063  29.043  1.00  0.00     0.275 C 
BRANCH   2   3
ATOM      3  O   UNL A   1      34.722  33.984  30.066  1.00  0.00    -0.459 OA
BRANCH   3   4
ATOM      4  C   UNL A   1      34.441  33.274  31.202  1.00  0.00     0.338 C 
ATOM      5  O   UNL A   1      34.134  32.093  31.193  1.00  0.00    -0.246 OA
BRANCH   4   6
ATOM      6  C   UNL A   1      34.579  34.080  32.438  1.00  0.00     0.087 C 
ATOM      7  C   UNL A   1      34.745  33.493  33.638  1.00  0.00     0.027 C 
ATOM      8  C   UNL A   1      35.016  35.496  32.328  1.00  0.00     0.316 C 
ATOM      9  C   UNL A   1      36.040  33.900  34.262  1.00  0.00     0.019 A 
ATOM     10  O   UNL A   1      36.450  35.557  32.536  1.00  0.00    -0.475 OA
ATOM     11  C   UNL A   1      36.522  33.246  35.394  1.00  0.00     0.032 A 
ATOM     12  C   UNL A   1      36.933  34.684  33.490  1.00  0.00     0.135 A 
ATOM     13  C   UNL A   1      37.881  33.322  35.703  1.00  0.00     0.042 A 
ATOM     14  C   UNL A   1      38.327  34.516  33.632  1.00  0.00     0.026 A 
ATOM     15  Cl  UNL A   1      38.488  32.544  37.112  1.00  0.00    -0.084 Cl
ATOM     16  C   UNL A   1      38.780  33.903  34.810  1.00  0.00     0.033 A 
BRANCH   8  17
ATOM     17  C   UNL A   1      34.117  36.444  33.152  1.00  0.00     0.430 C 
ATOM     18  F   UNL A   1      34.408  37.735  32.843  1.00  0.00    -0.167 F 
ATOM     19  F   UNL A   1      32.794  36.283  32.926  1.00  0.00    -0.167 F 
ATOM     20  F   UNL A   1      34.323  36.300  34.480  1.00  0.00    -0.167 F 
ENDBRANCH   8  17
BRANCH  14  21
ATOM     21  C   UNL A   1      39.287  34.566  32.498  1.00  0.00    -0.015 A 
ATOM     22  C   UNL A   1      38.758  34.503  31.183  1.00  0.00     0.009 A 
ATOM     23  C   UNL A   1      40.678  34.621  32.626  1.00  0.00     0.009 A 
ATOM     24  C   UNL A   1      39.575  34.489  30.049  1.00  0.00     0.001 A 
ATOM     25  C   UNL A   1      41.501  34.615  31.485  1.00  0.00     0.001 A 
ATOM     26  C   UNL A   1      40.954  34.544  30.202  1.00  0.00     0.000 A 
ENDBRANCH  14  21
ENDBRANCH   4   6
ENDBRANCH   3   4
ENDBRANCH   2   3
ENDBRANCH   1   2
BRANCH   1  27
ATOM     27  O   UNL A   1      35.182  32.465  27.828  1.00  0.00    -0.458 OA
BRANCH  27  28
ATOM     28  C   UNL A   1      34.935  31.150  28.004  1.00  0.00     0.338 C 
ATOM     29  O   UNL A   1      33.870  30.584  27.807  1.00  0.00    -0.246 OA
BRANCH  28  30
ATOM     30  C   UNL A   1      36.224  30.456  28.212  1.00  0.00     0.060 A 
ATOM     31  C   UNL A   1      36.344  29.717  29.390  1.00  0.00     0.016 A 
ATOM     32  C   UNL A   1      37.267  30.461  27.275  1.00  0.00     0.016 A 
ATOM     33  C   UNL A   1      37.527  29.043  29.673  1.00  0.00     0.010 A 
ATOM     34  C   UNL A   1      38.448  29.757  27.550  1.00  0.00     0.010 A 
ATOM     35  C   UNL A   1      38.603  29.084  28.774  1.00  0.00    -0.014 A 
BRANCH  35  36
ATOM     36  C   UNL A   1      39.920  28.579  29.247  1.00  0.00     0.031 A 
ATOM     37  C   UNL A   1      40.641  29.346  30.325  1.00  0.00     0.074 A 
ATOM     38  C   UNL A   1      40.390  27.381  28.845  1.00  0.00     0.049 A 
ATOM     39  N   UNL A   1      41.665  28.982  31.055  1.00  0.00    -0.248 NA
ATOM     40  C   UNL A   1      40.138  30.696  30.631  1.00  0.00     0.031 C 
ATOM     41  C   UNL A   1      39.789  26.536  27.812  1.00  0.00     0.029 A 
ATOM     42  N   UNL A   1      41.468  26.652  29.286  1.00  0.00    -0.354 N 
ATOM     43  C   UNL A   1      41.899  30.040  31.927  1.00  0.00     0.074 A 
ATOM     44  C   UNL A   1      40.968  31.089  31.584  1.00  0.00     0.031 C 
ATOM     45  C   UNL A   1      40.493  25.393  27.717  1.00  0.00     0.029 A 
ATOM     46  C   UNL A   1      41.596  25.425  28.677  1.00  0.00     0.049 A 
ATOM     47  H   UNL A   1      42.093  26.978  29.974  1.00  0.00     0.167 HD
ATOM     48  C   UNL A   1      42.781  30.121  32.951  1.00  0.00     0.031 A 
ATOM     49  C   UNL A   1      42.491  24.436  28.878  1.00  0.00     0.031 A 
ATOM     50  C   UNL A   1      43.729  29.094  33.282  1.00  0.00     0.049 A 
ATOM     51  C   UNL A   1      43.519  24.586  29.976  1.00  0.00     0.074 A 
ATOM     52  C   UNL A   1      44.670  29.086  34.296  1.00  0.00     0.029 A 
ATOM     53  N   UNL A   1      43.863  27.894  32.602  1.00  0.00    -0.354 N 
ATOM     54  N   UNL A   1      43.675  25.563  30.839  1.00  0.00    -0.248 NA
ATOM     55  C   UNL A   1      44.475  23.481  30.145  1.00  0.00     0.031 C 
ATOM     56  C   UNL A   1      45.410  27.905  34.193  1.00  0.00     0.029 A 
ATOM     57  C   UNL A   1      44.886  27.149  33.157  1.00  0.00     0.049 A 
ATOM     58  H   UNL A   1      43.310  27.614  31.836  1.00  0.00     0.167 HD
ATOM     59  C   UNL A   1      44.723  25.175  31.668  1.00  0.00     0.074 A 
ATOM     60  C   UNL A   1      45.144  23.864  31.223  1.00  0.00     0.031 C 
ATOM     61  C   UNL A   1      45.292  25.842  32.705  1.00  0.00     0.031 A 
BRANCH  48  62
ATOM     62  C   UNL A   1      42.751  31.373  33.784  1.00  0.00    -0.014 A 
ATOM     63  C   UNL A   1      41.829  31.510  34.838  1.00  0.00     0.010 A 
ATOM     64  C   UNL A   1      43.665  32.411  33.532  1.00  0.00     0.010 A 
ATOM     65  C   UNL A   1      41.799  32.679  35.604  1.00  0.00     0.020 A 
ATOM     66  C   UNL A   1      43.656  33.570  34.314  1.00  0.00     0.020 A 
ATOM     67  C   UNL A   1      42.714  33.701  35.336  1.00  0.00     0.054 A 
BRANCH  67  68
ATOM     68  S   UNL A   1      42.670  35.192  36.367  1.00  0.00     0.124 S 
ATOM     69  O   UNL A   1      43.870  35.030  37.184  1.00  0.00    -0.237 OA
ATOM     70  O   UNL A   1      42.724  36.265  35.377  1.00  0.00    -0.237 OA
ATOM     71  O   UNL A   1      41.406  35.077  37.090  1.00  0.00    -0.744 OA
ENDBRANCH  67  68
ENDBRANCH  48  62
BRANCH  49  72
ATOM     72  C   UNL A   1      42.479  23.210  28.027  1.00  0.00    -0.014 A 
ATOM     73  C   UNL A   1      41.655  22.112  28.337  1.00  0.00     0.010 A 
ATOM     74  C   UNL A   1      43.358  23.109  26.933  1.00  0.00     0.010 A 
ATOM     75  C   UNL A   1      41.748  20.923  27.603  1.00  0.00     0.020 A 
ATOM     76  C   UNL A   1      43.430  21.936  26.176  1.00  0.00     0.020 A 
ATOM     77  C   UNL A   1      42.640  20.841  26.531  1.00  0.00     0.054 A 
BRANCH  77  78
ATOM     78  S   UNL A   1      42.753  19.288  25.597  1.00  0.00     0.124 S 
ATOM     79  O   UNL A   1      41.355  19.036  25.258  1.00  0.00    -0.237 OA
ATOM     80  O   UNL A   1      43.620  19.654  24.481  1.00  0.00    -0.237 OA
ATOM     81  O   UNL A   1      43.342  18.354  26.555  1.00  0.00    -0.744 OA
ENDBRANCH  77  78
ENDBRANCH  49  72
BRANCH  61  82
ATOM     82  C   UNL A   1      46.407  25.153  33.451  1.00  0.00    -0.014 A 
ATOM     83  C   UNL A   1      47.756  25.371  33.119  1.00  0.00     0.010 A 
ATOM     84  C   UNL A   1      46.099  24.303  34.531  1.00  0.00     0.010 A 
ATOM     85  C   UNL A   1      48.773  24.715  33.818  1.00  0.00     0.020 A 
ATOM     86  C   UNL A   1      47.114  23.674  35.255  1.00  0.00     0.020 A 
ATOM     87  C   UNL A   1      48.445  23.867  34.880  1.00  0.00     0.054 A 
BRANCH  87  88
ATOM     88  S   UNL A   1      49.783  23.044  35.786  1.00  0.00     0.124 S 
ATOM     89  O   UNL A   1      50.367  22.191  34.755  1.00  0.00    -0.237 OA
ATOM     90  O   UNL A   1      50.613  24.165  36.220  1.00  0.00    -0.237 OA
ATOM     91  O   UNL A   1      49.092  22.336  36.862  1.00  0.00    -0.744 OA
ENDBRANCH  87  88
ENDBRANCH  61  82
ENDBRANCH  35  36
ENDBRANCH  28  30
ENDBRANCH  27  28
ENDBRANCH   1  27
TORSDOF 16
ENDMDL
