MODEL 1
REMARK VINA RESULT:     -10.6      0.000      0.000
REMARK SMILES N#Cc1ccc(/C=C/C(=O)N[C@H]2C=C[C@H](C(=O)OCCOC(=O)c3ccc(-c4c5nc(c(-c6ccc(S(=O)(=O)[O-])cc6)c6ccc([nH]6)c(-c6ccc(S(=O)(=O)[O-])cc6)c6nc(c(-c7ccc(S(=O)(=O)[O-])cc7)c7ccc4[nH]7)C=C6)C=C5)cc3)C2)cc1
REMARK SMILES IDX 19 1 18 2 16 3 17 4 15 5 12 6 13 7 84 8 14 9 11 10 9 11
REMARK SMILES IDX 10 12 8 14 7 15 6 16 3 17 4 18 86 19 5 20 85 21 2 22 1 23
REMARK SMILES IDX 20 24 21 25 22 26 23 27 24 28 25 29 83 30 26 31 82 32 27 33
REMARK SMILES IDX 28 34 29 35 76 36 30 37 81 38 75 39 77 40 31 41 80 42 74 43
REMARK SMILES IDX 73 44 32 46 62 47 43 48 61 49 44 50 47 51 60 52 78 53 45 54
REMARK SMILES IDX 46 55 59 57 79 58 48 59 33 60 34 61 42 62 35 63 41 64 36 65
REMARK SMILES IDX 37 66 38 67 39 68 40 69 63 70 64 71 72 72 65 73 71 74 66 75
REMARK SMILES IDX 67 76 68 77 69 78 70 79 49 80 50 81 58 82 51 83 57 84 52 85
REMARK SMILES IDX 53 86 54 87 55 88 56 89
REMARK H PARENT 11 13 77 45 47 56
REMARK Flexibility Score: inf
ROOT
ATOM      1  C   UNL A   1      36.636  22.359  23.870  1.00  0.00     0.274 C 
ENDROOT
BRANCH   1   2
ATOM      2  O   UNL A   1      35.293  21.915  24.186  1.00  0.00    -0.462 OA
BRANCH   2   3
ATOM      3  C   UNL A   1      34.318  22.721  23.691  1.00  0.00     0.312 C 
ATOM      4  O   UNL A   1      34.395  23.943  23.751  1.00  0.00    -0.252 OA
BRANCH   3   5
ATOM      5  C   UNL A   1      33.108  21.953  23.092  1.00  0.00     0.124 C 
ATOM      6  C   UNL A   1      31.776  22.032  25.042  1.00  0.00     0.106 C 
ATOM      7  C   UNL A   1      32.217  20.621  24.826  1.00  0.00    -0.006 C 
ATOM      8  C   UNL A   1      31.753  22.501  23.587  1.00  0.00     0.048 C 
ATOM      9  C   UNL A   1      33.006  20.580  23.736  1.00  0.00    -0.014 C 
BRANCH   6  10
ATOM     10  N   UNL A   1      30.626  22.146  25.865  1.00  0.00    -0.346 N 
ATOM     11  C   UNL A   1      30.460  23.074  26.863  1.00  0.00     0.244 C 
ATOM     12  O   UNL A   1      29.459  23.012  27.573  1.00  0.00    -0.270 OA
ATOM     13  H   UNL A   1      29.891  21.510  25.708  1.00  0.00     0.164 HD
BRANCH  11  14
ATOM     14  C   UNL A   1      31.330  24.303  26.913  1.00  0.00     0.072 C 
ATOM     15  C   UNL A   1      31.419  25.448  26.206  1.00  0.00     0.014 C 
BRANCH  15  16
ATOM     16  C   UNL A   1      32.219  26.705  26.461  1.00  0.00    -0.025 A 
ATOM     17  C   UNL A   1      33.530  29.211  27.010  1.00  0.00     0.052 A 
ATOM     18  C   UNL A   1      34.205  28.194  26.366  1.00  0.00     0.020 A 
ATOM     19  C   UNL A   1      32.214  28.979  27.411  1.00  0.00     0.020 A 
ATOM     20  C   UNL A   1      33.560  26.968  26.139  1.00  0.00     0.009 A 
ATOM     21  C   UNL A   1      31.572  27.756  27.121  1.00  0.00     0.009 A 
BRANCH  17  22
ATOM     22  C   UNL A   1      34.191  30.450  27.277  1.00  0.00     0.099 C 
ATOM     23  N   UNL A   1      34.744  31.455  27.487  1.00  0.00    -0.192 NA
ENDBRANCH  17  22
ENDBRANCH  15  16
ENDBRANCH  11  14
ENDBRANCH   6  10
ENDBRANCH   3   5
ENDBRANCH   2   3
ENDBRANCH   1   2
BRANCH   1  24
ATOM     24  C   UNL A   1      37.672  21.922  24.917  1.00  0.00     0.275 C 
BRANCH  24  25
ATOM     25  O   UNL A   1      37.971  22.934  25.910  1.00  0.00    -0.458 OA
BRANCH  25  26
ATOM     26  C   UNL A   1      39.231  22.894  26.407  1.00  0.00     0.338 C 
ATOM     27  O   UNL A   1      39.992  21.939  26.332  1.00  0.00    -0.246 OA
BRANCH  26  28
ATOM     28  C   UNL A   1      39.700  24.217  26.893  1.00  0.00     0.060 A 
ATOM     29  C   UNL A   1      39.585  24.413  28.262  1.00  0.00     0.016 A 
ATOM     30  C   UNL A   1      40.105  25.298  26.116  1.00  0.00     0.016 A 
ATOM     31  C   UNL A   1      39.868  25.629  28.879  1.00  0.00     0.010 A 
ATOM     32  C   UNL A   1      40.483  26.516  26.749  1.00  0.00     0.010 A 
ATOM     33  C   UNL A   1      40.429  26.672  28.152  1.00  0.00    -0.014 A 
BRANCH  33  34
ATOM     34  C   UNL A   1      40.774  27.932  28.891  1.00  0.00     0.031 A 
ATOM     35  C   UNL A   1      42.194  28.044  29.365  1.00  0.00     0.074 A 
ATOM     36  C   UNL A   1      39.960  29.012  29.034  1.00  0.00     0.049 A 
ATOM     37  N   UNL A   1      42.751  28.989  30.070  1.00  0.00    -0.248 NA
ATOM     38  C   UNL A   1      43.105  26.950  28.984  1.00  0.00     0.031 C 
ATOM     39  C   UNL A   1      38.621  29.176  28.497  1.00  0.00     0.029 A 
ATOM     40  N   UNL A   1      40.146  30.233  29.657  1.00  0.00    -0.354 N 
ATOM     41  C   UNL A   1      44.064  28.588  30.254  1.00  0.00     0.074 A 
ATOM     42  C   UNL A   1      44.226  27.317  29.585  1.00  0.00     0.031 C 
ATOM     43  C   UNL A   1      38.115  30.380  28.752  1.00  0.00     0.029 A 
ATOM     44  C   UNL A   1      39.051  31.081  29.582  1.00  0.00     0.049 A 
ATOM     45  H   UNL A   1      40.982  30.478  30.114  1.00  0.00     0.167 HD
ATOM     46  C   UNL A   1      45.038  29.222  30.944  1.00  0.00     0.031 A 
ATOM     47  C   UNL A   1      38.759  32.275  30.125  1.00  0.00     0.031 A 
ATOM     48  C   UNL A   1      44.848  30.475  31.623  1.00  0.00     0.049 A 
ATOM     49  C   UNL A   1      39.801  32.886  30.987  1.00  0.00     0.074 A 
ATOM     50  C   UNL A   1      45.754  31.174  32.398  1.00  0.00     0.029 A 
ATOM     51  N   UNL A   1      43.672  31.216  31.617  1.00  0.00    -0.354 N 
ATOM     52  N   UNL A   1      41.010  32.443  31.225  1.00  0.00    -0.248 NA
ATOM     53  C   UNL A   1      39.454  34.138  31.662  1.00  0.00     0.031 C 
ATOM     54  C   UNL A   1      45.106  32.295  32.923  1.00  0.00     0.029 A 
ATOM     55  C   UNL A   1      43.822  32.345  32.405  1.00  0.00     0.049 A 
ATOM     56  H   UNL A   1      42.855  30.974  31.125  1.00  0.00     0.167 HD
ATOM     57  C   UNL A   1      41.583  33.373  32.068  1.00  0.00     0.074 A 
ATOM     58  C   UNL A   1      40.594  34.416  32.276  1.00  0.00     0.031 C 
ATOM     59  C   UNL A   1      42.818  33.359  32.618  1.00  0.00     0.031 A 
BRANCH  46  60
ATOM     60  C   UNL A   1      46.350  28.501  31.083  1.00  0.00    -0.014 A 
ATOM     61  C   UNL A   1      47.407  28.693  30.176  1.00  0.00     0.010 A 
ATOM     62  C   UNL A   1      46.514  27.595  32.146  1.00  0.00     0.010 A 
ATOM     63  C   UNL A   1      48.590  27.962  30.309  1.00  0.00     0.020 A 
ATOM     64  C   UNL A   1      47.708  26.890  32.304  1.00  0.00     0.020 A 
ATOM     65  C   UNL A   1      48.733  27.066  31.374  1.00  0.00     0.054 A 
BRANCH  65  66
ATOM     66  S   UNL A   1      50.287  26.148  31.535  1.00  0.00     0.124 S 
ATOM     67  O   UNL A   1      50.297  25.353  30.309  1.00  0.00    -0.237 OA
ATOM     68  O   UNL A   1      51.281  27.216  31.600  1.00  0.00    -0.237 OA
ATOM     69  O   UNL A   1      50.112  25.384  32.769  1.00  0.00    -0.744 OA
ENDBRANCH  65  66
ENDBRANCH  46  60
BRANCH  47  70
ATOM     70  C   UNL A   1      37.417  32.910  29.923  1.00  0.00    -0.014 A 
ATOM     71  C   UNL A   1      36.356  32.677  30.814  1.00  0.00     0.010 A 
ATOM     72  C   UNL A   1      37.201  33.789  28.839  1.00  0.00     0.010 A 
ATOM     73  C   UNL A   1      35.110  33.292  30.619  1.00  0.00     0.020 A 
ATOM     74  C   UNL A   1      35.973  34.436  28.664  1.00  0.00     0.020 A 
ATOM     75  C   UNL A   1      34.928  34.171  29.547  1.00  0.00     0.054 A 
BRANCH  75  76
ATOM     76  S   UNL A   1      33.319  34.985  29.337  1.00  0.00     0.124 S 
ATOM     77  O   UNL A   1      32.768  34.925  30.686  1.00  0.00    -0.237 OA
ATOM     78  O   UNL A   1      33.696  36.316  28.866  1.00  0.00    -0.237 OA
ATOM     79  O   UNL A   1      32.639  34.152  28.346  1.00  0.00    -0.744 OA
ENDBRANCH  75  76
ENDBRANCH  47  70
BRANCH  59  80
ATOM     80  C   UNL A   1      43.173  34.535  33.474  1.00  0.00    -0.014 A 
ATOM     81  C   UNL A   1      42.992  34.505  34.867  1.00  0.00     0.010 A 
ATOM     82  C   UNL A   1      43.711  35.682  32.866  1.00  0.00     0.010 A 
ATOM     83  C   UNL A   1      43.311  35.623  35.636  1.00  0.00     0.020 A 
ATOM     84  C   UNL A   1      44.071  36.785  33.636  1.00  0.00     0.020 A 
ATOM     85  C   UNL A   1      43.856  36.752  35.015  1.00  0.00     0.054 A 
BRANCH  85  86
ATOM     86  S   UNL A   1      44.314  38.168  36.045  1.00  0.00     0.124 S 
ATOM     87  O   UNL A   1      45.758  37.994  36.177  1.00  0.00    -0.237 OA
ATOM     88  O   UNL A   1      43.889  39.302  35.229  1.00  0.00    -0.237 OA
ATOM     89  O   UNL A   1      43.548  37.968  37.272  1.00  0.00    -0.744 OA
ENDBRANCH  85  86
ENDBRANCH  59  80
ENDBRANCH  33  34
ENDBRANCH  26  28
ENDBRANCH  25  26
ENDBRANCH  24  25
ENDBRANCH   1  24
TORSDOF 18
ENDMDL
MODEL 2
REMARK VINA RESULT:     -10.5      2.069      2.584
REMARK SMILES N#Cc1ccc(/C=C/C(=O)N[C@H]2C=C[C@H](C(=O)OCCOC(=O)c3ccc(-c4c5nc(c(-c6ccc(S(=O)(=O)[O-])cc6)c6ccc([nH]6)c(-c6ccc(S(=O)(=O)[O-])cc6)c6nc(c(-c7ccc(S(=O)(=O)[O-])cc7)c7ccc4[nH]7)C=C6)C=C5)cc3)C2)cc1
REMARK SMILES IDX 19 1 18 2 16 3 17 4 15 5 12 6 13 7 84 8 14 9 11 10 9 11
REMARK SMILES IDX 10 12 8 14 7 15 6 16 3 17 4 18 86 19 5 20 85 21 2 22 1 23
REMARK SMILES IDX 20 24 21 25 22 26 23 27 24 28 25 29 83 30 26 31 82 32 27 33
REMARK SMILES IDX 28 34 29 35 76 36 30 37 81 38 75 39 77 40 31 41 80 42 74 43
REMARK SMILES IDX 73 44 32 46 62 47 43 48 61 49 44 50 47 51 60 52 78 53 45 54
REMARK SMILES IDX 46 55 59 57 79 58 48 59 33 60 34 61 42 62 35 63 41 64 36 65
REMARK SMILES IDX 37 66 38 67 39 68 40 69 63 70 64 71 72 72 65 73 71 74 66 75
REMARK SMILES IDX 67 76 68 77 69 78 70 79 49 80 50 81 58 82 51 83 57 84 52 85
REMARK SMILES IDX 53 86 54 87 55 88 56 89
REMARK H PARENT 11 13 77 45 47 56
REMARK Flexibility Score: inf
ROOT
ATOM      1  C   UNL A   1      36.799  21.994  24.110  1.00  0.00     0.274 C 
ENDROOT
BRANCH   1   2
ATOM      2  O   UNL A   1      35.433  21.643  24.442  1.00  0.00    -0.462 OA
BRANCH   2   3
ATOM      3  C   UNL A   1      34.514  22.550  24.020  1.00  0.00     0.312 C 
ATOM      4  O   UNL A   1      34.649  23.752  24.224  1.00  0.00    -0.252 OA
BRANCH   3   5
ATOM      5  C   UNL A   1      33.288  21.920  23.303  1.00  0.00     0.124 C 
ATOM      6  C   UNL A   1      31.851  21.977  25.179  1.00  0.00     0.106 C 
ATOM      7  C   UNL A   1      32.198  20.553  24.889  1.00  0.00    -0.006 C 
ATOM      8  C   UNL A   1      31.951  22.540  23.761  1.00  0.00     0.048 C 
ATOM      9  C   UNL A   1      33.045  20.521  23.843  1.00  0.00    -0.014 C 
BRANCH   6  10
ATOM     10  N   UNL A   1      30.667  22.127  25.944  1.00  0.00    -0.346 N 
ATOM     11  C   UNL A   1      30.456  23.101  26.888  1.00  0.00     0.244 C 
ATOM     12  O   UNL A   1      29.425  23.070  27.555  1.00  0.00    -0.270 OA
ATOM     13  H   UNL A   1      29.939  21.482  25.785  1.00  0.00     0.164 HD
BRANCH  11  14
ATOM     14  C   UNL A   1      31.323  24.333  26.917  1.00  0.00     0.072 C 
ATOM     15  C   UNL A   1      31.343  25.510  26.259  1.00  0.00     0.014 C 
BRANCH  15  16
ATOM     16  C   UNL A   1      32.158  26.760  26.500  1.00  0.00    -0.025 A 
ATOM     17  C   UNL A   1      33.499  29.256  27.025  1.00  0.00     0.052 A 
ATOM     18  C   UNL A   1      34.155  28.233  26.371  1.00  0.00     0.020 A 
ATOM     19  C   UNL A   1      32.188  29.035  27.447  1.00  0.00     0.020 A 
ATOM     20  C   UNL A   1      33.496  27.012  26.156  1.00  0.00     0.009 A 
ATOM     21  C   UNL A   1      31.530  27.818  27.169  1.00  0.00     0.009 A 
BRANCH  17  22
ATOM     22  C   UNL A   1      34.175  30.490  27.280  1.00  0.00     0.099 C 
ATOM     23  N   UNL A   1      34.725  31.493  27.503  1.00  0.00    -0.192 NA
ENDBRANCH  17  22
ENDBRANCH  15  16
ENDBRANCH  11  14
ENDBRANCH   6  10
ENDBRANCH   3   5
ENDBRANCH   2   3
ENDBRANCH   1   2
BRANCH   1  24
ATOM     24  C   UNL A   1      37.832  21.266  24.984  1.00  0.00     0.275 C 
BRANCH  24  25
ATOM     25  O   UNL A   1      38.146  21.951  26.221  1.00  0.00    -0.458 OA
BRANCH  25  26
ATOM     26  C   UNL A   1      39.467  22.024  26.516  1.00  0.00     0.338 C 
ATOM     27  O   UNL A   1      40.265  21.101  26.426  1.00  0.00    -0.246 OA
BRANCH  26  28
ATOM     28  C   UNL A   1      39.922  23.414  26.777  1.00  0.00     0.060 A 
ATOM     29  C   UNL A   1      40.728  23.567  27.896  1.00  0.00     0.016 A 
ATOM     30  C   UNL A   1      39.521  24.565  26.104  1.00  0.00     0.016 A 
ATOM     31  C   UNL A   1      41.152  24.810  28.359  1.00  0.00     0.010 A 
ATOM     32  C   UNL A   1      40.025  25.831  26.517  1.00  0.00     0.010 A 
ATOM     33  C   UNL A   1      40.903  25.959  27.616  1.00  0.00    -0.014 A 
BRANCH  33  34
ATOM     34  C   UNL A   1      41.449  27.258  28.134  1.00  0.00     0.031 A 
ATOM     35  C   UNL A   1      42.924  27.466  27.955  1.00  0.00     0.074 A 
ATOM     36  C   UNL A   1      40.705  28.292  28.611  1.00  0.00     0.049 A 
ATOM     37  N   UNL A   1      43.666  28.462  28.352  1.00  0.00    -0.248 NA
ATOM     38  C   UNL A   1      43.654  26.416  27.222  1.00  0.00     0.031 C 
ATOM     39  C   UNL A   1      39.257  28.362  28.699  1.00  0.00     0.029 A 
ATOM     40  N   UNL A   1      41.059  29.539  29.093  1.00  0.00    -0.354 N 
ATOM     41  C   UNL A   1      44.955  28.144  27.956  1.00  0.00     0.074 A 
ATOM     42  C   UNL A   1      44.898  26.865  27.284  1.00  0.00     0.031 C 
ATOM     43  C   UNL A   1      38.832  29.541  29.145  1.00  0.00     0.029 A 
ATOM     44  C   UNL A   1      39.985  30.319  29.493  1.00  0.00     0.049 A 
ATOM     45  H   UNL A   1      41.993  29.845  29.148  1.00  0.00     0.167 HD
ATOM     46  C   UNL A   1      46.087  28.853  28.162  1.00  0.00     0.031 A 
ATOM     47  C   UNL A   1      39.876  31.510  30.108  1.00  0.00     0.031 A 
ATOM     48  C   UNL A   1      46.124  30.112  28.856  1.00  0.00     0.049 A 
ATOM     49  C   UNL A   1      41.145  32.205  30.440  1.00  0.00     0.074 A 
ATOM     50  C   UNL A   1      47.227  30.885  29.167  1.00  0.00     0.029 A 
ATOM     51  N   UNL A   1      45.013  30.782  29.352  1.00  0.00    -0.354 N 
ATOM     52  N   UNL A   1      42.365  31.840  30.138  1.00  0.00    -0.248 NA
ATOM     53  C   UNL A   1      41.038  33.453  31.197  1.00  0.00     0.031 C 
ATOM     54  C   UNL A   1      46.793  31.980  29.917  1.00  0.00     0.029 A 
ATOM     55  C   UNL A   1      45.411  31.941  29.999  1.00  0.00     0.049 A 
ATOM     56  H   UNL A   1      44.082  30.480  29.259  1.00  0.00     0.167 HD
ATOM     57  C   UNL A   1      43.181  32.826  30.653  1.00  0.00     0.074 A 
ATOM     58  C   UNL A   1      42.311  33.815  31.263  1.00  0.00     0.031 C 
ATOM     59  C   UNL A   1      44.531  32.900  30.620  1.00  0.00     0.031 A 
BRANCH  46  60
ATOM     60  C   UNL A   1      47.376  28.214  27.726  1.00  0.00    -0.014 A 
ATOM     61  C   UNL A   1      47.914  28.417  26.443  1.00  0.00     0.010 A 
ATOM     62  C   UNL A   1      48.054  27.375  28.629  1.00  0.00     0.010 A 
ATOM     63  C   UNL A   1      49.085  27.761  26.058  1.00  0.00     0.020 A 
ATOM     64  C   UNL A   1      49.245  26.747  28.261  1.00  0.00     0.020 A 
ATOM     65  C   UNL A   1      49.744  26.931  26.972  1.00  0.00     0.054 A 
BRANCH  65  66
ATOM     66  S   UNL A   1      51.275  26.110  26.455  1.00  0.00     0.124 S 
ATOM     67  O   UNL A   1      51.088  24.762  26.986  1.00  0.00    -0.237 OA
ATOM     68  O   UNL A   1      51.220  26.225  25.000  1.00  0.00    -0.237 OA
ATOM     69  O   UNL A   1      52.325  26.893  27.102  1.00  0.00    -0.744 OA
ENDBRANCH  65  66
ENDBRANCH  46  60
BRANCH  47  70
ATOM     70  C   UNL A   1      38.538  32.059  30.499  1.00  0.00    -0.014 A 
ATOM     71  C   UNL A   1      37.972  31.781  31.755  1.00  0.00     0.010 A 
ATOM     72  C   UNL A   1      37.828  32.901  29.616  1.00  0.00     0.010 A 
ATOM     73  C   UNL A   1      36.726  32.316  32.113  1.00  0.00     0.020 A 
ATOM     74  C   UNL A   1      36.604  33.470  29.984  1.00  0.00     0.020 A 
ATOM     75  C   UNL A   1      36.052  33.161  31.226  1.00  0.00     0.054 A 
BRANCH  75  76
ATOM     76  S   UNL A   1      34.457  33.873  31.724  1.00  0.00     0.124 S 
ATOM     77  O   UNL A   1      33.817  34.119  30.437  1.00  0.00    -0.237 OA
ATOM     78  O   UNL A   1      33.871  32.804  32.529  1.00  0.00    -0.237 OA
ATOM     79  O   UNL A   1      34.834  35.070  32.473  1.00  0.00    -0.744 OA
ENDBRANCH  75  76
ENDBRANCH  47  70
BRANCH  59  80
ATOM     80  C   UNL A   1      45.140  34.119  31.241  1.00  0.00    -0.014 A 
ATOM     81  C   UNL A   1      45.514  34.140  32.596  1.00  0.00     0.010 A 
ATOM     82  C   UNL A   1      45.353  35.255  30.442  1.00  0.00     0.010 A 
ATOM     83  C   UNL A   1      46.059  35.296  33.150  1.00  0.00     0.020 A 
ATOM     84  C   UNL A   1      45.936  36.398  30.983  1.00  0.00     0.020 A 
ATOM     85  C   UNL A   1      46.273  36.415  32.338  1.00  0.00     0.054 A 
BRANCH  85  86
ATOM     86  S   UNL A   1      47.035  37.883  33.072  1.00  0.00     0.124 S 
ATOM     87  O   UNL A   1      47.723  38.474  31.927  1.00  0.00    -0.237 OA
ATOM     88  O   UNL A   1      45.878  38.627  33.562  1.00  0.00    -0.237 OA
ATOM     89  O   UNL A   1      47.907  37.340  34.111  1.00  0.00    -0.744 OA
ENDBRANCH  85  86
ENDBRANCH  59  80
ENDBRANCH  33  34
ENDBRANCH  26  28
ENDBRANCH  25  26
ENDBRANCH  24  25
ENDBRANCH   1  24
TORSDOF 18
ENDMDL
MODEL 3
REMARK VINA RESULT:     -10.3      5.689     11.539
REMARK SMILES N#Cc1ccc(/C=C/C(=O)N[C@H]2C=C[C@H](C(=O)OCCOC(=O)c3ccc(-c4c5nc(c(-c6ccc(S(=O)(=O)[O-])cc6)c6ccc([nH]6)c(-c6ccc(S(=O)(=O)[O-])cc6)c6nc(c(-c7ccc(S(=O)(=O)[O-])cc7)c7ccc4[nH]7)C=C6)C=C5)cc3)C2)cc1
REMARK SMILES IDX 19 1 18 2 16 3 17 4 15 5 12 6 13 7 84 8 14 9 11 10 9 11
REMARK SMILES IDX 10 12 8 14 7 15 6 16 3 17 4 18 86 19 5 20 85 21 2 22 1 23
REMARK SMILES IDX 20 24 21 25 22 26 23 27 24 28 25 29 83 30 26 31 82 32 27 33
REMARK SMILES IDX 28 34 29 35 76 36 30 37 81 38 75 39 77 40 31 41 80 42 74 43
REMARK SMILES IDX 73 44 32 46 62 47 43 48 61 49 44 50 47 51 60 52 78 53 45 54
REMARK SMILES IDX 46 55 59 57 79 58 48 59 33 60 34 61 42 62 35 63 41 64 36 65
REMARK SMILES IDX 37 66 38 67 39 68 40 69 63 70 64 71 72 72 65 73 71 74 66 75
REMARK SMILES IDX 67 76 68 77 69 78 70 79 49 80 50 81 58 82 51 83 57 84 52 85
REMARK SMILES IDX 53 86 54 87 55 88 56 89
REMARK H PARENT 11 13 77 45 47 56
REMARK Flexibility Score: inf
ROOT
ATOM      1  C   UNL A   1      37.389  33.035  34.353  1.00  0.00     0.274 C 
ENDROOT
BRANCH   1   2
ATOM      2  O   UNL A   1      35.978  33.249  34.608  1.00  0.00    -0.462 OA
BRANCH   2   3
ATOM      3  C   UNL A   1      35.429  34.243  33.861  1.00  0.00     0.312 C 
ATOM      4  O   UNL A   1      35.996  35.317  33.695  1.00  0.00    -0.252 OA
BRANCH   3   5
ATOM      5  C   UNL A   1      34.029  33.898  33.284  1.00  0.00     0.124 C 
ATOM      6  C   UNL A   1      34.671  33.987  31.011  1.00  0.00     0.106 C 
ATOM      7  C   UNL A   1      33.780  35.151  31.298  1.00  0.00    -0.006 C 
ATOM      8  C   UNL A   1      34.109  32.998  32.033  1.00  0.00     0.048 C 
ATOM      9  C   UNL A   1      33.443  35.122  32.601  1.00  0.00    -0.014 C 
BRANCH   6  10
ATOM     10  N   UNL A   1      34.742  33.654  29.634  1.00  0.00    -0.346 N 
ATOM     11  C   UNL A   1      35.892  33.644  28.884  1.00  0.00     0.244 C 
ATOM     12  O   UNL A   1      35.814  33.433  27.676  1.00  0.00    -0.270 OA
ATOM     13  H   UNL A   1      33.902  33.413  29.182  1.00  0.00     0.164 HD
BRANCH  11  14
ATOM     14  C   UNL A   1      37.240  33.610  29.557  1.00  0.00     0.072 C 
ATOM     15  C   UNL A   1      38.511  33.854  29.177  1.00  0.00     0.014 C 
BRANCH  15  16
ATOM     16  C   UNL A   1      39.779  33.965  29.992  1.00  0.00    -0.025 A 
ATOM     17  C   UNL A   1      42.301  34.290  31.349  1.00  0.00     0.052 A 
ATOM     18  C   UNL A   1      41.319  33.478  31.880  1.00  0.00     0.020 A 
ATOM     19  C   UNL A   1      42.025  34.966  30.160  1.00  0.00     0.020 A 
ATOM     20  C   UNL A   1      40.085  33.361  31.222  1.00  0.00     0.009 A 
ATOM     21  C   UNL A   1      40.796  34.787  29.490  1.00  0.00     0.009 A 
BRANCH  17  22
ATOM     22  C   UNL A   1      43.548  34.443  32.031  1.00  0.00     0.099 C 
ATOM     23  N   UNL A   1      44.557  34.566  32.601  1.00  0.00    -0.192 NA
ENDBRANCH  17  22
ENDBRANCH  15  16
ENDBRANCH  11  14
ENDBRANCH   6  10
ENDBRANCH   3   5
ENDBRANCH   2   3
ENDBRANCH   1   2
BRANCH   1  24
ATOM     24  C   UNL A   1      37.686  31.650  33.760  1.00  0.00     0.275 C 
BRANCH  24  25
ATOM     25  O   UNL A   1      37.296  31.507  32.372  1.00  0.00    -0.458 OA
BRANCH  25  26
ATOM     26  C   UNL A   1      37.344  30.241  31.891  1.00  0.00     0.338 C 
ATOM     27  O   UNL A   1      36.448  29.414  31.983  1.00  0.00    -0.246 OA
BRANCH  26  28
ATOM     28  C   UNL A   1      38.537  29.993  31.041  1.00  0.00     0.060 A 
ATOM     29  C   UNL A   1      39.674  29.593  31.729  1.00  0.00     0.016 A 
ATOM     30  C   UNL A   1      38.660  30.246  29.678  1.00  0.00     0.016 A 
ATOM     31  C   UNL A   1      40.912  29.426  31.113  1.00  0.00     0.010 A 
ATOM     32  C   UNL A   1      39.899  29.990  29.025  1.00  0.00     0.010 A 
ATOM     33  C   UNL A   1      41.026  29.513  29.730  1.00  0.00    -0.014 A 
BRANCH  33  34
ATOM     34  C   UNL A   1      42.374  29.253  29.123  1.00  0.00     0.031 A 
ATOM     35  C   UNL A   1      42.581  27.882  28.550  1.00  0.00     0.074 A 
ATOM     36  C   UNL A   1      43.345  30.186  28.930  1.00  0.00     0.049 A 
ATOM     37  N   UNL A   1      43.654  27.369  28.017  1.00  0.00    -0.248 NA
ATOM     38  C   UNL A   1      41.418  26.975  28.573  1.00  0.00     0.031 C 
ATOM     39  C   UNL A   1      43.276  31.601  29.246  1.00  0.00     0.029 A 
ATOM     40  N   UNL A   1      44.608  30.102  28.371  1.00  0.00    -0.354 N 
ATOM     41  C   UNL A   1      43.315  26.069  27.679  1.00  0.00     0.074 A 
ATOM     42  C   UNL A   1      41.935  25.869  28.061  1.00  0.00     0.031 C 
ATOM     43  C   UNL A   1      44.368  32.260  28.869  1.00  0.00     0.029 A 
ATOM     44  C   UNL A   1      45.304  31.300  28.361  1.00  0.00     0.049 A 
ATOM     45  H   UNL A   1      44.979  29.264  28.013  1.00  0.00     0.167 HD
ATOM     46  C   UNL A   1      44.101  25.123  27.119  1.00  0.00     0.031 A 
ATOM     47  C   UNL A   1      46.561  31.645  28.030  1.00  0.00     0.031 A 
ATOM     48  C   UNL A   1      45.480  25.337  26.769  1.00  0.00     0.049 A 
ATOM     49  C   UNL A   1      47.443  30.555  27.542  1.00  0.00     0.074 A 
ATOM     50  C   UNL A   1      46.381  24.427  26.248  1.00  0.00     0.029 A 
ATOM     51  N   UNL A   1      46.161  26.539  26.909  1.00  0.00    -0.354 N 
ATOM     52  N   UNL A   1      47.126  29.305  27.316  1.00  0.00    -0.248 NA
ATOM     53  C   UNL A   1      48.839  30.901  27.275  1.00  0.00     0.031 C 
ATOM     54  C   UNL A   1      47.624  25.055  26.146  1.00  0.00     0.029 A 
ATOM     55  C   UNL A   1      47.481  26.382  26.518  1.00  0.00     0.049 A 
ATOM     56  H   UNL A   1      45.765  27.378  27.237  1.00  0.00     0.167 HD
ATOM     57  C   UNL A   1      48.284  28.710  26.858  1.00  0.00     0.074 A 
ATOM     58  C   UNL A   1      49.300  29.746  26.817  1.00  0.00     0.031 C 
ATOM     59  C   UNL A   1      48.482  27.420  26.506  1.00  0.00     0.031 A 
BRANCH  46  60
ATOM     60  C   UNL A   1      43.506  23.751  26.964  1.00  0.00    -0.014 A 
ATOM     61  C   UNL A   1      43.330  22.886  28.058  1.00  0.00     0.010 A 
ATOM     62  C   UNL A   1      43.130  23.319  25.679  1.00  0.00     0.010 A 
ATOM     63  C   UNL A   1      42.824  21.599  27.863  1.00  0.00     0.020 A 
ATOM     64  C   UNL A   1      42.590  22.046  25.486  1.00  0.00     0.020 A 
ATOM     65  C   UNL A   1      42.456  21.188  26.578  1.00  0.00     0.054 A 
BRANCH  65  66
ATOM     66  S   UNL A   1      41.782  19.520  26.356  1.00  0.00     0.124 S 
ATOM     67  O   UNL A   1      42.210  18.856  27.586  1.00  0.00    -0.237 OA
ATOM     68  O   UNL A   1      40.347  19.771  26.245  1.00  0.00    -0.237 OA
ATOM     69  O   UNL A   1      42.427  19.044  25.136  1.00  0.00    -0.744 OA
ENDBRANCH  65  66
ENDBRANCH  46  60
BRANCH  47  70
ATOM     70  C   UNL A   1      47.056  33.046  28.222  1.00  0.00    -0.014 A 
ATOM     71  C   UNL A   1      46.973  33.998  27.192  1.00  0.00     0.010 A 
ATOM     72  C   UNL A   1      47.591  33.449  29.465  1.00  0.00     0.010 A 
ATOM     73  C   UNL A   1      47.425  35.311  27.392  1.00  0.00     0.020 A 
ATOM     74  C   UNL A   1      48.005  34.768  29.682  1.00  0.00     0.020 A 
ATOM     75  C   UNL A   1      47.935  35.688  28.638  1.00  0.00     0.054 A 
BRANCH  75  76
ATOM     76  S   UNL A   1      48.480  37.402  28.887  1.00  0.00     0.124 S 
ATOM     77  O   UNL A   1      48.684  37.451  30.330  1.00  0.00    -0.237 OA
ATOM     78  O   UNL A   1      49.691  37.471  28.073  1.00  0.00    -0.237 OA
ATOM     79  O   UNL A   1      47.358  38.196  28.387  1.00  0.00    -0.744 OA
ENDBRANCH  75  76
ENDBRANCH  47  70
BRANCH  59  80
ATOM     80  C   UNL A   1      49.853  27.074  26.012  1.00  0.00    -0.014 A 
ATOM     81  C   UNL A   1      50.220  27.284  24.672  1.00  0.00     0.010 A 
ATOM     82  C   UNL A   1      50.789  26.544  26.916  1.00  0.00     0.010 A 
ATOM     83  C   UNL A   1      51.496  26.934  24.236  1.00  0.00     0.020 A 
ATOM     84  C   UNL A   1      52.078  26.232  26.493  1.00  0.00     0.020 A 
ATOM     85  C   UNL A   1      52.419  26.417  25.152  1.00  0.00     0.054 A 
BRANCH  85  86
ATOM     86  S   UNL A   1      54.087  26.023  24.570  1.00  0.00     0.124 S 
ATOM     87  O   UNL A   1      53.979  26.281  23.137  1.00  0.00    -0.237 OA
ATOM     88  O   UNL A   1      54.913  26.967  25.319  1.00  0.00    -0.237 OA
ATOM     89  O   UNL A   1      54.262  24.621  24.940  1.00  0.00    -0.744 OA
ENDBRANCH  85  86
ENDBRANCH  59  80
ENDBRANCH  33  34
ENDBRANCH  26  28
ENDBRANCH  25  26
ENDBRANCH  24  25
ENDBRANCH   1  24
TORSDOF 18
ENDMDL
