MODEL 1
REMARK VINA RESULT:     -10.9      0.000      0.000
REMARK SMILES CC(=O)O[C@H]1C[C@@H](C(=O)OCCOC(=O)c2ccc(-c3c4nc(c(-c5ccc(S(=O)(=O)[O-])cc5)c5ccc([nH]5)c(-c5ccc(S(=O)(=O)[O-])cc5)c5nc(c(-c6ccc(S(=O)(=O)[O-])cc6)c6ccc3[nH]6)C=C5)C=C4)cc2)N(S(=O)(=O)c2ccc(F)cc2)C1
REMARK SMILES IDX 12 1 11 2 10 3 8 4 9 5 7 6 5 7 6 8 87 9 76 10 4 11 2 12 1 13
REMARK SMILES IDX 3 14 77 15 78 16 79 17 80 18 81 19 86 20 82 21 85 22 83 23
REMARK SMILES IDX 84 24 13 25 14 26 15 27 16 28 17 29 75 30 18 31 74 32 19 33
REMARK SMILES IDX 20 34 21 35 68 36 22 37 73 38 67 39 69 40 23 41 72 42 66 43
REMARK SMILES IDX 65 44 24 46 54 47 35 48 53 49 36 50 39 51 52 52 70 53 37 54
REMARK SMILES IDX 38 55 51 57 71 58 40 59 25 60 26 61 34 62 27 63 33 64 28 65
REMARK SMILES IDX 29 66 30 67 31 68 32 69 55 70 56 71 64 72 57 73 63 74 58 75
REMARK SMILES IDX 59 76 60 77 61 78 62 79 41 80 42 81 50 82 43 83 49 84 44 85
REMARK SMILES IDX 45 86 46 87 47 88 48 89
REMARK H PARENT 69 45 39 56
REMARK Flexibility Score: inf
ROOT
ATOM      1  C   UNL A   1      33.128  30.154  26.205  1.00  0.00     0.275 C 
ENDROOT
BRANCH   1   2
ATOM      2  C   UNL A   1      31.730  29.520  26.166  1.00  0.00     0.274 C 
BRANCH   2   3
ATOM      3  O   UNL A   1      31.745  28.164  25.672  1.00  0.00    -0.461 OA
BRANCH   3   4
ATOM      4  C   UNL A   1      31.117  28.013  24.489  1.00  0.00     0.324 C 
ATOM      5  O   UNL A   1      30.620  28.952  23.863  1.00  0.00    -0.250 OA
BRANCH   4   6
ATOM      6  C   UNL A   1      30.980  26.629  23.959  1.00  0.00     0.187 C 
ATOM      7  C   UNL A   1      30.520  24.402  24.619  1.00  0.00     0.194 C 
ATOM      8  C   UNL A   1      31.013  25.715  25.183  1.00  0.00     0.079 C 
ATOM      9  C   UNL A   1      31.198  24.368  23.234  1.00  0.00     0.148 C 
ATOM     10  N   UNL A   1      31.612  25.795  22.905  1.00  0.00    -0.180 NA
BRANCH   7  11
ATOM     11  O   UNL A   1      30.966  23.307  25.435  1.00  0.00    -0.461 OA
BRANCH  11  12
ATOM     12  C   UNL A   1      30.698  23.222  26.762  1.00  0.00     0.302 C 
ATOM     13  C   UNL A   1      29.329  22.759  27.169  1.00  0.00     0.139 C 
ATOM     14  O   UNL A   1      31.564  23.478  27.595  1.00  0.00    -0.253 OA
ENDBRANCH  11  12
ENDBRANCH   7  11
BRANCH  10  15
ATOM     15  S   UNL A   1      33.264  25.944  22.533  1.00  0.00     0.243 S 
ATOM     16  O   UNL A   1      33.431  25.569  21.145  1.00  0.00    -0.207 OA
ATOM     17  O   UNL A   1      33.688  27.254  22.988  1.00  0.00    -0.207 OA
BRANCH  15  18
ATOM     18  C   UNL A   1      34.152  24.800  23.563  1.00  0.00     0.082 A 
ATOM     19  C   UNL A   1      34.472  23.526  23.064  1.00  0.00     0.025 A 
ATOM     20  C   UNL A   1      34.392  25.110  24.908  1.00  0.00     0.025 A 
ATOM     21  C   UNL A   1      35.094  22.591  23.898  1.00  0.00     0.040 A 
ATOM     22  C   UNL A   1      35.029  24.176  25.730  1.00  0.00     0.040 A 
ATOM     23  C   UNL A   1      35.380  22.932  25.217  1.00  0.00     0.123 A 
ATOM     24  F   UNL A   1      35.998  22.045  26.010  1.00  0.00    -0.207 F 
ENDBRANCH  15  18
ENDBRANCH  10  15
ENDBRANCH   4   6
ENDBRANCH   3   4
ENDBRANCH   2   3
ENDBRANCH   1   2
BRANCH   1  25
ATOM     25  O   UNL A   1      33.990  29.623  27.233  1.00  0.00    -0.458 OA
BRANCH  25  26
ATOM     26  C   UNL A   1      34.684  30.566  27.905  1.00  0.00     0.338 C 
ATOM     27  O   UNL A   1      34.294  31.671  28.229  1.00  0.00    -0.246 OA
BRANCH  26  28
ATOM     28  C   UNL A   1      36.030  30.156  28.268  1.00  0.00     0.060 A 
ATOM     29  C   UNL A   1      37.033  30.138  27.299  1.00  0.00     0.016 A 
ATOM     30  C   UNL A   1      36.219  29.582  29.526  1.00  0.00     0.016 A 
ATOM     31  C   UNL A   1      38.261  29.562  27.607  1.00  0.00     0.010 A 
ATOM     32  C   UNL A   1      37.462  29.054  29.850  1.00  0.00     0.010 A 
ATOM     33  C   UNL A   1      38.495  29.063  28.900  1.00  0.00    -0.014 A 
BRANCH  33  34
ATOM     34  C   UNL A   1      39.874  28.768  29.337  1.00  0.00     0.031 A 
ATOM     35  C   UNL A   1      40.734  29.796  30.003  1.00  0.00     0.074 A 
ATOM     36  C   UNL A   1      40.355  27.549  29.022  1.00  0.00     0.049 A 
ATOM     37  N   UNL A   1      41.993  29.703  30.346  1.00  0.00    -0.248 NA
ATOM     38  C   UNL A   1      40.115  31.092  30.324  1.00  0.00     0.031 C 
ATOM     39  C   UNL A   1      39.591  26.495  28.343  1.00  0.00     0.029 A 
ATOM     40  N   UNL A   1      41.590  26.994  29.211  1.00  0.00    -0.354 N 
ATOM     41  C   UNL A   1      42.327  30.929  30.905  1.00  0.00     0.074 A 
ATOM     42  C   UNL A   1      41.137  31.754  30.855  1.00  0.00     0.031 C 
ATOM     43  C   UNL A   1      40.373  25.420  28.180  1.00  0.00     0.029 A 
ATOM     44  C   UNL A   1      41.701  25.727  28.689  1.00  0.00     0.049 A 
ATOM     45  H   UNL A   1      42.326  27.456  29.672  1.00  0.00     0.167 HD
ATOM     46  C   UNL A   1      43.523  31.320  31.408  1.00  0.00     0.031 A 
ATOM     47  C   UNL A   1      42.765  24.912  28.597  1.00  0.00     0.031 A 
ATOM     48  C   UNL A   1      44.696  30.483  31.436  1.00  0.00     0.049 A 
ATOM     49  C   UNL A   1      44.078  25.385  29.140  1.00  0.00     0.074 A 
ATOM     50  C   UNL A   1      45.945  30.768  31.963  1.00  0.00     0.029 A 
ATOM     51  N   UNL A   1      44.773  29.204  30.903  1.00  0.00    -0.354 N 
ATOM     52  N   UNL A   1      44.361  26.532  29.711  1.00  0.00    -0.248 NA
ATOM     53  C   UNL A   1      45.210  24.462  29.024  1.00  0.00     0.031 C 
ATOM     54  C   UNL A   1      46.786  29.680  31.709  1.00  0.00     0.029 A 
ATOM     55  C   UNL A   1      46.051  28.698  31.065  1.00  0.00     0.049 A 
ATOM     56  H   UNL A   1      44.026  28.727  30.474  1.00  0.00     0.167 HD
ATOM     57  C   UNL A   1      45.708  26.464  30.036  1.00  0.00     0.074 A 
ATOM     58  C   UNL A   1      46.175  25.156  29.615  1.00  0.00     0.031 C 
ATOM     59  C   UNL A   1      46.491  27.400  30.625  1.00  0.00     0.031 A 
BRANCH  46  60
ATOM     60  C   UNL A   1      43.644  32.718  31.951  1.00  0.00    -0.014 A 
ATOM     61  C   UNL A   1      44.040  33.785  31.125  1.00  0.00     0.010 A 
ATOM     62  C   UNL A   1      43.259  32.985  33.278  1.00  0.00     0.010 A 
ATOM     63  C   UNL A   1      44.060  35.093  31.621  1.00  0.00     0.020 A 
ATOM     64  C   UNL A   1      43.261  34.294  33.772  1.00  0.00     0.020 A 
ATOM     65  C   UNL A   1      43.668  35.339  32.941  1.00  0.00     0.054 A 
BRANCH  65  66
ATOM     66  S   UNL A   1      43.646  37.053  33.540  1.00  0.00     0.124 S 
ATOM     67  O   UNL A   1      43.615  37.808  32.289  1.00  0.00    -0.237 OA
ATOM     68  O   UNL A   1      42.420  37.101  34.332  1.00  0.00    -0.237 OA
ATOM     69  O   UNL A   1      44.885  37.168  34.306  1.00  0.00    -0.744 OA
ENDBRANCH  65  66
ENDBRANCH  46  60
BRANCH  47  70
ATOM     70  C   UNL A   1      42.623  23.587  27.943  1.00  0.00    -0.014 A 
ATOM     71  C   UNL A   1      43.001  23.412  26.602  1.00  0.00     0.010 A 
ATOM     72  C   UNL A   1      42.148  22.485  28.675  1.00  0.00     0.010 A 
ATOM     73  C   UNL A   1      42.888  22.157  25.998  1.00  0.00     0.020 A 
ATOM     74  C   UNL A   1      42.059  21.223  28.083  1.00  0.00     0.020 A 
ATOM     75  C   UNL A   1      42.416  21.072  26.742  1.00  0.00     0.054 A 
BRANCH  75  76
ATOM     76  S   UNL A   1      42.325  19.438  25.958  1.00  0.00     0.124 S 
ATOM     77  O   UNL A   1      43.181  19.618  24.790  1.00  0.00    -0.237 OA
ATOM     78  O   UNL A   1      42.848  18.554  26.997  1.00  0.00    -0.237 OA
ATOM     79  O   UNL A   1      40.900  19.278  25.677  1.00  0.00    -0.744 OA
ENDBRANCH  75  76
ENDBRANCH  47  70
BRANCH  59  80
ATOM     80  C   UNL A   1      47.925  27.022  30.857  1.00  0.00    -0.014 A 
ATOM     81  C   UNL A   1      48.885  27.176  29.841  1.00  0.00     0.010 A 
ATOM     82  C   UNL A   1      48.318  26.521  32.110  1.00  0.00     0.010 A 
ATOM     83  C   UNL A   1      50.210  26.798  30.063  1.00  0.00     0.020 A 
ATOM     84  C   UNL A   1      49.647  26.164  32.344  1.00  0.00     0.020 A 
ATOM     85  C   UNL A   1      50.581  26.289  31.312  1.00  0.00     0.054 A 
BRANCH  85  86
ATOM     86  S   UNL A   1      52.312  25.826  31.590  1.00  0.00     0.124 S 
ATOM     87  O   UNL A   1      52.707  26.752  32.647  1.00  0.00    -0.237 OA
ATOM     88  O   UNL A   1      52.211  24.423  31.988  1.00  0.00    -0.237 OA
ATOM     89  O   UNL A   1      52.942  26.054  30.291  1.00  0.00    -0.744 OA
ENDBRANCH  85  86
ENDBRANCH  59  80
ENDBRANCH  33  34
ENDBRANCH  26  28
ENDBRANCH  25  26
ENDBRANCH   1  25
TORSDOF 18
ENDMDL
MODEL 2
REMARK VINA RESULT:     -10.8      2.798      9.245
REMARK SMILES CC(=O)O[C@H]1C[C@@H](C(=O)OCCOC(=O)c2ccc(-c3c4nc(c(-c5ccc(S(=O)(=O)[O-])cc5)c5ccc([nH]5)c(-c5ccc(S(=O)(=O)[O-])cc5)c5nc(c(-c6ccc(S(=O)(=O)[O-])cc6)c6ccc3[nH]6)C=C5)C=C4)cc2)N(S(=O)(=O)c2ccc(F)cc2)C1
REMARK SMILES IDX 12 1 11 2 10 3 8 4 9 5 7 6 5 7 6 8 87 9 76 10 4 11 2 12 1 13
REMARK SMILES IDX 3 14 77 15 78 16 79 17 80 18 81 19 86 20 82 21 85 22 83 23
REMARK SMILES IDX 84 24 13 25 14 26 15 27 16 28 17 29 75 30 18 31 74 32 19 33
REMARK SMILES IDX 20 34 21 35 68 36 22 37 73 38 67 39 69 40 23 41 72 42 66 43
REMARK SMILES IDX 65 44 24 46 54 47 35 48 53 49 36 50 39 51 52 52 70 53 37 54
REMARK SMILES IDX 38 55 51 57 71 58 40 59 25 60 26 61 34 62 27 63 33 64 28 65
REMARK SMILES IDX 29 66 30 67 31 68 32 69 55 70 56 71 64 72 57 73 63 74 58 75
REMARK SMILES IDX 59 76 60 77 61 78 62 79 41 80 42 81 50 82 43 83 49 84 44 85
REMARK SMILES IDX 45 86 46 87 47 88 48 89
REMARK H PARENT 69 45 39 56
REMARK Flexibility Score: inf
ROOT
ATOM      1  C   UNL A   1      36.747  22.490  25.959  1.00  0.00     0.275 C 
ENDROOT
BRANCH   1   2
ATOM      2  C   UNL A   1      36.133  21.606  24.863  1.00  0.00     0.274 C 
BRANCH   2   3
ATOM      3  O   UNL A   1      35.013  22.232  24.202  1.00  0.00    -0.461 OA
BRANCH   3   4
ATOM      4  C   UNL A   1      33.844  21.591  24.397  1.00  0.00     0.324 C 
ATOM      5  O   UNL A   1      33.771  20.402  24.717  1.00  0.00    -0.250 OA
BRANCH   4   6
ATOM      6  C   UNL A   1      32.593  22.359  24.151  1.00  0.00     0.187 C 
ATOM      7  C   UNL A   1      31.654  24.020  22.751  1.00  0.00     0.194 C 
ATOM      8  C   UNL A   1      32.993  23.513  23.235  1.00  0.00     0.079 C 
ATOM      9  C   UNL A   1      30.786  23.908  24.021  1.00  0.00     0.148 C 
ATOM     10  N   UNL A   1      31.493  22.942  24.960  1.00  0.00    -0.180 NA
BRANCH   7  11
ATOM     11  O   UNL A   1      31.760  25.388  22.323  1.00  0.00    -0.461 OA
BRANCH  11  12
ATOM     12  C   UNL A   1      32.787  25.842  21.562  1.00  0.00     0.302 C 
ATOM     13  C   UNL A   1      33.582  27.005  22.085  1.00  0.00     0.139 C 
ATOM     14  O   UNL A   1      33.075  25.291  20.503  1.00  0.00    -0.253 OA
ENDBRANCH  11  12
ENDBRANCH   7  11
BRANCH  10  15
ATOM     15  S   UNL A   1      31.783  23.600  26.501  1.00  0.00     0.243 S 
ATOM     16  O   UNL A   1      30.545  23.519  27.247  1.00  0.00    -0.207 OA
ATOM     17  O   UNL A   1      32.984  22.970  27.015  1.00  0.00    -0.207 OA
BRANCH  15  18
ATOM     18  C   UNL A   1      32.228  25.306  26.282  1.00  0.00     0.082 A 
ATOM     19  C   UNL A   1      31.222  26.288  26.286  1.00  0.00     0.025 A 
ATOM     20  C   UNL A   1      33.546  25.650  25.955  1.00  0.00     0.025 A 
ATOM     21  C   UNL A   1      31.556  27.622  26.028  1.00  0.00     0.040 A 
ATOM     22  C   UNL A   1      33.873  26.988  25.715  1.00  0.00     0.040 A 
ATOM     23  C   UNL A   1      32.879  27.960  25.762  1.00  0.00     0.123 A 
ATOM     24  F   UNL A   1      33.203  29.241  25.538  1.00  0.00    -0.207 F 
ENDBRANCH  15  18
ENDBRANCH  10  15
ENDBRANCH   4   6
ENDBRANCH   3   4
ENDBRANCH   2   3
ENDBRANCH   1   2
BRANCH   1  25
ATOM     25  O   UNL A   1      37.892  23.255  25.531  1.00  0.00    -0.458 OA
BRANCH  25  26
ATOM     26  C   UNL A   1      38.982  23.088  26.308  1.00  0.00     0.338 C 
ATOM     27  O   UNL A   1      39.606  22.059  26.484  1.00  0.00    -0.246 OA
BRANCH  26  28
ATOM     28  C   UNL A   1      39.424  24.304  26.970  1.00  0.00     0.060 A 
ATOM     29  C   UNL A   1      38.982  24.588  28.262  1.00  0.00     0.016 A 
ATOM     30  C   UNL A   1      40.096  25.256  26.202  1.00  0.00     0.016 A 
ATOM     31  C   UNL A   1      39.250  25.838  28.809  1.00  0.00     0.010 A 
ATOM     32  C   UNL A   1      40.408  26.486  26.768  1.00  0.00     0.010 A 
ATOM     33  C   UNL A   1      40.006  26.773  28.081  1.00  0.00    -0.014 A 
BRANCH  33  34
ATOM     34  C   UNL A   1      40.579  27.949  28.766  1.00  0.00     0.031 A 
ATOM     35  C   UNL A   1      41.950  27.930  29.366  1.00  0.00     0.074 A 
ATOM     36  C   UNL A   1      39.768  29.016  28.904  1.00  0.00     0.049 A 
ATOM     37  N   UNL A   1      42.536  28.855  30.081  1.00  0.00    -0.248 NA
ATOM     38  C   UNL A   1      42.768  26.727  29.146  1.00  0.00     0.031 C 
ATOM     39  C   UNL A   1      38.401  29.107  28.375  1.00  0.00     0.029 A 
ATOM     40  N   UNL A   1      39.958  30.213  29.538  1.00  0.00    -0.354 N 
ATOM     41  C   UNL A   1      43.784  28.345  30.414  1.00  0.00     0.074 A 
ATOM     42  C   UNL A   1      43.871  27.024  29.824  1.00  0.00     0.031 C 
ATOM     43  C   UNL A   1      37.881  30.298  28.700  1.00  0.00     0.029 A 
ATOM     44  C   UNL A   1      38.851  31.027  29.503  1.00  0.00     0.049 A 
ATOM     45  H   UNL A   1      40.802  30.465  29.977  1.00  0.00     0.167 HD
ATOM     46  C   UNL A   1      44.758  28.933  31.150  1.00  0.00     0.031 A 
ATOM     47  C   UNL A   1      38.625  32.217  30.084  1.00  0.00     0.031 A 
ATOM     48  C   UNL A   1      44.642  30.244  31.737  1.00  0.00     0.049 A 
ATOM     49  C   UNL A   1      39.714  32.828  30.911  1.00  0.00     0.074 A 
ATOM     50  C   UNL A   1      45.587  30.950  32.462  1.00  0.00     0.029 A 
ATOM     51  N   UNL A   1      43.509  31.044  31.678  1.00  0.00    -0.354 N 
ATOM     52  N   UNL A   1      40.907  32.350  31.173  1.00  0.00    -0.248 NA
ATOM     53  C   UNL A   1      39.427  34.130  31.521  1.00  0.00     0.031 C 
ATOM     54  C   UNL A   1      45.010  32.154  32.879  1.00  0.00     0.029 A 
ATOM     55  C   UNL A   1      43.721  32.220  32.375  1.00  0.00     0.049 A 
ATOM     56  H   UNL A   1      42.676  30.808  31.208  1.00  0.00     0.167 HD
ATOM     57  C   UNL A   1      41.522  33.302  31.972  1.00  0.00     0.074 A 
ATOM     58  C   UNL A   1      40.575  34.390  32.132  1.00  0.00     0.031 C 
ATOM     59  C   UNL A   1      42.757  33.279  32.529  1.00  0.00     0.031 A 
BRANCH  46  60
ATOM     60  C   UNL A   1      46.030  28.166  31.390  1.00  0.00    -0.014 A 
ATOM     61  C   UNL A   1      46.166  27.316  32.502  1.00  0.00     0.010 A 
ATOM     62  C   UNL A   1      47.065  28.218  30.437  1.00  0.00     0.010 A 
ATOM     63  C   UNL A   1      47.319  26.540  32.662  1.00  0.00     0.020 A 
ATOM     64  C   UNL A   1      48.212  27.431  30.586  1.00  0.00     0.020 A 
ATOM     65  C   UNL A   1      48.334  26.602  31.701  1.00  0.00     0.054 A 
BRANCH  65  66
ATOM     66  S   UNL A   1      49.793  25.540  31.903  1.00  0.00     0.124 S 
ATOM     67  O   UNL A   1      50.797  26.494  32.368  1.00  0.00    -0.237 OA
ATOM     68  O   UNL A   1      49.346  24.566  32.895  1.00  0.00    -0.237 OA
ATOM     69  O   UNL A   1      50.017  25.002  30.563  1.00  0.00    -0.744 OA
ENDBRANCH  65  66
ENDBRANCH  46  60
BRANCH  47  70
ATOM     70  C   UNL A   1      37.307  32.879  29.916  1.00  0.00    -0.014 A 
ATOM     71  C   UNL A   1      36.370  32.874  30.962  1.00  0.00     0.010 A 
ATOM     72  C   UNL A   1      37.004  33.556  28.721  1.00  0.00     0.010 A 
ATOM     73  C   UNL A   1      35.141  33.520  30.808  1.00  0.00     0.020 A 
ATOM     74  C   UNL A   1      35.787  34.226  28.573  1.00  0.00     0.020 A 
ATOM     75  C   UNL A   1      34.857  34.190  29.614  1.00  0.00     0.054 A 
BRANCH  75  76
ATOM     76  S   UNL A   1      33.278  35.068  29.450  1.00  0.00     0.124 S 
ATOM     77  O   UNL A   1      32.699  34.896  30.778  1.00  0.00    -0.237 OA
ATOM     78  O   UNL A   1      33.699  36.426  29.113  1.00  0.00    -0.237 OA
ATOM     79  O   UNL A   1      32.603  34.350  28.371  1.00  0.00    -0.744 OA
ENDBRANCH  75  76
ENDBRANCH  47  70
BRANCH  59  80
ATOM     80  C   UNL A   1      43.146  34.477  33.345  1.00  0.00    -0.014 A 
ATOM     81  C   UNL A   1      43.684  35.623  32.732  1.00  0.00     0.010 A 
ATOM     82  C   UNL A   1      42.959  34.460  34.738  1.00  0.00     0.010 A 
ATOM     83  C   UNL A   1      44.064  36.720  33.506  1.00  0.00     0.020 A 
ATOM     84  C   UNL A   1      43.317  35.565  35.512  1.00  0.00     0.020 A 
ATOM     85  C   UNL A   1      43.883  36.683  34.892  1.00  0.00     0.054 A 
BRANCH  85  86
ATOM     86  S   UNL A   1      44.361  38.127  35.878  1.00  0.00     0.124 S 
ATOM     87  O   UNL A   1      43.623  37.904  37.118  1.00  0.00    -0.237 OA
ATOM     88  O   UNL A   1      45.813  37.986  35.976  1.00  0.00    -0.237 OA
ATOM     89  O   UNL A   1      43.905  39.259  35.074  1.00  0.00    -0.744 OA
ENDBRANCH  85  86
ENDBRANCH  59  80
ENDBRANCH  33  34
ENDBRANCH  26  28
ENDBRANCH  25  26
ENDBRANCH   1  25
TORSDOF 18
ENDMDL
MODEL 3
REMARK VINA RESULT:     -10.7      3.135      4.253
REMARK SMILES CC(=O)O[C@H]1C[C@@H](C(=O)OCCOC(=O)c2ccc(-c3c4nc(c(-c5ccc(S(=O)(=O)[O-])cc5)c5ccc([nH]5)c(-c5ccc(S(=O)(=O)[O-])cc5)c5nc(c(-c6ccc(S(=O)(=O)[O-])cc6)c6ccc3[nH]6)C=C5)C=C4)cc2)N(S(=O)(=O)c2ccc(F)cc2)C1
REMARK SMILES IDX 12 1 11 2 10 3 8 4 9 5 7 6 5 7 6 8 87 9 76 10 4 11 2 12 1 13
REMARK SMILES IDX 3 14 77 15 78 16 79 17 80 18 81 19 86 20 82 21 85 22 83 23
REMARK SMILES IDX 84 24 13 25 14 26 15 27 16 28 17 29 75 30 18 31 74 32 19 33
REMARK SMILES IDX 20 34 21 35 68 36 22 37 73 38 67 39 69 40 23 41 72 42 66 43
REMARK SMILES IDX 65 44 24 46 54 47 35 48 53 49 36 50 39 51 52 52 70 53 37 54
REMARK SMILES IDX 38 55 51 57 71 58 40 59 25 60 26 61 34 62 27 63 33 64 28 65
REMARK SMILES IDX 29 66 30 67 31 68 32 69 55 70 56 71 64 72 57 73 63 74 58 75
REMARK SMILES IDX 59 76 60 77 61 78 62 79 41 80 42 81 50 82 43 83 49 84 44 85
REMARK SMILES IDX 45 86 46 87 47 88 48 89
REMARK H PARENT 69 45 39 56
REMARK Flexibility Score: inf
ROOT
ATOM      1  C   UNL A   1      34.429  29.580  27.451  1.00  0.00     0.275 C 
ENDROOT
BRANCH   1   2
ATOM      2  C   UNL A   1      33.876  28.555  26.450  1.00  0.00     0.274 C 
BRANCH   2   3
ATOM      3  O   UNL A   1      33.112  27.509  27.085  1.00  0.00    -0.461 OA
BRANCH   3   4
ATOM      4  C   UNL A   1      32.111  27.031  26.320  1.00  0.00     0.324 C 
ATOM      5  O   UNL A   1      31.167  26.379  26.772  1.00  0.00    -0.250 OA
BRANCH   4   6
ATOM      6  C   UNL A   1      32.199  27.265  24.853  1.00  0.00     0.187 C 
ATOM      7  C   UNL A   1      31.046  28.251  23.036  1.00  0.00     0.194 C 
ATOM      8  C   UNL A   1      30.800  27.699  24.421  1.00  0.00     0.079 C 
ATOM      9  C   UNL A   1      32.086  27.261  22.472  1.00  0.00     0.148 C 
ATOM     10  N   UNL A   1      32.705  26.540  23.660  1.00  0.00    -0.180 NA
BRANCH   7  11
ATOM     11  O   UNL A   1      29.837  28.220  22.261  1.00  0.00    -0.461 OA
BRANCH  11  12
ATOM     12  C   UNL A   1      29.058  29.314  22.069  1.00  0.00     0.302 C 
ATOM     13  C   UNL A   1      27.788  29.415  22.865  1.00  0.00     0.139 C 
ATOM     14  O   UNL A   1      29.407  30.204  21.299  1.00  0.00    -0.253 OA
ENDBRANCH  11  12
ENDBRANCH   7  11
BRANCH  10  15
ATOM     15  S   UNL A   1      32.599  24.847  23.544  1.00  0.00     0.243 S 
ATOM     16  O   UNL A   1      31.562  24.414  24.456  1.00  0.00    -0.207 OA
ATOM     17  O   UNL A   1      32.510  24.521  22.134  1.00  0.00    -0.207 OA
BRANCH  15  18
ATOM     18  C   UNL A   1      34.159  24.174  24.064  1.00  0.00     0.082 A 
ATOM     19  C   UNL A   1      34.730  24.606  25.274  1.00  0.00     0.025 A 
ATOM     20  C   UNL A   1      34.884  23.339  23.203  1.00  0.00     0.025 A 
ATOM     21  C   UNL A   1      35.997  24.146  25.646  1.00  0.00     0.040 A 
ATOM     22  C   UNL A   1      36.142  22.870  23.591  1.00  0.00     0.040 A 
ATOM     23  C   UNL A   1      36.682  23.270  24.809  1.00  0.00     0.123 A 
ATOM     24  F   UNL A   1      37.886  22.810  25.176  1.00  0.00    -0.207 F 
ENDBRANCH  15  18
ENDBRANCH  10  15
ENDBRANCH   4   6
ENDBRANCH   3   4
ENDBRANCH   2   3
ENDBRANCH   1   2
BRANCH   1  25
ATOM     25  O   UNL A   1      35.860  29.753  27.393  1.00  0.00    -0.458 OA
BRANCH  25  26
ATOM     26  C   UNL A   1      36.477  29.605  28.583  1.00  0.00     0.338 C 
ATOM     27  O   UNL A   1      35.962  29.635  29.685  1.00  0.00    -0.246 OA
BRANCH  26  28
ATOM     28  C   UNL A   1      37.908  29.372  28.478  1.00  0.00     0.060 A 
ATOM     29  C   UNL A   1      38.692  29.352  29.632  1.00  0.00     0.016 A 
ATOM     30  C   UNL A   1      38.479  29.399  27.205  1.00  0.00     0.016 A 
ATOM     31  C   UNL A   1      40.077  29.323  29.507  1.00  0.00     0.010 A 
ATOM     32  C   UNL A   1      39.861  29.319  27.082  1.00  0.00     0.010 A 
ATOM     33  C   UNL A   1      40.663  29.258  28.231  1.00  0.00    -0.014 A 
BRANCH  33  34
ATOM     34  C   UNL A   1      42.087  28.889  28.094  1.00  0.00     0.031 A 
ATOM     35  C   UNL A   1      43.176  29.915  28.075  1.00  0.00     0.074 A 
ATOM     36  C   UNL A   1      42.351  27.583  27.893  1.00  0.00     0.049 A 
ATOM     37  N   UNL A   1      44.454  29.740  27.860  1.00  0.00    -0.248 NA
ATOM     38  C   UNL A   1      42.792  31.315  28.322  1.00  0.00     0.031 C 
ATOM     39  C   UNL A   1      41.341  26.517  27.866  1.00  0.00     0.029 A 
ATOM     40  N   UNL A   1      43.528  26.930  27.660  1.00  0.00    -0.354 N 
ATOM     41  C   UNL A   1      45.029  31.002  27.926  1.00  0.00     0.074 A 
ATOM     42  C   UNL A   1      43.958  31.939  28.200  1.00  0.00     0.031 C 
ATOM     43  C   UNL A   1      41.946  25.344  27.637  1.00  0.00     0.029 A 
ATOM     44  C   UNL A   1      43.368  25.582  27.447  1.00  0.00     0.049 A 
ATOM     45  H   UNL A   1      44.404  27.381  27.644  1.00  0.00     0.167 HD
ATOM     46  C   UNL A   1      46.332  31.335  27.767  1.00  0.00     0.031 A 
ATOM     47  C   UNL A   1      44.264  24.642  27.100  1.00  0.00     0.031 A 
ATOM     48  C   UNL A   1      47.378  30.384  27.484  1.00  0.00     0.049 A 
ATOM     49  C   UNL A   1      45.691  25.049  26.908  1.00  0.00     0.074 A 
ATOM     50  C   UNL A   1      48.737  30.613  27.350  1.00  0.00     0.029 A 
ATOM     51  N   UNL A   1      47.181  29.025  27.279  1.00  0.00    -0.354 N 
ATOM     52  N   UNL A   1      46.224  26.242  27.024  1.00  0.00    -0.248 NA
ATOM     53  C   UNL A   1      46.635  23.990  26.537  1.00  0.00     0.031 C 
ATOM     54  C   UNL A   1      49.354  29.402  27.019  1.00  0.00     0.029 A 
ATOM     55  C   UNL A   1      48.387  28.410  26.993  1.00  0.00     0.049 A 
ATOM     56  H   UNL A   1      46.311  28.567  27.331  1.00  0.00     0.167 HD
ATOM     57  C   UNL A   1      47.574  26.075  26.751  1.00  0.00     0.074 A 
ATOM     58  C   UNL A   1      47.776  24.664  26.484  1.00  0.00     0.031 C 
ATOM     59  C   UNL A   1      48.558  27.006  26.718  1.00  0.00     0.031 A 
BRANCH  46  60
ATOM     60  C   UNL A   1      46.713  32.787  27.871  1.00  0.00    -0.014 A 
ATOM     61  C   UNL A   1      46.695  33.624  26.740  1.00  0.00     0.010 A 
ATOM     62  C   UNL A   1      46.995  33.345  29.131  1.00  0.00     0.010 A 
ATOM     63  C   UNL A   1      46.962  34.991  26.868  1.00  0.00     0.020 A 
ATOM     64  C   UNL A   1      47.246  34.715  29.265  1.00  0.00     0.020 A 
ATOM     65  C   UNL A   1      47.235  35.528  28.131  1.00  0.00     0.054 A 
BRANCH  65  66
ATOM     66  S   UNL A   1      47.519  37.316  28.277  1.00  0.00     0.124 S 
ATOM     67  O   UNL A   1      47.127  37.570  29.661  1.00  0.00    -0.237 OA
ATOM     68  O   UNL A   1      48.947  37.438  27.996  1.00  0.00    -0.237 OA
ATOM     69  O   UNL A   1      46.637  37.890  27.263  1.00  0.00    -0.744 OA
ENDBRANCH  65  66
ENDBRANCH  46  60
BRANCH  47  70
ATOM     70  C   UNL A   1      43.816  23.241  26.892  1.00  0.00    -0.014 A 
ATOM     71  C   UNL A   1      43.220  22.522  27.940  1.00  0.00     0.010 A 
ATOM     72  C   UNL A   1      43.946  22.638  25.628  1.00  0.00     0.010 A 
ATOM     73  C   UNL A   1      42.778  21.213  27.733  1.00  0.00     0.020 A 
ATOM     74  C   UNL A   1      43.481  21.340  25.409  1.00  0.00     0.020 A 
ATOM     75  C   UNL A   1      42.913  20.630  26.469  1.00  0.00     0.054 A 
BRANCH  75  76
ATOM     76  S   UNL A   1      42.286  18.949  26.202  1.00  0.00     0.124 S 
ATOM     77  O   UNL A   1      42.442  18.357  27.526  1.00  0.00    -0.237 OA
ATOM     78  O   UNL A   1      40.910  19.184  25.771  1.00  0.00    -0.237 OA
ATOM     79  O   UNL A   1      43.171  18.419  25.167  1.00  0.00    -0.744 OA
ENDBRANCH  75  76
ENDBRANCH  47  70
BRANCH  59  80
ATOM     80  C   UNL A   1      49.938  26.510  26.398  1.00  0.00    -0.014 A 
ATOM     81  C   UNL A   1      50.424  26.534  25.079  1.00  0.00     0.010 A 
ATOM     82  C   UNL A   1      50.760  26.028  27.431  1.00  0.00     0.010 A 
ATOM     83  C   UNL A   1      51.700  26.047  24.792  1.00  0.00     0.020 A 
ATOM     84  C   UNL A   1      52.046  25.562  27.151  1.00  0.00     0.020 A 
ATOM     85  C   UNL A   1      52.501  25.559  25.829  1.00  0.00     0.054 A 
BRANCH  85  86
ATOM     86  S   UNL A   1      54.166  24.952  25.441  1.00  0.00     0.124 S 
ATOM     87  O   UNL A   1      53.891  23.598  24.969  1.00  0.00    -0.237 OA
ATOM     88  O   UNL A   1      54.622  25.894  24.420  1.00  0.00    -0.237 OA
ATOM     89  O   UNL A   1      54.870  25.039  26.717  1.00  0.00    -0.744 OA
ENDBRANCH  85  86
ENDBRANCH  59  80
ENDBRANCH  33  34
ENDBRANCH  26  28
ENDBRANCH  25  26
ENDBRANCH   1  25
TORSDOF 18
ENDMDL
