MODEL 1
REMARK VINA RESULT:     -10.1      0.000      0.000
REMARK SMILES Cn1cc2cc(C(=O)OCCOC(=O)c3ccc(-c4c5nc(c(-c6ccc(S(=O)(=O)[O-])cc6)c6ccc([nH]6)c(-c6ccc(S(=O)(=O)[O-])cc6)c6nc(c(-c7ccc(S(=O)(=O)[O-])cc7)c7ccc4[nH]7)C=C6)C=C5)cc3)ccc2n1
REMARK SMILES IDX 12 1 11 2 10 3 9 4 7 5 8 6 6 7 1 8 2 9 3 10 78 11 4 12 77 13
REMARK SMILES IDX 5 14 76 15 75 16 13 17 14 18 15 19 16 20 74 21 17 22 73 23
REMARK SMILES IDX 18 24 19 25 20 26 67 27 21 28 72 29 66 30 68 31 22 32 71 33
REMARK SMILES IDX 65 34 64 35 23 37 53 38 34 39 52 40 35 41 38 42 51 43 69 44
REMARK SMILES IDX 36 45 37 46 50 48 70 49 39 50 24 51 25 52 33 53 26 54 32 55
REMARK SMILES IDX 27 56 28 57 29 58 30 59 31 60 54 61 55 62 63 63 56 64 62 65
REMARK SMILES IDX 57 66 58 67 59 68 60 69 61 70 40 71 41 72 49 73 42 74 48 75
REMARK SMILES IDX 43 76 44 77 45 78 46 79 47 80
REMARK H PARENT 68 36 38 47
REMARK Flexibility Score: inf
ROOT
ATOM      1  O   UNL A   1      33.694  28.751  27.445  1.00  0.00    -0.458 OA
ENDROOT
BRANCH   1   2
ATOM      2  C   UNL A   1      32.264  28.592  27.432  1.00  0.00     0.275 C 
BRANCH   2   3
ATOM      3  C   UNL A   1      31.786  28.267  26.018  1.00  0.00     0.275 C 
BRANCH   3   4
ATOM      4  O   UNL A   1      32.305  26.997  25.570  1.00  0.00    -0.458 OA
BRANCH   4   5
ATOM      5  C   UNL A   1      31.716  25.900  26.116  1.00  0.00     0.338 C 
ATOM      6  O   UNL A   1      30.547  25.788  26.427  1.00  0.00    -0.246 OA
BRANCH   5   7
ATOM      7  C   UNL A   1      32.682  24.772  26.204  1.00  0.00     0.060 A 
ATOM      8  C   UNL A   1      37.807  22.026  25.519  1.00  0.00     0.173 C 
ATOM      9  N   UNL A   1      36.499  22.590  25.755  1.00  0.00    -0.275 N 
ATOM     10  C   UNL A   1      36.101  23.853  25.426  1.00  0.00     0.117 A 
ATOM     11  N   UNL A   1      35.533  21.831  26.325  1.00  0.00    -0.173 NA
ATOM     12  C   UNL A   1      34.790  23.904  25.801  1.00  0.00     0.021 A 
ATOM     13  C   UNL A   1      34.458  22.636  26.390  1.00  0.00     0.092 A 
ATOM     14  C   UNL A   1      33.959  25.000  25.640  1.00  0.00     0.027 A 
ATOM     15  C   UNL A   1      33.168  22.407  26.903  1.00  0.00     0.032 A 
ATOM     16  C   UNL A   1      32.299  23.525  26.804  1.00  0.00     0.018 A 
ENDBRANCH   5   7
ENDBRANCH   4   5
ENDBRANCH   3   4
ENDBRANCH   2   3
ENDBRANCH   1   2
BRANCH   1  17
ATOM     17  C   UNL A   1      34.143  29.995  27.728  1.00  0.00     0.338 C 
ATOM     18  O   UNL A   1      33.509  31.036  27.706  1.00  0.00    -0.246 OA
BRANCH  17  19
ATOM     19  C   UNL A   1      35.561  29.934  28.120  1.00  0.00     0.060 A 
ATOM     20  C   UNL A   1      36.536  30.180  27.159  1.00  0.00     0.016 A 
ATOM     21  C   UNL A   1      35.928  29.489  29.387  1.00  0.00     0.016 A 
ATOM     22  C   UNL A   1      37.870  29.872  27.417  1.00  0.00     0.010 A 
ATOM     23  C   UNL A   1      37.283  29.291  29.681  1.00  0.00     0.010 A 
ATOM     24  C   UNL A   1      38.270  29.433  28.688  1.00  0.00    -0.014 A 
BRANCH  24  25
ATOM     25  C   UNL A   1      39.698  29.086  28.961  1.00  0.00     0.031 A 
ATOM     26  C   UNL A   1      40.621  30.099  29.598  1.00  0.00     0.074 A 
ATOM     27  C   UNL A   1      40.181  27.864  28.656  1.00  0.00     0.049 A 
ATOM     28  N   UNL A   1      41.921  30.051  29.757  1.00  0.00    -0.248 NA
ATOM     29  C   UNL A   1      40.005  31.334  30.109  1.00  0.00     0.031 C 
ATOM     30  C   UNL A   1      39.408  26.760  28.081  1.00  0.00     0.029 A 
ATOM     31  N   UNL A   1      41.444  27.337  28.796  1.00  0.00    -0.354 N 
ATOM     32  C   UNL A   1      42.284  31.270  30.321  1.00  0.00     0.074 A 
ATOM     33  C   UNL A   1      41.067  32.038  30.476  1.00  0.00     0.031 C 
ATOM     34  C   UNL A   1      40.193  25.679  27.968  1.00  0.00     0.029 A 
ATOM     35  C   UNL A   1      41.551  26.035  28.362  1.00  0.00     0.049 A 
ATOM     36  H   UNL A   1      42.200  27.843  29.172  1.00  0.00     0.167 HD
ATOM     37  C   UNL A   1      43.515  31.714  30.676  1.00  0.00     0.031 A 
ATOM     38  C   UNL A   1      42.622  25.224  28.246  1.00  0.00     0.031 A 
ATOM     39  C   UNL A   1      44.721  30.932  30.567  1.00  0.00     0.049 A 
ATOM     40  C   UNL A   1      43.982  25.746  28.613  1.00  0.00     0.074 A 
ATOM     41  C   UNL A   1      46.012  31.288  30.917  1.00  0.00     0.029 A 
ATOM     42  N   UNL A   1      44.782  29.633  30.084  1.00  0.00    -0.354 N 
ATOM     43  N   UNL A   1      44.311  26.921  29.092  1.00  0.00    -0.248 NA
ATOM     44  C   UNL A   1      45.118  24.837  28.404  1.00  0.00     0.031 C 
ATOM     45  C   UNL A   1      46.861  30.220  30.606  1.00  0.00     0.029 A 
ATOM     46  C   UNL A   1      46.091  29.179  30.112  1.00  0.00     0.049 A 
ATOM     47  H   UNL A   1      44.010  29.111  29.769  1.00  0.00     0.167 HD
ATOM     48  C   UNL A   1      45.691  26.891  29.251  1.00  0.00     0.074 A 
ATOM     49  C   UNL A   1      46.132  25.573  28.838  1.00  0.00     0.031 C 
ATOM     50  C   UNL A   1      46.519  27.869  29.693  1.00  0.00     0.031 A 
BRANCH  37  51
ATOM     51  C   UNL A   1      43.631  33.133  31.173  1.00  0.00    -0.014 A 
ATOM     52  C   UNL A   1      43.940  34.198  30.307  1.00  0.00     0.010 A 
ATOM     53  C   UNL A   1      43.399  33.406  32.534  1.00  0.00     0.010 A 
ATOM     54  C   UNL A   1      44.063  35.500  30.804  1.00  0.00     0.020 A 
ATOM     55  C   UNL A   1      43.492  34.710  33.029  1.00  0.00     0.020 A 
ATOM     56  C   UNL A   1      43.845  35.746  32.163  1.00  0.00     0.054 A 
BRANCH  56  57
ATOM     57  S   UNL A   1      44.008  37.444  32.782  1.00  0.00     0.124 S 
ATOM     58  O   UNL A   1      43.769  38.228  31.573  1.00  0.00    -0.237 OA
ATOM     59  O   UNL A   1      42.959  37.520  33.796  1.00  0.00    -0.237 OA
ATOM     60  O   UNL A   1      45.372  37.497  33.298  1.00  0.00    -0.744 OA
ENDBRANCH  56  57
ENDBRANCH  37  51
BRANCH  38  61
ATOM     61  C   UNL A   1      42.448  23.846  27.710  1.00  0.00    -0.014 A 
ATOM     62  C   UNL A   1      42.526  23.599  26.329  1.00  0.00     0.010 A 
ATOM     63  C   UNL A   1      42.240  22.765  28.588  1.00  0.00     0.010 A 
ATOM     64  C   UNL A   1      42.401  22.296  25.836  1.00  0.00     0.020 A 
ATOM     65  C   UNL A   1      42.146  21.459  28.102  1.00  0.00     0.020 A 
ATOM     66  C   UNL A   1      42.219  21.233  26.727  1.00  0.00     0.054 A 
BRANCH  66  67
ATOM     67  S   UNL A   1      42.142  19.542  26.072  1.00  0.00     0.124 S 
ATOM     68  O   UNL A   1      42.598  18.755  27.214  1.00  0.00    -0.237 OA
ATOM     69  O   UNL A   1      40.730  19.399  25.728  1.00  0.00    -0.237 OA
ATOM     70  O   UNL A   1      43.053  19.578  24.931  1.00  0.00    -0.744 OA
ENDBRANCH  66  67
ENDBRANCH  38  61
BRANCH  50  71
ATOM     71  C   UNL A   1      47.984  27.542  29.784  1.00  0.00    -0.014 A 
ATOM     72  C   UNL A   1      48.875  27.903  28.757  1.00  0.00     0.010 A 
ATOM     73  C   UNL A   1      48.482  26.899  30.931  1.00  0.00     0.010 A 
ATOM     74  C   UNL A   1      50.235  27.599  28.864  1.00  0.00     0.020 A 
ATOM     75  C   UNL A   1      49.845  26.615  31.052  1.00  0.00     0.020 A 
ATOM     76  C   UNL A   1      50.711  26.953  30.010  1.00  0.00     0.054 A 
BRANCH  76  77
ATOM     77  S   UNL A   1      52.486  26.602  30.143  1.00  0.00     0.124 S 
ATOM     78  O   UNL A   1      52.514  25.568  31.174  1.00  0.00    -0.237 OA
ATOM     79  O   UNL A   1      52.828  26.156  28.795  1.00  0.00    -0.237 OA
ATOM     80  O   UNL A   1      53.065  27.886  30.534  1.00  0.00    -0.744 OA
ENDBRANCH  76  77
ENDBRANCH  50  71
ENDBRANCH  24  25
ENDBRANCH  17  19
ENDBRANCH   1  17
TORSDOF 14
ENDMDL
MODEL 2
REMARK VINA RESULT:     -10.0      3.824     10.273
REMARK SMILES Cn1cc2cc(C(=O)OCCOC(=O)c3ccc(-c4c5nc(c(-c6ccc(S(=O)(=O)[O-])cc6)c6ccc([nH]6)c(-c6ccc(S(=O)(=O)[O-])cc6)c6nc(c(-c7ccc(S(=O)(=O)[O-])cc7)c7ccc4[nH]7)C=C6)C=C5)cc3)ccc2n1
REMARK SMILES IDX 12 1 11 2 10 3 9 4 7 5 8 6 6 7 1 8 2 9 3 10 78 11 4 12 77 13
REMARK SMILES IDX 5 14 76 15 75 16 13 17 14 18 15 19 16 20 74 21 17 22 73 23
REMARK SMILES IDX 18 24 19 25 20 26 67 27 21 28 72 29 66 30 68 31 22 32 71 33
REMARK SMILES IDX 65 34 64 35 23 37 53 38 34 39 52 40 35 41 38 42 51 43 69 44
REMARK SMILES IDX 36 45 37 46 50 48 70 49 39 50 24 51 25 52 33 53 26 54 32 55
REMARK SMILES IDX 27 56 28 57 29 58 30 59 31 60 54 61 55 62 63 63 56 64 62 65
REMARK SMILES IDX 57 66 58 67 59 68 60 69 61 70 40 71 41 72 49 73 42 74 48 75
REMARK SMILES IDX 43 76 44 77 45 78 46 79 47 80
REMARK H PARENT 68 36 38 47
REMARK Flexibility Score: inf
ROOT
ATOM      1  O   UNL A   1      40.485  20.908  27.004  1.00  0.00    -0.458 OA
ENDROOT
BRANCH   1   2
ATOM      2  C   UNL A   1      40.564  19.691  26.242  1.00  0.00     0.275 C 
BRANCH   2   3
ATOM      3  C   UNL A   1      41.984  19.129  26.298  1.00  0.00     0.275 C 
BRANCH   3   4
ATOM      4  O   UNL A   1      42.631  19.213  25.011  1.00  0.00    -0.458 OA
BRANCH   4   5
ATOM      5  C   UNL A   1      43.980  19.372  25.045  1.00  0.00     0.338 C 
ATOM      6  O   UNL A   1      44.811  18.486  25.039  1.00  0.00    -0.246 OA
BRANCH   5   7
ATOM      7  C   UNL A   1      44.343  20.813  24.991  1.00  0.00     0.060 A 
ATOM      8  C   UNL A   1      47.817  25.446  24.125  1.00  0.00     0.173 C 
ATOM      9  N   UNL A   1      46.857  24.394  24.361  1.00  0.00    -0.275 N 
ATOM     10  C   UNL A   1      47.094  23.055  24.248  1.00  0.00     0.117 A 
ATOM     11  N   UNL A   1      45.601  24.707  24.759  1.00  0.00    -0.173 NA
ATOM     12  C   UNL A   1      45.915  22.470  24.609  1.00  0.00     0.021 A 
ATOM     13  C   UNL A   1      44.980  23.522  24.898  1.00  0.00     0.092 A 
ATOM     14  C   UNL A   1      45.688  21.105  24.664  1.00  0.00     0.027 A 
ATOM     15  C   UNL A   1      43.658  23.216  25.269  1.00  0.00     0.032 A 
ATOM     16  C   UNL A   1      43.370  21.826  25.287  1.00  0.00     0.018 A 
ENDBRANCH   5   7
ENDBRANCH   4   5
ENDBRANCH   3   4
ENDBRANCH   2   3
ENDBRANCH   1   2
BRANCH   1  17
ATOM     17  C   UNL A   1      39.703  21.879  26.480  1.00  0.00     0.338 C 
ATOM     18  O   UNL A   1      38.803  21.748  25.667  1.00  0.00    -0.246 OA
BRANCH  17  19
ATOM     19  C   UNL A   1      40.065  23.179  27.066  1.00  0.00     0.060 A 
ATOM     20  C   UNL A   1      39.545  24.339  26.500  1.00  0.00     0.016 A 
ATOM     21  C   UNL A   1      41.028  23.263  28.067  1.00  0.00     0.016 A 
ATOM     22  C   UNL A   1      40.067  25.584  26.846  1.00  0.00     0.010 A 
ATOM     23  C   UNL A   1      41.468  24.523  28.497  1.00  0.00     0.010 A 
ATOM     24  C   UNL A   1      41.030  25.700  27.860  1.00  0.00    -0.014 A 
BRANCH  24  25
ATOM     25  C   UNL A   1      41.603  27.032  28.221  1.00  0.00     0.031 A 
ATOM     26  C   UNL A   1      43.088  27.285  28.090  1.00  0.00     0.074 A 
ATOM     27  C   UNL A   1      40.807  28.031  28.656  1.00  0.00     0.049 A 
ATOM     28  N   UNL A   1      43.795  28.305  28.509  1.00  0.00    -0.248 NA
ATOM     29  C   UNL A   1      43.883  26.249  27.412  1.00  0.00     0.031 C 
ATOM     30  C   UNL A   1      39.350  27.962  28.792  1.00  0.00     0.029 A 
ATOM     31  N   UNL A   1      41.110  29.311  29.057  1.00  0.00    -0.354 N 
ATOM     32  C   UNL A   1      45.120  28.003  28.209  1.00  0.00     0.074 A 
ATOM     33  C   UNL A   1      45.119  26.704  27.572  1.00  0.00     0.031 C 
ATOM     34  C   UNL A   1      38.884  29.154  29.192  1.00  0.00     0.029 A 
ATOM     35  C   UNL A   1      40.012  30.045  29.441  1.00  0.00     0.049 A 
ATOM     36  H   UNL A   1      42.028  29.669  29.067  1.00  0.00     0.167 HD
ATOM     37  C   UNL A   1      46.236  28.736  28.442  1.00  0.00     0.031 A 
ATOM     38  C   UNL A   1      39.912  31.277  29.978  1.00  0.00     0.031 A 
ATOM     39  C   UNL A   1      46.234  30.050  29.033  1.00  0.00     0.049 A 
ATOM     40  C   UNL A   1      41.163  32.060  30.260  1.00  0.00     0.074 A 
ATOM     41  C   UNL A   1      47.313  30.879  29.293  1.00  0.00     0.029 A 
ATOM     42  N   UNL A   1      45.099  30.734  29.441  1.00  0.00    -0.354 N 
ATOM     43  N   UNL A   1      42.410  31.733  30.019  1.00  0.00    -0.248 NA
ATOM     44  C   UNL A   1      40.994  33.370  30.904  1.00  0.00     0.031 C 
ATOM     45  C   UNL A   1      46.833  32.046  29.899  1.00  0.00     0.029 A 
ATOM     46  C   UNL A   1      45.451  31.967  29.966  1.00  0.00     0.049 A 
ATOM     47  H   UNL A   1      44.178  30.394  29.368  1.00  0.00     0.167 HD
ATOM     48  C   UNL A   1      43.174  32.800  30.475  1.00  0.00     0.074 A 
ATOM     49  C   UNL A   1      42.248  33.792  30.984  1.00  0.00     0.031 C 
ATOM     50  C   UNL A   1      44.522  32.943  30.476  1.00  0.00     0.031 A 
BRANCH  37  51
ATOM     51  C   UNL A   1      47.567  28.112  28.103  1.00  0.00    -0.014 A 
ATOM     52  C   UNL A   1      48.205  28.350  26.872  1.00  0.00     0.010 A 
ATOM     53  C   UNL A   1      48.202  27.289  29.053  1.00  0.00     0.010 A 
ATOM     54  C   UNL A   1      49.428  27.737  26.580  1.00  0.00     0.020 A 
ATOM     55  C   UNL A   1      49.438  26.698  28.776  1.00  0.00     0.020 A 
ATOM     56  C   UNL A   1      50.033  26.909  27.530  1.00  0.00     0.054 A 
BRANCH  56  57
ATOM     57  S   UNL A   1      51.621  26.129  27.127  1.00  0.00     0.124 S 
ATOM     58  O   UNL A   1      52.358  26.285  28.379  1.00  0.00    -0.237 OA
ATOM     59  O   UNL A   1      51.232  24.760  26.794  1.00  0.00    -0.237 OA
ATOM     60  O   UNL A   1      52.122  26.920  26.007  1.00  0.00    -0.744 OA
ENDBRANCH  56  57
ENDBRANCH  37  51
BRANCH  38  61
ATOM     61  C   UNL A   1      38.571  31.823  30.329  1.00  0.00    -0.014 A 
ATOM     62  C   UNL A   1      38.048  31.661  31.623  1.00  0.00     0.010 A 
ATOM     63  C   UNL A   1      37.826  32.541  29.374  1.00  0.00     0.010 A 
ATOM     64  C   UNL A   1      36.806  32.210  31.956  1.00  0.00     0.020 A 
ATOM     65  C   UNL A   1      36.600  33.117  29.713  1.00  0.00     0.020 A 
ATOM     66  C   UNL A   1      36.092  32.941  31.001  1.00  0.00     0.054 A 
BRANCH  66  67
ATOM     67  S   UNL A   1      34.522  33.714  31.479  1.00  0.00     0.124 S 
ATOM     68  O   UNL A   1      33.883  33.926  30.184  1.00  0.00    -0.237 OA
ATOM     69  O   UNL A   1      33.911  32.693  32.326  1.00  0.00    -0.237 OA
ATOM     70  O   UNL A   1      34.939  34.926  32.179  1.00  0.00    -0.744 OA
ENDBRANCH  66  67
ENDBRANCH  38  61
BRANCH  50  71
ATOM     71  C   UNL A   1      45.078  34.231  31.018  1.00  0.00    -0.014 A 
ATOM     72  C   UNL A   1      45.251  35.354  30.189  1.00  0.00     0.010 A 
ATOM     73  C   UNL A   1      45.394  34.330  32.385  1.00  0.00     0.010 A 
ATOM     74  C   UNL A   1      45.761  36.545  30.714  1.00  0.00     0.020 A 
ATOM     75  C   UNL A   1      45.880  35.527  32.917  1.00  0.00     0.020 A 
ATOM     76  C   UNL A   1      46.075  36.624  32.074  1.00  0.00     0.054 A 
BRANCH  76  77
ATOM     77  S   UNL A   1      46.699  38.191  32.740  1.00  0.00     0.124 S 
ATOM     78  O   UNL A   1      48.048  38.241  32.182  1.00  0.00    -0.237 OA
ATOM     79  O   UNL A   1      45.758  39.168  32.200  1.00  0.00    -0.237 OA
ATOM     80  O   UNL A   1      46.632  38.004  34.188  1.00  0.00    -0.744 OA
ENDBRANCH  76  77
ENDBRANCH  50  71
ENDBRANCH  24  25
ENDBRANCH  17  19
ENDBRANCH   1  17
TORSDOF 14
ENDMDL
MODEL 3
REMARK VINA RESULT:     -10.0      3.832      6.285
REMARK SMILES Cn1cc2cc(C(=O)OCCOC(=O)c3ccc(-c4c5nc(c(-c6ccc(S(=O)(=O)[O-])cc6)c6ccc([nH]6)c(-c6ccc(S(=O)(=O)[O-])cc6)c6nc(c(-c7ccc(S(=O)(=O)[O-])cc7)c7ccc4[nH]7)C=C6)C=C5)cc3)ccc2n1
REMARK SMILES IDX 12 1 11 2 10 3 9 4 7 5 8 6 6 7 1 8 2 9 3 10 78 11 4 12 77 13
REMARK SMILES IDX 5 14 76 15 75 16 13 17 14 18 15 19 16 20 74 21 17 22 73 23
REMARK SMILES IDX 18 24 19 25 20 26 67 27 21 28 72 29 66 30 68 31 22 32 71 33
REMARK SMILES IDX 65 34 64 35 23 37 53 38 34 39 52 40 35 41 38 42 51 43 69 44
REMARK SMILES IDX 36 45 37 46 50 48 70 49 39 50 24 51 25 52 33 53 26 54 32 55
REMARK SMILES IDX 27 56 28 57 29 58 30 59 31 60 54 61 55 62 63 63 56 64 62 65
REMARK SMILES IDX 57 66 58 67 59 68 60 69 61 70 40 71 41 72 49 73 42 74 48 75
REMARK SMILES IDX 43 76 44 77 45 78 46 79 47 80
REMARK H PARENT 68 36 38 47
REMARK Flexibility Score: inf
ROOT
ATOM      1  O   UNL A   1      35.824  29.135  27.637  1.00  0.00    -0.458 OA
ENDROOT
BRANCH   1   2
ATOM      2  C   UNL A   1      34.425  29.364  27.879  1.00  0.00     0.275 C 
BRANCH   2   3
ATOM      3  C   UNL A   1      33.979  30.651  27.187  1.00  0.00     0.275 C 
BRANCH   3   4
ATOM      4  O   UNL A   1      33.733  31.702  28.144  1.00  0.00    -0.458 OA
BRANCH   4   5
ATOM      5  C   UNL A   1      34.649  32.707  28.156  1.00  0.00     0.338 C 
ATOM      6  O   UNL A   1      35.686  32.745  27.525  1.00  0.00    -0.246 OA
BRANCH   5   7
ATOM      7  C   UNL A   1      34.173  33.843  28.988  1.00  0.00     0.060 A 
ATOM      8  C   UNL A   1      33.693  37.145  33.800  1.00  0.00     0.173 C 
ATOM      9  N   UNL A   1      33.734  36.426  32.548  1.00  0.00    -0.275 N 
ATOM     10  C   UNL A   1      34.431  35.278  32.308  1.00  0.00     0.117 A 
ATOM     11  N   UNL A   1      33.013  36.873  31.493  1.00  0.00    -0.173 NA
ATOM     12  C   UNL A   1      34.127  34.962  31.015  1.00  0.00     0.021 A 
ATOM     13  C   UNL A   1      33.259  35.989  30.510  1.00  0.00     0.092 A 
ATOM     14  C   UNL A   1      34.597  33.849  30.338  1.00  0.00     0.027 A 
ATOM     15  C   UNL A   1      32.805  35.945  29.179  1.00  0.00     0.032 A 
ATOM     16  C   UNL A   1      33.307  34.846  28.433  1.00  0.00     0.018 A 
ENDBRANCH   5   7
ENDBRANCH   4   5
ENDBRANCH   3   4
ENDBRANCH   2   3
ENDBRANCH   1   2
BRANCH   1  17
ATOM     17  C   UNL A   1      36.655  29.446  28.658  1.00  0.00     0.338 C 
ATOM     18  O   UNL A   1      36.361  29.968  29.721  1.00  0.00    -0.246 OA
BRANCH  17  19
ATOM     19  C   UNL A   1      38.026  29.024  28.330  1.00  0.00     0.060 A 
ATOM     20  C   UNL A   1      38.775  28.361  29.297  1.00  0.00     0.016 A 
ATOM     21  C   UNL A   1      38.621  29.414  27.133  1.00  0.00     0.016 A 
ATOM     22  C   UNL A   1      40.148  28.188  29.126  1.00  0.00     0.010 A 
ATOM     23  C   UNL A   1      39.977  29.133  26.915  1.00  0.00     0.010 A 
ATOM     24  C   UNL A   1      40.771  28.560  27.925  1.00  0.00    -0.014 A 
BRANCH  24  25
ATOM     25  C   UNL A   1      42.245  28.390  27.747  1.00  0.00     0.031 A 
ATOM     26  C   UNL A   1      43.192  29.512  28.109  1.00  0.00     0.074 A 
ATOM     27  C   UNL A   1      42.755  27.234  27.272  1.00  0.00     0.049 A 
ATOM     28  N   UNL A   1      44.476  29.623  27.869  1.00  0.00    -0.248 NA
ATOM     29  C   UNL A   1      42.618  30.665  28.820  1.00  0.00     0.031 C 
ATOM     30  C   UNL A   1      41.980  26.041  26.922  1.00  0.00     0.029 A 
ATOM     31  N   UNL A   1      44.054  26.866  27.011  1.00  0.00    -0.354 N 
ATOM     32  C   UNL A   1      44.845  30.881  28.337  1.00  0.00     0.074 A 
ATOM     33  C   UNL A   1      43.651  31.496  28.873  1.00  0.00     0.031 C 
ATOM     34  C   UNL A   1      42.815  25.064  26.544  1.00  0.00     0.029 A 
ATOM     35  C   UNL A   1      44.177  25.584  26.524  1.00  0.00     0.049 A 
ATOM     36  H   UNL A   1      44.823  27.463  27.159  1.00  0.00     0.167 HD
ATOM     37  C   UNL A   1      46.065  31.472  28.320  1.00  0.00     0.031 A 
ATOM     38  C   UNL A   1      45.250  24.909  26.066  1.00  0.00     0.031 A 
ATOM     39  C   UNL A   1      47.265  30.843  27.829  1.00  0.00     0.049 A 
ATOM     40  C   UNL A   1      46.586  25.594  26.025  1.00  0.00     0.074 A 
ATOM     41  C   UNL A   1      48.551  31.355  27.787  1.00  0.00     0.029 A 
ATOM     42  N   UNL A   1      47.330  29.558  27.310  1.00  0.00    -0.354 N 
ATOM     43  N   UNL A   1      46.904  26.804  26.420  1.00  0.00    -0.248 NA
ATOM     44  C   UNL A   1      47.706  24.830  25.457  1.00  0.00     0.031 C 
ATOM     45  C   UNL A   1      49.385  30.397  27.202  1.00  0.00     0.029 A 
ATOM     46  C   UNL A   1      48.631  29.267  26.930  1.00  0.00     0.049 A 
ATOM     47  H   UNL A   1      46.566  28.945  27.224  1.00  0.00     0.167 HD
ATOM     48  C   UNL A   1      48.261  26.942  26.156  1.00  0.00     0.074 A 
ATOM     49  C   UNL A   1      48.709  25.686  25.589  1.00  0.00     0.031 C 
ATOM     50  C   UNL A   1      49.063  28.016  26.361  1.00  0.00     0.031 A 
BRANCH  37  51
ATOM     51  C   UNL A   1      46.158  32.898  28.803  1.00  0.00    -0.014 A 
ATOM     52  C   UNL A   1      46.456  33.208  30.142  1.00  0.00     0.010 A 
ATOM     53  C   UNL A   1      45.967  33.949  27.886  1.00  0.00     0.010 A 
ATOM     54  C   UNL A   1      46.513  34.541  30.564  1.00  0.00     0.020 A 
ATOM     55  C   UNL A   1      46.051  35.282  28.297  1.00  0.00     0.020 A 
ATOM     56  C   UNL A   1      46.302  35.569  29.640  1.00  0.00     0.054 A 
BRANCH  56  57
ATOM     57  S   UNL A   1      46.384  37.290  30.211  1.00  0.00     0.124 S 
ATOM     58  O   UNL A   1      45.990  37.160  31.611  1.00  0.00    -0.237 OA
ATOM     59  O   UNL A   1      47.784  37.639  29.983  1.00  0.00    -0.237 OA
ATOM     60  O   UNL A   1      45.426  37.985  29.357  1.00  0.00    -0.744 OA
ENDBRANCH  56  57
ENDBRANCH  37  51
BRANCH  38  61
ATOM     61  C   UNL A   1      45.087  23.517  25.565  1.00  0.00    -0.014 A 
ATOM     62  C   UNL A   1      44.669  23.275  24.245  1.00  0.00     0.010 A 
ATOM     63  C   UNL A   1      45.386  22.423  26.399  1.00  0.00     0.010 A 
ATOM     64  C   UNL A   1      44.555  21.966  23.768  1.00  0.00     0.020 A 
ATOM     65  C   UNL A   1      45.303  21.115  25.916  1.00  0.00     0.020 A 
ATOM     66  C   UNL A   1      44.880  20.893  24.605  1.00  0.00     0.054 A 
BRANCH  66  67
ATOM     67  S   UNL A   1      44.805  19.206  23.941  1.00  0.00     0.124 S 
ATOM     68  O   UNL A   1      44.508  19.449  22.533  1.00  0.00    -0.237 OA
ATOM     69  O   UNL A   1      46.142  18.693  24.226  1.00  0.00    -0.237 OA
ATOM     70  O   UNL A   1      43.730  18.585  24.711  1.00  0.00    -0.744 OA
ENDBRANCH  66  67
ENDBRANCH  38  61
BRANCH  50  71
ATOM     71  C   UNL A   1      50.515  27.870  25.997  1.00  0.00    -0.014 A 
ATOM     72  C   UNL A   1      51.462  27.436  26.942  1.00  0.00     0.010 A 
ATOM     73  C   UNL A   1      50.931  28.135  24.680  1.00  0.00     0.010 A 
ATOM     74  C   UNL A   1      52.805  27.298  26.582  1.00  0.00     0.020 A 
ATOM     75  C   UNL A   1      52.269  27.975  24.311  1.00  0.00     0.020 A 
ATOM     76  C   UNL A   1      53.201  27.571  25.269  1.00  0.00     0.054 A 
BRANCH  76  77
ATOM     77  S   UNL A   1      54.944  27.350  24.816  1.00  0.00     0.124 S 
ATOM     78  O   UNL A   1      55.418  28.729  24.752  1.00  0.00    -0.237 OA
ATOM     79  O   UNL A   1      55.467  26.555  25.924  1.00  0.00    -0.237 OA
ATOM     80  O   UNL A   1      54.882  26.653  23.532  1.00  0.00    -0.744 OA
ENDBRANCH  76  77
ENDBRANCH  50  71
ENDBRANCH  24  25
ENDBRANCH  17  19
ENDBRANCH   1  17
TORSDOF 14
ENDMDL
