MODEL 1
REMARK VINA RESULT:     -12.6      0.000      0.000
REMARK SMILES Cc1nn2c(nnc3c(=O)n(CCCC(=O)OCCOC(=O)c4ccc(-c5c6nc(c(-c7ccc(S(=O)(=O)[O-])cc7)c7ccc([nH]7)c(-c7ccc(S(=O)(=O)[O-])cc7)c7nc(c(-c8ccc(S(=O)(=O)[O-])cc8)c8ccc5[nH]8)C=C7)C=C6)cc4)ccc32)c1-c1ccc(F)cc1
REMARK SMILES IDX 18 1 17 2 15 3 16 4 14 5 13 6 12 7 11 8 1 9 2 10 3 11 86 12
REMARK SMILES IDX 4 13 5 14 85 15 6 16 8 17 84 18 7 19 9 20 83 21 10 22 87 23
REMARK SMILES IDX 88 24 93 25 89 26 92 27 90 28 91 29 19 30 20 31 21 32 22 33
REMARK SMILES IDX 23 34 24 35 82 36 25 37 81 38 26 39 27 40 28 41 75 42 29 43
REMARK SMILES IDX 80 44 74 45 76 46 30 47 79 48 73 49 72 50 31 52 61 53 42 54
REMARK SMILES IDX 60 55 43 56 46 57 59 58 77 59 44 60 45 61 58 63 78 64 47 65
REMARK SMILES IDX 32 66 33 67 41 68 34 69 40 70 35 71 36 72 37 73 38 74 39 75
REMARK SMILES IDX 62 76 63 77 71 78 64 79 70 80 65 81 66 82 67 83 68 84 69 85
REMARK SMILES IDX 48 86 49 87 57 88 50 89 56 90 51 91 52 92 53 93 54 94 55 95
REMARK H PARENT 76 51 46 62
REMARK Flexibility Score: inf
ROOT
ATOM      1  C   UNL A   1      38.850  22.435  26.134  1.00  0.00     0.274 C 
ENDROOT
BRANCH   1   2
ATOM      2  O   UNL A   1      38.118  21.449  25.392  1.00  0.00    -0.462 OA
BRANCH   2   3
ATOM      3  C   UNL A   1      36.917  21.774  24.866  1.00  0.00     0.305 C 
ATOM      4  O   UNL A   1      36.724  22.700  24.086  1.00  0.00    -0.252 OA
BRANCH   3   5
ATOM      5  C   UNL A   1      35.790  20.897  25.386  1.00  0.00     0.124 C 
BRANCH   5   6
ATOM      6  C   UNL A   1      34.492  20.765  24.575  1.00  0.00     0.034 C 
BRANCH   6   7
ATOM      7  C   UNL A   1      33.159  21.184  25.222  1.00  0.00     0.126 C 
BRANCH   7   8
ATOM      8  N   UNL A   1      32.882  22.622  25.145  1.00  0.00    -0.313 N 
ATOM      9  C   UNL A   1      31.689  30.121  25.718  1.00  0.00     0.069 C 
ATOM     10  C   UNL A   1      31.503  28.754  25.180  1.00  0.00     0.070 A 
ATOM     11  N   UNL A   1      32.139  27.716  25.746  1.00  0.00    -0.170 NA
ATOM     12  C   UNL A   1      30.696  28.353  24.094  1.00  0.00     0.051 A 
ATOM     13  N   UNL A   1      31.812  26.645  24.972  1.00  0.00    -0.210 N 
ATOM     14  C   UNL A   1      30.950  27.013  23.947  1.00  0.00     0.186 A 
ATOM     15  C   UNL A   1      32.237  25.321  25.054  1.00  0.00     0.102 A 
ATOM     16  N   UNL A   1      30.525  26.111  23.021  1.00  0.00    -0.129 NA
ATOM     17  C   UNL A   1      31.821  24.532  24.051  1.00  0.00     0.177 A 
ATOM     18  C   UNL A   1      33.049  24.781  26.125  1.00  0.00     0.049 A 
ATOM     19  N   UNL A   1      30.974  24.943  23.043  1.00  0.00    -0.141 NA
ATOM     20  C   UNL A   1      32.322  23.143  23.981  1.00  0.00     0.280 A 
ATOM     21  C   UNL A   1      33.288  23.462  26.174  1.00  0.00     0.091 A 
ATOM     22  O   UNL A   1      32.199  22.552  22.914  1.00  0.00    -0.267 OA
BRANCH  12  23
ATOM     23  C   UNL A   1      29.819  29.047  23.182  1.00  0.00    -0.012 A 
ATOM     24  C   UNL A   1      28.470  29.234  23.504  1.00  0.00     0.012 A 
ATOM     25  C   UNL A   1      30.360  29.667  22.044  1.00  0.00     0.012 A 
ATOM     26  C   UNL A   1      27.670  30.040  22.693  1.00  0.00     0.040 A 
ATOM     27  C   UNL A   1      29.557  30.468  21.235  1.00  0.00     0.040 A 
ATOM     28  C   UNL A   1      28.221  30.649  21.568  1.00  0.00     0.123 A 
ATOM     29  F   UNL A   1      27.453  31.437  20.804  1.00  0.00    -0.207 F 
ENDBRANCH  12  23
ENDBRANCH   7   8
ENDBRANCH   6   7
ENDBRANCH   5   6
ENDBRANCH   3   5
ENDBRANCH   2   3
ENDBRANCH   1   2
BRANCH   1  30
ATOM     30  C   UNL A   1      40.109  21.803  26.696  1.00  0.00     0.275 C 
BRANCH  30  31
ATOM     31  O   UNL A   1      41.008  22.828  27.108  1.00  0.00    -0.458 OA
BRANCH  31  32
ATOM     32  C   UNL A   1      41.918  23.161  26.166  1.00  0.00     0.338 C 
ATOM     33  O   UNL A   1      42.527  22.418  25.415  1.00  0.00    -0.246 OA
BRANCH  32  34
ATOM     34  C   UNL A   1      42.222  24.582  26.258  1.00  0.00     0.060 A 
ATOM     35  C   UNL A   1      43.084  24.970  27.288  1.00  0.00     0.016 A 
ATOM     36  C   UNL A   1      41.360  25.473  25.609  1.00  0.00     0.016 A 
ATOM     37  C   UNL A   1      42.910  26.219  27.828  1.00  0.00     0.010 A 
ATOM     38  C   UNL A   1      41.173  26.710  26.167  1.00  0.00     0.010 A 
ATOM     39  C   UNL A   1      41.889  27.027  27.318  1.00  0.00    -0.014 A 
BRANCH  39  40
ATOM     40  C   UNL A   1      41.605  28.255  28.013  1.00  0.00     0.031 A 
ATOM     41  C   UNL A   1      42.662  29.270  27.879  1.00  0.00     0.074 A 
ATOM     42  C   UNL A   1      40.448  28.482  28.654  1.00  0.00     0.049 A 
ATOM     43  N   UNL A   1      43.476  29.682  28.790  1.00  0.00    -0.248 NA
ATOM     44  C   UNL A   1      42.935  29.778  26.528  1.00  0.00     0.031 C 
ATOM     45  C   UNL A   1      39.212  27.696  28.625  1.00  0.00     0.029 A 
ATOM     46  N   UNL A   1      40.118  29.563  29.403  1.00  0.00    -0.354 N 
ATOM     47  C   UNL A   1      44.251  30.650  28.174  1.00  0.00     0.074 A 
ATOM     48  C   UNL A   1      43.992  30.553  26.756  1.00  0.00     0.031 C 
ATOM     49  C   UNL A   1      38.208  28.443  29.144  1.00  0.00     0.029 A 
ATOM     50  C   UNL A   1      38.764  29.684  29.661  1.00  0.00     0.049 A 
ATOM     51  H   UNL A   1      40.785  30.207  29.736  1.00  0.00     0.167 HD
ATOM     52  C   UNL A   1      44.875  31.629  28.877  1.00  0.00     0.031 A 
ATOM     53  C   UNL A   1      38.161  30.776  30.188  1.00  0.00     0.031 A 
ATOM     54  C   UNL A   1      44.947  31.343  30.284  1.00  0.00     0.049 A 
ATOM     55  C   UNL A   1      39.209  31.543  30.913  1.00  0.00     0.074 A 
ATOM     56  C   UNL A   1      45.529  30.347  31.042  1.00  0.00     0.029 A 
ATOM     57  N   UNL A   1      44.014  31.944  31.096  1.00  0.00    -0.354 N 
ATOM     58  N   UNL A   1      39.823  31.100  31.975  1.00  0.00    -0.248 NA
ATOM     59  C   UNL A   1      39.871  32.646  30.233  1.00  0.00     0.031 C 
ATOM     60  C   UNL A   1      44.617  30.109  32.112  1.00  0.00     0.029 A 
ATOM     61  C   UNL A   1      43.543  30.990  31.965  1.00  0.00     0.049 A 
ATOM     62  H   UNL A   1      43.733  32.887  31.060  1.00  0.00     0.167 HD
ATOM     63  C   UNL A   1      41.121  31.578  31.870  1.00  0.00     0.074 A 
ATOM     64  C   UNL A   1      41.057  32.617  30.847  1.00  0.00     0.031 C 
ATOM     65  C   UNL A   1      42.172  30.905  32.427  1.00  0.00     0.031 A 
BRANCH  52  66
ATOM     66  C   UNL A   1      45.063  33.005  28.310  1.00  0.00    -0.014 A 
ATOM     67  C   UNL A   1      46.349  33.452  27.968  1.00  0.00     0.010 A 
ATOM     68  C   UNL A   1      44.025  33.964  28.338  1.00  0.00     0.010 A 
ATOM     69  C   UNL A   1      46.586  34.805  27.691  1.00  0.00     0.020 A 
ATOM     70  C   UNL A   1      44.240  35.301  28.016  1.00  0.00     0.020 A 
ATOM     71  C   UNL A   1      45.529  35.719  27.721  1.00  0.00     0.054 A 
BRANCH  71  72
ATOM     72  S   UNL A   1      45.868  37.478  27.474  1.00  0.00     0.124 S 
ATOM     73  O   UNL A   1      44.545  37.997  27.142  1.00  0.00    -0.237 OA
ATOM     74  O   UNL A   1      46.397  37.874  28.777  1.00  0.00    -0.237 OA
ATOM     75  O   UNL A   1      46.837  37.492  26.381  1.00  0.00    -0.744 OA
ENDBRANCH  71  72
ENDBRANCH  52  66
BRANCH  53  76
ATOM     76  C   UNL A   1      36.856  31.364  29.798  1.00  0.00    -0.014 A 
ATOM     77  C   UNL A   1      35.967  31.830  30.785  1.00  0.00     0.010 A 
ATOM     78  C   UNL A   1      36.606  31.739  28.461  1.00  0.00     0.010 A 
ATOM     79  C   UNL A   1      34.925  32.712  30.459  1.00  0.00     0.020 A 
ATOM     80  C   UNL A   1      35.560  32.607  28.127  1.00  0.00     0.020 A 
ATOM     81  C   UNL A   1      34.750  33.120  29.135  1.00  0.00     0.054 A 
BRANCH  81  82
ATOM     82  S   UNL A   1      33.525  34.406  28.759  1.00  0.00     0.124 S 
ATOM     83  O   UNL A   1      32.953  34.691  30.072  1.00  0.00    -0.237 OA
ATOM     84  O   UNL A   1      34.355  35.463  28.188  1.00  0.00    -0.237 OA
ATOM     85  O   UNL A   1      32.618  33.755  27.817  1.00  0.00    -0.744 OA
ENDBRANCH  81  82
ENDBRANCH  53  76
BRANCH  65  86
ATOM     86  C   UNL A   1      41.861  29.796  33.408  1.00  0.00    -0.014 A 
ATOM     87  C   UNL A   1      41.515  28.490  33.007  1.00  0.00     0.010 A 
ATOM     88  C   UNL A   1      42.080  30.043  34.774  1.00  0.00     0.010 A 
ATOM     89  C   UNL A   1      41.384  27.461  33.953  1.00  0.00     0.020 A 
ATOM     90  C   UNL A   1      41.963  29.019  35.719  1.00  0.00     0.020 A 
ATOM     91  C   UNL A   1      41.620  27.732  35.304  1.00  0.00     0.054 A 
BRANCH  91  92
ATOM     92  S   UNL A   1      41.512  26.379  36.512  1.00  0.00     0.124 S 
ATOM     93  O   UNL A   1      42.908  26.158  36.877  1.00  0.00    -0.237 OA
ATOM     94  O   UNL A   1      40.672  26.955  37.560  1.00  0.00    -0.237 OA
ATOM     95  O   UNL A   1      40.892  25.287  35.761  1.00  0.00    -0.744 OA
ENDBRANCH  91  92
ENDBRANCH  65  86
ENDBRANCH  39  40
ENDBRANCH  32  34
ENDBRANCH  31  32
ENDBRANCH  30  31
ENDBRANCH   1  30
TORSDOF 18
ENDMDL
MODEL 2
REMARK VINA RESULT:     -12.1      3.329      9.921
REMARK SMILES Cc1nn2c(nnc3c(=O)n(CCCC(=O)OCCOC(=O)c4ccc(-c5c6nc(c(-c7ccc(S(=O)(=O)[O-])cc7)c7ccc([nH]7)c(-c7ccc(S(=O)(=O)[O-])cc7)c7nc(c(-c8ccc(S(=O)(=O)[O-])cc8)c8ccc5[nH]8)C=C7)C=C6)cc4)ccc32)c1-c1ccc(F)cc1
REMARK SMILES IDX 18 1 17 2 15 3 16 4 14 5 13 6 12 7 11 8 1 9 2 10 3 11 86 12
REMARK SMILES IDX 4 13 5 14 85 15 6 16 8 17 84 18 7 19 9 20 83 21 10 22 87 23
REMARK SMILES IDX 88 24 93 25 89 26 92 27 90 28 91 29 19 30 20 31 21 32 22 33
REMARK SMILES IDX 23 34 24 35 82 36 25 37 81 38 26 39 27 40 28 41 75 42 29 43
REMARK SMILES IDX 80 44 74 45 76 46 30 47 79 48 73 49 72 50 31 52 61 53 42 54
REMARK SMILES IDX 60 55 43 56 46 57 59 58 77 59 44 60 45 61 58 63 78 64 47 65
REMARK SMILES IDX 32 66 33 67 41 68 34 69 40 70 35 71 36 72 37 73 38 74 39 75
REMARK SMILES IDX 62 76 63 77 71 78 64 79 70 80 65 81 66 82 67 83 68 84 69 85
REMARK SMILES IDX 48 86 49 87 57 88 50 89 56 90 51 91 52 92 53 93 54 94 55 95
REMARK H PARENT 76 51 46 62
REMARK Flexibility Score: inf
ROOT
ATOM      1  C   UNL A   1      33.096  29.336  26.784  1.00  0.00     0.274 C 
ENDROOT
BRANCH   1   2
ATOM      2  O   UNL A   1      33.196  28.907  25.418  1.00  0.00    -0.462 OA
BRANCH   2   3
ATOM      3  C   UNL A   1      32.225  29.251  24.545  1.00  0.00     0.305 C 
ATOM      4  O   UNL A   1      31.096  29.611  24.860  1.00  0.00    -0.252 OA
BRANCH   3   5
ATOM      5  C   UNL A   1      32.656  29.094  23.096  1.00  0.00     0.124 C 
BRANCH   5   6
ATOM      6  C   UNL A   1      32.403  27.766  22.366  1.00  0.00     0.034 C 
BRANCH   6   7
ATOM      7  C   UNL A   1      31.566  26.677  23.061  1.00  0.00     0.126 C 
BRANCH   7   8
ATOM      8  N   UNL A   1      32.334  25.491  23.455  1.00  0.00    -0.313 N 
ATOM      9  C   UNL A   1      37.120  19.813  25.139  1.00  0.00     0.069 C 
ATOM     10  C   UNL A   1      35.824  20.436  24.785  1.00  0.00     0.070 A 
ATOM     11  N   UNL A   1      35.759  21.752  24.527  1.00  0.00    -0.170 NA
ATOM     12  C   UNL A   1      34.566  19.809  24.663  1.00  0.00     0.051 A 
ATOM     13  N   UNL A   1      34.436  22.000  24.319  1.00  0.00    -0.210 N 
ATOM     14  C   UNL A   1      33.687  20.834  24.417  1.00  0.00     0.186 A 
ATOM     15  C   UNL A   1      33.782  23.204  24.073  1.00  0.00     0.102 A 
ATOM     16  N   UNL A   1      32.333  20.849  24.289  1.00  0.00    -0.129 NA
ATOM     17  C   UNL A   1      32.442  23.121  24.038  1.00  0.00     0.177 A 
ATOM     18  C   UNL A   1      34.444  24.472  23.848  1.00  0.00     0.049 A 
ATOM     19  N   UNL A   1      31.737  21.942  24.154  1.00  0.00    -0.141 NA
ATOM     20  C   UNL A   1      31.653  24.364  23.910  1.00  0.00     0.280 A 
ATOM     21  C   UNL A   1      33.720  25.543  23.487  1.00  0.00     0.091 A 
ATOM     22  O   UNL A   1      30.464  24.310  24.201  1.00  0.00    -0.267 OA
BRANCH  12  23
ATOM     23  C   UNL A   1      34.100  18.451  24.810  1.00  0.00    -0.012 A 
ATOM     24  C   UNL A   1      33.176  18.125  25.808  1.00  0.00     0.012 A 
ATOM     25  C   UNL A   1      34.459  17.493  23.848  1.00  0.00     0.012 A 
ATOM     26  C   UNL A   1      32.613  16.849  25.842  1.00  0.00     0.040 A 
ATOM     27  C   UNL A   1      33.897  16.219  23.887  1.00  0.00     0.040 A 
ATOM     28  C   UNL A   1      32.979  15.909  24.881  1.00  0.00     0.123 A 
ATOM     29  F   UNL A   1      32.420  14.691  24.907  1.00  0.00    -0.207 F 
ENDBRANCH  12  23
ENDBRANCH   7   8
ENDBRANCH   6   7
ENDBRANCH   5   6
ENDBRANCH   3   5
ENDBRANCH   2   3
ENDBRANCH   1   2
BRANCH   1  30
ATOM     30  C   UNL A   1      33.759  30.693  26.930  1.00  0.00     0.275 C 
BRANCH  30  31
ATOM     31  O   UNL A   1      34.387  30.776  28.206  1.00  0.00    -0.458 OA
BRANCH  31  32
ATOM     32  C   UNL A   1      35.447  31.614  28.233  1.00  0.00     0.338 C 
ATOM     33  O   UNL A   1      35.623  32.624  27.572  1.00  0.00    -0.246 OA
BRANCH  32  34
ATOM     34  C   UNL A   1      36.490  31.059  29.083  1.00  0.00     0.060 A 
ATOM     35  C   UNL A   1      37.619  31.859  29.287  1.00  0.00     0.016 A 
ATOM     36  C   UNL A   1      36.488  29.676  29.293  1.00  0.00     0.016 A 
ATOM     37  C   UNL A   1      38.821  31.226  29.483  1.00  0.00     0.010 A 
ATOM     38  C   UNL A   1      37.693  29.048  29.464  1.00  0.00     0.010 A 
ATOM     39  C   UNL A   1      38.846  29.828  29.468  1.00  0.00    -0.014 A 
BRANCH  39  40
ATOM     40  C   UNL A   1      40.135  29.188  29.493  1.00  0.00     0.031 A 
ATOM     41  C   UNL A   1      40.690  29.024  30.846  1.00  0.00     0.074 A 
ATOM     42  C   UNL A   1      40.736  28.711  28.392  1.00  0.00     0.049 A 
ATOM     43  N   UNL A   1      41.693  29.646  31.364  1.00  0.00    -0.248 NA
ATOM     44  C   UNL A   1      39.942  28.169  31.778  1.00  0.00     0.031 C 
ATOM     45  C   UNL A   1      40.185  28.540  27.045  1.00  0.00     0.029 A 
ATOM     46  N   UNL A   1      41.975  28.170  28.297  1.00  0.00    -0.354 N 
ATOM     47  C   UNL A   1      41.827  29.121  32.639  1.00  0.00     0.074 A 
ATOM     48  C   UNL A   1      40.637  28.346  32.899  1.00  0.00     0.031 C 
ATOM     49  C   UNL A   1      41.012  27.739  26.333  1.00  0.00     0.029 A 
ATOM     50  C   UNL A   1      42.201  27.466  27.127  1.00  0.00     0.049 A 
ATOM     51  H   UNL A   1      42.657  28.269  29.001  1.00  0.00     0.167 HD
ATOM     52  C   UNL A   1      43.005  29.155  33.312  1.00  0.00     0.031 A 
ATOM     53  C   UNL A   1      43.261  26.658  26.891  1.00  0.00     0.031 A 
ATOM     54  C   UNL A   1      43.946  30.078  32.740  1.00  0.00     0.049 A 
ATOM     55  C   UNL A   1      44.344  27.079  27.820  1.00  0.00     0.074 A 
ATOM     56  C   UNL A   1      43.960  31.444  32.531  1.00  0.00     0.029 A 
ATOM     57  N   UNL A   1      44.919  29.558  31.920  1.00  0.00    -0.354 N 
ATOM     58  N   UNL A   1      44.937  28.238  27.759  1.00  0.00    -0.248 NA
ATOM     59  C   UNL A   1      44.506  26.369  29.081  1.00  0.00     0.031 C 
ATOM     60  C   UNL A   1      44.626  31.625  31.284  1.00  0.00     0.029 A 
ATOM     61  C   UNL A   1      45.006  30.366  30.812  1.00  0.00     0.049 A 
ATOM     62  H   UNL A   1      45.456  28.751  32.093  1.00  0.00     0.167 HD
ATOM     63  C   UNL A   1      45.197  28.584  29.078  1.00  0.00     0.074 A 
ATOM     64  C   UNL A   1      45.019  27.348  29.832  1.00  0.00     0.031 C 
ATOM     65  C   UNL A   1      45.266  29.892  29.467  1.00  0.00     0.031 A 
BRANCH  52  66
ATOM     66  C   UNL A   1      43.405  28.055  34.250  1.00  0.00    -0.014 A 
ATOM     67  C   UNL A   1      43.725  28.354  35.584  1.00  0.00     0.010 A 
ATOM     68  C   UNL A   1      43.713  26.758  33.781  1.00  0.00     0.010 A 
ATOM     69  C   UNL A   1      44.349  27.401  36.401  1.00  0.00     0.020 A 
ATOM     70  C   UNL A   1      44.286  25.789  34.598  1.00  0.00     0.020 A 
ATOM     71  C   UNL A   1      44.628  26.127  35.899  1.00  0.00     0.054 A 
BRANCH  71  72
ATOM     72  S   UNL A   1      45.535  24.947  36.926  1.00  0.00     0.124 S 
ATOM     73  O   UNL A   1      45.424  25.551  38.250  1.00  0.00    -0.237 OA
ATOM     74  O   UNL A   1      44.774  23.717  36.723  1.00  0.00    -0.237 OA
ATOM     75  O   UNL A   1      46.877  24.948  36.349  1.00  0.00    -0.744 OA
ENDBRANCH  71  72
ENDBRANCH  52  66
BRANCH  53  76
ATOM     76  C   UNL A   1      43.261  25.349  26.194  1.00  0.00    -0.014 A 
ATOM     77  C   UNL A   1      44.148  25.116  25.125  1.00  0.00     0.010 A 
ATOM     78  C   UNL A   1      42.607  24.232  26.757  1.00  0.00     0.010 A 
ATOM     79  C   UNL A   1      44.441  23.811  24.701  1.00  0.00     0.020 A 
ATOM     80  C   UNL A   1      42.883  22.929  26.328  1.00  0.00     0.020 A 
ATOM     81  C   UNL A   1      43.829  22.724  25.329  1.00  0.00     0.054 A 
BRANCH  81  82
ATOM     82  S   UNL A   1      44.360  21.041  24.902  1.00  0.00     0.124 S 
ATOM     83  O   UNL A   1      44.538  21.124  23.455  1.00  0.00    -0.237 OA
ATOM     84  O   UNL A   1      45.585  20.898  25.683  1.00  0.00    -0.237 OA
ATOM     85  O   UNL A   1      43.244  20.205  25.341  1.00  0.00    -0.744 OA
ENDBRANCH  81  82
ENDBRANCH  53  76
BRANCH  65  86
ATOM     86  C   UNL A   1      45.353  30.948  28.388  1.00  0.00    -0.014 A 
ATOM     87  C   UNL A   1      44.230  31.407  27.669  1.00  0.00     0.010 A 
ATOM     88  C   UNL A   1      46.581  31.606  28.205  1.00  0.00     0.010 A 
ATOM     89  C   UNL A   1      44.338  32.492  26.786  1.00  0.00     0.020 A 
ATOM     90  C   UNL A   1      46.692  32.695  27.337  1.00  0.00     0.020 A 
ATOM     91  C   UNL A   1      45.570  33.137  26.634  1.00  0.00     0.054 A 
BRANCH  91  92
ATOM     92  S   UNL A   1      45.686  34.581  25.538  1.00  0.00     0.124 S 
ATOM     93  O   UNL A   1      44.779  34.234  24.447  1.00  0.00    -0.237 OA
ATOM     94  O   UNL A   1      45.241  35.673  26.401  1.00  0.00    -0.237 OA
ATOM     95  O   UNL A   1      47.101  34.629  25.171  1.00  0.00    -0.744 OA
ENDBRANCH  91  92
ENDBRANCH  65  86
ENDBRANCH  39  40
ENDBRANCH  32  34
ENDBRANCH  31  32
ENDBRANCH  30  31
ENDBRANCH   1  30
TORSDOF 18
ENDMDL
MODEL 3
REMARK VINA RESULT:     -11.7      3.338      9.667
REMARK SMILES Cc1nn2c(nnc3c(=O)n(CCCC(=O)OCCOC(=O)c4ccc(-c5c6nc(c(-c7ccc(S(=O)(=O)[O-])cc7)c7ccc([nH]7)c(-c7ccc(S(=O)(=O)[O-])cc7)c7nc(c(-c8ccc(S(=O)(=O)[O-])cc8)c8ccc5[nH]8)C=C7)C=C6)cc4)ccc32)c1-c1ccc(F)cc1
REMARK SMILES IDX 18 1 17 2 15 3 16 4 14 5 13 6 12 7 11 8 1 9 2 10 3 11 86 12
REMARK SMILES IDX 4 13 5 14 85 15 6 16 8 17 84 18 7 19 9 20 83 21 10 22 87 23
REMARK SMILES IDX 88 24 93 25 89 26 92 27 90 28 91 29 19 30 20 31 21 32 22 33
REMARK SMILES IDX 23 34 24 35 82 36 25 37 81 38 26 39 27 40 28 41 75 42 29 43
REMARK SMILES IDX 80 44 74 45 76 46 30 47 79 48 73 49 72 50 31 52 61 53 42 54
REMARK SMILES IDX 60 55 43 56 46 57 59 58 77 59 44 60 45 61 58 63 78 64 47 65
REMARK SMILES IDX 32 66 33 67 41 68 34 69 40 70 35 71 36 72 37 73 38 74 39 75
REMARK SMILES IDX 62 76 63 77 71 78 64 79 70 80 65 81 66 82 67 83 68 84 69 85
REMARK SMILES IDX 48 86 49 87 57 88 50 89 56 90 51 91 52 92 53 93 54 94 55 95
REMARK H PARENT 76 51 46 62
REMARK Flexibility Score: inf
ROOT
ATOM      1  C   UNL A   1      34.081  32.165  27.639  1.00  0.00     0.274 C 
ENDROOT
BRANCH   1   2
ATOM      2  O   UNL A   1      33.786  30.789  27.918  1.00  0.00    -0.462 OA
BRANCH   2   3
ATOM      3  C   UNL A   1      32.820  30.164  27.211  1.00  0.00     0.305 C 
ATOM      4  O   UNL A   1      32.033  30.724  26.455  1.00  0.00    -0.252 OA
BRANCH   3   5
ATOM      5  C   UNL A   1      32.762  28.670  27.488  1.00  0.00     0.124 C 
BRANCH   5   6
ATOM      6  C   UNL A   1      31.486  27.883  27.153  1.00  0.00     0.034 C 
BRANCH   6   7
ATOM      7  C   UNL A   1      31.378  27.179  25.788  1.00  0.00     0.126 C 
BRANCH   7   8
ATOM      8  N   UNL A   1      32.128  25.922  25.700  1.00  0.00    -0.313 N 
ATOM      9  C   UNL A   1      36.765  19.940  24.856  1.00  0.00     0.069 C 
ATOM     10  C   UNL A   1      35.469  20.651  24.951  1.00  0.00     0.070 A 
ATOM     11  N   UNL A   1      35.442  21.989  25.052  1.00  0.00    -0.170 NA
ATOM     12  C   UNL A   1      34.173  20.093  24.944  1.00  0.00     0.051 A 
ATOM     13  N   UNL A   1      34.124  22.299  25.196  1.00  0.00    -0.210 N 
ATOM     14  C   UNL A   1      33.333  21.157  25.154  1.00  0.00     0.186 A 
ATOM     15  C   UNL A   1      33.515  23.534  25.405  1.00  0.00     0.102 A 
ATOM     16  N   UNL A   1      31.985  21.223  25.322  1.00  0.00    -0.129 NA
ATOM     17  C   UNL A   1      32.193  23.480  25.633  1.00  0.00     0.177 A 
ATOM     18  C   UNL A   1      34.202  24.809  25.370  1.00  0.00     0.049 A 
ATOM     19  N   UNL A   1      31.448  22.320  25.595  1.00  0.00    -0.141 NA
ATOM     20  C   UNL A   1      31.478  24.724  25.990  1.00  0.00     0.280 A 
ATOM     21  C   UNL A   1      33.494  25.945  25.451  1.00  0.00     0.091 A 
ATOM     22  O   UNL A   1      30.371  24.611  26.502  1.00  0.00    -0.267 OA
BRANCH  12  23
ATOM     23  C   UNL A   1      33.656  18.749  24.840  1.00  0.00    -0.012 A 
ATOM     24  C   UNL A   1      34.024  17.931  23.766  1.00  0.00     0.012 A 
ATOM     25  C   UNL A   1      32.908  18.217  25.902  1.00  0.00     0.012 A 
ATOM     26  C   UNL A   1      33.647  16.588  23.758  1.00  0.00     0.040 A 
ATOM     27  C   UNL A   1      32.531  16.875  25.888  1.00  0.00     0.040 A 
ATOM     28  C   UNL A   1      32.906  16.074  24.818  1.00  0.00     0.123 A 
ATOM     29  F   UNL A   1      32.563  14.778  24.814  1.00  0.00    -0.207 F 
ENDBRANCH  12  23
ENDBRANCH   7   8
ENDBRANCH   6   7
ENDBRANCH   5   6
ENDBRANCH   3   5
ENDBRANCH   2   3
ENDBRANCH   1   2
BRANCH   1  30
ATOM     30  C   UNL A   1      35.488  32.479  28.111  1.00  0.00     0.275 C 
BRANCH  30  31
ATOM     31  O   UNL A   1      35.470  33.674  28.886  1.00  0.00    -0.458 OA
BRANCH  31  32
ATOM     32  C   UNL A   1      35.036  33.490  30.153  1.00  0.00     0.338 C 
ATOM     33  O   UNL A   1      33.967  33.825  30.636  1.00  0.00    -0.246 OA
BRANCH  32  34
ATOM     34  C   UNL A   1      36.114  32.950  30.969  1.00  0.00     0.060 A 
ATOM     35  C   UNL A   1      37.358  33.577  30.851  1.00  0.00     0.016 A 
ATOM     36  C   UNL A   1      35.958  31.656  31.476  1.00  0.00     0.016 A 
ATOM     37  C   UNL A   1      38.480  32.807  31.031  1.00  0.00     0.010 A 
ATOM     38  C   UNL A   1      37.079  30.884  31.630  1.00  0.00     0.010 A 
ATOM     39  C   UNL A   1      38.313  31.449  31.321  1.00  0.00    -0.014 A 
BRANCH  39  40
ATOM     40  C   UNL A   1      39.492  30.624  31.327  1.00  0.00     0.031 A 
ATOM     41  C   UNL A   1      40.257  30.690  32.582  1.00  0.00     0.074 A 
ATOM     42  C   UNL A   1      39.817  29.805  30.314  1.00  0.00     0.049 A 
ATOM     43  N   UNL A   1      41.409  31.237  32.771  1.00  0.00    -0.248 NA
ATOM     44  C   UNL A   1      39.587  30.218  33.801  1.00  0.00     0.031 C 
ATOM     45  C   UNL A   1      39.013  29.419  29.151  1.00  0.00     0.029 A 
ATOM     46  N   UNL A   1      40.938  29.054  30.186  1.00  0.00    -0.354 N 
ATOM     47  C   UNL A   1      41.704  31.012  34.106  1.00  0.00     0.074 A 
ATOM     48  C   UNL A   1      40.491  30.534  34.726  1.00  0.00     0.031 C 
ATOM     49  C   UNL A   1      39.588  28.343  28.561  1.00  0.00     0.029 A 
ATOM     50  C   UNL A   1      40.855  28.067  29.220  1.00  0.00     0.049 A 
ATOM     51  H   UNL A   1      41.744  29.199  30.734  1.00  0.00     0.167 HD
ATOM     52  C   UNL A   1      42.979  31.002  34.571  1.00  0.00     0.031 A 
ATOM     53  C   UNL A   1      41.742  27.058  29.052  1.00  0.00     0.031 A 
ATOM     54  C   UNL A   1      43.911  31.591  33.649  1.00  0.00     0.049 A 
ATOM     55  C   UNL A   1      43.020  27.496  29.675  1.00  0.00     0.074 A 
ATOM     56  C   UNL A   1      44.062  32.846  33.092  1.00  0.00     0.029 A 
ATOM     57  N   UNL A   1      44.644  30.734  32.862  1.00  0.00    -0.354 N 
ATOM     58  N   UNL A   1      43.737  28.490  29.230  1.00  0.00    -0.248 NA
ATOM     59  C   UNL A   1      43.316  27.086  31.040  1.00  0.00     0.031 C 
ATOM     60  C   UNL A   1      44.508  32.613  31.758  1.00  0.00     0.029 A 
ATOM     61  C   UNL A   1      44.632  31.233  31.581  1.00  0.00     0.049 A 
ATOM     62  H   UNL A   1      45.095  29.912  33.161  1.00  0.00     0.167 HD
ATOM     63  C   UNL A   1      44.274  29.087  30.362  1.00  0.00     0.074 A 
ATOM     64  C   UNL A   1      44.079  28.111  31.429  1.00  0.00     0.031 C 
ATOM     65  C   UNL A   1      44.581  30.418  30.383  1.00  0.00     0.031 A 
BRANCH  52  66
ATOM     66  C   UNL A   1      43.397  30.102  35.695  1.00  0.00    -0.014 A 
ATOM     67  C   UNL A   1      44.078  30.634  36.801  1.00  0.00     0.010 A 
ATOM     68  C   UNL A   1      43.352  28.695  35.572  1.00  0.00     0.010 A 
ATOM     69  C   UNL A   1      44.706  29.792  37.728  1.00  0.00     0.020 A 
ATOM     70  C   UNL A   1      43.930  27.848  36.513  1.00  0.00     0.020 A 
ATOM     71  C   UNL A   1      44.630  28.405  37.573  1.00  0.00     0.054 A 
BRANCH  71  72
ATOM     72  S   UNL A   1      45.541  27.333  38.711  1.00  0.00     0.124 S 
ATOM     73  O   UNL A   1      46.832  28.008  38.794  1.00  0.00    -0.237 OA
ATOM     74  O   UNL A   1      44.715  27.391  39.913  1.00  0.00    -0.237 OA
ATOM     75  O   UNL A   1      45.554  26.041  38.030  1.00  0.00    -0.744 OA
ENDBRANCH  71  72
ENDBRANCH  52  66
BRANCH  53  76
ATOM     76  C   UNL A   1      41.447  25.641  28.727  1.00  0.00    -0.014 A 
ATOM     77  C   UNL A   1      40.198  25.285  28.183  1.00  0.00     0.010 A 
ATOM     78  C   UNL A   1      42.482  24.684  28.672  1.00  0.00     0.010 A 
ATOM     79  C   UNL A   1      40.020  24.059  27.526  1.00  0.00     0.020 A 
ATOM     80  C   UNL A   1      42.307  23.452  28.031  1.00  0.00     0.020 A 
ATOM     81  C   UNL A   1      41.087  23.163  27.427  1.00  0.00     0.054 A 
BRANCH  81  82
ATOM     82  S   UNL A   1      40.900  21.670  26.411  1.00  0.00     0.124 S 
ATOM     83  O   UNL A   1      41.056  20.600  27.392  1.00  0.00    -0.237 OA
ATOM     84  O   UNL A   1      39.556  21.837  25.865  1.00  0.00    -0.237 OA
ATOM     85  O   UNL A   1      41.982  21.778  25.436  1.00  0.00    -0.744 OA
ENDBRANCH  81  82
ENDBRANCH  53  76
BRANCH  65  86
ATOM     86  C   UNL A   1      44.605  31.159  29.065  1.00  0.00    -0.014 A 
ATOM     87  C   UNL A   1      43.439  31.620  28.420  1.00  0.00     0.010 A 
ATOM     88  C   UNL A   1      45.854  31.539  28.544  1.00  0.00     0.010 A 
ATOM     89  C   UNL A   1      43.524  32.432  27.279  1.00  0.00     0.020 A 
ATOM     90  C   UNL A   1      45.945  32.358  27.416  1.00  0.00     0.020 A 
ATOM     91  C   UNL A   1      44.779  32.805  26.790  1.00  0.00     0.054 A 
BRANCH  91  92
ATOM     92  S   UNL A   1      44.879  33.910  25.351  1.00  0.00     0.124 S 
ATOM     93  O   UNL A   1      46.304  34.219  25.278  1.00  0.00    -0.237 OA
ATOM     94  O   UNL A   1      44.362  33.074  24.271  1.00  0.00    -0.237 OA
ATOM     95  O   UNL A   1      44.023  35.038  25.716  1.00  0.00    -0.744 OA
ENDBRANCH  91  92
ENDBRANCH  65  86
ENDBRANCH  39  40
ENDBRANCH  32  34
ENDBRANCH  31  32
ENDBRANCH  30  31
ENDBRANCH   1  30
TORSDOF 18
ENDMDL
