MODEL 1
REMARK VINA RESULT:     -11.6      0.000      0.000
REMARK SMILES COc1ccc2[nH]c(C(=O)c3cc(C)ccn3)c(CC(=O)OCCOC(=O)c3ccc(-c4c5nc(c(-c6ccc(S(=O)(=O)[O-])cc6)c6ccc([nH]6)c(-c6ccc(S(=O)(=O)[O-])cc6)c6nc(c(-c7ccc(S(=O)(=O)[O-])cc7)c7ccc4[nH]7)C=C6)C=C5)cc3)c2c1
REMARK SMILES IDX 23 1 22 2 20 3 21 4 19 5 18 6 3 7 4 8 89 9 5 10 88 11 6 12
REMARK SMILES IDX 7 13 8 14 2 16 1 17 9 18 10 19 11 20 12 21 17 22 13 23 16 24
REMARK SMILES IDX 14 25 15 26 24 27 25 28 26 29 27 30 28 31 29 32 87 33 30 34
REMARK SMILES IDX 86 35 31 36 32 37 33 38 80 39 34 40 85 41 79 42 81 43 35 44
REMARK SMILES IDX 84 45 78 46 77 47 36 49 66 50 47 51 65 52 48 53 51 54 64 55
REMARK SMILES IDX 82 56 49 57 50 58 63 60 83 61 52 62 37 63 38 64 46 65 39 66
REMARK SMILES IDX 45 67 40 68 41 69 42 70 43 71 44 72 67 73 68 74 76 75 69 76
REMARK SMILES IDX 75 77 70 78 71 79 72 80 73 81 74 82 53 83 54 84 62 85 55 86
REMARK SMILES IDX 61 87 56 88 57 89 58 90 59 91 60 92
REMARK H PARENT 7 15 81 48 51 59
REMARK Flexibility Score: inf
ROOT
ATOM      1  C   UNL A   1      38.338  21.889  25.521  1.00  0.00     0.274 C 
ENDROOT
BRANCH   1   2
ATOM      2  O   UNL A   1      37.115  22.476  26.010  1.00  0.00    -0.462 OA
BRANCH   2   3
ATOM      3  C   UNL A   1      36.421  23.221  25.106  1.00  0.00     0.310 C 
ATOM      4  O   UNL A   1      36.655  23.228  23.900  1.00  0.00    -0.252 OA
BRANCH   3   5
ATOM      5  C   UNL A   1      35.276  24.023  25.688  1.00  0.00     0.161 C 
BRANCH   5   6
ATOM      6  C   UNL A   1      33.944  23.874  25.013  1.00  0.00     0.000 A 
ATOM      7  C   UNL A   1      33.218  26.561  22.396  1.00  0.00     0.119 A 
ATOM      8  C   UNL A   1      31.999  26.026  21.976  1.00  0.00     0.048 A 
ATOM      9  C   UNL A   1      33.924  25.953  23.438  1.00  0.00     0.057 A 
ATOM     10  C   UNL A   1      31.456  24.887  22.591  1.00  0.00     0.030 A 
ATOM     11  C   UNL A   1      33.422  24.784  24.041  1.00  0.00     0.008 A 
ATOM     12  C   UNL A   1      32.198  24.285  23.612  1.00  0.00     0.046 A 
ATOM     13  N   UNL A   1      31.950  23.149  24.347  1.00  0.00    -0.352 N 
ATOM     14  C   UNL A   1      33.077  22.781  25.051  1.00  0.00     0.093 A 
ATOM     15  H   UNL A   1      31.091  22.668  24.368  1.00  0.00     0.167 HD
BRANCH   7  16
ATOM     16  O   UNL A   1      33.854  27.640  21.847  1.00  0.00    -0.497 OA
ATOM     17  C   UNL A   1      33.848  28.840  22.606  1.00  0.00     0.278 C 
ENDBRANCH   7  16
BRANCH  14  18
ATOM     18  C   UNL A   1      33.302  21.456  25.609  1.00  0.00     0.227 C 
ATOM     19  O   UNL A   1      33.675  21.271  26.764  1.00  0.00    -0.285 OA
BRANCH  18  20
ATOM     20  C   UNL A   1      33.217  20.270  24.724  1.00  0.00     0.113 A 
ATOM     21  C   UNL A   1      33.986  19.149  25.017  1.00  0.00     0.036 A 
ATOM     22  N   UNL A   1      32.356  20.353  23.683  1.00  0.00    -0.253 NA
ATOM     23  C   UNL A   1      33.851  18.026  24.199  1.00  0.00    -0.047 A 
ATOM     24  C   UNL A   1      32.182  19.227  22.963  1.00  0.00     0.112 A 
ATOM     25  C   UNL A   1      34.674  16.792  24.424  1.00  0.00     0.044 C 
ATOM     26  C   UNL A   1      32.901  18.059  23.173  1.00  0.00     0.023 A 
ENDBRANCH  18  20
ENDBRANCH  14  18
ENDBRANCH   5   6
ENDBRANCH   3   5
ENDBRANCH   2   3
ENDBRANCH   1   2
BRANCH   1  27
ATOM     27  C   UNL A   1      39.484  22.152  26.494  1.00  0.00     0.275 C 
BRANCH  27  28
ATOM     28  O   UNL A   1      39.392  23.497  26.990  1.00  0.00    -0.458 OA
BRANCH  28  29
ATOM     29  C   UNL A   1      40.505  24.248  26.837  1.00  0.00     0.338 C 
ATOM     30  O   UNL A   1      41.452  24.006  26.094  1.00  0.00    -0.246 OA
BRANCH  29  31
ATOM     31  C   UNL A   1      40.476  25.408  27.748  1.00  0.00     0.060 A 
ATOM     32  C   UNL A   1      41.511  26.344  27.774  1.00  0.00     0.016 A 
ATOM     33  C   UNL A   1      39.421  25.513  28.657  1.00  0.00     0.016 A 
ATOM     34  C   UNL A   1      41.537  27.326  28.767  1.00  0.00     0.010 A 
ATOM     35  C   UNL A   1      39.397  26.560  29.581  1.00  0.00     0.010 A 
ATOM     36  C   UNL A   1      40.470  27.463  29.668  1.00  0.00    -0.014 A 
BRANCH  36  37
ATOM     37  C   UNL A   1      40.457  28.551  30.684  1.00  0.00     0.031 A 
ATOM     38  C   UNL A   1      41.428  28.543  31.838  1.00  0.00     0.074 A 
ATOM     39  C   UNL A   1      39.547  29.542  30.589  1.00  0.00     0.049 A 
ATOM     40  N   UNL A   1      41.450  29.308  32.901  1.00  0.00    -0.248 NA
ATOM     41  C   UNL A   1      42.502  27.537  31.801  1.00  0.00     0.031 C 
ATOM     42  C   UNL A   1      38.560  29.690  29.517  1.00  0.00     0.029 A 
ATOM     43  N   UNL A   1      39.305  30.617  31.410  1.00  0.00    -0.354 N 
ATOM     44  C   UNL A   1      42.503  28.845  33.683  1.00  0.00     0.074 A 
ATOM     45  C   UNL A   1      43.094  27.730  32.972  1.00  0.00     0.031 C 
ATOM     46  C   UNL A   1      37.849  30.808  29.722  1.00  0.00     0.029 A 
ATOM     47  C   UNL A   1      38.271  31.414  30.980  1.00  0.00     0.049 A 
ATOM     48  H   UNL A   1      39.823  30.799  32.227  1.00  0.00     0.167 HD
ATOM     49  C   UNL A   1      42.936  29.307  34.881  1.00  0.00     0.031 A 
ATOM     50  C   UNL A   1      37.694  32.490  31.545  1.00  0.00     0.031 A 
ATOM     51  C   UNL A   1      42.374  30.440  35.570  1.00  0.00     0.049 A 
ATOM     52  C   UNL A   1      38.180  32.973  32.879  1.00  0.00     0.074 A 
ATOM     53  C   UNL A   1      42.761  30.992  36.780  1.00  0.00     0.029 A 
ATOM     54  N   UNL A   1      41.315  31.204  35.106  1.00  0.00    -0.354 N 
ATOM     55  N   UNL A   1      39.150  32.496  33.620  1.00  0.00    -0.248 NA
ATOM     56  C   UNL A   1      37.484  34.128  33.458  1.00  0.00     0.031 C 
ATOM     57  C   UNL A   1      41.914  32.071  37.062  1.00  0.00     0.029 A 
ATOM     58  C   UNL A   1      41.026  32.214  36.009  1.00  0.00     0.049 A 
ATOM     59  H   UNL A   1      40.837  31.051  34.258  1.00  0.00     0.167 HD
ATOM     60  C   UNL A   1      39.182  33.294  34.756  1.00  0.00     0.074 A 
ATOM     61  C   UNL A   1      38.149  34.298  34.592  1.00  0.00     0.031 C 
ATOM     62  C   UNL A   1      39.989  33.198  35.841  1.00  0.00     0.031 A 
BRANCH  49  63
ATOM     63  C   UNL A   1      44.064  28.563  35.547  1.00  0.00    -0.014 A 
ATOM     64  C   UNL A   1      45.405  28.925  35.334  1.00  0.00     0.010 A 
ATOM     65  C   UNL A   1      43.771  27.514  36.438  1.00  0.00     0.010 A 
ATOM     66  C   UNL A   1      46.435  28.224  35.971  1.00  0.00     0.020 A 
ATOM     67  C   UNL A   1      44.796  26.825  37.092  1.00  0.00     0.020 A 
ATOM     68  C   UNL A   1      46.124  27.172  36.838  1.00  0.00     0.054 A 
BRANCH  68  69
ATOM     69  S   UNL A   1      47.478  26.283  37.656  1.00  0.00     0.124 S 
ATOM     70  O   UNL A   1      47.316  24.934  37.120  1.00  0.00    -0.237 OA
ATOM     71  O   UNL A   1      48.664  27.001  37.195  1.00  0.00    -0.237 OA
ATOM     72  O   UNL A   1      47.180  26.429  39.078  1.00  0.00    -0.744 OA
ENDBRANCH  68  69
ENDBRANCH  49  63
BRANCH  50  73
ATOM     73  C   UNL A   1      36.559  33.159  30.854  1.00  0.00    -0.014 A 
ATOM     74  C   UNL A   1      35.273  33.139  31.417  1.00  0.00     0.010 A 
ATOM     75  C   UNL A   1      36.775  33.856  29.652  1.00  0.00     0.010 A 
ATOM     76  C   UNL A   1      34.218  33.806  30.787  1.00  0.00     0.020 A 
ATOM     77  C   UNL A   1      35.729  34.544  29.033  1.00  0.00     0.020 A 
ATOM     78  C   UNL A   1      34.454  34.507  29.600  1.00  0.00     0.054 A 
BRANCH  78  79
ATOM     79  S   UNL A   1      33.094  35.432  28.835  1.00  0.00     0.124 S 
ATOM     80  O   UNL A   1      32.366  35.919  30.003  1.00  0.00    -0.237 OA
ATOM     81  O   UNL A   1      33.795  36.450  28.056  1.00  0.00    -0.237 OA
ATOM     82  O   UNL A   1      32.401  34.420  28.040  1.00  0.00    -0.744 OA
ENDBRANCH  78  79
ENDBRANCH  50  73
BRANCH  62  83
ATOM     83  C   UNL A   1      39.791  34.217  36.927  1.00  0.00    -0.014 A 
ATOM     84  C   UNL A   1      39.031  33.913  38.071  1.00  0.00     0.010 A 
ATOM     85  C   UNL A   1      40.390  35.484  36.814  1.00  0.00     0.010 A 
ATOM     86  C   UNL A   1      38.847  34.873  39.070  1.00  0.00     0.020 A 
ATOM     87  C   UNL A   1      40.223  36.439  37.820  1.00  0.00     0.020 A 
ATOM     88  C   UNL A   1      39.438  36.133  38.935  1.00  0.00     0.054 A 
BRANCH  88  89
ATOM     89  S   UNL A   1      39.210  37.356  40.255  1.00  0.00     0.124 S 
ATOM     90  O   UNL A   1      38.537  36.569  41.285  1.00  0.00    -0.237 OA
ATOM     91  O   UNL A   1      40.580  37.758  40.566  1.00  0.00    -0.237 OA
ATOM     92  O   UNL A   1      38.392  38.391  39.627  1.00  0.00    -0.744 OA
ENDBRANCH  88  89
ENDBRANCH  62  83
ENDBRANCH  36  37
ENDBRANCH  29  31
ENDBRANCH  28  29
ENDBRANCH  27  28
ENDBRANCH   1  27
TORSDOF 18
ENDMDL
MODEL 2
REMARK VINA RESULT:     -11.6      4.132     10.244
REMARK SMILES COc1ccc2[nH]c(C(=O)c3cc(C)ccn3)c(CC(=O)OCCOC(=O)c3ccc(-c4c5nc(c(-c6ccc(S(=O)(=O)[O-])cc6)c6ccc([nH]6)c(-c6ccc(S(=O)(=O)[O-])cc6)c6nc(c(-c7ccc(S(=O)(=O)[O-])cc7)c7ccc4[nH]7)C=C6)C=C5)cc3)c2c1
REMARK SMILES IDX 23 1 22 2 20 3 21 4 19 5 18 6 3 7 4 8 89 9 5 10 88 11 6 12
REMARK SMILES IDX 7 13 8 14 2 16 1 17 9 18 10 19 11 20 12 21 17 22 13 23 16 24
REMARK SMILES IDX 14 25 15 26 24 27 25 28 26 29 27 30 28 31 29 32 87 33 30 34
REMARK SMILES IDX 86 35 31 36 32 37 33 38 80 39 34 40 85 41 79 42 81 43 35 44
REMARK SMILES IDX 84 45 78 46 77 47 36 49 66 50 47 51 65 52 48 53 51 54 64 55
REMARK SMILES IDX 82 56 49 57 50 58 63 60 83 61 52 62 37 63 38 64 46 65 39 66
REMARK SMILES IDX 45 67 40 68 41 69 42 70 43 71 44 72 67 73 68 74 76 75 69 76
REMARK SMILES IDX 75 77 70 78 71 79 72 80 73 81 74 82 53 83 54 84 62 85 55 86
REMARK SMILES IDX 61 87 56 88 57 89 58 90 59 91 60 92
REMARK H PARENT 7 15 81 48 51 59
REMARK Flexibility Score: inf
ROOT
ATOM      1  C   UNL A   1      32.298  27.711  26.343  1.00  0.00     0.274 C 
ENDROOT
BRANCH   1   2
ATOM      2  O   UNL A   1      33.382  27.024  25.685  1.00  0.00    -0.462 OA
BRANCH   2   3
ATOM      3  C   UNL A   1      33.350  25.666  25.767  1.00  0.00     0.310 C 
ATOM      4  O   UNL A   1      32.609  25.042  26.524  1.00  0.00    -0.252 OA
BRANCH   3   5
ATOM      5  C   UNL A   1      34.270  24.947  24.802  1.00  0.00     0.161 C 
BRANCH   5   6
ATOM      6  C   UNL A   1      33.610  24.160  23.709  1.00  0.00     0.000 A 
ATOM      7  C   UNL A   1      32.958  20.504  24.605  1.00  0.00     0.119 A 
ATOM      8  C   UNL A   1      32.293  20.183  23.422  1.00  0.00     0.048 A 
ATOM      9  C   UNL A   1      33.484  21.787  24.784  1.00  0.00     0.057 A 
ATOM     10  C   UNL A   1      32.149  21.125  22.391  1.00  0.00     0.030 A 
ATOM     11  C   UNL A   1      33.315  22.762  23.783  1.00  0.00     0.008 A 
ATOM     12  C   UNL A   1      32.661  22.407  22.609  1.00  0.00     0.046 A 
ATOM     13  N   UNL A   1      32.623  23.532  21.818  1.00  0.00    -0.352 N 
ATOM     14  C   UNL A   1      33.012  24.639  22.543  1.00  0.00     0.093 A 
ATOM     15  H   UNL A   1      32.357  23.545  20.870  1.00  0.00     0.167 HD
BRANCH   7  16
ATOM     16  O   UNL A   1      33.123  19.678  25.684  1.00  0.00    -0.497 OA
ATOM     17  C   UNL A   1      32.773  18.315  25.504  1.00  0.00     0.278 C 
ENDBRANCH   7  16
BRANCH  14  18
ATOM     18  C   UNL A   1      32.727  26.014  22.161  1.00  0.00     0.227 C 
ATOM     19  O   UNL A   1      33.529  26.719  21.555  1.00  0.00    -0.285 OA
BRANCH  18  20
ATOM     20  C   UNL A   1      31.477  26.656  22.632  1.00  0.00     0.113 A 
ATOM     21  C   UNL A   1      31.207  27.968  22.259  1.00  0.00     0.036 A 
ATOM     22  N   UNL A   1      30.654  25.893  23.388  1.00  0.00    -0.253 NA
ATOM     23  C   UNL A   1      30.000  28.534  22.673  1.00  0.00    -0.047 A 
ATOM     24  C   UNL A   1      29.459  26.434  23.699  1.00  0.00     0.112 A 
ATOM     25  C   UNL A   1      29.652  29.956  22.347  1.00  0.00     0.044 C 
ATOM     26  C   UNL A   1      29.095  27.734  23.378  1.00  0.00     0.023 A 
ENDBRANCH  18  20
ENDBRANCH  14  18
ENDBRANCH   5   6
ENDBRANCH   3   5
ENDBRANCH   2   3
ENDBRANCH   1   2
BRANCH   1  27
ATOM     27  C   UNL A   1      32.838  28.697  27.375  1.00  0.00     0.275 C 
BRANCH  27  28
ATOM     28  O   UNL A   1      33.874  29.495  26.779  1.00  0.00    -0.458 OA
BRANCH  28  29
ATOM     29  C   UNL A   1      34.469  30.384  27.606  1.00  0.00     0.338 C 
ATOM     30  O   UNL A   1      34.032  31.485  27.928  1.00  0.00    -0.246 OA
BRANCH  29  31
ATOM     31  C   UNL A   1      35.785  29.882  28.045  1.00  0.00     0.060 A 
ATOM     32  C   UNL A   1      35.984  29.380  29.332  1.00  0.00     0.016 A 
ATOM     33  C   UNL A   1      36.866  29.997  27.169  1.00  0.00     0.016 A 
ATOM     34  C   UNL A   1      37.275  29.080  29.771  1.00  0.00     0.010 A 
ATOM     35  C   UNL A   1      38.141  29.597  27.577  1.00  0.00     0.010 A 
ATOM     36  C   UNL A   1      38.367  29.161  28.893  1.00  0.00    -0.014 A 
BRANCH  36  37
ATOM     37  C   UNL A   1      39.737  28.776  29.333  1.00  0.00     0.031 A 
ATOM     38  C   UNL A   1      40.576  29.718  30.159  1.00  0.00     0.074 A 
ATOM     39  C   UNL A   1      40.246  27.583  28.964  1.00  0.00     0.049 A 
ATOM     40  N   UNL A   1      41.841  29.623  30.485  1.00  0.00    -0.248 NA
ATOM     41  C   UNL A   1      39.914  30.928  30.673  1.00  0.00     0.031 C 
ATOM     42  C   UNL A   1      39.542  26.564  28.182  1.00  0.00     0.029 A 
ATOM     43  N   UNL A   1      41.478  27.025  29.200  1.00  0.00    -0.354 N 
ATOM     44  C   UNL A   1      42.141  30.781  31.195  1.00  0.00     0.074 A 
ATOM     45  C   UNL A   1      40.925  31.565  31.250  1.00  0.00     0.031 C 
ATOM     46  C   UNL A   1      40.334  25.493  28.038  1.00  0.00     0.029 A 
ATOM     47  C   UNL A   1      41.630  25.776  28.644  1.00  0.00     0.049 A 
ATOM     48  H   UNL A   1      42.185  27.474  29.717  1.00  0.00     0.167 HD
ATOM     49  C   UNL A   1      43.321  31.155  31.749  1.00  0.00     0.031 A 
ATOM     50  C   UNL A   1      42.698  24.960  28.589  1.00  0.00     0.031 A 
ATOM     51  C   UNL A   1      44.520  30.358  31.728  1.00  0.00     0.049 A 
ATOM     52  C   UNL A   1      43.997  25.403  29.195  1.00  0.00     0.074 A 
ATOM     53  C   UNL A   1      45.757  30.648  32.280  1.00  0.00     0.029 A 
ATOM     54  N   UNL A   1      44.632  29.110  31.136  1.00  0.00    -0.354 N 
ATOM     55  N   UNL A   1      44.270  26.519  29.825  1.00  0.00    -0.248 NA
ATOM     56  C   UNL A   1      45.134  24.482  29.068  1.00  0.00     0.031 C 
ATOM     57  C   UNL A   1      46.625  29.587  31.994  1.00  0.00     0.029 A 
ATOM     58  C   UNL A   1      45.918  28.621  31.298  1.00  0.00     0.049 A 
ATOM     59  H   UNL A   1      43.904  28.639  30.669  1.00  0.00     0.167 HD
ATOM     60  C   UNL A   1      45.613  26.436  30.171  1.00  0.00     0.074 A 
ATOM     61  C   UNL A   1      46.089  25.150  29.701  1.00  0.00     0.031 C 
ATOM     62  C   UNL A   1      46.382  27.347  30.815  1.00  0.00     0.031 A 
BRANCH  49  63
ATOM     63  C   UNL A   1      43.383  32.510  32.404  1.00  0.00    -0.014 A 
ATOM     64  C   UNL A   1      43.793  33.649  31.689  1.00  0.00     0.010 A 
ATOM     65  C   UNL A   1      42.980  32.650  33.745  1.00  0.00     0.010 A 
ATOM     66  C   UNL A   1      43.835  34.898  32.317  1.00  0.00     0.020 A 
ATOM     67  C   UNL A   1      43.000  33.900  34.369  1.00  0.00     0.020 A 
ATOM     68  C   UNL A   1      43.447  35.014  33.656  1.00  0.00     0.054 A 
BRANCH  68  69
ATOM     69  S   UNL A   1      43.505  36.647  34.446  1.00  0.00     0.124 S 
ATOM     70  O   UNL A   1      44.930  36.789  34.733  1.00  0.00    -0.237 OA
ATOM     71  O   UNL A   1      42.985  37.530  33.404  1.00  0.00    -0.237 OA
ATOM     72  O   UNL A   1      42.646  36.496  35.616  1.00  0.00    -0.744 OA
ENDBRANCH  68  69
ENDBRANCH  49  63
BRANCH  50  73
ATOM     73  C   UNL A   1      42.583  23.650  27.895  1.00  0.00    -0.014 A 
ATOM     74  C   UNL A   1      43.085  23.487  26.593  1.00  0.00     0.010 A 
ATOM     75  C   UNL A   1      42.009  22.548  28.555  1.00  0.00     0.010 A 
ATOM     76  C   UNL A   1      43.013  22.243  25.961  1.00  0.00     0.020 A 
ATOM     77  C   UNL A   1      41.960  21.298  27.935  1.00  0.00     0.020 A 
ATOM     78  C   UNL A   1      42.454  21.155  26.637  1.00  0.00     0.054 A 
BRANCH  78  79
ATOM     79  S   UNL A   1      42.439  19.529  25.834  1.00  0.00     0.124 S 
ATOM     80  O   UNL A   1      41.036  19.393  25.453  1.00  0.00    -0.237 OA
ATOM     81  O   UNL A   1      43.380  19.706  24.730  1.00  0.00    -0.237 OA
ATOM     82  O   UNL A   1      42.894  18.626  26.889  1.00  0.00    -0.744 OA
ENDBRANCH  78  79
ENDBRANCH  50  73
BRANCH  62  83
ATOM     83  C   UNL A   1      47.818  26.974  31.056  1.00  0.00    -0.014 A 
ATOM     84  C   UNL A   1      48.813  27.287  30.112  1.00  0.00     0.010 A 
ATOM     85  C   UNL A   1      48.180  26.323  32.249  1.00  0.00     0.010 A 
ATOM     86  C   UNL A   1      50.143  26.926  30.344  1.00  0.00     0.020 A 
ATOM     87  C   UNL A   1      49.511  25.978  32.492  1.00  0.00     0.020 A 
ATOM     88  C   UNL A   1      50.483  26.267  31.530  1.00  0.00     0.054 A 
BRANCH  88  89
ATOM     89  S   UNL A   1      52.219  25.831  31.825  1.00  0.00     0.124 S 
ATOM     90  O   UNL A   1      52.846  26.210  30.562  1.00  0.00    -0.237 OA
ATOM     91  O   UNL A   1      52.571  26.661  32.975  1.00  0.00    -0.237 OA
ATOM     92  O   UNL A   1      52.172  24.396  32.093  1.00  0.00    -0.744 OA
ENDBRANCH  88  89
ENDBRANCH  62  83
ENDBRANCH  36  37
ENDBRANCH  29  31
ENDBRANCH  28  29
ENDBRANCH  27  28
ENDBRANCH   1  27
TORSDOF 18
ENDMDL
MODEL 3
REMARK VINA RESULT:     -11.3      2.596      8.428
REMARK SMILES COc1ccc2[nH]c(C(=O)c3cc(C)ccn3)c(CC(=O)OCCOC(=O)c3ccc(-c4c5nc(c(-c6ccc(S(=O)(=O)[O-])cc6)c6ccc([nH]6)c(-c6ccc(S(=O)(=O)[O-])cc6)c6nc(c(-c7ccc(S(=O)(=O)[O-])cc7)c7ccc4[nH]7)C=C6)C=C5)cc3)c2c1
REMARK SMILES IDX 23 1 22 2 20 3 21 4 19 5 18 6 3 7 4 8 89 9 5 10 88 11 6 12
REMARK SMILES IDX 7 13 8 14 2 16 1 17 9 18 10 19 11 20 12 21 17 22 13 23 16 24
REMARK SMILES IDX 14 25 15 26 24 27 25 28 26 29 27 30 28 31 29 32 87 33 30 34
REMARK SMILES IDX 86 35 31 36 32 37 33 38 80 39 34 40 85 41 79 42 81 43 35 44
REMARK SMILES IDX 84 45 78 46 77 47 36 49 66 50 47 51 65 52 48 53 51 54 64 55
REMARK SMILES IDX 82 56 49 57 50 58 63 60 83 61 52 62 37 63 38 64 46 65 39 66
REMARK SMILES IDX 45 67 40 68 41 69 42 70 43 71 44 72 67 73 68 74 76 75 69 76
REMARK SMILES IDX 75 77 70 78 71 79 72 80 73 81 74 82 53 83 54 84 62 85 55 86
REMARK SMILES IDX 61 87 56 88 57 89 58 90 59 91 60 92
REMARK H PARENT 7 15 81 48 51 59
REMARK Flexibility Score: inf
ROOT
ATOM      1  C   UNL A   1      33.010  31.117  26.986  1.00  0.00     0.274 C 
ENDROOT
BRANCH   1   2
ATOM      2  O   UNL A   1      32.287  30.430  25.943  1.00  0.00    -0.462 OA
BRANCH   2   3
ATOM      3  C   UNL A   1      33.007  29.517  25.236  1.00  0.00     0.310 C 
ATOM      4  O   UNL A   1      33.950  28.879  25.700  1.00  0.00    -0.252 OA
BRANCH   3   5
ATOM      5  C   UNL A   1      32.528  29.289  23.818  1.00  0.00     0.161 C 
BRANCH   5   6
ATOM      6  C   UNL A   1      31.261  28.501  23.658  1.00  0.00     0.000 A 
ATOM      7  C   UNL A   1      28.140  30.655  23.197  1.00  0.00     0.119 A 
ATOM      8  C   UNL A   1      27.259  29.591  23.005  1.00  0.00     0.048 A 
ATOM      9  C   UNL A   1      29.487  30.404  23.473  1.00  0.00     0.057 A 
ATOM     10  C   UNL A   1      27.696  28.261  23.097  1.00  0.00     0.030 A 
ATOM     11  C   UNL A   1      29.960  29.079  23.527  1.00  0.00     0.008 A 
ATOM     12  C   UNL A   1      29.054  28.040  23.348  1.00  0.00     0.046 A 
ATOM     13  N   UNL A   1      29.768  26.868  23.437  1.00  0.00    -0.352 N 
ATOM     14  C   UNL A   1      31.122  27.132  23.426  1.00  0.00     0.093 A 
ATOM     15  H   UNL A   1      29.370  25.970  23.500  1.00  0.00     0.167 HD
BRANCH   7  16
ATOM     16  O   UNL A   1      27.831  31.984  23.094  1.00  0.00    -0.497 OA
ATOM     17  C   UNL A   1      28.392  32.688  21.997  1.00  0.00     0.278 C 
ENDBRANCH   7  16
BRANCH  14  18
ATOM     18  C   UNL A   1      32.149  26.148  23.118  1.00  0.00     0.227 C 
ATOM     19  O   UNL A   1      32.512  25.897  21.973  1.00  0.00    -0.285 OA
BRANCH  18  20
ATOM     20  C   UNL A   1      32.696  25.303  24.206  1.00  0.00     0.113 A 
ATOM     21  C   UNL A   1      34.065  25.064  24.255  1.00  0.00     0.036 A 
ATOM     22  N   UNL A   1      31.807  24.836  25.113  1.00  0.00    -0.253 NA
ATOM     23  C   UNL A   1      34.563  24.307  25.317  1.00  0.00    -0.047 A 
ATOM     24  C   UNL A   1      32.326  24.184  26.173  1.00  0.00     0.112 A 
ATOM     25  C   UNL A   1      36.022  23.971  25.419  1.00  0.00     0.044 C 
ATOM     26  C   UNL A   1      33.675  23.891  26.313  1.00  0.00     0.023 A 
ENDBRANCH  18  20
ENDBRANCH  14  18
ENDBRANCH   5   6
ENDBRANCH   3   5
ENDBRANCH   2   3
ENDBRANCH   1   2
BRANCH   1  27
ATOM     27  C   UNL A   1      32.347  32.454  27.304  1.00  0.00     0.275 C 
BRANCH  27  28
ATOM     28  O   UNL A   1      33.353  33.473  27.416  1.00  0.00    -0.458 OA
BRANCH  28  29
ATOM     29  C   UNL A   1      33.372  34.143  28.591  1.00  0.00     0.338 C 
ATOM     30  O   UNL A   1      32.565  34.992  28.958  1.00  0.00    -0.246 OA
BRANCH  29  31
ATOM     31  C   UNL A   1      34.555  33.762  29.385  1.00  0.00     0.060 A 
ATOM     32  C   UNL A   1      35.821  34.280  29.106  1.00  0.00     0.016 A 
ATOM     33  C   UNL A   1      34.404  32.796  30.382  1.00  0.00     0.016 A 
ATOM     34  C   UNL A   1      36.942  33.766  29.759  1.00  0.00     0.010 A 
ATOM     35  C   UNL A   1      35.515  32.360  31.106  1.00  0.00     0.010 A 
ATOM     36  C   UNL A   1      36.804  32.817  30.784  1.00  0.00    -0.014 A 
BRANCH  36  37
ATOM     37  C   UNL A   1      37.989  32.317  31.533  1.00  0.00     0.031 A 
ATOM     38  C   UNL A   1      38.830  31.191  30.986  1.00  0.00     0.074 A 
ATOM     39  C   UNL A   1      38.299  32.856  32.730  1.00  0.00     0.049 A 
ATOM     40  N   UNL A   1      39.787  30.517  31.574  1.00  0.00    -0.248 NA
ATOM     41  C   UNL A   1      38.550  30.756  29.608  1.00  0.00     0.031 C 
ATOM     42  C   UNL A   1      37.587  33.962  33.374  1.00  0.00     0.029 A 
ATOM     43  N   UNL A   1      39.297  32.543  33.620  1.00  0.00    -0.354 N 
ATOM     44  C   UNL A   1      40.188  29.547  30.660  1.00  0.00     0.074 A 
ATOM     45  C   UNL A   1      39.368  29.719  29.480  1.00  0.00     0.031 C 
ATOM     46  C   UNL A   1      38.193  34.262  34.532  1.00  0.00     0.029 A 
ATOM     47  C   UNL A   1      39.284  33.321  34.754  1.00  0.00     0.049 A 
ATOM     48  H   UNL A   1      39.958  31.832  33.462  1.00  0.00     0.167 HD
ATOM     49  C   UNL A   1      41.150  28.602  30.795  1.00  0.00     0.031 A 
ATOM     50  C   UNL A   1      40.035  33.266  35.869  1.00  0.00     0.031 A 
ATOM     51  C   UNL A   1      41.993  28.456  31.954  1.00  0.00     0.049 A 
ATOM     52  C   UNL A   1      41.083  32.202  36.001  1.00  0.00     0.074 A 
ATOM     53  C   UNL A   1      43.009  27.538  32.171  1.00  0.00     0.029 A 
ATOM     54  N   UNL A   1      41.930  29.253  33.086  1.00  0.00    -0.354 N 
ATOM     55  N   UNL A   1      41.418  31.269  35.144  1.00  0.00    -0.248 NA
ATOM     56  C   UNL A   1      41.842  32.173  37.258  1.00  0.00     0.031 C 
ATOM     57  C   UNL A   1      43.538  27.762  33.447  1.00  0.00     0.029 A 
ATOM     58  C   UNL A   1      42.878  28.843  34.009  1.00  0.00     0.049 A 
ATOM     59  H   UNL A   1      41.303  30.001  33.215  1.00  0.00     0.167 HD
ATOM     60  C   UNL A   1      42.429  30.540  35.757  1.00  0.00     0.074 A 
ATOM     61  C   UNL A   1      42.666  31.156  37.048  1.00  0.00     0.031 C 
ATOM     62  C   UNL A   1      43.095  29.455  35.294  1.00  0.00     0.031 A 
BRANCH  49  63
ATOM     63  C   UNL A   1      41.327  27.623  29.664  1.00  0.00    -0.014 A 
ATOM     64  C   UNL A   1      40.316  26.706  29.327  1.00  0.00     0.010 A 
ATOM     65  C   UNL A   1      42.507  27.654  28.898  1.00  0.00     0.010 A 
ATOM     66  C   UNL A   1      40.500  25.812  28.267  1.00  0.00     0.020 A 
ATOM     67  C   UNL A   1      42.685  26.777  27.825  1.00  0.00     0.020 A 
ATOM     68  C   UNL A   1      41.687  25.847  27.529  1.00  0.00     0.054 A 
BRANCH  68  69
ATOM     69  S   UNL A   1      41.898  24.680  26.155  1.00  0.00     0.124 S 
ATOM     70  O   UNL A   1      41.562  25.512  25.002  1.00  0.00    -0.237 OA
ATOM     71  O   UNL A   1      43.306  24.301  26.264  1.00  0.00    -0.237 OA
ATOM     72  O   UNL A   1      40.946  23.615  26.455  1.00  0.00    -0.744 OA
ENDBRANCH  68  69
ENDBRANCH  49  63
BRANCH  50  73
ATOM     73  C   UNL A   1      39.787  34.239  36.967  1.00  0.00    -0.014 A 
ATOM     74  C   UNL A   1      39.014  33.873  38.081  1.00  0.00     0.010 A 
ATOM     75  C   UNL A   1      40.364  35.521  36.919  1.00  0.00     0.010 A 
ATOM     76  C   UNL A   1      38.819  34.775  39.130  1.00  0.00     0.020 A 
ATOM     77  C   UNL A   1      40.192  36.415  37.978  1.00  0.00     0.020 A 
ATOM     78  C   UNL A   1      39.412  36.040  39.074  1.00  0.00     0.054 A 
BRANCH  78  79
ATOM     79  S   UNL A   1      39.215  37.172  40.477  1.00  0.00     0.124 S 
ATOM     80  O   UNL A   1      38.701  38.373  39.827  1.00  0.00    -0.237 OA
ATOM     81  O   UNL A   1      38.267  36.461  41.334  1.00  0.00    -0.237 OA
ATOM     82  O   UNL A   1      40.568  37.279  41.018  1.00  0.00    -0.744 OA
ENDBRANCH  78  79
ENDBRANCH  50  73
BRANCH  62  83
ATOM     83  C   UNL A   1      44.153  28.874  36.189  1.00  0.00    -0.014 A 
ATOM     84  C   UNL A   1      43.872  27.772  37.017  1.00  0.00     0.010 A 
ATOM     85  C   UNL A   1      45.448  29.422  36.186  1.00  0.00     0.010 A 
ATOM     86  C   UNL A   1      44.862  27.248  37.852  1.00  0.00     0.020 A 
ATOM     87  C   UNL A   1      46.445  28.887  37.006  1.00  0.00     0.020 A 
ATOM     88  C   UNL A   1      46.141  27.813  37.847  1.00  0.00     0.054 A 
BRANCH  88  89
ATOM     89  S   UNL A   1      47.420  27.101  38.918  1.00  0.00     0.124 S 
ATOM     90  O   UNL A   1      48.100  26.182  38.008  1.00  0.00    -0.237 OA
ATOM     91  O   UNL A   1      48.195  28.272  39.322  1.00  0.00    -0.237 OA
ATOM     92  O   UNL A   1      46.657  26.467  39.991  1.00  0.00    -0.744 OA
ENDBRANCH  88  89
ENDBRANCH  62  83
ENDBRANCH  36  37
ENDBRANCH  29  31
ENDBRANCH  28  29
ENDBRANCH  27  28
ENDBRANCH   1  27
TORSDOF 18
ENDMDL
