MODEL 1
REMARK VINA RESULT:     -10.8      0.000      0.000
REMARK SMILES CCOc1cc2nccc(Nc3ccc(C(=O)OCCOC(=O)c4ccc(-c5c6nc(c(-c7ccc(S(=O)(=O)[O-])cc7)c7ccc([nH]7)c(-c7ccc(S(=O)(=O)[O-])cc7)c7nc(c(-c8ccc(S(=O)(=O)[O-])cc8)c8ccc5[nH]8)C=C7)C=C6)cc4)cc3)c2cc1OCC
REMARK SMILES IDX 19 1 18 2 16 3 17 4 15 5 12 6 13 7 85 8 14 9 84 10 11 11
REMARK SMILES IDX 10 13 4 14 5 15 88 16 6 17 87 18 7 19 86 20 8 21 9 22 3 23
REMARK SMILES IDX 2 24 1 25 89 26 90 27 91 28 20 29 21 30 22 31 23 32 24 33
REMARK SMILES IDX 25 34 83 35 26 36 82 37 27 38 28 39 29 40 76 41 30 42 81 43
REMARK SMILES IDX 75 44 77 45 31 46 80 47 74 48 73 49 32 51 62 52 43 53 61 54
REMARK SMILES IDX 44 55 47 56 60 57 78 58 45 59 46 60 59 62 79 63 48 64 33 65
REMARK SMILES IDX 34 66 42 67 35 68 41 69 36 70 37 71 38 72 39 73 40 74 63 75
REMARK SMILES IDX 64 76 72 77 65 78 71 79 66 80 67 81 68 82 69 83 70 84 49 85
REMARK SMILES IDX 50 86 58 87 51 88 57 89 52 90 53 91 54 92 55 93 56 94
REMARK H PARENT 11 12 77 50 47 61
REMARK Flexibility Score: inf
ROOT
ATOM      1  C   UNL A   1      34.938  33.011  30.626  1.00  0.00     0.275 C 
ENDROOT
BRANCH   1   2
ATOM      2  O   UNL A   1      35.766  32.865  29.454  1.00  0.00    -0.458 OA
BRANCH   2   3
ATOM      3  C   UNL A   1      35.097  32.908  28.279  1.00  0.00     0.338 C 
ATOM      4  O   UNL A   1      34.934  33.894  27.574  1.00  0.00    -0.246 OA
BRANCH   3   5
ATOM      5  C   UNL A   1      34.598  31.577  27.882  1.00  0.00     0.060 A 
ATOM      6  C   UNL A   1      33.885  29.113  26.762  1.00  0.00     0.038 A 
ATOM      7  C   UNL A   1      35.158  29.297  27.298  1.00  0.00     0.027 A 
ATOM      8  C   UNL A   1      32.948  30.148  26.852  1.00  0.00     0.027 A 
ATOM      9  C   UNL A   1      35.516  30.527  27.820  1.00  0.00     0.018 A 
ATOM     10  C   UNL A   1      33.293  31.377  27.431  1.00  0.00     0.018 A 
BRANCH   6  11
ATOM     11  N   UNL A   1      33.667  27.928  26.050  1.00  0.00    -0.355 N 
ATOM     12  H   UNL A   1      33.440  27.151  26.609  1.00  0.00     0.167 HD
BRANCH  11  13
ATOM     13  C   UNL A   1      33.717  27.655  24.663  1.00  0.00     0.050 A 
ATOM     14  C   UNL A   1      33.361  23.666  23.290  1.00  0.00     0.163 A 
ATOM     15  C   UNL A   1      33.496  24.733  22.387  1.00  0.00     0.079 A 
ATOM     16  C   UNL A   1      33.313  23.934  24.654  1.00  0.00     0.161 A 
ATOM     17  C   UNL A   1      33.604  26.060  22.820  1.00  0.00     0.076 A 
ATOM     18  C   UNL A   1      33.401  25.246  25.095  1.00  0.00     0.063 A 
ATOM     19  N   UNL A   1      33.777  27.046  21.921  1.00  0.00    -0.256 NA
ATOM     20  C   UNL A   1      33.561  26.322  24.206  1.00  0.00     0.028 A 
ATOM     21  C   UNL A   1      33.939  28.307  22.383  1.00  0.00     0.114 A 
ATOM     22  C   UNL A   1      33.909  28.659  23.718  1.00  0.00     0.047 A 
BRANCH  14  23
ATOM     23  O   UNL A   1      33.437  22.366  22.873  1.00  0.00    -0.490 OA
BRANCH  23  24
ATOM     24  C   UNL A   1      32.178  21.702  22.743  1.00  0.00     0.226 C 
ATOM     25  C   UNL A   1      32.241  20.429  23.579  1.00  0.00     0.049 C 
ENDBRANCH  23  24
ENDBRANCH  14  23
BRANCH  16  26
ATOM     26  O   UNL A   1      33.222  23.039  25.681  1.00  0.00    -0.490 OA
BRANCH  26  27
ATOM     27  C   UNL A   1      34.248  23.081  26.665  1.00  0.00     0.226 C 
ATOM     28  C   UNL A   1      34.328  21.839  27.544  1.00  0.00     0.049 C 
ENDBRANCH  26  27
ENDBRANCH  16  26
ENDBRANCH  11  13
ENDBRANCH   6  11
ENDBRANCH   3   5
ENDBRANCH   2   3
ENDBRANCH   1   2
BRANCH   1  29
ATOM     29  C   UNL A   1      35.273  31.968  31.694  1.00  0.00     0.275 C 
BRANCH  29  30
ATOM     30  O   UNL A   1      36.693  31.746  31.791  1.00  0.00    -0.458 OA
BRANCH  30  31
ATOM     31  C   UNL A   1      37.090  30.486  31.503  1.00  0.00     0.338 C 
ATOM     32  O   UNL A   1      36.422  29.469  31.573  1.00  0.00    -0.246 OA
BRANCH  31  33
ATOM     33  C   UNL A   1      38.469  30.474  30.990  1.00  0.00     0.060 A 
ATOM     34  C   UNL A   1      38.661  30.794  29.654  1.00  0.00     0.016 A 
ATOM     35  C   UNL A   1      39.512  29.927  31.728  1.00  0.00     0.016 A 
ATOM     36  C   UNL A   1      39.819  30.394  28.997  1.00  0.00     0.010 A 
ATOM     37  C   UNL A   1      40.746  29.690  31.103  1.00  0.00     0.010 A 
ATOM     38  C   UNL A   1      40.900  29.868  29.714  1.00  0.00    -0.014 A 
BRANCH  38  39
ATOM     39  C   UNL A   1      42.174  29.515  29.011  1.00  0.00     0.031 A 
ATOM     40  C   UNL A   1      42.379  28.134  28.433  1.00  0.00     0.074 A 
ATOM     41  C   UNL A   1      43.154  30.436  28.883  1.00  0.00     0.049 A 
ATOM     42  N   UNL A   1      43.472  27.593  27.952  1.00  0.00    -0.248 NA
ATOM     43  C   UNL A   1      41.213  27.237  28.406  1.00  0.00     0.031 C 
ATOM     44  C   UNL A   1      43.086  31.826  29.348  1.00  0.00     0.029 A 
ATOM     45  N   UNL A   1      44.404  30.349  28.317  1.00  0.00    -0.354 N 
ATOM     46  C   UNL A   1      43.141  26.281  27.626  1.00  0.00     0.074 A 
ATOM     47  C   UNL A   1      41.747  26.102  27.975  1.00  0.00     0.031 C 
ATOM     48  C   UNL A   1      44.209  32.468  29.001  1.00  0.00     0.029 A 
ATOM     49  C   UNL A   1      45.131  31.515  28.403  1.00  0.00     0.049 A 
ATOM     50  H   UNL A   1      44.746  29.531  27.889  1.00  0.00     0.167 HD
ATOM     51  C   UNL A   1      43.925  25.314  27.090  1.00  0.00     0.031 A 
ATOM     52  C   UNL A   1      46.413  31.786  28.096  1.00  0.00     0.031 A 
ATOM     53  C   UNL A   1      45.303  25.510  26.715  1.00  0.00     0.049 A 
ATOM     54  C   UNL A   1      47.281  30.684  27.563  1.00  0.00     0.074 A 
ATOM     55  C   UNL A   1      46.178  24.601  26.146  1.00  0.00     0.029 A 
ATOM     56  N   UNL A   1      46.005  26.698  26.863  1.00  0.00    -0.354 N 
ATOM     57  N   UNL A   1      46.958  29.441  27.298  1.00  0.00    -0.248 NA
ATOM     58  C   UNL A   1      48.686  31.016  27.301  1.00  0.00     0.031 C 
ATOM     59  C   UNL A   1      47.426  25.219  26.009  1.00  0.00     0.029 A 
ATOM     60  C   UNL A   1      47.310  26.536  26.423  1.00  0.00     0.049 A 
ATOM     61  H   UNL A   1      45.632  27.533  27.226  1.00  0.00     0.167 HD
ATOM     62  C   UNL A   1      48.119  28.847  26.817  1.00  0.00     0.074 A 
ATOM     63  C   UNL A   1      49.142  29.874  26.808  1.00  0.00     0.031 C 
ATOM     64  C   UNL A   1      48.319  27.566  26.421  1.00  0.00     0.031 A 
BRANCH  51  65
ATOM     65  C   UNL A   1      43.332  23.936  26.918  1.00  0.00    -0.014 A 
ATOM     66  C   UNL A   1      42.911  23.460  25.663  1.00  0.00     0.010 A 
ATOM     67  C   UNL A   1      43.238  23.081  28.033  1.00  0.00     0.010 A 
ATOM     68  C   UNL A   1      42.368  22.176  25.536  1.00  0.00     0.020 A 
ATOM     69  C   UNL A   1      42.725  21.786  27.906  1.00  0.00     0.020 A 
ATOM     70  C   UNL A   1      42.277  21.348  26.660  1.00  0.00     0.054 A 
BRANCH  70  71
ATOM     71  S   UNL A   1      41.584  19.682  26.462  1.00  0.00     0.124 S 
ATOM     72  O   UNL A   1      41.980  19.041  27.714  1.00  0.00    -0.237 OA
ATOM     73  O   UNL A   1      40.155  19.946  26.317  1.00  0.00    -0.237 OA
ATOM     74  O   UNL A   1      42.245  19.170  25.265  1.00  0.00    -0.744 OA
ENDBRANCH  70  71
ENDBRANCH  51  65
BRANCH  52  75
ATOM     75  C   UNL A   1      46.966  33.149  28.349  1.00  0.00    -0.014 A 
ATOM     76  C   UNL A   1      46.818  34.172  27.398  1.00  0.00     0.010 A 
ATOM     77  C   UNL A   1      47.624  33.435  29.561  1.00  0.00     0.010 A 
ATOM     78  C   UNL A   1      47.329  35.450  27.646  1.00  0.00     0.020 A 
ATOM     79  C   UNL A   1      48.102  34.720  29.830  1.00  0.00     0.020 A 
ATOM     80  C   UNL A   1      47.962  35.716  28.864  1.00  0.00     0.054 A 
BRANCH  80  81
ATOM     81  S   UNL A   1      48.568  37.396  29.186  1.00  0.00     0.124 S 
ATOM     82  O   UNL A   1      48.207  37.585  30.588  1.00  0.00    -0.237 OA
ATOM     83  O   UNL A   1      49.996  37.274  28.910  1.00  0.00    -0.237 OA
ATOM     84  O   UNL A   1      47.824  38.217  28.233  1.00  0.00    -0.744 OA
ENDBRANCH  80  81
ENDBRANCH  52  75
BRANCH  64  85
ATOM     85  C   UNL A   1      49.688  27.211  25.904  1.00  0.00    -0.014 A 
ATOM     86  C   UNL A   1      50.646  26.600  26.731  1.00  0.00     0.010 A 
ATOM     87  C   UNL A   1      50.002  27.458  24.555  1.00  0.00     0.010 A 
ATOM     88  C   UNL A   1      51.907  26.273  26.226  1.00  0.00     0.020 A 
ATOM     89  C   UNL A   1      51.249  27.102  24.039  1.00  0.00     0.020 A 
ATOM     90  C   UNL A   1      52.199  26.524  24.882  1.00  0.00     0.054 A 
BRANCH  90  91
ATOM     91  S   UNL A   1      53.827  26.047  24.241  1.00  0.00     0.124 S 
ATOM     92  O   UNL A   1      53.597  26.045  22.798  1.00  0.00    -0.237 OA
ATOM     93  O   UNL A   1      54.691  27.114  24.738  1.00  0.00    -0.237 OA
ATOM     94  O   UNL A   1      54.063  24.733  24.835  1.00  0.00    -0.744 OA
ENDBRANCH  90  91
ENDBRANCH  64  85
ENDBRANCH  38  39
ENDBRANCH  31  33
ENDBRANCH  30  31
ENDBRANCH  29  30
ENDBRANCH   1  29
TORSDOF 20
ENDMDL
MODEL 2
REMARK VINA RESULT:     -10.7      6.396     11.706
REMARK SMILES CCOc1cc2nccc(Nc3ccc(C(=O)OCCOC(=O)c4ccc(-c5c6nc(c(-c7ccc(S(=O)(=O)[O-])cc7)c7ccc([nH]7)c(-c7ccc(S(=O)(=O)[O-])cc7)c7nc(c(-c8ccc(S(=O)(=O)[O-])cc8)c8ccc5[nH]8)C=C7)C=C6)cc4)cc3)c2cc1OCC
REMARK SMILES IDX 19 1 18 2 16 3 17 4 15 5 12 6 13 7 85 8 14 9 84 10 11 11
REMARK SMILES IDX 10 13 4 14 5 15 88 16 6 17 87 18 7 19 86 20 8 21 9 22 3 23
REMARK SMILES IDX 2 24 1 25 89 26 90 27 91 28 20 29 21 30 22 31 23 32 24 33
REMARK SMILES IDX 25 34 83 35 26 36 82 37 27 38 28 39 29 40 76 41 30 42 81 43
REMARK SMILES IDX 75 44 77 45 31 46 80 47 74 48 73 49 32 51 62 52 43 53 61 54
REMARK SMILES IDX 44 55 47 56 60 57 78 58 45 59 46 60 59 62 79 63 48 64 33 65
REMARK SMILES IDX 34 66 42 67 35 68 41 69 36 70 37 71 38 72 39 73 40 74 63 75
REMARK SMILES IDX 64 76 72 77 65 78 71 79 66 80 67 81 68 82 69 83 70 84 49 85
REMARK SMILES IDX 50 86 58 87 51 88 57 89 52 90 53 91 54 92 55 93 56 94
REMARK H PARENT 11 12 77 50 47 61
REMARK Flexibility Score: inf
ROOT
ATOM      1  C   UNL A   1      39.783  20.978  26.155  1.00  0.00     0.275 C 
ENDROOT
BRANCH   1   2
ATOM      2  O   UNL A   1      38.713  21.585  25.401  1.00  0.00    -0.458 OA
BRANCH   2   3
ATOM      3  C   UNL A   1      37.741  20.730  25.011  1.00  0.00     0.338 C 
ATOM      4  O   UNL A   1      37.820  19.509  24.978  1.00  0.00    -0.246 OA
BRANCH   3   5
ATOM      5  C   UNL A   1      36.496  21.438  24.654  1.00  0.00     0.060 A 
ATOM      6  C   UNL A   1      34.258  23.076  24.277  1.00  0.00     0.038 A 
ATOM      7  C   UNL A   1      35.498  23.456  23.768  1.00  0.00     0.027 A 
ATOM      8  C   UNL A   1      34.130  21.839  24.916  1.00  0.00     0.027 A 
ATOM      9  C   UNL A   1      36.607  22.658  23.986  1.00  0.00     0.018 A 
ATOM     10  C   UNL A   1      35.243  21.004  25.089  1.00  0.00     0.018 A 
BRANCH   6  11
ATOM     11  N   UNL A   1      33.235  24.030  24.220  1.00  0.00    -0.355 N 
ATOM     12  H   UNL A   1      32.726  24.131  25.056  1.00  0.00     0.167 HD
BRANCH  11  13
ATOM     13  C   UNL A   1      32.806  24.871  23.167  1.00  0.00     0.050 A 
ATOM     14  C   UNL A   1      31.167  28.674  24.050  1.00  0.00     0.163 A 
ATOM     15  C   UNL A   1      31.324  28.244  22.723  1.00  0.00     0.079 A 
ATOM     16  C   UNL A   1      31.587  27.846  25.085  1.00  0.00     0.161 A 
ATOM     17  C   UNL A   1      31.874  26.995  22.409  1.00  0.00     0.076 A 
ATOM     18  C   UNL A   1      32.150  26.614  24.788  1.00  0.00     0.063 A 
ATOM     19  N   UNL A   1      31.964  26.606  21.124  1.00  0.00    -0.256 NA
ATOM     20  C   UNL A   1      32.291  26.159  23.467  1.00  0.00     0.028 A 
ATOM     21  C   UNL A   1      32.444  25.367  20.866  1.00  0.00     0.114 A 
ATOM     22  C   UNL A   1      32.878  24.482  21.834  1.00  0.00     0.047 A 
BRANCH  14  23
ATOM     23  O   UNL A   1      30.469  29.809  24.352  1.00  0.00    -0.490 OA
BRANCH  23  24
ATOM     24  C   UNL A   1      29.450  30.157  23.410  1.00  0.00     0.226 C 
ATOM     25  C   UNL A   1      28.925  31.537  23.789  1.00  0.00     0.049 C 
ENDBRANCH  23  24
ENDBRANCH  14  23
BRANCH  16  26
ATOM     26  O   UNL A   1      31.488  28.068  26.428  1.00  0.00    -0.490 OA
BRANCH  26  27
ATOM     27  C   UNL A   1      32.703  28.233  27.147  1.00  0.00     0.226 C 
ATOM     28  C   UNL A   1      33.461  29.514  26.816  1.00  0.00     0.049 C 
ENDBRANCH  26  27
ENDBRANCH  16  26
ENDBRANCH  11  13
ENDBRANCH   6  11
ENDBRANCH   3   5
ENDBRANCH   2   3
ENDBRANCH   1   2
BRANCH   1  29
ATOM     29  C   UNL A   1      40.480  21.989  27.069  1.00  0.00     0.275 C 
BRANCH  29  30
ATOM     30  O   UNL A   1      39.965  23.320  26.877  1.00  0.00    -0.458 OA
BRANCH  30  31
ATOM     31  C   UNL A   1      40.910  24.272  26.698  1.00  0.00     0.338 C 
ATOM     32  O   UNL A   1      41.864  24.229  25.940  1.00  0.00    -0.246 OA
BRANCH  31  33
ATOM     33  C   UNL A   1      40.608  25.468  27.499  1.00  0.00     0.060 A 
ATOM     34  C   UNL A   1      41.504  26.525  27.439  1.00  0.00     0.016 A 
ATOM     35  C   UNL A   1      39.612  25.458  28.469  1.00  0.00     0.016 A 
ATOM     36  C   UNL A   1      41.537  27.474  28.456  1.00  0.00     0.010 A 
ATOM     37  C   UNL A   1      39.537  26.516  29.387  1.00  0.00     0.010 A 
ATOM     38  C   UNL A   1      40.532  27.511  29.430  1.00  0.00    -0.014 A 
BRANCH  38  39
ATOM     39  C   UNL A   1      40.531  28.584  30.473  1.00  0.00     0.031 A 
ATOM     40  C   UNL A   1      41.522  28.554  31.614  1.00  0.00     0.074 A 
ATOM     41  C   UNL A   1      39.640  29.598  30.400  1.00  0.00     0.049 A 
ATOM     42  N   UNL A   1      41.557  29.290  32.698  1.00  0.00    -0.248 NA
ATOM     43  C   UNL A   1      42.603  27.558  31.537  1.00  0.00     0.031 C 
ATOM     44  C   UNL A   1      38.651  29.790  29.334  1.00  0.00     0.029 A 
ATOM     45  N   UNL A   1      39.422  30.668  31.236  1.00  0.00    -0.354 N 
ATOM     46  C   UNL A   1      42.620  28.805  33.456  1.00  0.00     0.074 A 
ATOM     47  C   UNL A   1      43.197  27.705  32.714  1.00  0.00     0.031 C 
ATOM     48  C   UNL A   1      37.978  30.929  29.549  1.00  0.00     0.029 A 
ATOM     49  C   UNL A   1      38.393  31.486  30.828  1.00  0.00     0.049 A 
ATOM     50  H   UNL A   1      39.953  30.834  32.048  1.00  0.00     0.167 HD
ATOM     51  C   UNL A   1      43.070  29.235  34.661  1.00  0.00     0.031 A 
ATOM     52  C   UNL A   1      37.797  32.531  31.431  1.00  0.00     0.031 A 
ATOM     53  C   UNL A   1      42.510  30.353  35.378  1.00  0.00     0.049 A 
ATOM     54  C   UNL A   1      38.271  32.950  32.792  1.00  0.00     0.074 A 
ATOM     55  C   UNL A   1      42.906  30.882  36.594  1.00  0.00     0.029 A 
ATOM     56  N   UNL A   1      41.439  31.122  34.941  1.00  0.00    -0.354 N 
ATOM     57  N   UNL A   1      39.252  32.456  33.507  1.00  0.00    -0.248 NA
ATOM     58  C   UNL A   1      37.551  34.058  33.431  1.00  0.00     0.031 C 
ATOM     59  C   UNL A   1      42.036  31.926  36.924  1.00  0.00     0.029 A 
ATOM     60  C   UNL A   1      41.145  32.100  35.878  1.00  0.00     0.049 A 
ATOM     61  H   UNL A   1      40.961  30.992  34.091  1.00  0.00     0.167 HD
ATOM     62  C   UNL A   1      39.279  33.208  34.676  1.00  0.00     0.074 A 
ATOM     63  C   UNL A   1      38.231  34.202  34.559  1.00  0.00     0.031 C 
ATOM     64  C   UNL A   1      40.097  33.082  35.750  1.00  0.00     0.031 A 
BRANCH  51  65
ATOM     65  C   UNL A   1      44.197  28.468  35.310  1.00  0.00    -0.014 A 
ATOM     66  C   UNL A   1      45.545  28.822  35.117  1.00  0.00     0.010 A 
ATOM     67  C   UNL A   1      43.894  27.396  36.172  1.00  0.00     0.010 A 
ATOM     68  C   UNL A   1      46.566  28.092  35.737  1.00  0.00     0.020 A 
ATOM     69  C   UNL A   1      44.910  26.683  36.818  1.00  0.00     0.020 A 
ATOM     70  C   UNL A   1      46.241  27.026  36.581  1.00  0.00     0.054 A 
BRANCH  70  71
ATOM     71  S   UNL A   1      47.586  26.108  37.384  1.00  0.00     0.124 S 
ATOM     72  O   UNL A   1      47.680  24.916  36.544  1.00  0.00    -0.237 OA
ATOM     73  O   UNL A   1      48.709  27.035  37.284  1.00  0.00    -0.237 OA
ATOM     74  O   UNL A   1      47.091  25.878  38.738  1.00  0.00    -0.744 OA
ENDBRANCH  70  71
ENDBRANCH  51  65
BRANCH  52  75
ATOM     75  C   UNL A   1      36.645  33.212  30.772  1.00  0.00    -0.014 A 
ATOM     76  C   UNL A   1      35.362  33.167  31.343  1.00  0.00     0.010 A 
ATOM     77  C   UNL A   1      36.833  33.933  29.577  1.00  0.00     0.010 A 
ATOM     78  C   UNL A   1      34.288  33.816  30.726  1.00  0.00     0.020 A 
ATOM     79  C   UNL A   1      35.772  34.616  28.977  1.00  0.00     0.020 A 
ATOM     80  C   UNL A   1      34.503  34.542  29.550  1.00  0.00     0.054 A 
BRANCH  80  81
ATOM     81  S   UNL A   1      33.106  35.422  28.797  1.00  0.00     0.124 S 
ATOM     82  O   UNL A   1      33.783  36.437  27.997  1.00  0.00    -0.237 OA
ATOM     83  O   UNL A   1      32.436  34.365  28.046  1.00  0.00    -0.237 OA
ATOM     84  O   UNL A   1      32.359  35.927  29.948  1.00  0.00    -0.744 OA
ENDBRANCH  80  81
ENDBRANCH  52  75
BRANCH  64  85
ATOM     85  C   UNL A   1      39.919  34.073  36.869  1.00  0.00    -0.014 A 
ATOM     86  C   UNL A   1      40.525  35.341  36.828  1.00  0.00     0.010 A 
ATOM     87  C   UNL A   1      39.094  33.742  37.960  1.00  0.00     0.010 A 
ATOM     88  C   UNL A   1      40.339  36.247  37.875  1.00  0.00     0.020 A 
ATOM     89  C   UNL A   1      38.879  34.657  38.992  1.00  0.00     0.020 A 
ATOM     90  C   UNL A   1      39.514  35.900  38.949  1.00  0.00     0.054 A 
BRANCH  90  91
ATOM     91  S   UNL A   1      39.251  37.112  40.273  1.00  0.00     0.124 S 
ATOM     92  O   UNL A   1      40.617  37.371  40.723  1.00  0.00    -0.237 OA
ATOM     93  O   UNL A   1      38.600  38.214  39.571  1.00  0.00    -0.237 OA
ATOM     94  O   UNL A   1      38.405  36.403  41.229  1.00  0.00    -0.744 OA
ENDBRANCH  90  91
ENDBRANCH  64  85
ENDBRANCH  38  39
ENDBRANCH  31  33
ENDBRANCH  30  31
ENDBRANCH  29  30
ENDBRANCH   1  29
TORSDOF 20
ENDMDL
MODEL 3
REMARK VINA RESULT:     -10.6      5.901     11.870
REMARK SMILES CCOc1cc2nccc(Nc3ccc(C(=O)OCCOC(=O)c4ccc(-c5c6nc(c(-c7ccc(S(=O)(=O)[O-])cc7)c7ccc([nH]7)c(-c7ccc(S(=O)(=O)[O-])cc7)c7nc(c(-c8ccc(S(=O)(=O)[O-])cc8)c8ccc5[nH]8)C=C7)C=C6)cc4)cc3)c2cc1OCC
REMARK SMILES IDX 19 1 18 2 16 3 17 4 15 5 12 6 13 7 85 8 14 9 84 10 11 11
REMARK SMILES IDX 10 13 4 14 5 15 88 16 6 17 87 18 7 19 86 20 8 21 9 22 3 23
REMARK SMILES IDX 2 24 1 25 89 26 90 27 91 28 20 29 21 30 22 31 23 32 24 33
REMARK SMILES IDX 25 34 83 35 26 36 82 37 27 38 28 39 29 40 76 41 30 42 81 43
REMARK SMILES IDX 75 44 77 45 31 46 80 47 74 48 73 49 32 51 62 52 43 53 61 54
REMARK SMILES IDX 44 55 47 56 60 57 78 58 45 59 46 60 59 62 79 63 48 64 33 65
REMARK SMILES IDX 34 66 42 67 35 68 41 69 36 70 37 71 38 72 39 73 40 74 63 75
REMARK SMILES IDX 64 76 72 77 65 78 71 79 66 80 67 81 68 82 69 83 70 84 49 85
REMARK SMILES IDX 50 86 58 87 51 88 57 89 52 90 53 91 54 92 55 93 56 94
REMARK H PARENT 11 12 77 50 47 61
REMARK Flexibility Score: inf
ROOT
ATOM      1  C   UNL A   1      42.752  22.345  26.353  1.00  0.00     0.275 C 
ENDROOT
BRANCH   1   2
ATOM      2  O   UNL A   1      41.661  21.485  25.966  1.00  0.00    -0.458 OA
BRANCH   2   3
ATOM      3  C   UNL A   1      40.609  21.489  26.816  1.00  0.00     0.338 C 
ATOM      4  O   UNL A   1      40.585  21.009  27.941  1.00  0.00    -0.246 OA
BRANCH   3   5
ATOM      5  C   UNL A   1      39.448  22.204  26.251  1.00  0.00     0.060 A 
ATOM      6  C   UNL A   1      37.094  23.567  25.592  1.00  0.00     0.038 A 
ATOM      7  C   UNL A   1      38.130  24.233  26.241  1.00  0.00     0.027 A 
ATOM      8  C   UNL A   1      37.270  22.232  25.212  1.00  0.00     0.027 A 
ATOM      9  C   UNL A   1      39.278  23.546  26.595  1.00  0.00     0.018 A 
ATOM     10  C   UNL A   1      38.456  21.551  25.520  1.00  0.00     0.018 A 
BRANCH   6  11
ATOM     11  N   UNL A   1      35.881  24.254  25.470  1.00  0.00    -0.355 N 
ATOM     12  H   UNL A   1      35.718  24.923  26.173  1.00  0.00     0.167 HD
BRANCH  11  13
ATOM     13  C   UNL A   1      34.847  24.152  24.510  1.00  0.00     0.050 A 
ATOM     14  C   UNL A   1      31.828  27.116  24.346  1.00  0.00     0.163 A 
ATOM     15  C   UNL A   1      31.841  26.045  23.439  1.00  0.00     0.079 A 
ATOM     16  C   UNL A   1      32.843  27.216  25.291  1.00  0.00     0.161 A 
ATOM     17  C   UNL A   1      32.836  25.060  23.469  1.00  0.00     0.076 A 
ATOM     18  C   UNL A   1      33.846  26.257  25.320  1.00  0.00     0.063 A 
ATOM     19  N   UNL A   1      32.784  24.027  22.608  1.00  0.00    -0.256 NA
ATOM     20  C   UNL A   1      33.859  25.166  24.435  1.00  0.00     0.028 A 
ATOM     21  C   UNL A   1      33.729  23.065  22.709  1.00  0.00     0.114 A 
ATOM     22  C   UNL A   1      34.767  23.085  23.620  1.00  0.00     0.047 A 
BRANCH  14  23
ATOM     23  O   UNL A   1      30.762  27.967  24.427  1.00  0.00    -0.490 OA
BRANCH  23  24
ATOM     24  C   UNL A   1      29.625  27.582  23.649  1.00  0.00     0.226 C 
ATOM     25  C   UNL A   1      29.239  28.774  22.780  1.00  0.00     0.049 C 
ENDBRANCH  23  24
ENDBRANCH  14  23
BRANCH  16  26
ATOM     26  O   UNL A   1      32.985  28.153  26.272  1.00  0.00    -0.490 OA
BRANCH  26  27
ATOM     27  C   UNL A   1      34.299  28.375  26.768  1.00  0.00     0.226 C 
ATOM     28  C   UNL A   1      34.516  29.754  27.381  1.00  0.00     0.049 C 
ENDBRANCH  26  27
ENDBRANCH  16  26
ENDBRANCH  11  13
ENDBRANCH   6  11
ENDBRANCH   3   5
ENDBRANCH   2   3
ENDBRANCH   1   2
BRANCH   1  29
ATOM     29  C   UNL A   1      43.030  23.421  25.301  1.00  0.00     0.275 C 
BRANCH  29  30
ATOM     30  O   UNL A   1      43.437  24.663  25.908  1.00  0.00    -0.458 OA
BRANCH  30  31
ATOM     31  C   UNL A   1      42.474  25.612  25.954  1.00  0.00     0.338 C 
ATOM     32  O   UNL A   1      41.668  25.888  25.082  1.00  0.00    -0.246 OA
BRANCH  31  33
ATOM     33  C   UNL A   1      42.443  26.264  27.273  1.00  0.00     0.060 A 
ATOM     34  C   UNL A   1      41.588  25.739  28.231  1.00  0.00     0.016 A 
ATOM     35  C   UNL A   1      43.046  27.499  27.485  1.00  0.00     0.016 A 
ATOM     36  C   UNL A   1      41.177  26.519  29.306  1.00  0.00     0.010 A 
ATOM     37  C   UNL A   1      42.767  28.206  28.664  1.00  0.00     0.010 A 
ATOM     38  C   UNL A   1      41.785  27.753  29.566  1.00  0.00    -0.014 A 
BRANCH  38  39
ATOM     39  C   UNL A   1      41.394  28.549  30.771  1.00  0.00     0.031 A 
ATOM     40  C   UNL A   1      40.201  29.476  30.730  1.00  0.00     0.074 A 
ATOM     41  C   UNL A   1      42.105  28.441  31.915  1.00  0.00     0.049 A 
ATOM     42  N   UNL A   1      39.819  30.371  31.608  1.00  0.00    -0.248 NA
ATOM     43  C   UNL A   1      39.333  29.403  29.543  1.00  0.00     0.031 C 
ATOM     44  C   UNL A   1      43.255  27.554  32.124  1.00  0.00     0.029 A 
ATOM     45  N   UNL A   1      41.967  29.077  33.125  1.00  0.00    -0.354 N 
ATOM     46  C   UNL A   1      38.711  31.006  31.053  1.00  0.00     0.074 A 
ATOM     47  C   UNL A   1      38.487  30.401  29.757  1.00  0.00     0.031 C 
ATOM     48  C   UNL A   1      43.676  27.660  33.391  1.00  0.00     0.029 A 
ATOM     49  C   UNL A   1      42.916  28.709  34.053  1.00  0.00     0.049 A 
ATOM     50  H   UNL A   1      41.256  29.732  33.312  1.00  0.00     0.167 HD
ATOM     51  C   UNL A   1      37.952  32.002  31.573  1.00  0.00     0.031 A 
ATOM     52  C   UNL A   1      43.195  29.193  35.278  1.00  0.00     0.031 A 
ATOM     53  C   UNL A   1      38.161  32.575  32.879  1.00  0.00     0.049 A 
ATOM     54  C   UNL A   1      42.382  30.338  35.808  1.00  0.00     0.074 A 
ATOM     55  C   UNL A   1      37.436  33.574  33.507  1.00  0.00     0.029 A 
ATOM     56  N   UNL A   1      39.163  32.197  33.762  1.00  0.00    -0.354 N 
ATOM     57  N   UNL A   1      41.364  30.948  35.252  1.00  0.00    -0.248 NA
ATOM     58  C   UNL A   1      42.764  30.868  37.122  1.00  0.00     0.031 C 
ATOM     59  C   UNL A   1      38.038  33.844  34.740  1.00  0.00     0.029 A 
ATOM     60  C   UNL A   1      39.092  32.963  34.915  1.00  0.00     0.049 A 
ATOM     61  H   UNL A   1      39.826  31.490  33.594  1.00  0.00     0.167 HD
ATOM     62  C   UNL A   1      40.969  31.923  36.160  1.00  0.00     0.074 A 
ATOM     63  C   UNL A   1      41.845  31.805  37.308  1.00  0.00     0.031 C 
ATOM     64  C   UNL A   1      39.972  32.836  36.051  1.00  0.00     0.031 A 
BRANCH  51  65
ATOM     65  C   UNL A   1      36.850  32.575  30.714  1.00  0.00    -0.014 A 
ATOM     66  C   UNL A   1      37.090  33.608  29.790  1.00  0.00     0.010 A 
ATOM     67  C   UNL A   1      35.554  32.032  30.803  1.00  0.00     0.010 A 
ATOM     68  C   UNL A   1      36.047  34.115  29.005  1.00  0.00     0.020 A 
ATOM     69  C   UNL A   1      34.515  32.514  29.998  1.00  0.00     0.020 A 
ATOM     70  C   UNL A   1      34.766  33.566  29.117  1.00  0.00     0.054 A 
BRANCH  70  71
ATOM     71  S   UNL A   1      33.438  34.233  28.075  1.00  0.00     0.124 S 
ATOM     72  O   UNL A   1      32.658  35.006  29.040  1.00  0.00    -0.237 OA
ATOM     73  O   UNL A   1      34.171  35.020  27.088  1.00  0.00    -0.237 OA
ATOM     74  O   UNL A   1      32.775  33.042  27.551  1.00  0.00    -0.744 OA
ENDBRANCH  70  71
ENDBRANCH  51  65
BRANCH  52  75
ATOM     75  C   UNL A   1      44.337  28.633  36.056  1.00  0.00    -0.014 A 
ATOM     76  C   UNL A   1      45.585  29.277  36.065  1.00  0.00     0.010 A 
ATOM     77  C   UNL A   1      44.171  27.459  36.817  1.00  0.00     0.010 A 
ATOM     78  C   UNL A   1      46.649  28.752  36.806  1.00  0.00     0.020 A 
ATOM     79  C   UNL A   1      45.218  26.952  37.590  1.00  0.00     0.020 A 
ATOM     80  C   UNL A   1      46.455  27.596  37.569  1.00  0.00     0.054 A 
BRANCH  80  81
ATOM     81  S   UNL A   1      47.834  26.965  38.565  1.00  0.00     0.124 S 
ATOM     82  O   UNL A   1      48.965  27.713  38.026  1.00  0.00    -0.237 OA
ATOM     83  O   UNL A   1      47.429  27.318  39.922  1.00  0.00    -0.237 OA
ATOM     84  O   UNL A   1      47.838  25.532  38.277  1.00  0.00    -0.744 OA
ENDBRANCH  80  81
ENDBRANCH  52  75
BRANCH  64  85
ATOM     85  C   UNL A   1      39.748  33.753  37.223  1.00  0.00    -0.014 A 
ATOM     86  C   UNL A   1      39.149  33.293  38.409  1.00  0.00     0.010 A 
ATOM     87  C   UNL A   1      40.185  35.089  37.148  1.00  0.00     0.010 A 
ATOM     88  C   UNL A   1      38.959  34.161  39.486  1.00  0.00     0.020 A 
ATOM     89  C   UNL A   1      40.026  35.951  38.235  1.00  0.00     0.020 A 
ATOM     90  C   UNL A   1      39.401  35.484  39.393  1.00  0.00     0.054 A 
BRANCH  90  91
ATOM     91  S   UNL A   1      39.184  36.578  40.823  1.00  0.00     0.124 S 
ATOM     92  O   UNL A   1      40.565  36.819  41.234  1.00  0.00    -0.237 OA
ATOM     93  O   UNL A   1      38.490  37.725  40.245  1.00  0.00    -0.237 OA
ATOM     94  O   UNL A   1      38.389  35.780  41.753  1.00  0.00    -0.744 OA
ENDBRANCH  90  91
ENDBRANCH  64  85
ENDBRANCH  38  39
ENDBRANCH  31  33
ENDBRANCH  30  31
ENDBRANCH  29  30
ENDBRANCH   1  29
TORSDOF 20
ENDMDL
