MODEL 1
REMARK VINA RESULT:      -8.3      0.000      0.000
REMARK SMILES C/C=C/C[C@H](Cc1cccc(F)c1)C(=O)OCCOC(=O)c1ccc(-c2c3nc(c(-c4ccc(S(=O)(=O)[O-])cc4)c4ccc([nH]4)c(-c4ccc(S(=O)(=O)[O-])cc4)c4nc(c(-c5ccc(S(=O)(=O)[O-])cc5)c5ccc2[nH]5)C=C4)C=C3)cc1
REMARK SMILES IDX 18 1 17 2 16 3 14 4 15 5 5 6 4 7 3 8 1 9 2 10 6 11 7 12 8 13
REMARK SMILES IDX 13 14 9 15 11 16 10 17 12 18 19 19 20 20 21 21 22 22 23 23
REMARK SMILES IDX 81 24 24 25 80 26 25 27 26 28 27 29 74 30 28 31 79 32 73 33
REMARK SMILES IDX 75 34 29 35 78 36 72 37 71 38 30 40 60 41 41 42 59 43 42 44
REMARK SMILES IDX 45 45 58 46 76 47 43 48 44 49 57 51 77 52 46 53 31 54 32 55
REMARK SMILES IDX 40 56 33 57 39 58 34 59 35 60 36 61 37 62 38 63 61 64 62 65
REMARK SMILES IDX 70 66 63 67 69 68 64 69 65 70 66 71 67 72 68 73 47 74 48 75
REMARK SMILES IDX 56 76 49 77 55 78 50 79 51 80 52 81 53 82 54 83
REMARK H PARENT 75 39 45 50
REMARK Flexibility Score: inf
ROOT
ATOM      1  C   UNL A   1      38.996  20.977  25.633  1.00  0.00     0.275 C 
ENDROOT
BRANCH   1   2
ATOM      2  C   UNL A   1      40.155  20.016  25.881  1.00  0.00     0.274 C 
BRANCH   2   3
ATOM      3  O   UNL A   1      41.109  20.580  26.805  1.00  0.00    -0.462 OA
BRANCH   3   4
ATOM      4  C   UNL A   1      42.312  20.902  26.260  1.00  0.00     0.309 C 
ATOM      5  O   UNL A   1      42.866  20.255  25.376  1.00  0.00    -0.252 OA
BRANCH   4   6
ATOM      6  C   UNL A   1      42.995  22.085  26.919  1.00  0.00     0.107 C 
BRANCH   6   7
ATOM      7  C   UNL A   1      42.212  22.358  28.229  1.00  0.00     0.042 C 
BRANCH   7   8
ATOM      8  C   UNL A   1      42.724  23.484  29.078  1.00  0.00    -0.031 C 
ATOM      9  C   UNL A   1      44.170  24.460  30.860  1.00  0.00     0.035 C 
ATOM     10  C   UNL A   1      43.719  23.353  29.967  1.00  0.00    -0.035 C 
ENDBRANCH   7   8
ENDBRANCH   6   7
BRANCH   6  11
ATOM     11  C   UNL A   1      43.207  23.316  26.010  1.00  0.00     0.051 C 
BRANCH  11  12
ATOM     12  C   UNL A   1      44.597  23.916  25.942  1.00  0.00    -0.044 A 
ATOM     13  C   UNL A   1      44.898  24.847  24.933  1.00  0.00     0.004 A 
ATOM     14  C   UNL A   1      45.550  23.703  26.947  1.00  0.00     0.043 A 
ATOM     15  C   UNL A   1      46.125  25.521  24.913  1.00  0.00     0.003 A 
ATOM     16  C   UNL A   1      46.776  24.366  26.909  1.00  0.00     0.123 A 
ATOM     17  C   UNL A   1      47.071  25.273  25.902  1.00  0.00     0.039 A 
ATOM     18  F   UNL A   1      47.675  24.132  27.872  1.00  0.00    -0.207 F 
ENDBRANCH  11  12
ENDBRANCH   6  11
ENDBRANCH   4   6
ENDBRANCH   3   4
ENDBRANCH   2   3
ENDBRANCH   1   2
BRANCH   1  19
ATOM     19  O   UNL A   1      39.012  22.024  26.617  1.00  0.00    -0.458 OA
BRANCH  19  20
ATOM     20  C   UNL A   1      38.526  23.218  26.208  1.00  0.00     0.338 C 
ATOM     21  O   UNL A   1      37.602  23.407  25.434  1.00  0.00    -0.246 OA
BRANCH  20  22
ATOM     22  C   UNL A   1      39.322  24.309  26.798  1.00  0.00     0.060 A 
ATOM     23  C   UNL A   1      39.230  24.619  28.156  1.00  0.00     0.016 A 
ATOM     24  C   UNL A   1      40.101  25.099  25.954  1.00  0.00     0.016 A 
ATOM     25  C   UNL A   1      39.848  25.766  28.655  1.00  0.00     0.010 A 
ATOM     26  C   UNL A   1      40.787  26.199  26.471  1.00  0.00     0.010 A 
ATOM     27  C   UNL A   1      40.639  26.567  27.820  1.00  0.00    -0.014 A 
BRANCH  27  28
ATOM     28  C   UNL A   1      41.287  27.805  28.332  1.00  0.00     0.031 A 
ATOM     29  C   UNL A   1      42.790  27.913  28.367  1.00  0.00     0.074 A 
ATOM     30  C   UNL A   1      40.535  28.829  28.782  1.00  0.00     0.049 A 
ATOM     31  N   UNL A   1      43.540  28.827  28.931  1.00  0.00    -0.248 NA
ATOM     32  C   UNL A   1      43.549  26.847  27.692  1.00  0.00     0.031 C 
ATOM     33  C   UNL A   1      39.072  28.879  28.770  1.00  0.00     0.029 A 
ATOM     34  N   UNL A   1      40.903  30.025  29.346  1.00  0.00    -0.354 N 
ATOM     35  C   UNL A   1      44.854  28.430  28.708  1.00  0.00     0.074 A 
ATOM     36  C   UNL A   1      44.800  27.185  27.972  1.00  0.00     0.031 C 
ATOM     37  C   UNL A   1      38.668  30.050  29.285  1.00  0.00     0.029 A 
ATOM     38  C   UNL A   1      39.837  30.801  29.733  1.00  0.00     0.049 A 
ATOM     39  H   UNL A   1      41.841  30.302  29.464  1.00  0.00     0.167 HD
ATOM     40  C   UNL A   1      46.002  29.045  29.081  1.00  0.00     0.031 A 
ATOM     41  C   UNL A   1      39.793  31.964  30.409  1.00  0.00     0.031 A 
ATOM     42  C   UNL A   1      46.057  30.292  29.799  1.00  0.00     0.049 A 
ATOM     43  C   UNL A   1      41.075  32.600  30.867  1.00  0.00     0.074 A 
ATOM     44  C   UNL A   1      47.173  30.996  30.219  1.00  0.00     0.029 A 
ATOM     45  N   UNL A   1      44.950  31.026  30.193  1.00  0.00    -0.354 N 
ATOM     46  N   UNL A   1      42.306  32.190  30.684  1.00  0.00    -0.248 NA
ATOM     47  C   UNL A   1      40.958  33.849  31.633  1.00  0.00     0.031 C 
ATOM     48  C   UNL A   1      46.739  32.137  30.903  1.00  0.00     0.029 A 
ATOM     49  C   UNL A   1      45.354  32.166  30.870  1.00  0.00     0.049 A 
ATOM     50  H   UNL A   1      44.014  30.776  30.019  1.00  0.00     0.167 HD
ATOM     51  C   UNL A   1      43.114  33.133  31.307  1.00  0.00     0.074 A 
ATOM     52  C   UNL A   1      42.233  34.145  31.854  1.00  0.00     0.031 C 
ATOM     53  C   UNL A   1      44.465  33.157  31.418  1.00  0.00     0.031 A 
BRANCH  40  54
ATOM     54  C   UNL A   1      47.298  28.355  28.751  1.00  0.00    -0.014 A 
ATOM     55  C   UNL A   1      48.012  28.664  27.580  1.00  0.00     0.010 A 
ATOM     56  C   UNL A   1      47.825  27.403  29.644  1.00  0.00     0.010 A 
ATOM     57  C   UNL A   1      49.212  28.007  27.290  1.00  0.00     0.020 A 
ATOM     58  C   UNL A   1      49.034  26.759  29.368  1.00  0.00     0.020 A 
ATOM     59  C   UNL A   1      49.711  27.053  28.182  1.00  0.00     0.054 A 
BRANCH  59  60
ATOM     60  S   UNL A   1      51.274  26.220  27.789  1.00  0.00     0.124 S 
ATOM     61  O   UNL A   1      50.817  24.887  27.406  1.00  0.00    -0.237 OA
ATOM     62  O   UNL A   1      51.811  27.035  26.701  1.00  0.00    -0.237 OA
ATOM     63  O   UNL A   1      52.026  26.285  29.040  1.00  0.00    -0.744 OA
ENDBRANCH  59  60
ENDBRANCH  40  54
BRANCH  41  64
ATOM     64  C   UNL A   1      38.475  32.572  30.737  1.00  0.00    -0.014 A 
ATOM     65  C   UNL A   1      37.814  33.394  29.810  1.00  0.00     0.010 A 
ATOM     66  C   UNL A   1      37.857  32.292  31.971  1.00  0.00     0.010 A 
ATOM     67  C   UNL A   1      36.556  33.925  30.108  1.00  0.00     0.020 A 
ATOM     68  C   UNL A   1      36.589  32.800  32.261  1.00  0.00     0.020 A 
ATOM     69  C   UNL A   1      35.948  33.620  31.331  1.00  0.00     0.054 A 
BRANCH  69  70
ATOM     70  S   UNL A   1      34.279  34.246  31.667  1.00  0.00     0.124 S 
ATOM     71  O   UNL A   1      33.698  34.294  30.329  1.00  0.00    -0.237 OA
ATOM     72  O   UNL A   1      33.729  33.230  32.560  1.00  0.00    -0.237 OA
ATOM     73  O   UNL A   1      34.524  35.544  32.293  1.00  0.00    -0.744 OA
ENDBRANCH  69  70
ENDBRANCH  41  64
BRANCH  53  74
ATOM     74  C   UNL A   1      45.073  34.324  32.145  1.00  0.00    -0.014 A 
ATOM     75  C   UNL A   1      45.322  34.265  33.528  1.00  0.00     0.010 A 
ATOM     76  C   UNL A   1      45.434  35.480  31.430  1.00  0.00     0.010 A 
ATOM     77  C   UNL A   1      45.895  35.354  34.188  1.00  0.00     0.020 A 
ATOM     78  C   UNL A   1      46.027  36.562  32.083  1.00  0.00     0.020 A 
ATOM     79  C   UNL A   1      46.241  36.498  33.462  1.00  0.00     0.054 A 
BRANCH  79  80
ATOM     80  S   UNL A   1      47.016  37.889  34.331  1.00  0.00     0.124 S 
ATOM     81  O   UNL A   1      47.172  38.868  33.260  1.00  0.00    -0.237 OA
ATOM     82  O   UNL A   1      46.026  38.227  35.351  1.00  0.00    -0.237 OA
ATOM     83  O   UNL A   1      48.261  37.323  34.846  1.00  0.00    -0.744 OA
ENDBRANCH  79  80
ENDBRANCH  53  74
ENDBRANCH  27  28
ENDBRANCH  20  22
ENDBRANCH  19  20
ENDBRANCH   1  19
TORSDOF 18
ENDMDL
MODEL 2
REMARK VINA RESULT:      -8.2      4.144     10.511
REMARK SMILES C/C=C/C[C@H](Cc1cccc(F)c1)C(=O)OCCOC(=O)c1ccc(-c2c3nc(c(-c4ccc(S(=O)(=O)[O-])cc4)c4ccc([nH]4)c(-c4ccc(S(=O)(=O)[O-])cc4)c4nc(c(-c5ccc(S(=O)(=O)[O-])cc5)c5ccc2[nH]5)C=C4)C=C3)cc1
REMARK SMILES IDX 18 1 17 2 16 3 14 4 15 5 5 6 4 7 3 8 1 9 2 10 6 11 7 12 8 13
REMARK SMILES IDX 13 14 9 15 11 16 10 17 12 18 19 19 20 20 21 21 22 22 23 23
REMARK SMILES IDX 81 24 24 25 80 26 25 27 26 28 27 29 74 30 28 31 79 32 73 33
REMARK SMILES IDX 75 34 29 35 78 36 72 37 71 38 30 40 60 41 41 42 59 43 42 44
REMARK SMILES IDX 45 45 58 46 76 47 43 48 44 49 57 51 77 52 46 53 31 54 32 55
REMARK SMILES IDX 40 56 33 57 39 58 34 59 35 60 36 61 37 62 38 63 61 64 62 65
REMARK SMILES IDX 70 66 63 67 69 68 64 69 65 70 66 71 67 72 68 73 47 74 48 75
REMARK SMILES IDX 56 76 49 77 55 78 50 79 51 80 52 81 53 82 54 83
REMARK H PARENT 75 39 45 50
REMARK Flexibility Score: inf
ROOT
ATOM      1  C   UNL A   1      32.490  30.292  26.607  1.00  0.00     0.275 C 
ENDROOT
BRANCH   1   2
ATOM      2  C   UNL A   1      31.753  29.185  25.859  1.00  0.00     0.274 C 
BRANCH   2   3
ATOM      3  O   UNL A   1      32.510  27.956  25.873  1.00  0.00    -0.462 OA
BRANCH   3   4
ATOM      4  C   UNL A   1      31.812  26.860  26.270  1.00  0.00     0.309 C 
ATOM      5  O   UNL A   1      30.888  26.882  27.077  1.00  0.00    -0.252 OA
BRANCH   4   6
ATOM      6  C   UNL A   1      32.346  25.551  25.718  1.00  0.00     0.107 C 
BRANCH   6   7
ATOM      7  C   UNL A   1      33.499  25.931  24.754  1.00  0.00     0.042 C 
BRANCH   7   8
ATOM      8  C   UNL A   1      34.661  24.982  24.713  1.00  0.00    -0.031 C 
ATOM      9  C   UNL A   1      36.279  23.385  25.737  1.00  0.00     0.035 C 
ATOM     10  C   UNL A   1      35.078  24.269  25.769  1.00  0.00    -0.035 C 
ENDBRANCH   7   8
ENDBRANCH   6   7
BRANCH   6  11
ATOM     11  C   UNL A   1      31.282  24.600  25.128  1.00  0.00     0.051 C 
BRANCH  11  12
ATOM     12  C   UNL A   1      31.738  23.240  24.640  1.00  0.00    -0.044 A 
ATOM     13  C   UNL A   1      31.936  22.203  25.567  1.00  0.00     0.004 A 
ATOM     14  C   UNL A   1      31.815  22.927  23.276  1.00  0.00     0.043 A 
ATOM     15  C   UNL A   1      32.230  20.901  25.145  1.00  0.00     0.003 A 
ATOM     16  C   UNL A   1      32.126  21.631  22.866  1.00  0.00     0.123 A 
ATOM     17  C   UNL A   1      32.332  20.616  23.788  1.00  0.00     0.039 A 
ATOM     18  F   UNL A   1      32.209  21.362  21.557  1.00  0.00    -0.207 F 
ENDBRANCH  11  12
ENDBRANCH   6  11
ENDBRANCH   4   6
ENDBRANCH   3   4
ENDBRANCH   2   3
ENDBRANCH   1   2
BRANCH   1  19
ATOM     19  O   UNL A   1      33.618  29.741  27.305  1.00  0.00    -0.458 OA
BRANCH  19  20
ATOM     20  C   UNL A   1      34.326  30.617  28.055  1.00  0.00     0.338 C 
ATOM     21  O   UNL A   1      33.955  31.708  28.453  1.00  0.00    -0.246 OA
BRANCH  20  22
ATOM     22  C   UNL A   1      35.680  30.085  28.296  1.00  0.00     0.060 A 
ATOM     23  C   UNL A   1      36.070  29.644  29.561  1.00  0.00     0.016 A 
ATOM     24  C   UNL A   1      36.606  30.123  27.254  1.00  0.00     0.016 A 
ATOM     25  C   UNL A   1      37.405  29.319  29.808  1.00  0.00     0.010 A 
ATOM     26  C   UNL A   1      37.922  29.718  27.481  1.00  0.00     0.010 A 
ATOM     27  C   UNL A   1      38.346  29.347  28.770  1.00  0.00    -0.014 A 
BRANCH  27  28
ATOM     28  C   UNL A   1      39.776  29.025  29.021  1.00  0.00     0.031 A 
ATOM     29  C   UNL A   1      40.702  30.075  29.582  1.00  0.00     0.074 A 
ATOM     30  C   UNL A   1      40.257  27.799  28.734  1.00  0.00     0.049 A 
ATOM     31  N   UNL A   1      42.005  30.045  29.707  1.00  0.00    -0.248 NA
ATOM     32  C   UNL A   1      40.082  31.326  30.049  1.00  0.00     0.031 C 
ATOM     33  C   UNL A   1      39.469  26.675  28.226  1.00  0.00     0.029 A 
ATOM     34  N   UNL A   1      41.532  27.297  28.822  1.00  0.00    -0.354 N 
ATOM     35  C   UNL A   1      42.363  31.281  30.236  1.00  0.00     0.074 A 
ATOM     36  C   UNL A   1      41.143  32.043  30.391  1.00  0.00     0.031 C 
ATOM     37  C   UNL A   1      40.273  25.612  28.064  1.00  0.00     0.029 A 
ATOM     38  C   UNL A   1      41.643  25.999  28.384  1.00  0.00     0.049 A 
ATOM     39  H   UNL A   1      42.295  27.816  29.167  1.00  0.00     0.167 HD
ATOM     40  C   UNL A   1      43.595  31.740  30.561  1.00  0.00     0.031 A 
ATOM     41  C   UNL A   1      42.725  25.217  28.213  1.00  0.00     0.031 A 
ATOM     42  C   UNL A   1      44.808  30.978  30.423  1.00  0.00     0.049 A 
ATOM     43  C   UNL A   1      44.088  25.765  28.523  1.00  0.00     0.074 A 
ATOM     44  C   UNL A   1      46.104  31.356  30.729  1.00  0.00     0.029 A 
ATOM     45  N   UNL A   1      44.874  29.678  29.947  1.00  0.00    -0.354 N 
ATOM     46  N   UNL A   1      44.413  26.950  28.981  1.00  0.00    -0.248 NA
ATOM     47  C   UNL A   1      45.232  24.875  28.280  1.00  0.00     0.031 C 
ATOM     48  C   UNL A   1      46.958  30.297  30.400  1.00  0.00     0.029 A 
ATOM     49  C   UNL A   1      46.189  29.245  29.932  1.00  0.00     0.049 A 
ATOM     50  H   UNL A   1      44.100  29.140  29.661  1.00  0.00     0.167 HD
ATOM     51  C   UNL A   1      45.798  26.946  29.089  1.00  0.00     0.074 A 
ATOM     52  C   UNL A   1      46.248  25.636  28.666  1.00  0.00     0.031 C 
ATOM     53  C   UNL A   1      46.623  27.942  29.498  1.00  0.00     0.031 A 
BRANCH  40  54
ATOM     54  C   UNL A   1      43.697  33.155  31.068  1.00  0.00    -0.014 A 
ATOM     55  C   UNL A   1      43.857  34.237  30.186  1.00  0.00     0.010 A 
ATOM     56  C   UNL A   1      43.597  33.405  32.449  1.00  0.00     0.010 A 
ATOM     57  C   UNL A   1      43.954  35.541  30.678  1.00  0.00     0.020 A 
ATOM     58  C   UNL A   1      43.673  34.711  32.944  1.00  0.00     0.020 A 
ATOM     59  C   UNL A   1      43.869  35.770  32.055  1.00  0.00     0.054 A 
BRANCH  59  60
ATOM     60  S   UNL A   1      43.988  37.472  32.670  1.00  0.00     0.124 S 
ATOM     61  O   UNL A   1      43.776  38.248  31.450  1.00  0.00    -0.237 OA
ATOM     62  O   UNL A   1      42.907  37.539  33.651  1.00  0.00    -0.237 OA
ATOM     63  O   UNL A   1      45.336  37.546  33.228  1.00  0.00    -0.744 OA
ENDBRANCH  59  60
ENDBRANCH  40  54
BRANCH  41  64
ATOM     64  C   UNL A   1      42.556  23.842  27.670  1.00  0.00    -0.014 A 
ATOM     65  C   UNL A   1      42.667  23.596  26.292  1.00  0.00     0.010 A 
ATOM     66  C   UNL A   1      42.324  22.762  28.544  1.00  0.00     0.010 A 
ATOM     67  C   UNL A   1      42.551  22.294  25.795  1.00  0.00     0.020 A 
ATOM     68  C   UNL A   1      42.233  21.458  28.054  1.00  0.00     0.020 A 
ATOM     69  C   UNL A   1      42.340  21.232  26.681  1.00  0.00     0.054 A 
BRANCH  69  70
ATOM     70  S   UNL A   1      42.278  19.540  26.029  1.00  0.00     0.124 S 
ATOM     71  O   UNL A   1      43.206  19.613  24.905  1.00  0.00    -0.237 OA
ATOM     72  O   UNL A   1      42.724  18.742  27.168  1.00  0.00    -0.237 OA
ATOM     73  O   UNL A   1      40.871  19.366  25.673  1.00  0.00    -0.744 OA
ENDBRANCH  69  70
ENDBRANCH  41  64
BRANCH  53  74
ATOM     74  C   UNL A   1      48.096  27.644  29.524  1.00  0.00    -0.014 A 
ATOM     75  C   UNL A   1      48.703  27.098  30.670  1.00  0.00     0.010 A 
ATOM     76  C   UNL A   1      48.876  27.876  28.378  1.00  0.00     0.010 A 
ATOM     77  C   UNL A   1      50.071  26.818  30.677  1.00  0.00     0.020 A 
ATOM     78  C   UNL A   1      50.240  27.578  28.374  1.00  0.00     0.020 A 
ATOM     79  C   UNL A   1      50.833  27.063  29.530  1.00  0.00     0.054 A 
BRANCH  79  80
ATOM     80  S   UNL A   1      52.601  26.660  29.547  1.00  0.00     0.124 S 
ATOM     81  O   UNL A   1      53.212  27.978  29.700  1.00  0.00    -0.237 OA
ATOM     82  O   UNL A   1      52.721  25.775  30.703  1.00  0.00    -0.237 OA
ATOM     83  O   UNL A   1      52.822  26.017  28.254  1.00  0.00    -0.744 OA
ENDBRANCH  79  80
ENDBRANCH  53  74
ENDBRANCH  27  28
ENDBRANCH  20  22
ENDBRANCH  19  20
ENDBRANCH   1  19
TORSDOF 18
ENDMDL
MODEL 3
REMARK VINA RESULT:      -8.1      4.288      9.228
REMARK SMILES C/C=C/C[C@H](Cc1cccc(F)c1)C(=O)OCCOC(=O)c1ccc(-c2c3nc(c(-c4ccc(S(=O)(=O)[O-])cc4)c4ccc([nH]4)c(-c4ccc(S(=O)(=O)[O-])cc4)c4nc(c(-c5ccc(S(=O)(=O)[O-])cc5)c5ccc2[nH]5)C=C4)C=C3)cc1
REMARK SMILES IDX 18 1 17 2 16 3 14 4 15 5 5 6 4 7 3 8 1 9 2 10 6 11 7 12 8 13
REMARK SMILES IDX 13 14 9 15 11 16 10 17 12 18 19 19 20 20 21 21 22 22 23 23
REMARK SMILES IDX 81 24 24 25 80 26 25 27 26 28 27 29 74 30 28 31 79 32 73 33
REMARK SMILES IDX 75 34 29 35 78 36 72 37 71 38 30 40 60 41 41 42 59 43 42 44
REMARK SMILES IDX 45 45 58 46 76 47 43 48 44 49 57 51 77 52 46 53 31 54 32 55
REMARK SMILES IDX 40 56 33 57 39 58 34 59 35 60 36 61 37 62 38 63 61 64 62 65
REMARK SMILES IDX 70 66 63 67 69 68 64 69 65 70 66 71 67 72 68 73 47 74 48 75
REMARK SMILES IDX 56 76 49 77 55 78 50 79 51 80 52 81 53 82 54 83
REMARK H PARENT 75 39 45 50
REMARK Flexibility Score: inf
ROOT
ATOM      1  C   UNL A   1      33.366  32.269  27.970  1.00  0.00     0.275 C 
ENDROOT
BRANCH   1   2
ATOM      2  C   UNL A   1      33.393  33.794  27.953  1.00  0.00     0.274 C 
BRANCH   2   3
ATOM      3  O   UNL A   1      34.621  34.298  28.520  1.00  0.00    -0.462 OA
BRANCH   3   4
ATOM      4  C   UNL A   1      34.699  34.221  29.874  1.00  0.00     0.309 C 
ATOM      5  O   UNL A   1      33.764  34.450  30.636  1.00  0.00    -0.252 OA
BRANCH   4   6
ATOM      6  C   UNL A   1      36.094  33.935  30.400  1.00  0.00     0.107 C 
BRANCH   6   7
ATOM      7  C   UNL A   1      36.990  33.733  29.151  1.00  0.00     0.042 C 
BRANCH   7   8
ATOM      8  C   UNL A   1      38.441  33.465  29.420  1.00  0.00    -0.031 C 
ATOM      9  C   UNL A   1      40.790  34.153  29.900  1.00  0.00     0.035 C 
ATOM     10  C   UNL A   1      39.335  34.422  29.708  1.00  0.00    -0.035 C 
ENDBRANCH   7   8
ENDBRANCH   6   7
BRANCH   6  11
ATOM     11  C   UNL A   1      36.184  32.819  31.463  1.00  0.00     0.051 C 
BRANCH  11  12
ATOM     12  C   UNL A   1      36.800  33.163  32.804  1.00  0.00    -0.044 A 
ATOM     13  C   UNL A   1      36.623  32.289  33.890  1.00  0.00     0.004 A 
ATOM     14  C   UNL A   1      37.680  34.242  32.963  1.00  0.00     0.043 A 
ATOM     15  C   UNL A   1      37.283  32.504  35.106  1.00  0.00     0.003 A 
ATOM     16  C   UNL A   1      38.318  34.458  34.184  1.00  0.00     0.123 A 
ATOM     17  C   UNL A   1      38.128  33.598  35.255  1.00  0.00     0.039 A 
ATOM     18  F   UNL A   1      39.141  35.506  34.315  1.00  0.00    -0.207 F 
ENDBRANCH  11  12
ENDBRANCH   6  11
ENDBRANCH   4   6
ENDBRANCH   3   4
ENDBRANCH   2   3
ENDBRANCH   1   2
BRANCH   1  19
ATOM     19  O   UNL A   1      34.680  31.755  27.699  1.00  0.00    -0.458 OA
BRANCH  19  20
ATOM     20  C   UNL A   1      34.780  30.407  27.644  1.00  0.00     0.338 C 
ATOM     21  O   UNL A   1      33.945  29.626  27.220  1.00  0.00    -0.246 OA
BRANCH  20  22
ATOM     22  C   UNL A   1      36.060  29.979  28.238  1.00  0.00     0.060 A 
ATOM     23  C   UNL A   1      36.118  29.442  29.525  1.00  0.00     0.016 A 
ATOM     24  C   UNL A   1      37.237  30.213  27.526  1.00  0.00     0.016 A 
ATOM     25  C   UNL A   1      37.353  29.217  30.134  1.00  0.00     0.010 A 
ATOM     26  C   UNL A   1      38.469  29.909  28.106  1.00  0.00     0.010 A 
ATOM     27  C   UNL A   1      38.544  29.443  29.430  1.00  0.00    -0.014 A 
BRANCH  27  28
ATOM     28  C   UNL A   1      39.868  29.228  30.072  1.00  0.00     0.031 A 
ATOM     29  C   UNL A   1      40.795  28.156  29.557  1.00  0.00     0.074 A 
ATOM     30  C   UNL A   1      40.241  29.978  31.129  1.00  0.00     0.049 A 
ATOM     31  N   UNL A   1      41.904  27.701  30.082  1.00  0.00    -0.248 NA
ATOM     32  C   UNL A   1      40.417  27.502  28.293  1.00  0.00     0.031 C 
ATOM     33  C   UNL A   1      39.464  31.076  31.707  1.00  0.00     0.029 A 
ATOM     34  N   UNL A   1      41.369  29.923  31.909  1.00  0.00    -0.354 N 
ATOM     35  C   UNL A   1      42.338  26.688  29.234  1.00  0.00     0.074 A 
ATOM     36  C   UNL A   1      41.365  26.584  28.169  1.00  0.00     0.031 C 
ATOM     37  C   UNL A   1      40.145  31.600  32.738  1.00  0.00     0.029 A 
ATOM     38  C   UNL A   1      41.368  30.830  32.941  1.00  0.00     0.049 A 
ATOM     39  H   UNL A   1      42.108  29.293  31.746  1.00  0.00     0.167 HD
ATOM     40  C   UNL A   1      43.446  25.914  29.332  1.00  0.00     0.031 A 
ATOM     41  C   UNL A   1      42.226  31.002  33.964  1.00  0.00     0.031 A 
ATOM     42  C   UNL A   1      44.424  26.028  30.381  1.00  0.00     0.049 A 
ATOM     43  C   UNL A   1      43.417  30.095  34.088  1.00  0.00     0.074 A 
ATOM     44  C   UNL A   1      45.582  25.291  30.564  1.00  0.00     0.029 A 
ATOM     45  N   UNL A   1      44.366  26.943  31.420  1.00  0.00    -0.354 N 
ATOM     46  N   UNL A   1      43.789  29.115  33.301  1.00  0.00    -0.248 NA
ATOM     47  C   UNL A   1      44.295  30.308  35.247  1.00  0.00     0.031 C 
ATOM     48  C   UNL A   1      46.203  25.734  31.738  1.00  0.00     0.029 A 
ATOM     49  C   UNL A   1      45.455  26.777  32.260  1.00  0.00     0.049 A 
ATOM     50  H   UNL A   1      43.654  27.612  31.545  1.00  0.00     0.167 HD
ATOM     51  C   UNL A   1      44.949  28.599  33.864  1.00  0.00     0.074 A 
ATOM     52  C   UNL A   1      45.228  29.386  35.047  1.00  0.00     0.031 C 
ATOM     53  C   UNL A   1      45.713  27.561  33.440  1.00  0.00     0.031 A 
BRANCH  40  54
ATOM     54  C   UNL A   1      43.640  24.846  28.289  1.00  0.00    -0.014 A 
ATOM     55  C   UNL A   1      44.454  25.062  27.163  1.00  0.00     0.010 A 
ATOM     56  C   UNL A   1      43.022  23.593  28.457  1.00  0.00     0.010 A 
ATOM     57  C   UNL A   1      44.616  24.058  26.205  1.00  0.00     0.020 A 
ATOM     58  C   UNL A   1      43.198  22.578  27.511  1.00  0.00     0.020 A 
ATOM     59  C   UNL A   1      43.981  22.824  26.381  1.00  0.00     0.054 A 
BRANCH  59  60
ATOM     60  S   UNL A   1      44.214  21.533  25.129  1.00  0.00     0.124 S 
ATOM     61  O   UNL A   1      44.114  22.296  23.887  1.00  0.00    -0.237 OA
ATOM     62  O   UNL A   1      45.544  21.015  25.441  1.00  0.00    -0.237 OA
ATOM     63  O   UNL A   1      43.114  20.604  25.379  1.00  0.00    -0.744 OA
ENDBRANCH  59  60
ENDBRANCH  40  54
BRANCH  41  64
ATOM     64  C   UNL A   1      41.952  32.052  34.981  1.00  0.00    -0.014 A 
ATOM     65  C   UNL A   1      42.266  33.397  34.726  1.00  0.00     0.010 A 
ATOM     66  C   UNL A   1      41.334  31.710  36.200  1.00  0.00     0.010 A 
ATOM     67  C   UNL A   1      41.965  34.384  35.669  1.00  0.00     0.020 A 
ATOM     68  C   UNL A   1      41.009  32.697  37.132  1.00  0.00     0.020 A 
ATOM     69  C   UNL A   1      41.333  34.028  36.865  1.00  0.00     0.054 A 
BRANCH  69  70
ATOM     70  S   UNL A   1      40.872  35.331  38.040  1.00  0.00     0.124 S 
ATOM     71  O   UNL A   1      40.819  36.510  37.182  1.00  0.00    -0.237 OA
ATOM     72  O   UNL A   1      39.586  34.862  38.550  1.00  0.00    -0.237 OA
ATOM     73  O   UNL A   1      41.962  35.310  39.014  1.00  0.00    -0.744 OA
ENDBRANCH  69  70
ENDBRANCH  41  64
BRANCH  53  74
ATOM     74  C   UNL A   1      46.934  27.232  34.253  1.00  0.00    -0.014 A 
ATOM     75  C   UNL A   1      46.876  26.288  35.294  1.00  0.00     0.010 A 
ATOM     76  C   UNL A   1      48.162  27.845  33.947  1.00  0.00     0.010 A 
ATOM     77  C   UNL A   1      48.022  25.986  36.034  1.00  0.00     0.020 A 
ATOM     78  C   UNL A   1      49.312  27.530  34.672  1.00  0.00     0.020 A 
ATOM     79  C   UNL A   1      49.232  26.612  35.722  1.00  0.00     0.054 A 
BRANCH  79  80
ATOM     80  S   UNL A   1      50.715  26.180  36.672  1.00  0.00     0.124 S 
ATOM     81  O   UNL A   1      51.758  26.911  35.958  1.00  0.00    -0.237 OA
ATOM     82  O   UNL A   1      50.401  26.680  38.009  1.00  0.00    -0.237 OA
ATOM     83  O   UNL A   1      50.786  24.725  36.561  1.00  0.00    -0.744 OA
ENDBRANCH  79  80
ENDBRANCH  53  74
ENDBRANCH  27  28
ENDBRANCH  20  22
ENDBRANCH  19  20
ENDBRANCH   1  19
TORSDOF 18
ENDMDL
