MODEL 1
REMARK VINA RESULT:     -11.2      0.000      0.000
REMARK SMILES CC(C)[C@H](NC(=O)[C@H]1CC(=O)N(c2ccc(F)cc2)C1)C(=O)N1CCC[C@@H]1C(=O)OCCOC(=O)c1ccc(-c2c3nc(c(-c4ccc(S(=O)(=O)[O-])cc4)c4ccc([nH]4)c(-c4ccc(S(=O)(=O)[O-])cc4)c4nc(c(-c5ccc(S(=O)(=O)[O-])cc5)c5ccc2[nH]5)C=C4)C=C3)cc1
REMARK SMILES IDX 31 1 30 2 28 3 29 4 27 5 23 6 24 7 25 8 26 9 21 10 22 11
REMARK SMILES IDX 4 12 2 13 1 14 3 15 5 16 6 17 7 19 8 20 9 21 20 22 10 23
REMARK SMILES IDX 12 24 11 25 13 26 14 27 19 28 15 29 18 30 16 31 17 32 32 33
REMARK SMILES IDX 33 34 34 35 35 36 36 37 37 38 95 39 38 40 94 41 39 42 40 43
REMARK SMILES IDX 41 44 88 45 42 46 93 47 87 48 89 49 43 50 92 51 86 52 85 53
REMARK SMILES IDX 44 55 74 56 55 57 73 58 56 59 59 60 72 61 90 62 57 63 58 64
REMARK SMILES IDX 71 66 91 67 60 68 45 69 46 70 54 71 47 72 53 73 48 74 49 75
REMARK SMILES IDX 50 76 51 77 52 78 75 79 76 80 84 81 77 82 83 83 78 84 79 85
REMARK SMILES IDX 80 86 81 87 82 88 61 89 62 90 70 91 63 92 69 93 64 94 65 95
REMARK SMILES IDX 66 96 67 97 68 98
REMARK H PARENT 5 18 89 54 59 65
REMARK Flexibility Score: inf
ROOT
ATOM      1  C   UNL A   1      36.968  22.198  23.858  1.00  0.00     0.274 C 
ENDROOT
BRANCH   1   2
ATOM      2  O   UNL A   1      35.997  23.141  24.380  1.00  0.00    -0.461 OA
BRANCH   2   3
ATOM      3  C   UNL A   1      34.696  22.885  24.074  1.00  0.00     0.328 C 
ATOM      4  O   UNL A   1      34.223  23.010  22.949  1.00  0.00    -0.250 OA
BRANCH   3   5
ATOM      5  C   UNL A   1      33.861  22.358  25.270  1.00  0.00     0.195 C 
ATOM      6  N   UNL A   1      32.673  23.147  25.593  1.00  0.00    -0.327 N 
ATOM      7  C   UNL A   1      32.212  22.749  26.909  1.00  0.00     0.120 C 
ATOM      8  C   UNL A   1      33.483  22.398  27.678  1.00  0.00     0.024 C 
ATOM      9  C   UNL A   1      34.590  22.339  26.621  1.00  0.00     0.039 C 
BRANCH   6  10
ATOM     10  C   UNL A   1      31.800  23.459  24.579  1.00  0.00     0.246 C 
ATOM     11  O   UNL A   1      31.325  22.559  23.881  1.00  0.00    -0.272 OA
BRANCH  10  12
ATOM     12  C   UNL A   1      31.678  24.946  24.096  1.00  0.00     0.174 C 
BRANCH  12  13
ATOM     13  C   UNL A   1      30.303  25.567  24.575  1.00  0.00     0.015 C 
ATOM     14  C   UNL A   1      30.429  26.147  25.987  1.00  0.00     0.010 C 
ATOM     15  C   UNL A   1      29.660  26.639  23.694  1.00  0.00     0.010 C 
ENDBRANCH  12  13
BRANCH  12  16
ATOM     16  N   UNL A   1      32.204  25.547  22.842  1.00  0.00    -0.344 N 
ATOM     17  C   UNL A   1      33.192  26.390  22.446  1.00  0.00     0.226 C 
ATOM     18  H   UNL A   1      31.679  25.243  22.067  1.00  0.00     0.164 HD
ATOM     19  O   UNL A   1      33.604  26.211  21.292  1.00  0.00    -0.275 OA
BRANCH  17  20
ATOM     20  C   UNL A   1      33.645  27.625  23.204  1.00  0.00     0.107 C 
ATOM     21  C   UNL A   1      32.751  28.821  23.144  1.00  0.00     0.116 C 
ATOM     22  C   UNL A   1      33.872  27.419  24.709  1.00  0.00     0.139 C 
ATOM     23  C   UNL A   1      32.163  28.998  24.492  1.00  0.00     0.227 C 
ATOM     24  N   UNL A   1      33.075  28.427  25.383  1.00  0.00    -0.312 N 
ATOM     25  O   UNL A   1      31.201  29.719  24.715  1.00  0.00    -0.274 OA
BRANCH  24  26
ATOM     26  C   UNL A   1      33.484  29.263  26.453  1.00  0.00     0.044 A 
ATOM     27  C   UNL A   1      32.634  30.313  26.842  1.00  0.00     0.029 A 
ATOM     28  C   UNL A   1      34.810  29.263  26.901  1.00  0.00     0.029 A 
ATOM     29  C   UNL A   1      33.121  31.409  27.549  1.00  0.00     0.041 A 
ATOM     30  C   UNL A   1      35.298  30.363  27.615  1.00  0.00     0.041 A 
ATOM     31  C   UNL A   1      34.458  31.435  27.907  1.00  0.00     0.123 A 
ATOM     32  F   UNL A   1      34.955  32.518  28.516  1.00  0.00    -0.207 F 
ENDBRANCH  24  26
ENDBRANCH  17  20
ENDBRANCH  12  16
ENDBRANCH  10  12
ENDBRANCH   6  10
ENDBRANCH   3   5
ENDBRANCH   2   3
ENDBRANCH   1   2
BRANCH   1  33
ATOM     33  C   UNL A   1      37.738  21.453  24.950  1.00  0.00     0.275 C 
BRANCH  33  34
ATOM     34  O   UNL A   1      38.261  22.388  25.905  1.00  0.00    -0.458 OA
BRANCH  34  35
ATOM     35  C   UNL A   1      39.464  22.080  26.434  1.00  0.00     0.338 C 
ATOM     36  O   UNL A   1      40.109  21.055  26.290  1.00  0.00    -0.246 OA
BRANCH  35  37
ATOM     37  C   UNL A   1      40.014  23.285  27.068  1.00  0.00     0.060 A 
ATOM     38  C   UNL A   1      39.661  24.495  26.487  1.00  0.00     0.016 A 
ATOM     39  C   UNL A   1      40.957  23.252  28.085  1.00  0.00     0.016 A 
ATOM     40  C   UNL A   1      40.267  25.681  26.854  1.00  0.00     0.010 A 
ATOM     41  C   UNL A   1      41.536  24.458  28.508  1.00  0.00     0.010 A 
ATOM     42  C   UNL A   1      41.221  25.676  27.870  1.00  0.00    -0.014 A 
BRANCH  42  43
ATOM     43  C   UNL A   1      41.959  26.933  28.149  1.00  0.00     0.031 A 
ATOM     44  C   UNL A   1      41.252  28.053  28.861  1.00  0.00     0.074 A 
ATOM     45  C   UNL A   1      43.274  27.027  27.870  1.00  0.00     0.049 A 
ATOM     46  N   UNL A   1      41.671  29.265  29.113  1.00  0.00    -0.248 NA
ATOM     47  C   UNL A   1      39.893  27.771  29.355  1.00  0.00     0.031 C 
ATOM     48  C   UNL A   1      44.096  25.966  27.280  1.00  0.00     0.029 A 
ATOM     49  N   UNL A   1      44.160  28.056  28.070  1.00  0.00    -0.354 N 
ATOM     50  C   UNL A   1      40.608  29.907  29.740  1.00  0.00     0.074 A 
ATOM     51  C   UNL A   1      39.526  28.952  29.830  1.00  0.00     0.031 C 
ATOM     52  C   UNL A   1      45.367  26.387  27.196  1.00  0.00     0.029 A 
ATOM     53  C   UNL A   1      45.437  27.774  27.645  1.00  0.00     0.049 A 
ATOM     54  H   UNL A   1      43.906  28.915  28.481  1.00  0.00     0.167 HD
ATOM     55  C   UNL A   1      40.542  31.182  30.192  1.00  0.00     0.031 A 
ATOM     56  C   UNL A   1      46.532  28.557  27.582  1.00  0.00     0.031 A 
ATOM     57  C   UNL A   1      41.638  32.110  30.118  1.00  0.00     0.049 A 
ATOM     58  C   UNL A   1      46.422  29.984  28.040  1.00  0.00     0.074 A 
ATOM     59  C   UNL A   1      41.675  33.436  30.512  1.00  0.00     0.029 A 
ATOM     60  N   UNL A   1      42.900  31.801  29.632  1.00  0.00    -0.354 N 
ATOM     61  N   UNL A   1      45.384  30.606  28.549  1.00  0.00    -0.248 NA
ATOM     62  C   UNL A   1      47.622  30.819  27.906  1.00  0.00     0.031 C 
ATOM     63  C   UNL A   1      42.949  33.939  30.228  1.00  0.00     0.029 A 
ATOM     64  C   UNL A   1      43.722  32.911  29.710  1.00  0.00     0.049 A 
ATOM     65  H   UNL A   1      43.171  30.921  29.283  1.00  0.00     0.167 HD
ATOM     66  C   UNL A   1      45.810  31.902  28.809  1.00  0.00     0.074 A 
ATOM     67  C   UNL A   1      47.206  31.968  28.422  1.00  0.00     0.031 C 
ATOM     68  C   UNL A   1      45.110  32.946  29.320  1.00  0.00     0.031 A 
BRANCH  55  69
ATOM     69  C   UNL A   1      39.222  31.653  30.742  1.00  0.00    -0.014 A 
ATOM     70  C   UNL A   1      38.364  32.480  29.996  1.00  0.00     0.010 A 
ATOM     71  C   UNL A   1      38.836  31.259  32.036  1.00  0.00     0.010 A 
ATOM     72  C   UNL A   1      37.167  32.943  30.553  1.00  0.00     0.020 A 
ATOM     73  C   UNL A   1      37.628  31.695  32.587  1.00  0.00     0.020 A 
ATOM     74  C   UNL A   1      36.810  32.552  31.847  1.00  0.00     0.054 A 
BRANCH  74  75
ATOM     75  S   UNL A   1      35.252  33.162  32.546  1.00  0.00     0.124 S 
ATOM     76  O   UNL A   1      34.263  32.377  31.811  1.00  0.00    -0.237 OA
ATOM     77  O   UNL A   1      35.385  32.835  33.964  1.00  0.00    -0.237 OA
ATOM     78  O   UNL A   1      35.267  34.590  32.236  1.00  0.00    -0.744 OA
ENDBRANCH  74  75
ENDBRANCH  55  69
BRANCH  56  79
ATOM     79  C   UNL A   1      47.799  28.020  27.009  1.00  0.00    -0.014 A 
ATOM     80  C   UNL A   1      48.028  28.024  25.623  1.00  0.00     0.010 A 
ATOM     81  C   UNL A   1      48.801  27.519  27.863  1.00  0.00     0.010 A 
ATOM     82  C   UNL A   1      49.229  27.532  25.102  1.00  0.00     0.020 A 
ATOM     83  C   UNL A   1      50.015  27.055  27.348  1.00  0.00     0.020 A 
ATOM     84  C   UNL A   1      50.217  27.055  25.968  1.00  0.00     0.054 A 
BRANCH  84  85
ATOM     85  S   UNL A   1      51.792  26.478  25.276  1.00  0.00     0.124 S 
ATOM     86  O   UNL A   1      51.856  25.106  25.767  1.00  0.00    -0.237 OA
ATOM     87  O   UNL A   1      51.580  26.626  23.838  1.00  0.00    -0.237 OA
ATOM     88  O   UNL A   1      52.775  27.396  25.849  1.00  0.00    -0.744 OA
ENDBRANCH  84  85
ENDBRANCH  56  79
BRANCH  68  89
ATOM     89  C   UNL A   1      45.856  34.235  29.526  1.00  0.00    -0.014 A 
ATOM     90  C   UNL A   1      46.546  34.497  30.722  1.00  0.00     0.010 A 
ATOM     91  C   UNL A   1      45.907  35.175  28.480  1.00  0.00     0.010 A 
ATOM     92  C   UNL A   1      47.251  35.692  30.880  1.00  0.00     0.020 A 
ATOM     93  C   UNL A   1      46.631  36.359  28.625  1.00  0.00     0.020 A 
ATOM     94  C   UNL A   1      47.287  36.617  29.831  1.00  0.00     0.054 A 
BRANCH  94  95
ATOM     95  S   UNL A   1      48.243  38.144  30.044  1.00  0.00     0.124 S 
ATOM     96  O   UNL A   1      47.254  39.040  30.635  1.00  0.00    -0.237 OA
ATOM     97  O   UNL A   1      49.324  37.724  30.934  1.00  0.00    -0.237 OA
ATOM     98  O   UNL A   1      48.660  38.482  28.685  1.00  0.00    -0.744 OA
ENDBRANCH  94  95
ENDBRANCH  68  89
ENDBRANCH  42  43
ENDBRANCH  35  37
ENDBRANCH  34  35
ENDBRANCH  33  34
ENDBRANCH   1  33
TORSDOF 20
ENDMDL
MODEL 2
REMARK VINA RESULT:     -11.2      0.867      7.836
REMARK SMILES CC(C)[C@H](NC(=O)[C@H]1CC(=O)N(c2ccc(F)cc2)C1)C(=O)N1CCC[C@@H]1C(=O)OCCOC(=O)c1ccc(-c2c3nc(c(-c4ccc(S(=O)(=O)[O-])cc4)c4ccc([nH]4)c(-c4ccc(S(=O)(=O)[O-])cc4)c4nc(c(-c5ccc(S(=O)(=O)[O-])cc5)c5ccc2[nH]5)C=C4)C=C3)cc1
REMARK SMILES IDX 31 1 30 2 28 3 29 4 27 5 23 6 24 7 25 8 26 9 21 10 22 11
REMARK SMILES IDX 4 12 2 13 1 14 3 15 5 16 6 17 7 19 8 20 9 21 20 22 10 23
REMARK SMILES IDX 12 24 11 25 13 26 14 27 19 28 15 29 18 30 16 31 17 32 32 33
REMARK SMILES IDX 33 34 34 35 35 36 36 37 37 38 95 39 38 40 94 41 39 42 40 43
REMARK SMILES IDX 41 44 88 45 42 46 93 47 87 48 89 49 43 50 92 51 86 52 85 53
REMARK SMILES IDX 44 55 74 56 55 57 73 58 56 59 59 60 72 61 90 62 57 63 58 64
REMARK SMILES IDX 71 66 91 67 60 68 45 69 46 70 54 71 47 72 53 73 48 74 49 75
REMARK SMILES IDX 50 76 51 77 52 78 75 79 76 80 84 81 77 82 83 83 78 84 79 85
REMARK SMILES IDX 80 86 81 87 82 88 61 89 62 90 70 91 63 92 69 93 64 94 65 95
REMARK SMILES IDX 66 96 67 97 68 98
REMARK H PARENT 5 18 89 54 59 65
REMARK Flexibility Score: inf
ROOT
ATOM      1  C   UNL A   1      36.940  22.180  23.876  1.00  0.00     0.274 C 
ENDROOT
BRANCH   1   2
ATOM      2  O   UNL A   1      35.959  23.119  24.384  1.00  0.00    -0.461 OA
BRANCH   2   3
ATOM      3  C   UNL A   1      34.658  22.824  24.114  1.00  0.00     0.328 C 
ATOM      4  O   UNL A   1      34.156  22.916  22.998  1.00  0.00    -0.250 OA
BRANCH   3   5
ATOM      5  C   UNL A   1      33.864  22.300  25.339  1.00  0.00     0.195 C 
ATOM      6  N   UNL A   1      32.669  23.071  25.679  1.00  0.00    -0.327 N 
ATOM      7  C   UNL A   1      32.250  22.685  27.013  1.00  0.00     0.120 C 
ATOM      8  C   UNL A   1      33.546  22.372  27.755  1.00  0.00     0.024 C 
ATOM      9  C   UNL A   1      34.628  22.319  26.671  1.00  0.00     0.039 C 
BRANCH   6  10
ATOM     10  C   UNL A   1      31.765  23.348  24.683  1.00  0.00     0.246 C 
ATOM     11  O   UNL A   1      31.269  22.425  24.031  1.00  0.00    -0.272 OA
BRANCH  10  12
ATOM     12  C   UNL A   1      31.625  24.818  24.154  1.00  0.00     0.174 C 
BRANCH  12  13
ATOM     13  C   UNL A   1      30.242  25.437  24.613  1.00  0.00     0.015 C 
ATOM     14  C   UNL A   1      30.352  26.034  26.020  1.00  0.00     0.010 C 
ATOM     15  C   UNL A   1      29.602  26.496  23.714  1.00  0.00     0.010 C 
ENDBRANCH  12  13
BRANCH  12  16
ATOM     16  N   UNL A   1      32.146  25.387  22.883  1.00  0.00    -0.344 N 
ATOM     17  C   UNL A   1      33.120  26.233  22.463  1.00  0.00     0.226 C 
ATOM     18  H   UNL A   1      31.629  25.047  22.117  1.00  0.00     0.164 HD
ATOM     19  O   UNL A   1      33.539  26.024  21.317  1.00  0.00    -0.275 OA
BRANCH  17  20
ATOM     20  C   UNL A   1      33.546  27.502  23.180  1.00  0.00     0.107 C 
ATOM     21  C   UNL A   1      32.661  28.696  23.028  1.00  0.00     0.116 C 
ATOM     22  C   UNL A   1      33.710  27.366  24.701  1.00  0.00     0.139 C 
ATOM     23  C   UNL A   1      32.019  28.937  24.341  1.00  0.00     0.227 C 
ATOM     24  N   UNL A   1      32.890  28.406  25.294  1.00  0.00    -0.312 N 
ATOM     25  O   UNL A   1      31.052  29.671  24.490  1.00  0.00    -0.274 OA
BRANCH  24  26
ATOM     26  C   UNL A   1      33.259  29.290  26.340  1.00  0.00     0.044 A 
ATOM     27  C   UNL A   1      32.403  30.365  26.638  1.00  0.00     0.029 A 
ATOM     28  C   UNL A   1      34.563  29.301  26.849  1.00  0.00     0.029 A 
ATOM     29  C   UNL A   1      32.869  31.490  27.313  1.00  0.00     0.041 A 
ATOM     30  C   UNL A   1      35.029  30.431  27.530  1.00  0.00     0.041 A 
ATOM     31  C   UNL A   1      34.189  31.522  27.731  1.00  0.00     0.123 A 
ATOM     32  F   UNL A   1      34.668  32.629  28.310  1.00  0.00    -0.207 F 
ENDBRANCH  24  26
ENDBRANCH  17  20
ENDBRANCH  12  16
ENDBRANCH  10  12
ENDBRANCH   6  10
ENDBRANCH   3   5
ENDBRANCH   2   3
ENDBRANCH   1   2
BRANCH   1  33
ATOM     33  C   UNL A   1      37.770  21.513  24.975  1.00  0.00     0.275 C 
BRANCH  33  34
ATOM     34  O   UNL A   1      38.232  22.503  25.906  1.00  0.00    -0.458 OA
BRANCH  34  35
ATOM     35  C   UNL A   1      39.454  22.286  26.438  1.00  0.00     0.338 C 
ATOM     36  O   UNL A   1      40.196  21.335  26.256  1.00  0.00    -0.246 OA
BRANCH  35  37
ATOM     37  C   UNL A   1      39.879  23.506  27.136  1.00  0.00     0.060 A 
ATOM     38  C   UNL A   1      39.372  24.699  26.641  1.00  0.00     0.016 A 
ATOM     39  C   UNL A   1      40.848  23.522  28.128  1.00  0.00     0.016 A 
ATOM     40  C   UNL A   1      39.848  25.924  27.070  1.00  0.00     0.010 A 
ATOM     41  C   UNL A   1      41.297  24.758  28.615  1.00  0.00     0.010 A 
ATOM     42  C   UNL A   1      40.824  25.968  28.063  1.00  0.00    -0.014 A 
BRANCH  42  43
ATOM     43  C   UNL A   1      41.420  27.283  28.407  1.00  0.00     0.031 A 
ATOM     44  C   UNL A   1      42.879  27.520  28.132  1.00  0.00     0.074 A 
ATOM     45  C   UNL A   1      40.641  28.288  28.854  1.00  0.00     0.049 A 
ATOM     46  N   UNL A   1      43.622  28.548  28.444  1.00  0.00    -0.248 NA
ATOM     47  C   UNL A   1      43.598  26.456  27.410  1.00  0.00     0.031 C 
ATOM     48  C   UNL A   1      39.191  28.214  29.056  1.00  0.00     0.029 A 
ATOM     49  N   UNL A   1      40.954  29.580  29.194  1.00  0.00    -0.354 N 
ATOM     50  C   UNL A   1      44.905  28.231  28.011  1.00  0.00     0.074 A 
ATOM     51  C   UNL A   1      44.840  26.915  27.414  1.00  0.00     0.031 C 
ATOM     52  C   UNL A   1      38.738  29.413  29.453  1.00  0.00     0.029 A 
ATOM     53  C   UNL A   1      39.872  30.316  29.616  1.00  0.00     0.049 A 
ATOM     54  H   UNL A   1      41.867  29.946  29.140  1.00  0.00     0.167 HD
ATOM     55  C   UNL A   1      46.035  28.970  28.110  1.00  0.00     0.031 A 
ATOM     56  C   UNL A   1      39.805  31.564  30.121  1.00  0.00     0.031 A 
ATOM     57  C   UNL A   1      46.076  30.289  28.683  1.00  0.00     0.049 A 
ATOM     58  C   UNL A   1      41.079  32.348  30.271  1.00  0.00     0.074 A 
ATOM     59  C   UNL A   1      47.168  31.117  28.868  1.00  0.00     0.029 A 
ATOM     60  N   UNL A   1      44.966  30.980  29.148  1.00  0.00    -0.354 N 
ATOM     61  N   UNL A   1      42.301  32.001  29.939  1.00  0.00    -0.248 NA
ATOM     62  C   UNL A   1      40.971  33.683  30.873  1.00  0.00     0.031 C 
ATOM     63  C   UNL A   1      46.723  32.294  29.480  1.00  0.00     0.029 A 
ATOM     64  C   UNL A   1      45.346  32.222  29.624  1.00  0.00     0.049 A 
ATOM     65  H   UNL A   1      44.042  30.637  29.139  1.00  0.00     0.167 HD
ATOM     66  C   UNL A   1      43.106  33.081  30.279  1.00  0.00     0.074 A 
ATOM     67  C   UNL A   1      42.229  34.100  30.822  1.00  0.00     0.031 C 
ATOM     68  C   UNL A   1      44.450  33.217  30.156  1.00  0.00     0.031 A 
BRANCH  55  69
ATOM     69  C   UNL A   1      47.320  28.336  27.647  1.00  0.00    -0.014 A 
ATOM     70  C   UNL A   1      47.680  28.305  26.288  1.00  0.00     0.010 A 
ATOM     71  C   UNL A   1      48.182  27.757  28.595  1.00  0.00     0.010 A 
ATOM     72  C   UNL A   1      48.855  27.664  25.883  1.00  0.00     0.020 A 
ATOM     73  C   UNL A   1      49.372  27.141  28.198  1.00  0.00     0.020 A 
ATOM     74  C   UNL A   1      49.691  27.082  26.841  1.00  0.00     0.054 A 
BRANCH  74  75
ATOM     75  S   UNL A   1      51.211  26.260  26.290  1.00  0.00     0.124 S 
ATOM     76  O   UNL A   1      50.935  24.863  26.616  1.00  0.00    -0.237 OA
ATOM     77  O   UNL A   1      51.250  26.576  24.865  1.00  0.00    -0.237 OA
ATOM     78  O   UNL A   1      52.257  26.890  27.093  1.00  0.00    -0.744 OA
ENDBRANCH  74  75
ENDBRANCH  55  69
BRANCH  56  79
ATOM     79  C   UNL A   1      38.496  32.116  30.571  1.00  0.00    -0.014 A 
ATOM     80  C   UNL A   1      37.997  31.841  31.856  1.00  0.00     0.010 A 
ATOM     81  C   UNL A   1      37.748  32.946  29.714  1.00  0.00     0.010 A 
ATOM     82  C   UNL A   1      36.774  32.380  32.271  1.00  0.00     0.020 A 
ATOM     83  C   UNL A   1      36.542  33.511  30.136  1.00  0.00     0.020 A 
ATOM     84  C   UNL A   1      36.056  33.215  31.410  1.00  0.00     0.054 A 
BRANCH  84  85
ATOM     85  S   UNL A   1      34.503  33.952  31.991  1.00  0.00     0.124 S 
ATOM     86  O   UNL A   1      33.880  34.371  30.740  1.00  0.00    -0.237 OA
ATOM     87  O   UNL A   1      33.858  32.835  32.676  1.00  0.00    -0.237 OA
ATOM     88  O   UNL A   1      34.945  35.036  32.866  1.00  0.00    -0.744 OA
ENDBRANCH  84  85
ENDBRANCH  56  79
BRANCH  68  89
ATOM     89  C   UNL A   1      45.046  34.531  30.581  1.00  0.00    -0.014 A 
ATOM     90  C   UNL A   1      45.474  34.746  31.902  1.00  0.00     0.010 A 
ATOM     91  C   UNL A   1      45.227  35.546  29.623  1.00  0.00     0.010 A 
ATOM     92  C   UNL A   1      46.047  35.967  32.265  1.00  0.00     0.020 A 
ATOM     93  C   UNL A   1      45.822  36.758  29.977  1.00  0.00     0.020 A 
ATOM     94  C   UNL A   1      46.216  36.965  31.302  1.00  0.00     0.054 A 
BRANCH  94  95
ATOM     95  S   UNL A   1      46.999  38.528  31.787  1.00  0.00     0.124 S 
ATOM     96  O   UNL A   1      45.996  39.508  31.383  1.00  0.00    -0.237 OA
ATOM     97  O   UNL A   1      47.173  38.365  33.229  1.00  0.00    -0.237 OA
ATOM     98  O   UNL A   1      48.239  38.547  31.015  1.00  0.00    -0.744 OA
ENDBRANCH  94  95
ENDBRANCH  68  89
ENDBRANCH  42  43
ENDBRANCH  35  37
ENDBRANCH  34  35
ENDBRANCH  33  34
ENDBRANCH   1  33
TORSDOF 20
ENDMDL
MODEL 3
REMARK VINA RESULT:     -10.9      2.363      3.313
REMARK SMILES CC(C)[C@H](NC(=O)[C@H]1CC(=O)N(c2ccc(F)cc2)C1)C(=O)N1CCC[C@@H]1C(=O)OCCOC(=O)c1ccc(-c2c3nc(c(-c4ccc(S(=O)(=O)[O-])cc4)c4ccc([nH]4)c(-c4ccc(S(=O)(=O)[O-])cc4)c4nc(c(-c5ccc(S(=O)(=O)[O-])cc5)c5ccc2[nH]5)C=C4)C=C3)cc1
REMARK SMILES IDX 31 1 30 2 28 3 29 4 27 5 23 6 24 7 25 8 26 9 21 10 22 11
REMARK SMILES IDX 4 12 2 13 1 14 3 15 5 16 6 17 7 19 8 20 9 21 20 22 10 23
REMARK SMILES IDX 12 24 11 25 13 26 14 27 19 28 15 29 18 30 16 31 17 32 32 33
REMARK SMILES IDX 33 34 34 35 35 36 36 37 37 38 95 39 38 40 94 41 39 42 40 43
REMARK SMILES IDX 41 44 88 45 42 46 93 47 87 48 89 49 43 50 92 51 86 52 85 53
REMARK SMILES IDX 44 55 74 56 55 57 73 58 56 59 59 60 72 61 90 62 57 63 58 64
REMARK SMILES IDX 71 66 91 67 60 68 45 69 46 70 54 71 47 72 53 73 48 74 49 75
REMARK SMILES IDX 50 76 51 77 52 78 75 79 76 80 84 81 77 82 83 83 78 84 79 85
REMARK SMILES IDX 80 86 81 87 82 88 61 89 62 90 70 91 63 92 69 93 64 94 65 95
REMARK SMILES IDX 66 96 67 97 68 98
REMARK H PARENT 5 18 89 54 59 65
REMARK Flexibility Score: inf
ROOT
ATOM      1  C   UNL A   1      38.003  21.265  25.321  1.00  0.00     0.274 C 
ENDROOT
BRANCH   1   2
ATOM      2  O   UNL A   1      36.723  21.557  25.936  1.00  0.00    -0.461 OA
BRANCH   2   3
ATOM      3  C   UNL A   1      35.843  22.261  25.172  1.00  0.00     0.328 C 
ATOM      4  O   UNL A   1      36.093  23.355  24.677  1.00  0.00    -0.250 OA
BRANCH   3   5
ATOM      5  C   UNL A   1      34.498  21.528  24.928  1.00  0.00     0.195 C 
ATOM      6  N   UNL A   1      33.613  21.454  26.089  1.00  0.00    -0.327 N 
ATOM      7  C   UNL A   1      32.590  20.464  25.812  1.00  0.00     0.120 C 
ATOM      8  C   UNL A   1      33.285  19.413  24.950  1.00  0.00     0.024 C 
ATOM      9  C   UNL A   1      34.619  20.047  24.541  1.00  0.00     0.039 C 
BRANCH   6  10
ATOM     10  C   UNL A   1      33.340  22.610  26.778  1.00  0.00     0.246 C 
ATOM     11  O   UNL A   1      33.435  22.628  28.009  1.00  0.00    -0.272 OA
BRANCH  10  12
ATOM     12  C   UNL A   1      32.591  23.783  26.053  1.00  0.00     0.174 C 
BRANCH  12  13
ATOM     13  C   UNL A   1      31.152  23.312  25.591  1.00  0.00     0.015 C 
ATOM     14  C   UNL A   1      30.063  23.967  26.448  1.00  0.00     0.010 C 
ATOM     15  C   UNL A   1      30.771  23.522  24.125  1.00  0.00     0.010 C 
ENDBRANCH  12  13
BRANCH  12  16
ATOM     16  N   UNL A   1      33.175  24.855  25.204  1.00  0.00    -0.344 N 
ATOM     17  C   UNL A   1      33.042  26.191  25.007  1.00  0.00     0.226 C 
ATOM     18  H   UNL A   1      33.862  24.484  24.605  1.00  0.00     0.164 HD
ATOM     19  O   UNL A   1      34.060  26.765  24.598  1.00  0.00    -0.275 OA
BRANCH  17  20
ATOM     20  C   UNL A   1      31.729  26.954  25.032  1.00  0.00     0.107 C 
ATOM     21  C   UNL A   1      31.649  28.133  25.946  1.00  0.00     0.116 C 
ATOM     22  C   UNL A   1      31.278  27.517  23.676  1.00  0.00     0.139 C 
ATOM     23  C   UNL A   1      31.595  29.345  25.096  1.00  0.00     0.227 C 
ATOM     24  N   UNL A   1      31.043  28.935  23.882  1.00  0.00    -0.312 N 
ATOM     25  O   UNL A   1      31.783  30.474  25.527  1.00  0.00    -0.274 OA
BRANCH  24  26
ATOM     26  C   UNL A   1      29.926  29.686  23.436  1.00  0.00     0.044 A 
ATOM     27  C   UNL A   1      29.480  29.498  22.115  1.00  0.00     0.029 A 
ATOM     28  C   UNL A   1      29.475  30.801  24.151  1.00  0.00     0.029 A 
ATOM     29  C   UNL A   1      28.710  30.464  21.472  1.00  0.00     0.041 A 
ATOM     30  C   UNL A   1      28.698  31.769  23.505  1.00  0.00     0.041 A 
ATOM     31  C   UNL A   1      28.348  31.605  22.167  1.00  0.00     0.123 A 
ATOM     32  F   UNL A   1      27.676  32.574  21.535  1.00  0.00    -0.207 F 
ENDBRANCH  24  26
ENDBRANCH  17  20
ENDBRANCH  12  16
ENDBRANCH  10  12
ENDBRANCH   6  10
ENDBRANCH   3   5
ENDBRANCH   2   3
ENDBRANCH   1   2
BRANCH   1  33
ATOM     33  C   UNL A   1      39.198  21.770  26.134  1.00  0.00     0.275 C 
BRANCH  33  34
ATOM     34  O   UNL A   1      39.807  20.676  26.837  1.00  0.00    -0.458 OA
BRANCH  34  35
ATOM     35  C   UNL A   1      41.019  20.288  26.386  1.00  0.00     0.338 C 
ATOM     36  O   UNL A   1      41.316  19.244  25.831  1.00  0.00    -0.246 OA
BRANCH  35  37
ATOM     37  C   UNL A   1      41.933  21.434  26.471  1.00  0.00     0.060 A 
ATOM     38  C   UNL A   1      42.287  21.838  27.751  1.00  0.00     0.016 A 
ATOM     39  C   UNL A   1      42.315  22.192  25.373  1.00  0.00     0.016 A 
ATOM     40  C   UNL A   1      42.969  23.019  27.977  1.00  0.00     0.010 A 
ATOM     41  C   UNL A   1      43.060  23.361  25.585  1.00  0.00     0.010 A 
ATOM     42  C   UNL A   1      43.360  23.801  26.892  1.00  0.00    -0.014 A 
BRANCH  42  43
ATOM     43  C   UNL A   1      43.965  25.129  27.163  1.00  0.00     0.031 A 
ATOM     44  C   UNL A   1      43.105  26.220  27.738  1.00  0.00     0.074 A 
ATOM     45  C   UNL A   1      45.289  25.321  27.002  1.00  0.00     0.049 A 
ATOM     46  N   UNL A   1      43.398  27.475  27.955  1.00  0.00    -0.248 NA
ATOM     47  C   UNL A   1      41.731  25.849  28.119  1.00  0.00     0.031 C 
ATOM     48  C   UNL A   1      46.247  24.305  26.555  1.00  0.00     0.029 A 
ATOM     49  N   UNL A   1      46.066  26.430  27.222  1.00  0.00    -0.354 N 
ATOM     50  C   UNL A   1      42.231  28.056  28.440  1.00  0.00     0.074 A 
ATOM     51  C   UNL A   1      41.225  27.017  28.486  1.00  0.00     0.031 C 
ATOM     52  C   UNL A   1      47.482  24.828  26.565  1.00  0.00     0.029 A 
ATOM     53  C   UNL A   1      47.396  26.237  26.934  1.00  0.00     0.049 A 
ATOM     54  H   UNL A   1      45.706  27.284  27.555  1.00  0.00     0.167 HD
ATOM     55  C   UNL A   1      42.020  29.341  28.808  1.00  0.00     0.031 A 
ATOM     56  C   UNL A   1      48.426  27.106  26.926  1.00  0.00     0.031 A 
ATOM     57  C   UNL A   1      43.039  30.355  28.781  1.00  0.00     0.049 A 
ATOM     58  C   UNL A   1      48.158  28.540  27.286  1.00  0.00     0.074 A 
ATOM     59  C   UNL A   1      42.931  31.697  29.097  1.00  0.00     0.029 A 
ATOM     60  N   UNL A   1      44.364  30.130  28.433  1.00  0.00    -0.354 N 
ATOM     61  N   UNL A   1      47.029  29.097  27.658  1.00  0.00    -0.248 NA
ATOM     62  C   UNL A   1      49.295  29.467  27.215  1.00  0.00     0.031 C 
ATOM     63  C   UNL A   1      44.183  32.292  28.902  1.00  0.00     0.029 A 
ATOM     64  C   UNL A   1      45.083  31.309  28.521  1.00  0.00     0.049 A 
ATOM     65  H   UNL A   1      44.737  29.259  28.164  1.00  0.00     0.167 HD
ATOM     66  C   UNL A   1      47.322  30.437  27.880  1.00  0.00     0.074 A 
ATOM     67  C   UNL A   1      48.739  30.602  27.620  1.00  0.00     0.031 C 
ATOM     68  C   UNL A   1      46.495  31.442  28.260  1.00  0.00     0.031 A 
BRANCH  55  69
ATOM     69  C   UNL A   1      40.618  29.726  29.204  1.00  0.00    -0.014 A 
ATOM     70  C   UNL A   1      39.530  29.554  28.330  1.00  0.00     0.010 A 
ATOM     71  C   UNL A   1      40.390  30.274  30.479  1.00  0.00     0.010 A 
ATOM     72  C   UNL A   1      38.249  29.968  28.707  1.00  0.00     0.020 A 
ATOM     73  C   UNL A   1      39.106  30.662  30.872  1.00  0.00     0.020 A 
ATOM     74  C   UNL A   1      38.047  30.524  29.974  1.00  0.00     0.054 A 
BRANCH  74  75
ATOM     75  S   UNL A   1      36.374  31.050  30.441  1.00  0.00     0.124 S 
ATOM     76  O   UNL A   1      35.700  31.099  29.146  1.00  0.00    -0.237 OA
ATOM     77  O   UNL A   1      35.939  29.979  31.334  1.00  0.00    -0.237 OA
ATOM     78  O   UNL A   1      36.584  32.345  31.084  1.00  0.00    -0.744 OA
ENDBRANCH  74  75
ENDBRANCH  55  69
BRANCH  56  79
ATOM     79  C   UNL A   1      49.782  26.650  26.508  1.00  0.00    -0.014 A 
ATOM     80  C   UNL A   1      50.662  26.052  27.425  1.00  0.00     0.010 A 
ATOM     81  C   UNL A   1      50.191  26.794  25.167  1.00  0.00     0.010 A 
ATOM     82  C   UNL A   1      51.925  25.613  27.014  1.00  0.00     0.020 A 
ATOM     83  C   UNL A   1      51.439  26.329  24.746  1.00  0.00     0.020 A 
ATOM     84  C   UNL A   1      52.304  25.751  25.675  1.00  0.00     0.054 A 
BRANCH  84  85
ATOM     85  S   UNL A   1      53.922  25.120  25.149  1.00  0.00     0.124 S 
ATOM     86  O   UNL A   1      53.656  23.694  24.994  1.00  0.00    -0.237 OA
ATOM     87  O   UNL A   1      54.164  25.857  23.912  1.00  0.00    -0.237 OA
ATOM     88  O   UNL A   1      54.805  25.475  26.258  1.00  0.00    -0.744 OA
ENDBRANCH  84  85
ENDBRANCH  56  79
BRANCH  68  89
ATOM     89  C   UNL A   1      47.111  32.799  28.457  1.00  0.00    -0.014 A 
ATOM     90  C   UNL A   1      47.661  33.179  29.693  1.00  0.00     0.010 A 
ATOM     91  C   UNL A   1      47.185  33.686  27.367  1.00  0.00     0.010 A 
ATOM     92  C   UNL A   1      48.249  34.437  29.844  1.00  0.00     0.020 A 
ATOM     93  C   UNL A   1      47.794  34.934  27.508  1.00  0.00     0.020 A 
ATOM     94  C   UNL A   1      48.310  35.307  28.751  1.00  0.00     0.054 A 
BRANCH  94  95
ATOM     95  S   UNL A   1      49.116  36.919  28.959  1.00  0.00     0.124 S 
ATOM     96  O   UNL A   1      48.120  37.829  28.401  1.00  0.00    -0.237 OA
ATOM     97  O   UNL A   1      49.300  37.001  30.407  1.00  0.00    -0.237 OA
ATOM     98  O   UNL A   1      50.348  36.792  28.187  1.00  0.00    -0.744 OA
ENDBRANCH  94  95
ENDBRANCH  68  89
ENDBRANCH  42  43
ENDBRANCH  35  37
ENDBRANCH  34  35
ENDBRANCH  33  34
ENDBRANCH   1  33
TORSDOF 20
ENDMDL
