MODEL 1
REMARK VINA RESULT:     -10.1      0.000      0.000
REMARK SMILES CCC1(CC)CCN(c2nc(C(C)C)c(C(=O)OCCOC(=O)c3ccc(-c4c5nc(c(-c6ccc(S(=O)(=O)[O-])cc6)c6ccc([nH]6)c(-c6ccc(S(=O)(=O)[O-])cc6)c6nc(c(-c7ccc(S(=O)(=O)[O-])cc7)c7ccc4[nH]7)C=C6)C=C5)cc3)s2)C1
REMARK SMILES IDX 20 1 19 2 18 3 16 4 17 5 15 6 9 7 10 8 84 9 11 10 8 11 3 12
REMARK SMILES IDX 6 13 85 14 7 15 2 16 1 17 4 18 5 19 12 20 13 21 14 22 21 23
REMARK SMILES IDX 22 24 23 25 24 26 25 27 83 28 26 29 82 30 27 31 28 32 29 33
REMARK SMILES IDX 76 34 30 35 81 36 75 37 77 38 31 39 80 40 74 41 73 42 32 44
REMARK SMILES IDX 62 45 43 46 61 47 44 48 47 49 60 50 78 51 45 52 46 53 59 55
REMARK SMILES IDX 79 56 48 57 33 58 34 59 42 60 35 61 41 62 36 63 37 64 38 65
REMARK SMILES IDX 39 66 40 67 63 68 64 69 72 70 65 71 71 72 66 73 67 74 68 75
REMARK SMILES IDX 69 76 70 77 49 78 50 79 58 80 51 81 57 82 52 83 53 84 54 85
REMARK SMILES IDX 55 86 56 87
REMARK H PARENT 77 43 47 54
REMARK Flexibility Score: inf
ROOT
ATOM      1  C   UNL A   1      32.515  31.984  27.234  1.00  0.00     0.275 C 
ENDROOT
BRANCH   1   2
ATOM      2  C   UNL A   1      32.904  30.505  27.151  1.00  0.00     0.275 C 
BRANCH   2   3
ATOM      3  O   UNL A   1      31.875  29.736  26.497  1.00  0.00    -0.458 OA
BRANCH   3   4
ATOM      4  C   UNL A   1      31.645  28.469  26.942  1.00  0.00     0.350 C 
ATOM      5  O   UNL A   1      31.152  28.219  28.034  1.00  0.00    -0.245 OA
BRANCH   4   6
ATOM      6  C   UNL A   1      31.986  27.495  25.923  1.00  0.00     0.137 A 
ATOM      7  C   UNL A   1      33.097  25.648  24.763  1.00  0.00     0.186 A 
ATOM      8  N   UNL A   1      31.981  25.967  24.147  1.00  0.00    -0.224 NA
ATOM      9  S   UNL A   1      33.519  26.716  26.032  1.00  0.00    -0.089 S 
ATOM     10  C   UNL A   1      31.345  27.050  24.773  1.00  0.00     0.071 A 
BRANCH   7  11
ATOM     11  N   UNL A   1      33.955  24.672  24.397  1.00  0.00    -0.347 N 
ATOM     12  C   UNL A   1      35.262  22.677  24.403  1.00  0.00    -0.011 C 
ATOM     13  C   UNL A   1      34.633  22.920  23.010  1.00  0.00     0.030 C 
ATOM     14  C   UNL A   1      34.424  23.634  25.303  1.00  0.00     0.126 C 
ATOM     15  C   UNL A   1      34.186  24.374  23.005  1.00  0.00     0.119 C 
BRANCH  12  16
ATOM     16  C   UNL A   1      36.797  22.964  24.404  1.00  0.00     0.005 C 
ATOM     17  C   UNL A   1      37.398  23.721  25.579  1.00  0.00     0.004 C 
ENDBRANCH  12  16
BRANCH  12  18
ATOM     18  C   UNL A   1      35.038  21.199  24.833  1.00  0.00     0.005 C 
ATOM     19  C   UNL A   1      33.652  20.642  24.518  1.00  0.00     0.004 C 
ENDBRANCH  12  18
ENDBRANCH   7  11
BRANCH  10  20
ATOM     20  C   UNL A   1      30.120  27.607  24.082  1.00  0.00     0.034 C 
ATOM     21  C   UNL A   1      30.428  28.310  22.760  1.00  0.00     0.014 C 
ATOM     22  C   UNL A   1      28.995  26.574  23.939  1.00  0.00     0.014 C 
ENDBRANCH  10  20
ENDBRANCH   4   6
ENDBRANCH   3   4
ENDBRANCH   2   3
ENDBRANCH   1   2
BRANCH   1  23
ATOM     23  O   UNL A   1      33.683  32.814  27.349  1.00  0.00    -0.458 OA
BRANCH  23  24
ATOM     24  C   UNL A   1      33.647  33.699  28.370  1.00  0.00     0.338 C 
ATOM     25  O   UNL A   1      32.772  34.513  28.614  1.00  0.00    -0.246 OA
BRANCH  24  26
ATOM     26  C   UNL A   1      34.759  33.417  29.285  1.00  0.00     0.060 A 
ATOM     27  C   UNL A   1      35.970  34.055  29.026  1.00  0.00     0.016 A 
ATOM     28  C   UNL A   1      34.655  32.491  30.318  1.00  0.00     0.016 A 
ATOM     29  C   UNL A   1      37.108  33.745  29.755  1.00  0.00     0.010 A 
ATOM     30  C   UNL A   1      35.791  32.203  31.081  1.00  0.00     0.010 A 
ATOM     31  C   UNL A   1      37.030  32.810  30.788  1.00  0.00    -0.014 A 
BRANCH  31  32
ATOM     32  C   UNL A   1      38.256  32.406  31.512  1.00  0.00     0.031 A 
ATOM     33  C   UNL A   1      39.133  31.337  30.924  1.00  0.00     0.074 A 
ATOM     34  C   UNL A   1      38.587  32.997  32.675  1.00  0.00     0.049 A 
ATOM     35  N   UNL A   1      40.137  30.700  31.463  1.00  0.00    -0.248 NA
ATOM     36  C   UNL A   1      38.825  30.924  29.544  1.00  0.00     0.031 C 
ATOM     37  C   UNL A   1      37.869  34.112  33.296  1.00  0.00     0.029 A 
ATOM     38  N   UNL A   1      39.614  32.735  33.547  1.00  0.00    -0.354 N 
ATOM     39  C   UNL A   1      40.551  29.776  30.511  1.00  0.00     0.074 A 
ATOM     40  C   UNL A   1      39.682  29.930  29.365  1.00  0.00     0.031 C 
ATOM     41  C   UNL A   1      38.481  34.441  34.445  1.00  0.00     0.029 A 
ATOM     42  C   UNL A   1      39.581  33.513  34.679  1.00  0.00     0.049 A 
ATOM     43  H   UNL A   1      40.306  32.056  33.377  1.00  0.00     0.167 HD
ATOM     44  C   UNL A   1      41.560  28.876  30.594  1.00  0.00     0.031 A 
ATOM     45  C   UNL A   1      40.325  33.454  35.800  1.00  0.00     0.031 A 
ATOM     46  C   UNL A   1      42.416  28.747  31.743  1.00  0.00     0.049 A 
ATOM     47  C   UNL A   1      41.385  32.392  35.909  1.00  0.00     0.074 A 
ATOM     48  C   UNL A   1      43.464  27.866  31.944  1.00  0.00     0.029 A 
ATOM     49  N   UNL A   1      42.324  29.526  32.889  1.00  0.00    -0.354 N 
ATOM     50  N   UNL A   1      41.736  31.486  35.026  1.00  0.00    -0.248 NA
ATOM     51  C   UNL A   1      42.146  32.340  37.164  1.00  0.00     0.031 C 
ATOM     52  C   UNL A   1      43.970  28.078  33.231  1.00  0.00     0.029 A 
ATOM     53  C   UNL A   1      43.283  29.137  33.806  1.00  0.00     0.049 A 
ATOM     54  H   UNL A   1      41.672  30.251  33.027  1.00  0.00     0.167 HD
ATOM     55  C   UNL A   1      42.781  30.776  35.606  1.00  0.00     0.074 A 
ATOM     56  C   UNL A   1      43.006  31.362  36.914  1.00  0.00     0.031 C 
ATOM     57  C   UNL A   1      43.494  29.740  35.099  1.00  0.00     0.031 A 
BRANCH  44  58
ATOM     58  C   UNL A   1      41.740  27.928  29.437  1.00  0.00    -0.014 A 
ATOM     59  C   UNL A   1      40.988  26.746  29.325  1.00  0.00     0.010 A 
ATOM     60  C   UNL A   1      42.693  28.227  28.445  1.00  0.00     0.010 A 
ATOM     61  C   UNL A   1      41.226  25.851  28.277  1.00  0.00     0.020 A 
ATOM     62  C   UNL A   1      42.912  27.351  27.378  1.00  0.00     0.020 A 
ATOM     63  C   UNL A   1      42.194  26.156  27.315  1.00  0.00     0.054 A 
BRANCH  63  64
ATOM     64  S   UNL A   1      42.495  24.972  25.974  1.00  0.00     0.124 S 
ATOM     65  O   UNL A   1      41.497  23.941  26.254  1.00  0.00    -0.237 OA
ATOM     66  O   UNL A   1      42.249  25.773  24.777  1.00  0.00    -0.237 OA
ATOM     67  O   UNL A   1      43.883  24.565  26.174  1.00  0.00    -0.744 OA
ENDBRANCH  63  64
ENDBRANCH  44  58
BRANCH  45  68
ATOM     68  C   UNL A   1      40.064  34.408  36.912  1.00  0.00    -0.014 A 
ATOM     69  C   UNL A   1      40.651  35.686  36.907  1.00  0.00     0.010 A 
ATOM     70  C   UNL A   1      39.194  34.061  37.963  1.00  0.00     0.010 A 
ATOM     71  C   UNL A   1      40.373  36.597  37.932  1.00  0.00     0.020 A 
ATOM     72  C   UNL A   1      38.891  34.979  38.972  1.00  0.00     0.020 A 
ATOM     73  C   UNL A   1      39.488  36.239  38.954  1.00  0.00     0.054 A 
BRANCH  73  74
ATOM     74  S   UNL A   1      39.089  37.464  40.231  1.00  0.00     0.124 S 
ATOM     75  O   UNL A   1      38.467  36.638  41.261  1.00  0.00    -0.237 OA
ATOM     76  O   UNL A   1      40.402  38.010  40.566  1.00  0.00    -0.237 OA
ATOM     77  O   UNL A   1      38.193  38.393  39.548  1.00  0.00    -0.744 OA
ENDBRANCH  73  74
ENDBRANCH  45  68
BRANCH  57  78
ATOM     78  C   UNL A   1      44.629  29.208  35.933  1.00  0.00    -0.014 A 
ATOM     79  C   UNL A   1      44.431  28.192  36.884  1.00  0.00     0.010 A 
ATOM     80  C   UNL A   1      45.932  29.687  35.699  1.00  0.00     0.010 A 
ATOM     81  C   UNL A   1      45.515  27.678  37.599  1.00  0.00     0.020 A 
ATOM     82  C   UNL A   1      47.021  29.156  36.393  1.00  0.00     0.020 A 
ATOM     83  C   UNL A   1      46.804  28.160  37.346  1.00  0.00     0.054 A 
BRANCH  83  84
ATOM     84  S   UNL A   1      48.201  27.429  38.241  1.00  0.00     0.124 S 
ATOM     85  O   UNL A   1      48.226  26.069  37.708  1.00  0.00    -0.237 OA
ATOM     86  O   UNL A   1      49.318  28.282  37.844  1.00  0.00    -0.237 OA
ATOM     87  O   UNL A   1      47.809  27.540  39.646  1.00  0.00    -0.744 OA
ENDBRANCH  83  84
ENDBRANCH  57  78
ENDBRANCH  31  32
ENDBRANCH  24  26
ENDBRANCH  23  24
ENDBRANCH   1  23
TORSDOF 18
ENDMDL
MODEL 2
REMARK VINA RESULT:     -10.1      5.945     10.425
REMARK SMILES CCC1(CC)CCN(c2nc(C(C)C)c(C(=O)OCCOC(=O)c3ccc(-c4c5nc(c(-c6ccc(S(=O)(=O)[O-])cc6)c6ccc([nH]6)c(-c6ccc(S(=O)(=O)[O-])cc6)c6nc(c(-c7ccc(S(=O)(=O)[O-])cc7)c7ccc4[nH]7)C=C6)C=C5)cc3)s2)C1
REMARK SMILES IDX 20 1 19 2 18 3 16 4 17 5 15 6 9 7 10 8 84 9 11 10 8 11 3 12
REMARK SMILES IDX 6 13 85 14 7 15 2 16 1 17 4 18 5 19 12 20 13 21 14 22 21 23
REMARK SMILES IDX 22 24 23 25 24 26 25 27 83 28 26 29 82 30 27 31 28 32 29 33
REMARK SMILES IDX 76 34 30 35 81 36 75 37 77 38 31 39 80 40 74 41 73 42 32 44
REMARK SMILES IDX 62 45 43 46 61 47 44 48 47 49 60 50 78 51 45 52 46 53 59 55
REMARK SMILES IDX 79 56 48 57 33 58 34 59 42 60 35 61 41 62 36 63 37 64 38 65
REMARK SMILES IDX 39 66 40 67 63 68 64 69 72 70 65 71 71 72 66 73 67 74 68 75
REMARK SMILES IDX 69 76 70 77 49 78 50 79 58 80 51 81 57 82 52 83 53 84 54 85
REMARK SMILES IDX 55 86 56 87
REMARK H PARENT 77 43 47 54
REMARK Flexibility Score: inf
ROOT
ATOM      1  C   UNL A   1      34.595  30.512  27.935  1.00  0.00     0.275 C 
ENDROOT
BRANCH   1   2
ATOM      2  C   UNL A   1      33.578  29.539  27.332  1.00  0.00     0.275 C 
BRANCH   2   3
ATOM      3  O   UNL A   1      33.452  29.741  25.910  1.00  0.00    -0.458 OA
BRANCH   3   4
ATOM      4  C   UNL A   1      32.210  29.638  25.358  1.00  0.00     0.350 C 
ATOM      5  O   UNL A   1      31.374  30.530  25.413  1.00  0.00    -0.245 OA
BRANCH   4   6
ATOM      6  C   UNL A   1      32.064  28.382  24.647  1.00  0.00     0.137 A 
ATOM      7  C   UNL A   1      32.503  26.114  23.837  1.00  0.00     0.186 A 
ATOM      8  N   UNL A   1      31.271  26.471  23.548  1.00  0.00    -0.224 NA
ATOM      9  S   UNL A   1      33.455  27.376  24.495  1.00  0.00    -0.089 S 
ATOM     10  C   UNL A   1      31.009  27.784  23.970  1.00  0.00     0.071 A 
BRANCH   7  11
ATOM     11  N   UNL A   1      33.076  24.928  23.542  1.00  0.00    -0.347 N 
ATOM     12  C   UNL A   1      33.859  22.681  23.703  1.00  0.00    -0.011 C 
ATOM     13  C   UNL A   1      33.225  22.946  22.316  1.00  0.00     0.030 C 
ATOM     14  C   UNL A   1      33.333  23.892  24.530  1.00  0.00     0.126 C 
ATOM     15  C   UNL A   1      33.144  24.459  22.179  1.00  0.00     0.119 C 
BRANCH  12  16
ATOM     16  C   UNL A   1      35.414  22.580  23.619  1.00  0.00     0.005 C 
ATOM     17  C   UNL A   1      36.255  23.545  24.441  1.00  0.00     0.004 C 
ENDBRANCH  12  16
BRANCH  12  18
ATOM     18  C   UNL A   1      33.310  21.349  24.289  1.00  0.00     0.005 C 
ATOM     19  C   UNL A   1      34.372  20.418  24.871  1.00  0.00     0.004 C 
ENDBRANCH  12  18
ENDBRANCH   7  11
BRANCH  10  20
ATOM     20  C   UNL A   1      29.671  28.367  23.573  1.00  0.00     0.034 C 
ATOM     21  C   UNL A   1      29.730  29.242  22.322  1.00  0.00     0.014 C 
ATOM     22  C   UNL A   1      28.562  27.311  23.489  1.00  0.00     0.014 C 
ENDBRANCH  10  20
ENDBRANCH   4   6
ENDBRANCH   3   4
ENDBRANCH   2   3
ENDBRANCH   1   2
BRANCH   1  23
ATOM     23  O   UNL A   1      35.556  29.811  28.742  1.00  0.00    -0.458 OA
BRANCH  23  24
ATOM     24  C   UNL A   1      36.243  30.591  29.607  1.00  0.00     0.338 C 
ATOM     25  O   UNL A   1      35.787  31.285  30.501  1.00  0.00    -0.246 OA
BRANCH  24  26
ATOM     26  C   UNL A   1      37.679  30.343  29.436  1.00  0.00     0.060 A 
ATOM     27  C   UNL A   1      38.118  30.026  28.153  1.00  0.00     0.016 A 
ATOM     28  C   UNL A   1      38.563  30.333  30.509  1.00  0.00     0.016 A 
ATOM     29  C   UNL A   1      39.432  29.646  27.924  1.00  0.00     0.010 A 
ATOM     30  C   UNL A   1      39.899  29.985  30.277  1.00  0.00     0.010 A 
ATOM     31  C   UNL A   1      40.335  29.617  28.988  1.00  0.00    -0.014 A 
BRANCH  31  32
ATOM     32  C   UNL A   1      41.714  29.125  28.772  1.00  0.00     0.031 A 
ATOM     33  C   UNL A   1      42.861  30.087  28.902  1.00  0.00     0.074 A 
ATOM     34  C   UNL A   1      41.939  27.833  28.474  1.00  0.00     0.049 A 
ATOM     35  N   UNL A   1      44.116  29.929  28.578  1.00  0.00    -0.248 NA
ATOM     36  C   UNL A   1      42.544  31.411  29.464  1.00  0.00     0.031 C 
ATOM     37  C   UNL A   1      40.918  26.784  28.416  1.00  0.00     0.029 A 
ATOM     38  N   UNL A   1      43.104  27.180  28.158  1.00  0.00    -0.354 N 
ATOM     39  C   UNL A   1      44.730  31.146  28.848  1.00  0.00     0.074 A 
ATOM     40  C   UNL A   1      43.707  32.035  29.352  1.00  0.00     0.031 C 
ATOM     41  C   UNL A   1      41.502  25.620  28.089  1.00  0.00     0.029 A 
ATOM     42  C   UNL A   1      42.920  25.856  27.839  1.00  0.00     0.049 A 
ATOM     43  H   UNL A   1      43.985  27.619  28.159  1.00  0.00     0.167 HD
ATOM     44  C   UNL A   1      46.030  31.488  28.679  1.00  0.00     0.031 A 
ATOM     45  C   UNL A   1      43.787  24.947  27.355  1.00  0.00     0.031 A 
ATOM     46  C   UNL A   1      47.032  30.583  28.180  1.00  0.00     0.049 A 
ATOM     47  C   UNL A   1      45.206  25.369  27.093  1.00  0.00     0.074 A 
ATOM     48  C   UNL A   1      48.377  30.821  27.959  1.00  0.00     0.029 A 
ATOM     49  N   UNL A   1      46.796  29.260  27.828  1.00  0.00    -0.354 N 
ATOM     50  N   UNL A   1      45.769  26.537  27.299  1.00  0.00    -0.248 NA
ATOM     51  C   UNL A   1      46.107  24.355  26.529  1.00  0.00     0.031 C 
ATOM     52  C   UNL A   1      48.942  29.659  27.424  1.00  0.00     0.029 A 
ATOM     53  C   UNL A   1      47.965  28.675  27.377  1.00  0.00     0.049 A 
ATOM     54  H   UNL A   1      45.925  28.806  27.893  1.00  0.00     0.167 HD
ATOM     55  C   UNL A   1      47.098  26.390  26.921  1.00  0.00     0.074 A 
ATOM     56  C   UNL A   1      47.254  25.018  26.477  1.00  0.00     0.031 C 
ATOM     57  C   UNL A   1      48.099  27.304  26.947  1.00  0.00     0.031 A 
BRANCH  44  58
ATOM     58  C   UNL A   1      46.415  32.914  28.974  1.00  0.00    -0.014 A 
ATOM     59  C   UNL A   1      46.350  33.918  27.991  1.00  0.00     0.010 A 
ATOM     60  C   UNL A   1      46.861  33.253  30.266  1.00  0.00     0.010 A 
ATOM     61  C   UNL A   1      46.779  35.218  28.276  1.00  0.00     0.020 A 
ATOM     62  C   UNL A   1      47.261  34.559  30.564  1.00  0.00     0.020 A 
ATOM     63  C   UNL A   1      47.241  35.527  29.559  1.00  0.00     0.054 A 
BRANCH  63  64
ATOM     64  S   UNL A   1      47.807  37.217  29.900  1.00  0.00     0.124 S 
ATOM     65  O   UNL A   1      46.542  37.931  30.062  1.00  0.00    -0.237 OA
ATOM     66  O   UNL A   1      48.594  37.053  31.119  1.00  0.00    -0.237 OA
ATOM     67  O   UNL A   1      48.575  37.573  28.709  1.00  0.00    -0.744 OA
ENDBRANCH  63  64
ENDBRANCH  44  58
BRANCH  45  68
ATOM     68  C   UNL A   1      43.320  23.564  27.059  1.00  0.00    -0.014 A 
ATOM     69  C   UNL A   1      43.081  23.161  25.734  1.00  0.00     0.010 A 
ATOM     70  C   UNL A   1      43.152  22.629  28.098  1.00  0.00     0.010 A 
ATOM     71  C   UNL A   1      42.682  21.850  25.454  1.00  0.00     0.020 A 
ATOM     72  C   UNL A   1      42.782  21.311  27.819  1.00  0.00     0.020 A 
ATOM     73  C   UNL A   1      42.542  20.931  26.498  1.00  0.00     0.054 A 
BRANCH  73  74
ATOM     74  S   UNL A   1      42.093  19.219  26.101  1.00  0.00     0.124 S 
ATOM     75  O   UNL A   1      42.474  18.513  27.320  1.00  0.00    -0.237 OA
ATOM     76  O   UNL A   1      40.658  19.318  25.850  1.00  0.00    -0.237 OA
ATOM     77  O   UNL A   1      42.904  18.916  24.924  1.00  0.00    -0.744 OA
ENDBRANCH  73  74
ENDBRANCH  45  68
BRANCH  57  78
ATOM     78  C   UNL A   1      49.472  26.839  26.541  1.00  0.00    -0.014 A 
ATOM     79  C   UNL A   1      50.389  26.339  27.481  1.00  0.00     0.010 A 
ATOM     80  C   UNL A   1      49.816  26.836  25.175  1.00  0.00     0.010 A 
ATOM     81  C   UNL A   1      51.633  25.860  27.064  1.00  0.00     0.020 A 
ATOM     82  C   UNL A   1      51.047  26.333  24.753  1.00  0.00     0.020 A 
ATOM     83  C   UNL A   1      51.952  25.856  25.702  1.00  0.00     0.054 A 
BRANCH  83  84
ATOM     84  S   UNL A   1      53.547  25.168  25.181  1.00  0.00     0.124 S 
ATOM     85  O   UNL A   1      53.323  23.732  25.331  1.00  0.00    -0.237 OA
ATOM     86  O   UNL A   1      53.670  25.646  23.807  1.00  0.00    -0.237 OA
ATOM     87  O   UNL A   1      54.501  25.751  26.124  1.00  0.00    -0.744 OA
ENDBRANCH  83  84
ENDBRANCH  57  78
ENDBRANCH  31  32
ENDBRANCH  24  26
ENDBRANCH  23  24
ENDBRANCH   1  23
TORSDOF 18
ENDMDL
MODEL 3
REMARK VINA RESULT:     -10.0      4.013      9.399
REMARK SMILES CCC1(CC)CCN(c2nc(C(C)C)c(C(=O)OCCOC(=O)c3ccc(-c4c5nc(c(-c6ccc(S(=O)(=O)[O-])cc6)c6ccc([nH]6)c(-c6ccc(S(=O)(=O)[O-])cc6)c6nc(c(-c7ccc(S(=O)(=O)[O-])cc7)c7ccc4[nH]7)C=C6)C=C5)cc3)s2)C1
REMARK SMILES IDX 20 1 19 2 18 3 16 4 17 5 15 6 9 7 10 8 84 9 11 10 8 11 3 12
REMARK SMILES IDX 6 13 85 14 7 15 2 16 1 17 4 18 5 19 12 20 13 21 14 22 21 23
REMARK SMILES IDX 22 24 23 25 24 26 25 27 83 28 26 29 82 30 27 31 28 32 29 33
REMARK SMILES IDX 76 34 30 35 81 36 75 37 77 38 31 39 80 40 74 41 73 42 32 44
REMARK SMILES IDX 62 45 43 46 61 47 44 48 47 49 60 50 78 51 45 52 46 53 59 55
REMARK SMILES IDX 79 56 48 57 33 58 34 59 42 60 35 61 41 62 36 63 37 64 38 65
REMARK SMILES IDX 39 66 40 67 63 68 64 69 72 70 65 71 71 72 66 73 67 74 68 75
REMARK SMILES IDX 69 76 70 77 49 78 50 79 58 80 51 81 57 82 52 83 53 84 54 85
REMARK SMILES IDX 55 86 56 87
REMARK H PARENT 77 43 47 54
REMARK Flexibility Score: inf
ROOT
ATOM      1  C   UNL A   1      32.940  29.127  26.142  1.00  0.00     0.275 C 
ENDROOT
BRANCH   1   2
ATOM      2  C   UNL A   1      32.410  27.904  26.895  1.00  0.00     0.275 C 
BRANCH   2   3
ATOM      3  O   UNL A   1      32.694  26.690  26.172  1.00  0.00    -0.458 OA
BRANCH   3   4
ATOM      4  C   UNL A   1      31.779  25.682  26.230  1.00  0.00     0.350 C 
ATOM      5  O   UNL A   1      30.702  25.785  26.803  1.00  0.00    -0.245 OA
BRANCH   4   6
ATOM      6  C   UNL A   1      32.225  24.535  25.464  1.00  0.00     0.137 A 
ATOM      7  C   UNL A   1      32.825  22.237  24.871  1.00  0.00     0.186 A 
ATOM      8  N   UNL A   1      32.728  22.976  23.789  1.00  0.00    -0.224 NA
ATOM      9  S   UNL A   1      32.700  23.122  26.330  1.00  0.00    -0.089 S 
ATOM     10  C   UNL A   1      32.421  24.308  24.107  1.00  0.00     0.071 A 
BRANCH   7  11
ATOM     11  N   UNL A   1      33.135  20.924  24.910  1.00  0.00    -0.347 N 
ATOM     12  C   UNL A   1      33.224  18.595  24.404  1.00  0.00    -0.011 C 
ATOM     13  C   UNL A   1      34.634  19.141  24.732  1.00  0.00     0.030 C 
ATOM     14  C   UNL A   1      32.424  19.907  24.150  1.00  0.00     0.126 C 
ATOM     15  C   UNL A   1      34.410  20.480  25.419  1.00  0.00     0.119 C 
BRANCH  12  16
ATOM     16  C   UNL A   1      32.663  17.707  25.560  1.00  0.00     0.005 C 
ATOM     17  C   UNL A   1      32.834  16.198  25.471  1.00  0.00     0.004 C 
ENDBRANCH  12  16
BRANCH  12  18
ATOM     18  C   UNL A   1      33.278  17.736  23.107  1.00  0.00     0.005 C 
ATOM     19  C   UNL A   1      32.242  18.108  22.049  1.00  0.00     0.004 C 
ENDBRANCH  12  18
ENDBRANCH   7  11
BRANCH  10  20
ATOM     20  C   UNL A   1      32.418  25.295  22.961  1.00  0.00     0.034 C 
ATOM     21  C   UNL A   1      33.026  24.741  21.673  1.00  0.00     0.014 C 
ATOM     22  C   UNL A   1      31.042  25.929  22.724  1.00  0.00     0.014 C 
ENDBRANCH  10  20
ENDBRANCH   4   6
ENDBRANCH   3   4
ENDBRANCH   2   3
ENDBRANCH   1   2
BRANCH   1  23
ATOM     23  O   UNL A   1      34.318  29.373  26.473  1.00  0.00    -0.458 OA
BRANCH  23  24
ATOM     24  C   UNL A   1      34.507  30.248  27.486  1.00  0.00     0.338 C 
ATOM     25  O   UNL A   1      33.681  30.993  27.985  1.00  0.00    -0.246 OA
BRANCH  24  26
ATOM     26  C   UNL A   1      35.848  30.045  28.047  1.00  0.00     0.060 A 
ATOM     27  C   UNL A   1      36.924  30.146  27.168  1.00  0.00     0.016 A 
ATOM     28  C   UNL A   1      36.051  29.679  29.373  1.00  0.00     0.016 A 
ATOM     29  C   UNL A   1      38.211  29.837  27.580  1.00  0.00     0.010 A 
ATOM     30  C   UNL A   1      37.353  29.403  29.804  1.00  0.00     0.010 A 
ATOM     31  C   UNL A   1      38.437  29.456  28.904  1.00  0.00    -0.014 A 
BRANCH  31  32
ATOM     32  C   UNL A   1      39.791  29.038  29.331  1.00  0.00     0.031 A 
ATOM     33  C   UNL A   1      40.638  29.998  30.117  1.00  0.00     0.074 A 
ATOM     34  C   UNL A   1      40.252  27.810  29.029  1.00  0.00     0.049 A 
ATOM     35  N   UNL A   1      41.904  29.921  30.429  1.00  0.00    -0.248 NA
ATOM     36  C   UNL A   1      39.967  31.214  30.606  1.00  0.00     0.031 C 
ATOM     37  C   UNL A   1      39.488  26.757  28.356  1.00  0.00     0.029 A 
ATOM     38  N   UNL A   1      41.482  27.242  29.246  1.00  0.00    -0.354 N 
ATOM     39  C   UNL A   1      42.196  31.099  31.106  1.00  0.00     0.074 A 
ATOM     40  C   UNL A   1      40.977  31.877  31.150  1.00  0.00     0.031 C 
ATOM     41  C   UNL A   1      40.265  25.670  28.221  1.00  0.00     0.029 A 
ATOM     42  C   UNL A   1      41.600  25.977  28.723  1.00  0.00     0.049 A 
ATOM     43  H   UNL A   1      42.209  27.697  29.728  1.00  0.00     0.167 HD
ATOM     44  C   UNL A   1      43.379  31.495  31.634  1.00  0.00     0.031 A 
ATOM     45  C   UNL A   1      42.674  25.172  28.619  1.00  0.00     0.031 A 
ATOM     46  C   UNL A   1      44.578  30.701  31.584  1.00  0.00     0.049 A 
ATOM     47  C   UNL A   1      43.998  25.664  29.135  1.00  0.00     0.074 A 
ATOM     48  C   UNL A   1      45.835  31.003  32.076  1.00  0.00     0.029 A 
ATOM     49  N   UNL A   1      44.666  29.440  31.008  1.00  0.00    -0.354 N 
ATOM     50  N   UNL A   1      44.280  26.802  29.726  1.00  0.00    -0.248 NA
ATOM     51  C   UNL A   1      45.151  24.769  28.965  1.00  0.00     0.031 C 
ATOM     52  C   UNL A   1      46.695  29.948  31.751  1.00  0.00     0.029 A 
ATOM     53  C   UNL A   1      45.958  28.959  31.117  1.00  0.00     0.049 A 
ATOM     54  H   UNL A   1      43.918  28.960  30.585  1.00  0.00     0.167 HD
ATOM     55  C   UNL A   1      45.635  26.747  30.029  1.00  0.00     0.074 A 
ATOM     56  C   UNL A   1      46.114  25.461  29.558  1.00  0.00     0.031 C 
ATOM     57  C   UNL A   1      46.410  27.671  30.648  1.00  0.00     0.031 A 
BRANCH  44  58
ATOM     58  C   UNL A   1      43.439  32.871  32.247  1.00  0.00    -0.014 A 
ATOM     59  C   UNL A   1      43.260  33.074  33.627  1.00  0.00     0.010 A 
ATOM     60  C   UNL A   1      43.669  33.985  31.417  1.00  0.00     0.010 A 
ATOM     61  C   UNL A   1      43.252  34.368  34.157  1.00  0.00     0.020 A 
ATOM     62  C   UNL A   1      43.694  35.277  31.948  1.00  0.00     0.020 A 
ATOM     63  C   UNL A   1      43.460  35.463  33.311  1.00  0.00     0.054 A 
BRANCH  63  64
ATOM     64  S   UNL A   1      43.429  37.132  34.020  1.00  0.00     0.124 S 
ATOM     65  O   UNL A   1      44.454  37.037  35.058  1.00  0.00    -0.237 OA
ATOM     66  O   UNL A   1      43.773  37.974  32.877  1.00  0.00    -0.237 OA
ATOM     67  O   UNL A   1      42.060  37.277  34.508  1.00  0.00    -0.744 OA
ENDBRANCH  63  64
ENDBRANCH  44  58
BRANCH  45  68
ATOM     68  C   UNL A   1      42.539  23.838  27.972  1.00  0.00    -0.014 A 
ATOM     69  C   UNL A   1      42.663  23.707  26.578  1.00  0.00     0.010 A 
ATOM     70  C   UNL A   1      42.327  22.684  28.749  1.00  0.00     0.010 A 
ATOM     71  C   UNL A   1      42.578  22.448  25.974  1.00  0.00     0.020 A 
ATOM     72  C   UNL A   1      42.270  21.422  28.153  1.00  0.00     0.020 A 
ATOM     73  C   UNL A   1      42.388  21.312  26.768  1.00  0.00     0.054 A 
BRANCH  73  74
ATOM     74  S   UNL A   1      42.352  19.684  25.968  1.00  0.00     0.124 S 
ATOM     75  O   UNL A   1      40.989  19.630  25.449  1.00  0.00    -0.237 OA
ATOM     76  O   UNL A   1      43.406  19.802  24.963  1.00  0.00    -0.237 OA
ATOM     77  O   UNL A   1      42.643  18.758  27.060  1.00  0.00    -0.744 OA
ENDBRANCH  73  74
ENDBRANCH  45  68
BRANCH  57  78
ATOM     78  C   UNL A   1      47.847  27.307  30.910  1.00  0.00    -0.014 A 
ATOM     79  C   UNL A   1      48.239  26.661  32.095  1.00  0.00     0.010 A 
ATOM     80  C   UNL A   1      48.808  27.552  29.910  1.00  0.00     0.010 A 
ATOM     81  C   UNL A   1      49.571  26.282  32.282  1.00  0.00     0.020 A 
ATOM     82  C   UNL A   1      50.133  27.152  30.083  1.00  0.00     0.020 A 
ATOM     83  C   UNL A   1      50.508  26.527  31.273  1.00  0.00     0.054 A 
BRANCH  83  84
ATOM     84  S   UNL A   1      52.216  25.967  31.515  1.00  0.00     0.124 S 
ATOM     85  O   UNL A   1      52.683  26.859  32.573  1.00  0.00    -0.237 OA
ATOM     86  O   UNL A   1      52.043  24.568  31.901  1.00  0.00    -0.237 OA
ATOM     87  O   UNL A   1      52.837  26.173  30.207  1.00  0.00    -0.744 OA
ENDBRANCH  83  84
ENDBRANCH  57  78
ENDBRANCH  31  32
ENDBRANCH  24  26
ENDBRANCH  23  24
ENDBRANCH   1  23
TORSDOF 18
ENDMDL
