MODEL 1
REMARK VINA RESULT:     -11.0      0.000      0.000
REMARK SMILES C[C@H](NC(=O)c1c(C(=O)OCCOC(=O)c2ccc(-c3c4nc(c(-c5ccc(S(=O)(=O)[O-])cc5)c5ccc([nH]5)c(-c5ccc(S(=O)(=O)[O-])cc5)c5nc(c(-c6ccc(S(=O)(=O)[O-])cc6)c6ccc3[nH]6)C=C5)C=C4)cc2)cnn1C)[C@]12C[C@H]3C[C@H](C[C@H](C3)C1)C2
REMARK SMILES IDX 11 1 10 2 8 3 9 4 7 5 6 6 78 7 76 8 77 9 79 10 4 11 3 12
REMARK SMILES IDX 5 14 2 15 1 16 80 17 81 18 88 19 89 20 82 21 86 22 84 23
REMARK SMILES IDX 83 24 87 25 85 26 12 27 13 28 14 29 15 30 16 31 17 32 75 33
REMARK SMILES IDX 18 34 74 35 19 36 20 37 21 38 68 39 22 40 73 41 67 42 69 43
REMARK SMILES IDX 23 44 72 45 66 46 65 47 24 49 54 50 35 51 53 52 36 53 39 54
REMARK SMILES IDX 52 55 70 56 37 57 38 58 51 60 71 61 40 62 25 63 26 64 34 65
REMARK SMILES IDX 27 66 33 67 28 68 29 69 30 70 31 71 32 72 55 73 56 74 64 75
REMARK SMILES IDX 57 76 63 77 58 78 59 79 60 80 61 81 62 82 41 83 42 84 50 85
REMARK SMILES IDX 43 86 49 87 44 88 45 89 46 90 47 91 48 92
REMARK H PARENT 3 13 69 48 39 59
REMARK Flexibility Score: inf
ROOT
ATOM      1  C   UNL A   1      31.771  29.374  26.713  1.00  0.00     0.275 C 
ENDROOT
BRANCH   1   2
ATOM      2  O   UNL A   1      32.384  28.460  25.780  1.00  0.00    -0.458 OA
BRANCH   2   3
ATOM      3  C   UNL A   1      31.791  28.426  24.553  1.00  0.00     0.342 C 
ATOM      4  O   UNL A   1      30.755  29.019  24.279  1.00  0.00    -0.246 OA
BRANCH   3   5
ATOM      5  C   UNL A   1      32.497  27.652  23.552  1.00  0.00     0.111 A 
ATOM      6  C   UNL A   1      32.301  26.342  23.119  1.00  0.00     0.140 A 
ATOM      7  N   UNL A   1      32.983  26.294  21.924  1.00  0.00    -0.262 N 
ATOM      8  C   UNL A   1      33.510  28.156  22.701  1.00  0.00     0.151 A 
ATOM      9  N   UNL A   1      33.880  27.282  21.771  1.00  0.00    -0.180 NA
ATOM     10  C   UNL A   1      32.726  25.464  20.771  1.00  0.00     0.174 C 
BRANCH   6  11
ATOM     11  C   UNL A   1      31.326  25.381  23.538  1.00  0.00     0.270 C 
ATOM     12  N   UNL A   1      31.536  24.608  24.650  1.00  0.00    -0.348 N 
ATOM     13  H   UNL A   1      30.862  23.899  24.762  1.00  0.00     0.164 HD
ATOM     14  O   UNL A   1      30.294  25.184  22.898  1.00  0.00    -0.267 OA
BRANCH  12  15
ATOM     15  C   UNL A   1      32.560  24.607  25.720  1.00  0.00     0.085 C 
ATOM     16  C   UNL A   1      31.854  24.121  26.996  1.00  0.00     0.031 C 
BRANCH  15  17
ATOM     17  C   UNL A   1      33.844  23.749  25.358  1.00  0.00    -0.009 C 
ATOM     18  C   UNL A   1      33.617  22.666  24.252  1.00  0.00     0.012 C 
ATOM     19  C   UNL A   1      34.283  22.955  26.617  1.00  0.00     0.012 C 
ATOM     20  C   UNL A   1      35.015  24.644  24.864  1.00  0.00     0.012 C 
ATOM     21  C   UNL A   1      34.900  21.839  23.997  1.00  0.00    -0.010 C 
ATOM     22  C   UNL A   1      35.581  22.172  26.386  1.00  0.00    -0.010 C 
ATOM     23  C   UNL A   1      36.295  23.829  24.629  1.00  0.00    -0.010 C 
ATOM     24  C   UNL A   1      36.032  22.776  23.546  1.00  0.00     0.007 C 
ATOM     25  C   UNL A   1      35.331  21.131  25.290  1.00  0.00     0.007 C 
ATOM     26  C   UNL A   1      36.694  23.131  25.936  1.00  0.00     0.007 C 
ENDBRANCH  15  17
ENDBRANCH  12  15
ENDBRANCH   6  11
ENDBRANCH   3   5
ENDBRANCH   2   3
ENDBRANCH   1   2
BRANCH   1  27
ATOM     27  C   UNL A   1      32.646  30.597  27.003  1.00  0.00     0.275 C 
BRANCH  27  28
ATOM     28  O   UNL A   1      34.048  30.264  27.044  1.00  0.00    -0.458 OA
BRANCH  28  29
ATOM     29  C   UNL A   1      34.756  30.880  28.019  1.00  0.00     0.338 C 
ATOM     30  O   UNL A   1      34.390  31.814  28.716  1.00  0.00    -0.246 OA
BRANCH  29  31
ATOM     31  C   UNL A   1      36.037  30.191  28.240  1.00  0.00     0.060 A 
ATOM     32  C   UNL A   1      36.286  29.698  29.516  1.00  0.00     0.016 A 
ATOM     33  C   UNL A   1      37.049  30.182  27.284  1.00  0.00     0.016 A 
ATOM     34  C   UNL A   1      37.553  29.254  29.877  1.00  0.00     0.010 A 
ATOM     35  C   UNL A   1      38.311  29.669  27.626  1.00  0.00     0.010 A 
ATOM     36  C   UNL A   1      38.586  29.226  28.935  1.00  0.00    -0.014 A 
BRANCH  36  37
ATOM     37  C   UNL A   1      39.949  28.785  29.347  1.00  0.00     0.031 A 
ATOM     38  C   UNL A   1      40.812  29.687  30.194  1.00  0.00     0.074 A 
ATOM     39  C   UNL A   1      40.407  27.564  28.997  1.00  0.00     0.049 A 
ATOM     40  N   UNL A   1      42.069  29.547  30.534  1.00  0.00    -0.248 NA
ATOM     41  C   UNL A   1      40.185  30.910  30.721  1.00  0.00     0.031 C 
ATOM     42  C   UNL A   1      39.657  26.558  28.239  1.00  0.00     0.029 A 
ATOM     43  N   UNL A   1      41.614  26.954  29.242  1.00  0.00    -0.354 N 
ATOM     44  C   UNL A   1      42.398  30.689  31.258  1.00  0.00     0.074 A 
ATOM     45  C   UNL A   1      41.210  31.510  31.313  1.00  0.00     0.031 C 
ATOM     46  C   UNL A   1      40.404  25.451  28.112  1.00  0.00     0.029 A 
ATOM     47  C   UNL A   1      41.718  25.693  28.695  1.00  0.00     0.049 A 
ATOM     48  H   UNL A   1      42.337  27.377  29.759  1.00  0.00     0.167 HD
ATOM     49  C   UNL A   1      43.586  31.022  31.818  1.00  0.00     0.031 A 
ATOM     50  C   UNL A   1      42.762  24.845  28.627  1.00  0.00     0.031 A 
ATOM     51  C   UNL A   1      44.751  30.175  31.807  1.00  0.00     0.049 A 
ATOM     52  C   UNL A   1      44.083  25.265  29.213  1.00  0.00     0.074 A 
ATOM     53  C   UNL A   1      45.990  30.414  32.378  1.00  0.00     0.029 A 
ATOM     54  N   UNL A   1      44.821  28.928  31.207  1.00  0.00    -0.354 N 
ATOM     55  N   UNL A   1      44.384  26.360  29.868  1.00  0.00    -0.248 NA
ATOM     56  C   UNL A   1      45.211  24.338  29.038  1.00  0.00     0.031 C 
ATOM     57  C   UNL A   1      46.826  29.336  32.074  1.00  0.00     0.029 A 
ATOM     58  C   UNL A   1      46.090  28.398  31.368  1.00  0.00     0.049 A 
ATOM     59  H   UNL A   1      44.079  28.485  30.736  1.00  0.00     0.167 HD
ATOM     60  C   UNL A   1      45.727  26.241  30.205  1.00  0.00     0.074 A 
ATOM     61  C   UNL A   1      46.176  24.962  29.699  1.00  0.00     0.031 C 
ATOM     62  C   UNL A   1      46.519  27.117  30.870  1.00  0.00     0.031 A 
BRANCH  49  63
ATOM     63  C   UNL A   1      43.715  32.382  32.455  1.00  0.00    -0.014 A 
ATOM     64  C   UNL A   1      43.969  33.537  31.696  1.00  0.00     0.010 A 
ATOM     65  C   UNL A   1      43.489  32.510  33.839  1.00  0.00     0.010 A 
ATOM     66  C   UNL A   1      44.015  34.791  32.313  1.00  0.00     0.020 A 
ATOM     67  C   UNL A   1      43.508  33.764  34.455  1.00  0.00     0.020 A 
ATOM     68  C   UNL A   1      43.781  34.897  33.689  1.00  0.00     0.054 A 
BRANCH  68  69
ATOM     69  S   UNL A   1      43.791  36.543  34.453  1.00  0.00     0.124 S 
ATOM     70  O   UNL A   1      42.510  37.089  34.010  1.00  0.00    -0.237 OA
ATOM     71  O   UNL A   1      43.882  36.234  35.878  1.00  0.00    -0.237 OA
ATOM     72  O   UNL A   1      44.972  37.185  33.880  1.00  0.00    -0.744 OA
ENDBRANCH  68  69
ENDBRANCH  49  63
BRANCH  50  73
ATOM     73  C   UNL A   1      42.630  23.538  27.921  1.00  0.00    -0.014 A 
ATOM     74  C   UNL A   1      42.205  22.388  28.608  1.00  0.00     0.010 A 
ATOM     75  C   UNL A   1      42.964  23.432  26.557  1.00  0.00     0.010 A 
ATOM     76  C   UNL A   1      42.149  21.152  27.955  1.00  0.00     0.020 A 
ATOM     77  C   UNL A   1      42.875  22.207  25.893  1.00  0.00     0.020 A 
ATOM     78  C   UNL A   1      42.489  21.068  26.602  1.00  0.00     0.054 A 
BRANCH  78  79
ATOM     79  S   UNL A   1      42.399  19.459  25.769  1.00  0.00     0.124 S 
ATOM     80  O   UNL A   1      40.987  19.384  25.408  1.00  0.00    -0.237 OA
ATOM     81  O   UNL A   1      43.329  19.624  24.656  1.00  0.00    -0.237 OA
ATOM     82  O   UNL A   1      42.833  18.518  26.800  1.00  0.00    -0.744 OA
ENDBRANCH  78  79
ENDBRANCH  50  73
BRANCH  62  83
ATOM     83  C   UNL A   1      47.940  26.699  31.137  1.00  0.00    -0.014 A 
ATOM     84  C   UNL A   1      48.971  26.985  30.225  1.00  0.00     0.010 A 
ATOM     85  C   UNL A   1      48.254  26.050  32.346  1.00  0.00     0.010 A 
ATOM     86  C   UNL A   1      50.285  26.599  30.502  1.00  0.00     0.020 A 
ATOM     87  C   UNL A   1      49.571  25.690  32.640  1.00  0.00     0.020 A 
ATOM     88  C   UNL A   1      50.576  25.953  31.708  1.00  0.00     0.054 A 
BRANCH  88  89
ATOM     89  S   UNL A   1      52.296  25.500  32.064  1.00  0.00     0.124 S 
ATOM     90  O   UNL A   1      52.979  25.915  30.842  1.00  0.00    -0.237 OA
ATOM     91  O   UNL A   1      52.598  26.294  33.253  1.00  0.00    -0.237 OA
ATOM     92  O   UNL A   1      52.236  24.057  32.285  1.00  0.00    -0.744 OA
ENDBRANCH  88  89
ENDBRANCH  62  83
ENDBRANCH  36  37
ENDBRANCH  29  31
ENDBRANCH  28  29
ENDBRANCH  27  28
ENDBRANCH   1  27
TORSDOF 17
ENDMDL
MODEL 2
REMARK VINA RESULT:     -10.9      3.203      7.660
REMARK SMILES C[C@H](NC(=O)c1c(C(=O)OCCOC(=O)c2ccc(-c3c4nc(c(-c5ccc(S(=O)(=O)[O-])cc5)c5ccc([nH]5)c(-c5ccc(S(=O)(=O)[O-])cc5)c5nc(c(-c6ccc(S(=O)(=O)[O-])cc6)c6ccc3[nH]6)C=C5)C=C4)cc2)cnn1C)[C@]12C[C@H]3C[C@H](C[C@H](C3)C1)C2
REMARK SMILES IDX 11 1 10 2 8 3 9 4 7 5 6 6 78 7 76 8 77 9 79 10 4 11 3 12
REMARK SMILES IDX 5 14 2 15 1 16 80 17 81 18 88 19 89 20 82 21 86 22 84 23
REMARK SMILES IDX 83 24 87 25 85 26 12 27 13 28 14 29 15 30 16 31 17 32 75 33
REMARK SMILES IDX 18 34 74 35 19 36 20 37 21 38 68 39 22 40 73 41 67 42 69 43
REMARK SMILES IDX 23 44 72 45 66 46 65 47 24 49 54 50 35 51 53 52 36 53 39 54
REMARK SMILES IDX 52 55 70 56 37 57 38 58 51 60 71 61 40 62 25 63 26 64 34 65
REMARK SMILES IDX 27 66 33 67 28 68 29 69 30 70 31 71 32 72 55 73 56 74 64 75
REMARK SMILES IDX 57 76 63 77 58 78 59 79 60 80 61 81 62 82 41 83 42 84 50 85
REMARK SMILES IDX 43 86 49 87 44 88 45 89 46 90 47 91 48 92
REMARK H PARENT 3 13 69 48 39 59
REMARK Flexibility Score: inf
ROOT
ATOM      1  C   UNL A   1      35.942  21.019  24.754  1.00  0.00     0.275 C 
ENDROOT
BRANCH   1   2
ATOM      2  O   UNL A   1      35.004  22.019  24.308  1.00  0.00    -0.458 OA
BRANCH   2   3
ATOM      3  C   UNL A   1      33.695  21.678  24.476  1.00  0.00     0.342 C 
ATOM      4  O   UNL A   1      33.168  20.709  23.943  1.00  0.00    -0.246 OA
BRANCH   3   5
ATOM      5  C   UNL A   1      32.948  22.534  25.376  1.00  0.00     0.111 A 
ATOM      6  C   UNL A   1      32.012  23.530  25.106  1.00  0.00     0.140 A 
ATOM      7  N   UNL A   1      31.378  23.710  26.316  1.00  0.00    -0.262 N 
ATOM      8  C   UNL A   1      32.955  22.431  26.788  1.00  0.00     0.151 A 
ATOM      9  N   UNL A   1      32.066  23.231  27.365  1.00  0.00    -0.180 NA
ATOM     10  C   UNL A   1      30.027  24.152  26.569  1.00  0.00     0.174 C 
BRANCH   6  11
ATOM     11  C   UNL A   1      31.507  23.988  23.847  1.00  0.00     0.270 C 
ATOM     12  N   UNL A   1      32.054  25.081  23.228  1.00  0.00    -0.348 N 
ATOM     13  H   UNL A   1      31.542  25.376  22.440  1.00  0.00     0.164 HD
ATOM     14  O   UNL A   1      30.544  23.450  23.301  1.00  0.00    -0.267 OA
BRANCH  12  15
ATOM     15  C   UNL A   1      33.249  25.916  23.488  1.00  0.00     0.085 C 
ATOM     16  C   UNL A   1      33.698  26.468  22.126  1.00  0.00     0.031 C 
BRANCH  15  17
ATOM     17  C   UNL A   1      32.996  27.055  24.563  1.00  0.00    -0.009 C 
ATOM     18  C   UNL A   1      33.597  26.764  25.978  1.00  0.00     0.012 C 
ATOM     19  C   UNL A   1      31.468  27.191  24.794  1.00  0.00     0.012 C 
ATOM     20  C   UNL A   1      33.585  28.420  24.108  1.00  0.00     0.012 C 
ATOM     21  C   UNL A   1      33.261  27.894  26.980  1.00  0.00    -0.010 C 
ATOM     22  C   UNL A   1      31.125  28.342  25.748  1.00  0.00    -0.010 C 
ATOM     23  C   UNL A   1      33.236  29.547  25.090  1.00  0.00    -0.010 C 
ATOM     24  C   UNL A   1      33.834  29.223  26.464  1.00  0.00     0.007 C 
ATOM     25  C   UNL A   1      31.738  28.035  27.119  1.00  0.00     0.007 C 
ATOM     26  C   UNL A   1      31.709  29.657  25.209  1.00  0.00     0.007 C 
ENDBRANCH  15  17
ENDBRANCH  12  15
ENDBRANCH   6  11
ENDBRANCH   3   5
ENDBRANCH   2   3
ENDBRANCH   1   2
BRANCH   1  27
ATOM     27  C   UNL A   1      37.399  21.472  24.615  1.00  0.00     0.275 C 
BRANCH  27  28
ATOM     28  O   UNL A   1      37.815  22.308  25.713  1.00  0.00    -0.458 OA
BRANCH  28  29
ATOM     29  C   UNL A   1      39.039  22.027  26.216  1.00  0.00     0.338 C 
ATOM     30  O   UNL A   1      39.675  20.994  26.072  1.00  0.00    -0.246 OA
BRANCH  29  31
ATOM     31  C   UNL A   1      39.601  23.207  26.891  1.00  0.00     0.060 A 
ATOM     32  C   UNL A   1      39.184  24.457  26.447  1.00  0.00     0.016 A 
ATOM     33  C   UNL A   1      40.644  23.111  27.808  1.00  0.00     0.016 A 
ATOM     34  C   UNL A   1      39.835  25.616  26.855  1.00  0.00     0.010 A 
ATOM     35  C   UNL A   1      41.259  24.284  28.276  1.00  0.00     0.010 A 
ATOM     36  C   UNL A   1      40.881  25.549  27.782  1.00  0.00    -0.014 A 
BRANCH  36  37
ATOM     37  C   UNL A   1      41.596  26.795  28.179  1.00  0.00     0.031 A 
ATOM     38  C   UNL A   1      40.835  27.937  28.806  1.00  0.00     0.074 A 
ATOM     39  C   UNL A   1      42.933  26.896  28.016  1.00  0.00     0.049 A 
ATOM     40  N   UNL A   1      41.247  29.148  29.088  1.00  0.00    -0.248 NA
ATOM     41  C   UNL A   1      39.426  27.692  29.153  1.00  0.00     0.031 C 
ATOM     42  C   UNL A   1      43.809  25.846  27.489  1.00  0.00     0.029 A 
ATOM     43  N   UNL A   1      43.794  27.932  28.288  1.00  0.00    -0.354 N 
ATOM     44  C   UNL A   1      40.137  29.824  29.584  1.00  0.00     0.074 A 
ATOM     45  C   UNL A   1      39.034  28.889  29.570  1.00  0.00     0.031 C 
ATOM     46  C   UNL A   1      45.079  26.277  27.508  1.00  0.00     0.029 A 
ATOM     47  C   UNL A   1      45.105  27.662  27.960  1.00  0.00     0.049 A 
ATOM     48  H   UNL A   1      43.503  28.787  28.680  1.00  0.00     0.167 HD
ATOM     49  C   UNL A   1      40.046  31.108  30.005  1.00  0.00     0.031 A 
ATOM     50  C   UNL A   1      46.198  28.450  27.975  1.00  0.00     0.031 A 
ATOM     51  C   UNL A   1      41.161  32.018  30.069  1.00  0.00     0.049 A 
ATOM     52  C   UNL A   1      46.056  29.887  28.398  1.00  0.00     0.074 A 
ATOM     53  C   UNL A   1      41.173  33.330  30.513  1.00  0.00     0.029 A 
ATOM     54  N   UNL A   1      42.458  31.714  29.687  1.00  0.00    -0.354 N 
ATOM     55  N   UNL A   1      44.992  30.516  28.837  1.00  0.00    -0.248 NA
ATOM     56  C   UNL A   1      47.261  30.725  28.316  1.00  0.00     0.031 C 
ATOM     57  C   UNL A   1      42.465  33.836  30.348  1.00  0.00     0.029 A 
ATOM     58  C   UNL A   1      43.272  32.821  29.860  1.00  0.00     0.049 A 
ATOM     59  H   UNL A   1      42.756  30.840  29.345  1.00  0.00     0.167 HD
ATOM     60  C   UNL A   1      45.407  31.815  29.107  1.00  0.00     0.074 A 
ATOM     61  C   UNL A   1      46.820  31.877  28.801  1.00  0.00     0.031 C 
ATOM     62  C   UNL A   1      44.681  32.865  29.563  1.00  0.00     0.031 A 
BRANCH  49  63
ATOM     63  C   UNL A   1      38.689  31.636  30.391  1.00  0.00    -0.014 A 
ATOM     64  C   UNL A   1      38.219  31.583  31.714  1.00  0.00     0.010 A 
ATOM     65  C   UNL A   1      37.906  32.279  29.412  1.00  0.00     0.010 A 
ATOM     66  C   UNL A   1      36.982  32.145  32.047  1.00  0.00     0.020 A 
ATOM     67  C   UNL A   1      36.682  32.864  29.746  1.00  0.00     0.020 A 
ATOM     68  C   UNL A   1      36.223  32.785  31.061  1.00  0.00     0.054 A 
BRANCH  68  69
ATOM     69  S   UNL A   1      34.648  33.554  31.533  1.00  0.00     0.124 S 
ATOM     70  O   UNL A   1      34.009  33.755  30.234  1.00  0.00    -0.237 OA
ATOM     71  O   UNL A   1      34.036  32.534  32.382  1.00  0.00    -0.237 OA
ATOM     72  O   UNL A   1      35.050  34.777  32.223  1.00  0.00    -0.744 OA
ENDBRANCH  68  69
ENDBRANCH  49  63
BRANCH  50  73
ATOM     73  C   UNL A   1      47.514  27.926  27.512  1.00  0.00    -0.014 A 
ATOM     74  C   UNL A   1      47.882  27.997  26.157  1.00  0.00     0.010 A 
ATOM     75  C   UNL A   1      48.398  27.320  28.426  1.00  0.00     0.010 A 
ATOM     76  C   UNL A   1      49.089  27.441  25.719  1.00  0.00     0.020 A 
ATOM     77  C   UNL A   1      49.620  26.796  27.999  1.00  0.00     0.020 A 
ATOM     78  C   UNL A   1      49.949  26.841  26.643  1.00  0.00     0.054 A 
BRANCH  78  79
ATOM     79  S   UNL A   1      51.516  26.137  26.059  1.00  0.00     0.124 S 
ATOM     80  O   UNL A   1      51.552  24.858  26.759  1.00  0.00    -0.237 OA
ATOM     81  O   UNL A   1      51.312  26.064  24.615  1.00  0.00    -0.237 OA
ATOM     82  O   UNL A   1      52.511  27.117  26.491  1.00  0.00    -0.744 OA
ENDBRANCH  78  79
ENDBRANCH  50  73
BRANCH  62  83
ATOM     83  C   UNL A   1      45.411  34.157  29.811  1.00  0.00    -0.014 A 
ATOM     84  C   UNL A   1      45.749  35.020  28.754  1.00  0.00     0.010 A 
ATOM     85  C   UNL A   1      45.722  34.533  31.131  1.00  0.00     0.010 A 
ATOM     86  C   UNL A   1      46.415  36.222  29.011  1.00  0.00     0.020 A 
ATOM     87  C   UNL A   1      46.361  35.746  31.394  1.00  0.00     0.020 A 
ATOM     88  C   UNL A   1      46.717  36.576  30.330  1.00  0.00     0.054 A 
BRANCH  88  89
ATOM     89  S   UNL A   1      47.544  38.160  30.642  1.00  0.00     0.124 S 
ATOM     90  O   UNL A   1      47.490  38.251  32.098  1.00  0.00    -0.237 OA
ATOM     91  O   UNL A   1      48.874  37.945  30.074  1.00  0.00    -0.237 OA
ATOM     92  O   UNL A   1      46.718  39.130  29.925  1.00  0.00    -0.744 OA
ENDBRANCH  88  89
ENDBRANCH  62  83
ENDBRANCH  36  37
ENDBRANCH  29  31
ENDBRANCH  28  29
ENDBRANCH  27  28
ENDBRANCH   1  27
TORSDOF 17
ENDMDL
MODEL 3
REMARK VINA RESULT:     -10.9      4.569     10.433
REMARK SMILES C[C@H](NC(=O)c1c(C(=O)OCCOC(=O)c2ccc(-c3c4nc(c(-c5ccc(S(=O)(=O)[O-])cc5)c5ccc([nH]5)c(-c5ccc(S(=O)(=O)[O-])cc5)c5nc(c(-c6ccc(S(=O)(=O)[O-])cc6)c6ccc3[nH]6)C=C5)C=C4)cc2)cnn1C)[C@]12C[C@H]3C[C@H](C[C@H](C3)C1)C2
REMARK SMILES IDX 11 1 10 2 8 3 9 4 7 5 6 6 78 7 76 8 77 9 79 10 4 11 3 12
REMARK SMILES IDX 5 14 2 15 1 16 80 17 81 18 88 19 89 20 82 21 86 22 84 23
REMARK SMILES IDX 83 24 87 25 85 26 12 27 13 28 14 29 15 30 16 31 17 32 75 33
REMARK SMILES IDX 18 34 74 35 19 36 20 37 21 38 68 39 22 40 73 41 67 42 69 43
REMARK SMILES IDX 23 44 72 45 66 46 65 47 24 49 54 50 35 51 53 52 36 53 39 54
REMARK SMILES IDX 52 55 70 56 37 57 38 58 51 60 71 61 40 62 25 63 26 64 34 65
REMARK SMILES IDX 27 66 33 67 28 68 29 69 30 70 31 71 32 72 55 73 56 74 64 75
REMARK SMILES IDX 57 76 63 77 58 78 59 79 60 80 61 81 62 82 41 83 42 84 50 85
REMARK SMILES IDX 43 86 49 87 44 88 45 89 46 90 47 91 48 92
REMARK H PARENT 3 13 69 48 39 59
REMARK Flexibility Score: inf
ROOT
ATOM      1  C   UNL A   1      38.524  22.512  26.193  1.00  0.00     0.275 C 
ENDROOT
BRANCH   1   2
ATOM      2  O   UNL A   1      37.210  23.039  26.464  1.00  0.00    -0.458 OA
BRANCH   2   3
ATOM      3  C   UNL A   1      36.332  22.925  25.427  1.00  0.00     0.342 C 
ATOM      4  O   UNL A   1      36.259  23.725  24.503  1.00  0.00    -0.246 OA
BRANCH   3   5
ATOM      5  C   UNL A   1      35.488  21.747  25.465  1.00  0.00     0.111 A 
ATOM      6  C   UNL A   1      34.272  21.528  26.108  1.00  0.00     0.140 A 
ATOM      7  N   UNL A   1      33.775  20.407  25.481  1.00  0.00    -0.262 N 
ATOM      8  C   UNL A   1      35.708  20.566  24.716  1.00  0.00     0.151 A 
ATOM      9  N   UNL A   1      34.703  19.703  24.814  1.00  0.00    -0.180 NA
ATOM     10  C   UNL A   1      32.398  20.016  25.290  1.00  0.00     0.174 C 
BRANCH   6  11
ATOM     11  C   UNL A   1      33.495  22.419  26.916  1.00  0.00     0.270 C 
ATOM     12  N   UNL A   1      32.860  23.498  26.358  1.00  0.00    -0.348 N 
ATOM     13  H   UNL A   1      32.470  24.106  27.027  1.00  0.00     0.164 HD
ATOM     14  O   UNL A   1      33.406  22.278  28.135  1.00  0.00    -0.267 OA
BRANCH  12  15
ATOM     15  C   UNL A   1      32.636  23.948  24.966  1.00  0.00     0.085 C 
ATOM     16  C   UNL A   1      31.330  23.285  24.501  1.00  0.00     0.031 C 
BRANCH  15  17
ATOM     17  C   UNL A   1      32.616  25.527  24.812  1.00  0.00    -0.009 C 
ATOM     18  C   UNL A   1      33.086  26.054  23.416  1.00  0.00     0.012 C 
ATOM     19  C   UNL A   1      33.613  26.138  25.832  1.00  0.00     0.012 C 
ATOM     20  C   UNL A   1      31.195  26.112  25.047  1.00  0.00     0.012 C 
ATOM     21  C   UNL A   1      33.090  27.601  23.367  1.00  0.00    -0.010 C 
ATOM     22  C   UNL A   1      33.585  27.672  25.823  1.00  0.00    -0.010 C 
ATOM     23  C   UNL A   1      31.199  27.647  25.018  1.00  0.00    -0.010 C 
ATOM     24  C   UNL A   1      31.671  28.125  23.641  1.00  0.00     0.007 C 
ATOM     25  C   UNL A   1      34.037  28.157  24.441  1.00  0.00     0.007 C 
ATOM     26  C   UNL A   1      32.157  28.168  26.098  1.00  0.00     0.007 C 
ENDBRANCH  15  17
ENDBRANCH  12  15
ENDBRANCH   6  11
ENDBRANCH   3   5
ENDBRANCH   2   3
ENDBRANCH   1   2
BRANCH   1  27
ATOM     27  C   UNL A   1      39.639  23.509  26.524  1.00  0.00     0.275 C 
BRANCH  27  28
ATOM     28  O   UNL A   1      39.121  24.806  26.881  1.00  0.00    -0.458 OA
BRANCH  28  29
ATOM     29  C   UNL A   1      40.015  25.819  26.820  1.00  0.00     0.338 C 
ATOM     30  O   UNL A   1      40.816  26.040  25.925  1.00  0.00    -0.246 OA
BRANCH  29  31
ATOM     31  C   UNL A   1      39.827  26.741  27.951  1.00  0.00     0.060 A 
ATOM     32  C   UNL A   1      40.471  27.972  27.886  1.00  0.00     0.016 A 
ATOM     33  C   UNL A   1      39.192  26.353  29.127  1.00  0.00     0.016 A 
ATOM     34  C   UNL A   1      40.549  28.798  29.001  1.00  0.00     0.010 A 
ATOM     35  C   UNL A   1      39.209  27.217  30.234  1.00  0.00     0.010 A 
ATOM     36  C   UNL A   1      39.913  28.438  30.194  1.00  0.00    -0.014 A 
BRANCH  36  37
ATOM     37  C   UNL A   1      40.039  29.314  31.392  1.00  0.00     0.031 A 
ATOM     38  C   UNL A   1      41.210  29.152  32.329  1.00  0.00     0.074 A 
ATOM     39  C   UNL A   1      39.127  30.282  31.630  1.00  0.00     0.049 A 
ATOM     40  N   UNL A   1      41.423  29.715  33.491  1.00  0.00    -0.248 NA
ATOM     41  C   UNL A   1      42.279  28.229  31.910  1.00  0.00     0.031 C 
ATOM     42  C   UNL A   1      37.981  30.601  30.773  1.00  0.00     0.029 A 
ATOM     43  N   UNL A   1      39.026  31.187  32.659  1.00  0.00    -0.354 N 
ATOM     44  C   UNL A   1      42.611  29.170  33.969  1.00  0.00     0.074 A 
ATOM     45  C   UNL A   1      43.077  28.235  32.969  1.00  0.00     0.031 C 
ATOM     46  C   UNL A   1      37.317  31.645  31.292  1.00  0.00     0.029 A 
ATOM     47  C   UNL A   1      37.929  32.014  32.563  1.00  0.00     0.049 A 
ATOM     48  H   UNL A   1      39.677  31.240  33.396  1.00  0.00     0.167 HD
ATOM     49  C   UNL A   1      43.249  29.424  35.137  1.00  0.00     0.031 A 
ATOM     50  C   UNL A   1      37.440  32.934  33.417  1.00  0.00     0.031 A 
ATOM     51  C   UNL A   1      42.809  30.396  36.104  1.00  0.00     0.049 A 
ATOM     52  C   UNL A   1      38.141  33.156  34.730  1.00  0.00     0.074 A 
ATOM     53  C   UNL A   1      43.409  30.746  37.302  1.00  0.00     0.029 A 
ATOM     54  N   UNL A   1      41.672  31.178  35.983  1.00  0.00    -0.354 N 
ATOM     55  N   UNL A   1      39.247  32.611  35.177  1.00  0.00    -0.248 NA
ATOM     56  C   UNL A   1      37.520  34.109  35.661  1.00  0.00     0.031 C 
ATOM     57  C   UNL A   1      42.604  31.699  37.931  1.00  0.00     0.029 A 
ATOM     58  C   UNL A   1      41.537  31.990  37.097  1.00  0.00     0.049 A 
ATOM     59  H   UNL A   1      41.052  31.161  35.218  1.00  0.00     0.167 HD
ATOM     60  C   UNL A   1      39.467  33.174  36.428  1.00  0.00     0.074 A 
ATOM     61  C   UNL A   1      38.391  34.114  36.660  1.00  0.00     0.031 C 
ATOM     62  C   UNL A   1      40.468  32.931  37.309  1.00  0.00     0.031 A 
BRANCH  49  63
ATOM     63  C   UNL A   1      44.471  28.608  35.471  1.00  0.00    -0.014 A 
ATOM     64  C   UNL A   1      44.378  27.347  36.085  1.00  0.00     0.010 A 
ATOM     65  C   UNL A   1      45.737  29.085  35.078  1.00  0.00     0.010 A 
ATOM     66  C   UNL A   1      45.530  26.588  36.318  1.00  0.00     0.020 A 
ATOM     67  C   UNL A   1      46.886  28.319  35.286  1.00  0.00     0.020 A 
ATOM     68  C   UNL A   1      46.777  27.078  35.914  1.00  0.00     0.054 A 
BRANCH  68  69
ATOM     69  S   UNL A   1      48.247  26.048  36.178  1.00  0.00     0.124 S 
ATOM     70  O   UNL A   1      48.984  26.249  34.932  1.00  0.00    -0.237 OA
ATOM     71  O   UNL A   1      48.850  26.649  37.366  1.00  0.00    -0.237 OA
ATOM     72  O   UNL A   1      47.703  24.706  36.370  1.00  0.00    -0.744 OA
ENDBRANCH  68  69
ENDBRANCH  49  63
BRANCH  50  73
ATOM     73  C   UNL A   1      36.184  33.671  33.098  1.00  0.00    -0.014 A 
ATOM     74  C   UNL A   1      36.227  34.937  32.488  1.00  0.00     0.010 A 
ATOM     75  C   UNL A   1      34.932  33.120  33.435  1.00  0.00     0.010 A 
ATOM     76  C   UNL A   1      35.047  35.651  32.254  1.00  0.00     0.020 A 
ATOM     77  C   UNL A   1      33.751  33.815  33.171  1.00  0.00     0.020 A 
ATOM     78  C   UNL A   1      33.816  35.087  32.601  1.00  0.00     0.054 A 
BRANCH  78  79
ATOM     79  S   UNL A   1      32.296  36.024  32.279  1.00  0.00     0.124 S 
ATOM     80  O   UNL A   1      32.434  36.345  30.862  1.00  0.00    -0.237 OA
ATOM     81  O   UNL A   1      31.251  35.059  32.610  1.00  0.00    -0.237 OA
ATOM     82  O   UNL A   1      32.396  37.160  33.192  1.00  0.00    -0.744 OA
ENDBRANCH  78  79
ENDBRANCH  50  73
BRANCH  62  83
ATOM     83  C   UNL A   1      40.478  33.731  38.583  1.00  0.00    -0.014 A 
ATOM     84  C   UNL A   1      39.842  33.263  39.746  1.00  0.00     0.010 A 
ATOM     85  C   UNL A   1      41.179  34.951  38.628  1.00  0.00     0.010 A 
ATOM     86  C   UNL A   1      39.877  34.018  40.922  1.00  0.00     0.020 A 
ATOM     87  C   UNL A   1      41.242  35.693  39.808  1.00  0.00     0.020 A 
ATOM     88  C   UNL A   1      40.578  35.229  40.944  1.00  0.00     0.054 A 
BRANCH  88  89
ATOM     89  S   UNL A   1      40.645  36.170  42.494  1.00  0.00     0.124 S 
ATOM     90  O   UNL A   1      41.807  37.027  42.279  1.00  0.00    -0.237 OA
ATOM     91  O   UNL A   1      39.353  36.855  42.510  1.00  0.00    -0.237 OA
ATOM     92  O   UNL A   1      40.809  35.141  43.518  1.00  0.00    -0.744 OA
ENDBRANCH  88  89
ENDBRANCH  62  83
ENDBRANCH  36  37
ENDBRANCH  29  31
ENDBRANCH  28  29
ENDBRANCH  27  28
ENDBRANCH   1  27
TORSDOF 17
ENDMDL
