MODEL 1
REMARK VINA RESULT:     -10.6      0.000      0.000
REMARK SMILES O=C(CC1(NC(=O)c2cc([N+](=O)[O-])ccc2F)CCC1)OCCOC(=O)c1ccc(-c2c3nc(c(-c4ccc(S(=O)(=O)[O-])cc4)c4ccc([nH]4)c(-c4ccc(S(=O)(=O)[O-])cc4)c4nc(c(-c5ccc(S(=O)(=O)[O-])cc5)c5ccc2[nH]5)C=C4)C=C3)cc1
REMARK SMILES IDX 22 1 21 2 2 3 1 4 3 5 4 6 18 7 20 8 19 9 5 10 6 11 7 13 8 14
REMARK SMILES IDX 9 15 16 16 10 17 15 18 17 19 14 20 11 21 12 22 13 23 23 24
REMARK SMILES IDX 24 25 25 26 26 27 27 28 28 29 86 30 29 31 85 32 30 33 31 34
REMARK SMILES IDX 32 35 79 36 33 37 84 38 78 39 80 40 34 41 83 42 77 43 76 44
REMARK SMILES IDX 35 46 65 47 46 48 64 49 47 50 50 51 63 52 81 53 48 54 49 55
REMARK SMILES IDX 62 57 82 58 51 59 36 60 37 61 45 62 38 63 44 64 39 65 40 66
REMARK SMILES IDX 41 67 42 68 43 69 66 70 67 71 75 72 68 73 74 74 69 75 70 76
REMARK SMILES IDX 71 77 72 78 73 79 52 80 53 81 61 82 54 83 60 84 55 85 56 86
REMARK SMILES IDX 57 87 58 88 59 89
REMARK H PARENT 5 12 80 45 50 56
REMARK Flexibility Score: inf
ROOT
ATOM      1  C   UNL A   1      38.141  22.365  25.702  1.00  0.00     0.274 C 
ENDROOT
BRANCH   1   2
ATOM      2  O   UNL A   1      37.115  21.405  25.446  1.00  0.00    -0.462 OA
BRANCH   2   3
ATOM      3  C   UNL A   1      35.805  21.714  25.575  1.00  0.00     0.308 C 
ATOM      4  O   UNL A   1      35.244  21.552  26.658  1.00  0.00    -0.252 OA
BRANCH   3   5
ATOM      5  C   UNL A   1      35.008  21.957  24.339  1.00  0.00     0.151 C 
BRANCH   5   6
ATOM      6  C   UNL A   1      33.933  22.949  23.994  1.00  0.00     0.051 C 
ATOM      7  C   UNL A   1      34.431  24.381  24.252  1.00  0.00     0.029 C 
ATOM      8  C   UNL A   1      33.497  23.379  22.559  1.00  0.00     0.029 C 
ATOM      9  C   UNL A   1      33.951  24.812  22.864  1.00  0.00     0.005 C 
BRANCH   6  10
ATOM     10  N   UNL A   1      32.702  22.616  24.808  1.00  0.00    -0.346 N 
ATOM     11  C   UNL A   1      32.091  21.418  25.138  1.00  0.00     0.254 C 
ATOM     12  H   UNL A   1      32.245  23.408  25.175  1.00  0.00     0.164 HD
ATOM     13  O   UNL A   1      31.151  21.425  25.930  1.00  0.00    -0.269 OA
BRANCH  11  14
ATOM     14  C   UNL A   1      32.373  20.145  24.448  1.00  0.00     0.082 A 
ATOM     15  C   UNL A   1      33.161  18.922  25.472  1.00  0.00     0.102 A 
ATOM     16  C   UNL A   1      32.159  19.758  22.755  1.00  0.00     0.136 A 
ATOM     17  C   UNL A   1      33.753  17.149  24.690  1.00  0.00     0.270 A 
ATOM     18  C   UNL A   1      32.618  18.220  22.012  1.00  0.00     0.047 A 
ATOM     19  F   UNL A   1      31.849  20.748  21.903  1.00  0.00    -0.206 F 
ATOM     20  C   UNL A   1      33.401  16.916  22.912  1.00  0.00     0.088 A 
BRANCH  17  21
ATOM     21  N   UNL A   1      34.159  15.692  25.170  1.00  0.00     0.062 N 
ATOM     22  O   UNL A   1      35.325  15.333  25.360  1.00  0.00    -0.258 OA
ATOM     23  O   UNL A   1      33.207  14.915  25.341  1.00  0.00    -0.258 OA
ENDBRANCH  17  21
ENDBRANCH  11  14
ENDBRANCH   6  10
ENDBRANCH   5   6
ENDBRANCH   3   5
ENDBRANCH   2   3
ENDBRANCH   1   2
BRANCH   1  24
ATOM     24  C   UNL A   1      39.349  21.800  26.455  1.00  0.00     0.275 C 
BRANCH  24  25
ATOM     25  O   UNL A   1      39.765  20.503  25.979  1.00  0.00    -0.458 OA
BRANCH  25  26
ATOM     26  C   UNL A   1      41.105  20.214  26.044  1.00  0.00     0.338 C 
ATOM     27  O   UNL A   1      41.550  19.084  26.035  1.00  0.00    -0.246 OA
BRANCH  26  28
ATOM     28  C   UNL A   1      41.867  21.601  26.145  1.00  0.00     0.060 A 
ATOM     29  C   UNL A   1      42.589  23.088  24.971  1.00  0.00     0.016 A 
ATOM     30  C   UNL A   1      42.382  21.669  27.900  1.00  0.00     0.016 A 
ATOM     31  C   UNL A   1      43.623  24.346  25.641  1.00  0.00     0.010 A 
ATOM     32  C   UNL A   1      43.402  23.023  28.443  1.00  0.00     0.010 A 
ATOM     33  C   UNL A   1      43.977  24.297  27.335  1.00  0.00    -0.014 A 
BRANCH  33  34
ATOM     34  C   UNL A   1      44.695  25.511  27.736  1.00  0.00     0.031 A 
ATOM     35  C   UNL A   1      43.932  26.473  28.562  1.00  0.00     0.074 A 
ATOM     36  C   UNL A   1      46.031  25.606  27.609  1.00  0.00     0.049 A 
ATOM     37  N   UNL A   1      44.202  27.705  28.859  1.00  0.00    -0.248 NA
ATOM     38  C   UNL A   1      42.646  25.994  29.081  1.00  0.00     0.031 C 
ATOM     39  C   UNL A   1      46.916  24.581  27.057  1.00  0.00     0.029 A 
ATOM     40  N   UNL A   1      46.892  26.602  27.988  1.00  0.00    -0.354 N 
ATOM     41  C   UNL A   1      43.042  28.176  29.453  1.00  0.00     0.074 A 
ATOM     42  C   UNL A   1      42.061  27.127  29.408  1.00  0.00     0.031 C 
ATOM     43  C   UNL A   1      48.189  25.006  27.115  1.00  0.00     0.029 A 
ATOM     44  C   UNL A   1      48.204  26.360  27.647  1.00  0.00     0.049 A 
ATOM     45  H   UNL A   1      46.600  27.416  28.460  1.00  0.00     0.167 HD
ATOM     46  C   UNL A   1      42.840  29.382  30.015  1.00  0.00     0.031 A 
ATOM     47  C   UNL A   1      49.275  27.175  27.714  1.00  0.00     0.031 A 
ATOM     48  C   UNL A   1      43.901  30.335  30.126  1.00  0.00     0.049 A 
ATOM     49  C   UNL A   1      49.034  28.554  28.265  1.00  0.00     0.074 A 
ATOM     50  C   UNL A   1      43.870  31.606  30.652  1.00  0.00     0.029 A 
ATOM     51  N   UNL A   1      45.206  30.088  29.709  1.00  0.00    -0.354 N 
ATOM     52  N   UNL A   1      47.910  29.067  28.717  1.00  0.00    -0.248 NA
ATOM     53  C   UNL A   1      50.177  29.470  28.308  1.00  0.00     0.031 C 
ATOM     54  C   UNL A   1      45.141  32.159  30.474  1.00  0.00     0.029 A 
ATOM     55  C   UNL A   1      45.988  31.196  29.937  1.00  0.00     0.049 A 
ATOM     56  H   UNL A   1      45.522  29.245  29.310  1.00  0.00     0.167 HD
ATOM     57  C   UNL A   1      48.213  30.357  29.126  1.00  0.00     0.074 A 
ATOM     58  C   UNL A   1      49.632  30.543  28.869  1.00  0.00     0.031 C 
ATOM     59  C   UNL A   1      47.405  31.303  29.669  1.00  0.00     0.031 A 
BRANCH  46  60
ATOM     60  C   UNL A   1      41.430  29.711  30.410  1.00  0.00    -0.014 A 
ATOM     61  C   UNL A   1      40.941  29.525  31.718  1.00  0.00     0.010 A 
ATOM     62  C   UNL A   1      40.537  30.093  29.396  1.00  0.00     0.010 A 
ATOM     63  C   UNL A   1      39.573  29.636  31.983  1.00  0.00     0.020 A 
ATOM     64  C   UNL A   1      39.179  30.261  29.668  1.00  0.00     0.020 A 
ATOM     65  C   UNL A   1      38.703  30.008  30.955  1.00  0.00     0.054 A 
BRANCH  65  66
ATOM     66  S   UNL A   1      36.942  30.187  31.333  1.00  0.00     0.124 S 
ATOM     67  O   UNL A   1      36.771  29.260  32.449  1.00  0.00    -0.237 OA
ATOM     68  O   UNL A   1      36.837  31.604  31.673  1.00  0.00    -0.237 OA
ATOM     69  O   UNL A   1      36.279  29.796  30.091  1.00  0.00    -0.744 OA
ENDBRANCH  65  66
ENDBRANCH  46  60
BRANCH  47  70
ATOM     70  C   UNL A   1      50.598  26.738  27.171  1.00  0.00    -0.014 A 
ATOM     71  C   UNL A   1      51.604  26.204  27.995  1.00  0.00     0.010 A 
ATOM     72  C   UNL A   1      50.843  26.823  25.785  1.00  0.00     0.010 A 
ATOM     73  C   UNL A   1      52.816  25.755  27.446  1.00  0.00     0.020 A 
ATOM     74  C   UNL A   1      52.037  26.350  25.228  1.00  0.00     0.020 A 
ATOM     75  C   UNL A   1      53.017  25.817  26.062  1.00  0.00     0.054 A 
BRANCH  75  76
ATOM     76  S   UNL A   1      54.553  25.144  25.361  1.00  0.00     0.124 S 
ATOM     77  O   UNL A   1      54.157  23.791  24.989  1.00  0.00    -0.237 OA
ATOM     78  O   UNL A   1      54.814  26.056  24.250  1.00  0.00    -0.237 OA
ATOM     79  O   UNL A   1      55.505  25.234  26.466  1.00  0.00    -0.744 OA
ENDBRANCH  75  76
ENDBRANCH  47  70
BRANCH  59  80
ATOM     80  C   UNL A   1      48.046  32.589  30.093  1.00  0.00    -0.014 A 
ATOM     81  C   UNL A   1      48.669  32.721  31.344  1.00  0.00     0.010 A 
ATOM     82  C   UNL A   1      48.146  33.626  29.147  1.00  0.00     0.010 A 
ATOM     83  C   UNL A   1      49.379  33.883  31.644  1.00  0.00     0.020 A 
ATOM     84  C   UNL A   1      48.892  34.765  29.428  1.00  0.00     0.020 A 
ATOM     85  C   UNL A   1      49.499  34.888  30.678  1.00  0.00     0.054 A 
BRANCH  85  86
ATOM     86  S   UNL A   1      50.512  36.338  31.059  1.00  0.00     0.124 S 
ATOM     87  O   UNL A   1      50.727  36.188  32.496  1.00  0.00    -0.237 OA
ATOM     88  O   UNL A   1      51.689  36.131  30.220  1.00  0.00    -0.237 OA
ATOM     89  O   UNL A   1      49.666  37.465  30.671  1.00  0.00    -0.744 OA
ENDBRANCH  85  86
ENDBRANCH  59  80
ENDBRANCH  33  34
ENDBRANCH  26  28
ENDBRANCH  25  26
ENDBRANCH  24  25
ENDBRANCH   1  24
TORSDOF 18
ENDMDL
MODEL 2
REMARK VINA RESULT:     -10.5      6.229      9.654
REMARK SMILES O=C(CC1(NC(=O)c2cc([N+](=O)[O-])ccc2F)CCC1)OCCOC(=O)c1ccc(-c2c3nc(c(-c4ccc(S(=O)(=O)[O-])cc4)c4ccc([nH]4)c(-c4ccc(S(=O)(=O)[O-])cc4)c4nc(c(-c5ccc(S(=O)(=O)[O-])cc5)c5ccc2[nH]5)C=C4)C=C3)cc1
REMARK SMILES IDX 22 1 21 2 2 3 1 4 3 5 4 6 18 7 20 8 19 9 5 10 6 11 7 13 8 14
REMARK SMILES IDX 9 15 16 16 10 17 15 18 17 19 14 20 11 21 12 22 13 23 23 24
REMARK SMILES IDX 24 25 25 26 26 27 27 28 28 29 86 30 29 31 85 32 30 33 31 34
REMARK SMILES IDX 32 35 79 36 33 37 84 38 78 39 80 40 34 41 83 42 77 43 76 44
REMARK SMILES IDX 35 46 65 47 46 48 64 49 47 50 50 51 63 52 81 53 48 54 49 55
REMARK SMILES IDX 62 57 82 58 51 59 36 60 37 61 45 62 38 63 44 64 39 65 40 66
REMARK SMILES IDX 41 67 42 68 43 69 66 70 67 71 75 72 68 73 74 74 69 75 70 76
REMARK SMILES IDX 71 77 72 78 73 79 52 80 53 81 61 82 54 83 60 84 55 85 56 86
REMARK SMILES IDX 57 87 58 88 59 89
REMARK H PARENT 5 12 80 45 50 56
REMARK Flexibility Score: inf
ROOT
ATOM      1  C   UNL A   1      33.956  30.627  27.229  1.00  0.00     0.274 C 
ENDROOT
BRANCH   1   2
ATOM      2  O   UNL A   1      32.823  29.808  26.940  1.00  0.00    -0.462 OA
BRANCH   2   3
ATOM      3  C   UNL A   1      32.238  29.811  25.721  1.00  0.00     0.308 C 
ATOM      4  O   UNL A   1      31.324  30.600  25.485  1.00  0.00    -0.252 OA
BRANCH   3   5
ATOM      5  C   UNL A   1      32.507  28.669  24.802  1.00  0.00     0.151 C 
BRANCH   5   6
ATOM      6  C   UNL A   1      32.078  27.229  24.806  1.00  0.00     0.051 C 
ATOM      7  C   UNL A   1      33.121  26.368  25.536  1.00  0.00     0.029 C 
ATOM      8  C   UNL A   1      30.963  26.598  25.697  1.00  0.00     0.029 C 
ATOM      9  C   UNL A   1      32.018  25.712  26.368  1.00  0.00     0.005 C 
BRANCH   6  10
ATOM     10  N   UNL A   1      31.877  26.790  23.373  1.00  0.00    -0.346 N 
ATOM     11  C   UNL A   1      31.056  27.251  22.356  1.00  0.00     0.254 C 
ATOM     12  H   UNL A   1      32.439  26.025  23.110  1.00  0.00     0.164 HD
ATOM     13  O   UNL A   1      31.181  26.781  21.228  1.00  0.00    -0.269 OA
BRANCH  11  14
ATOM     14  C   UNL A   1      29.901  28.141  22.584  1.00  0.00     0.082 A 
ATOM     15  C   UNL A   1      30.217  29.851  22.208  1.00  0.00     0.102 A 
ATOM     16  C   UNL A   1      28.352  27.747  23.295  1.00  0.00     0.136 A 
ATOM     17  C   UNL A   1      28.809  31.263  22.572  1.00  0.00     0.270 A 
ATOM     18  C   UNL A   1      27.065  28.920  23.607  1.00  0.00     0.047 A 
ATOM     19  F   UNL A   1      28.191  26.541  23.861  1.00  0.00    -0.206 F 
ATOM     20  C   UNL A   1      27.239  30.647  23.275  1.00  0.00     0.088 A 
BRANCH  17  21
ATOM     21  N   UNL A   1      28.456  32.753  22.154  1.00  0.00     0.062 N 
ATOM     22  O   UNL A   1      27.843  33.050  21.125  1.00  0.00    -0.258 OA
ATOM     23  O   UNL A   1      28.851  33.623  22.946  1.00  0.00    -0.258 OA
ENDBRANCH  17  21
ENDBRANCH  11  14
ENDBRANCH   6  10
ENDBRANCH   5   6
ENDBRANCH   3   5
ENDBRANCH   2   3
ENDBRANCH   1   2
BRANCH   1  24
ATOM     24  C   UNL A   1      33.606  31.962  27.893  1.00  0.00     0.275 C 
BRANCH  24  25
ATOM     25  O   UNL A   1      34.762  32.767  28.207  1.00  0.00    -0.458 OA
BRANCH  25  26
ATOM     26  C   UNL A   1      34.938  33.122  29.521  1.00  0.00     0.338 C 
ATOM     27  O   UNL A   1      34.081  33.659  30.193  1.00  0.00    -0.246 OA
BRANCH  26  28
ATOM     28  C   UNL A   1      36.420  32.712  29.909  1.00  0.00     0.060 A 
ATOM     29  C   UNL A   1      38.339  33.301  29.629  1.00  0.00     0.016 A 
ATOM     30  C   UNL A   1      36.211  31.061  30.673  1.00  0.00     0.016 A 
ATOM     31  C   UNL A   1      39.681  32.271  30.119  1.00  0.00     0.010 A 
ATOM     32  C   UNL A   1      37.662  30.147  31.150  1.00  0.00     0.010 A 
ATOM     33  C   UNL A   1      39.315  30.757  30.876  1.00  0.00    -0.014 A 
BRANCH  33  34
ATOM     34  C   UNL A   1      40.545  30.129  31.369  1.00  0.00     0.031 A 
ATOM     35  C   UNL A   1      40.990  30.544  32.719  1.00  0.00     0.074 A 
ATOM     36  C   UNL A   1      41.067  29.046  30.764  1.00  0.00     0.049 A 
ATOM     37  N   UNL A   1      42.128  30.355  33.309  1.00  0.00    -0.248 NA
ATOM     38  C   UNL A   1      40.030  31.337  33.494  1.00  0.00     0.031 C 
ATOM     39  C   UNL A   1      40.532  28.386  29.574  1.00  0.00     0.029 A 
ATOM     40  N   UNL A   1      42.144  28.271  31.103  1.00  0.00    -0.354 N 
ATOM     41  C   UNL A   1      42.060  31.150  34.442  1.00  0.00     0.074 A 
ATOM     42  C   UNL A   1      40.812  31.862  34.414  1.00  0.00     0.031 C 
ATOM     43  C   UNL A   1      41.290  27.320  29.270  1.00  0.00     0.029 A 
ATOM     44  C   UNL A   1      42.404  27.260  30.205  1.00  0.00     0.049 A 
ATOM     45  H   UNL A   1      42.685  28.424  31.912  1.00  0.00     0.167 HD
ATOM     46  C   UNL A   1      42.965  31.241  35.435  1.00  0.00     0.031 A 
ATOM     47  C   UNL A   1      43.458  26.424  30.130  1.00  0.00     0.031 A 
ATOM     48  C   UNL A   1      44.131  30.413  35.452  1.00  0.00     0.049 A 
ATOM     49  C   UNL A   1      44.513  26.581  31.192  1.00  0.00     0.074 A 
ATOM     50  C   UNL A   1      45.156  30.383  36.369  1.00  0.00     0.029 A 
ATOM     51  N   UNL A   1      44.403  29.444  34.491  1.00  0.00    -0.354 N 
ATOM     52  N   UNL A   1      44.531  27.417  32.206  1.00  0.00    -0.248 NA
ATOM     53  C   UNL A   1      45.687  25.708  31.105  1.00  0.00     0.031 C 
ATOM     54  C   UNL A   1      46.093  29.450  35.914  1.00  0.00     0.029 A 
ATOM     55  C   UNL A   1      45.600  28.826  34.773  1.00  0.00     0.049 A 
ATOM     56  H   UNL A   1      43.826  29.232  33.723  1.00  0.00     0.167 HD
ATOM     57  C   UNL A   1      45.704  27.156  32.899  1.00  0.00     0.074 A 
ATOM     58  C   UNL A   1      46.367  26.078  32.185  1.00  0.00     0.031 C 
ATOM     59  C   UNL A   1      46.192  27.742  34.022  1.00  0.00     0.031 A 
BRANCH  46  60
ATOM     60  C   UNL A   1      42.742  32.324  36.449  1.00  0.00    -0.014 A 
ATOM     61  C   UNL A   1      41.994  32.125  37.626  1.00  0.00     0.010 A 
ATOM     62  C   UNL A   1      43.190  33.618  36.136  1.00  0.00     0.010 A 
ATOM     63  C   UNL A   1      41.632  33.214  38.424  1.00  0.00     0.020 A 
ATOM     64  C   UNL A   1      42.880  34.699  36.960  1.00  0.00     0.020 A 
ATOM     65  C   UNL A   1      42.083  34.493  38.086  1.00  0.00     0.054 A 
BRANCH  65  66
ATOM     66  S   UNL A   1      41.636  35.881  39.159  1.00  0.00     0.124 S 
ATOM     67  O   UNL A   1      41.101  35.200  40.336  1.00  0.00    -0.237 OA
ATOM     68  O   UNL A   1      42.919  36.552  39.354  1.00  0.00    -0.237 OA
ATOM     69  O   UNL A   1      40.657  36.627  38.373  1.00  0.00    -0.744 OA
ENDBRANCH  65  66
ENDBRANCH  46  60
BRANCH  47  70
ATOM     70  C   UNL A   1      43.592  25.470  28.987  1.00  0.00    -0.014 A 
ATOM     71  C   UNL A   1      43.177  24.130  29.079  1.00  0.00     0.010 A 
ATOM     72  C   UNL A   1      44.115  25.925  27.759  1.00  0.00     0.010 A 
ATOM     73  C   UNL A   1      43.270  23.273  27.971  1.00  0.00     0.020 A 
ATOM     74  C   UNL A   1      44.182  25.085  26.642  1.00  0.00     0.020 A 
ATOM     75  C   UNL A   1      43.758  23.762  26.754  1.00  0.00     0.054 A 
BRANCH  75  76
ATOM     76  S   UNL A   1      43.782  22.665  25.305  1.00  0.00     0.124 S 
ATOM     77  O   UNL A   1      44.692  21.608  25.733  1.00  0.00    -0.237 OA
ATOM     78  O   UNL A   1      42.378  22.281  25.181  1.00  0.00    -0.237 OA
ATOM     79  O   UNL A   1      44.282  23.522  24.232  1.00  0.00    -0.744 OA
ENDBRANCH  75  76
ENDBRANCH  47  70
BRANCH  59  80
ATOM     80  C   UNL A   1      47.459  27.180  34.592  1.00  0.00    -0.014 A 
ATOM     81  C   UNL A   1      47.443  26.134  35.527  1.00  0.00     0.010 A 
ATOM     82  C   UNL A   1      48.682  27.622  34.054  1.00  0.00     0.010 A 
ATOM     83  C   UNL A   1      48.641  25.541  35.922  1.00  0.00     0.020 A 
ATOM     84  C   UNL A   1      49.874  27.001  34.414  1.00  0.00     0.020 A 
ATOM     85  C   UNL A   1      49.845  25.968  35.351  1.00  0.00     0.054 A 
BRANCH  85  86
ATOM     86  S   UNL A   1      51.372  25.112  35.808  1.00  0.00     0.124 S 
ATOM     87  O   UNL A   1      52.029  26.099  36.661  1.00  0.00    -0.237 OA
ATOM     88  O   UNL A   1      50.874  23.920  36.490  1.00  0.00    -0.237 OA
ATOM     89  O   UNL A   1      52.028  24.863  34.526  1.00  0.00    -0.744 OA
ENDBRANCH  85  86
ENDBRANCH  59  80
ENDBRANCH  33  34
ENDBRANCH  26  28
ENDBRANCH  25  26
ENDBRANCH  24  25
ENDBRANCH   1  24
TORSDOF 18
ENDMDL
MODEL 3
REMARK VINA RESULT:     -10.3      2.695      8.961
REMARK SMILES O=C(CC1(NC(=O)c2cc([N+](=O)[O-])ccc2F)CCC1)OCCOC(=O)c1ccc(-c2c3nc(c(-c4ccc(S(=O)(=O)[O-])cc4)c4ccc([nH]4)c(-c4ccc(S(=O)(=O)[O-])cc4)c4nc(c(-c5ccc(S(=O)(=O)[O-])cc5)c5ccc2[nH]5)C=C4)C=C3)cc1
REMARK SMILES IDX 22 1 21 2 2 3 1 4 3 5 4 6 18 7 20 8 19 9 5 10 6 11 7 13 8 14
REMARK SMILES IDX 9 15 16 16 10 17 15 18 17 19 14 20 11 21 12 22 13 23 23 24
REMARK SMILES IDX 24 25 25 26 26 27 27 28 28 29 86 30 29 31 85 32 30 33 31 34
REMARK SMILES IDX 32 35 79 36 33 37 84 38 78 39 80 40 34 41 83 42 77 43 76 44
REMARK SMILES IDX 35 46 65 47 46 48 64 49 47 50 50 51 63 52 81 53 48 54 49 55
REMARK SMILES IDX 62 57 82 58 51 59 36 60 37 61 45 62 38 63 44 64 39 65 40 66
REMARK SMILES IDX 41 67 42 68 43 69 66 70 67 71 75 72 68 73 74 74 69 75 70 76
REMARK SMILES IDX 71 77 72 78 73 79 52 80 53 81 61 82 54 83 60 84 55 85 56 86
REMARK SMILES IDX 57 87 58 88 59 89
REMARK H PARENT 5 12 80 45 50 56
REMARK Flexibility Score: inf
ROOT
ATOM      1  C   UNL A   1      37.729  21.965  25.618  1.00  0.00     0.274 C 
ENDROOT
BRANCH   1   2
ATOM      2  O   UNL A   1      37.081  21.526  24.424  1.00  0.00    -0.462 OA
BRANCH   2   3
ATOM      3  C   UNL A   1      36.265  22.341  23.718  1.00  0.00     0.308 C 
ATOM      4  O   UNL A   1      36.712  22.974  22.762  1.00  0.00    -0.252 OA
BRANCH   3   5
ATOM      5  C   UNL A   1      34.932  22.681  24.292  1.00  0.00     0.151 C 
BRANCH   5   6
ATOM      6  C   UNL A   1      33.658  23.197  23.684  1.00  0.00     0.051 C 
ATOM      7  C   UNL A   1      33.746  24.718  23.483  1.00  0.00     0.029 C 
ATOM      8  C   UNL A   1      33.216  23.045  22.195  1.00  0.00     0.029 C 
ATOM      9  C   UNL A   1      33.258  24.570  22.041  1.00  0.00     0.005 C 
BRANCH   6  10
ATOM     10  N   UNL A   1      32.510  22.804  24.586  1.00  0.00    -0.346 N 
ATOM     11  C   UNL A   1      32.032  21.578  25.018  1.00  0.00     0.254 C 
ATOM     12  H   UNL A   1      32.000  23.571  24.934  1.00  0.00     0.164 HD
ATOM     13  O   UNL A   1      31.139  21.548  25.862  1.00  0.00    -0.269 OA
BRANCH  11  14
ATOM     14  C   UNL A   1      32.395  20.295  24.384  1.00  0.00     0.082 A 
ATOM     15  C   UNL A   1      33.398  19.239  25.407  1.00  0.00     0.102 A 
ATOM     16  C   UNL A   1      32.086  19.769  22.744  1.00  0.00     0.136 A 
ATOM     17  C   UNL A   1      34.116  17.486  24.685  1.00  0.00     0.270 A 
ATOM     18  C   UNL A   1      32.650  18.239  22.060  1.00  0.00     0.047 A 
ATOM     19  F   UNL A   1      31.599  20.657  21.864  1.00  0.00    -0.206 F 
ATOM     20  C   UNL A   1      33.646  17.092  22.963  1.00  0.00     0.088 A 
BRANCH  17  21
ATOM     21  N   UNL A   1      34.721  16.118  25.215  1.00  0.00     0.062 N 
ATOM     22  O   UNL A   1      34.062  15.083  25.346  1.00  0.00    -0.258 OA
ATOM     23  O   UNL A   1      35.927  16.159  25.502  1.00  0.00    -0.258 OA
ENDBRANCH  17  21
ENDBRANCH  11  14
ENDBRANCH   6  10
ENDBRANCH   5   6
ENDBRANCH   3   5
ENDBRANCH   2   3
ENDBRANCH   1   2
BRANCH   1  24
ATOM     24  C   UNL A   1      39.133  21.384  25.815  1.00  0.00     0.275 C 
BRANCH  24  25
ATOM     25  O   UNL A   1      39.872  22.019  26.879  1.00  0.00    -0.458 OA
BRANCH  25  26
ATOM     26  C   UNL A   1      41.198  22.283  26.647  1.00  0.00     0.338 C 
ATOM     27  O   UNL A   1      42.009  21.433  26.339  1.00  0.00    -0.246 OA
BRANCH  26  28
ATOM     28  C   UNL A   1      41.401  23.839  26.881  1.00  0.00     0.060 A 
ATOM     29  C   UNL A   1      41.228  25.610  25.912  1.00  0.00     0.016 A 
ATOM     30  C   UNL A   1      42.260  23.910  28.496  1.00  0.00     0.016 A 
ATOM     31  C   UNL A   1      41.859  27.094  26.622  1.00  0.00     0.010 A 
ATOM     32  C   UNL A   1      42.813  25.489  29.105  1.00  0.00     0.010 A 
ATOM     33  C   UNL A   1      42.601  27.001  28.183  1.00  0.00    -0.014 A 
BRANCH  33  34
ATOM     34  C   UNL A   1      42.899  28.348  28.680  1.00  0.00     0.031 A 
ATOM     35  C   UNL A   1      44.288  28.820  28.485  1.00  0.00     0.074 A 
ATOM     36  C   UNL A   1      41.914  29.199  29.023  1.00  0.00     0.049 A 
ATOM     37  N   UNL A   1      44.900  29.833  29.013  1.00  0.00    -0.248 NA
ATOM     38  C   UNL A   1      45.128  27.995  27.610  1.00  0.00     0.031 C 
ATOM     39  C   UNL A   1      40.481  28.915  28.982  1.00  0.00     0.029 A 
ATOM     40  N   UNL A   1      41.970  30.506  29.429  1.00  0.00    -0.354 N 
ATOM     41  C   UNL A   1      46.227  29.653  28.657  1.00  0.00     0.074 A 
ATOM     42  C   UNL A   1      46.332  28.414  27.937  1.00  0.00     0.031 C 
ATOM     43  C   UNL A   1      39.794  30.005  29.362  1.00  0.00     0.029 A 
ATOM     44  C   UNL A   1      40.741  31.043  29.740  1.00  0.00     0.049 A 
ATOM     45  H   UNL A   1      42.811  31.015  29.493  1.00  0.00     0.167 HD
ATOM     46  C   UNL A   1      47.259  30.485  28.893  1.00  0.00     0.031 A 
ATOM     47  C   UNL A   1      40.437  32.223  30.316  1.00  0.00     0.031 A 
ATOM     48  C   UNL A   1      47.058  31.758  29.514  1.00  0.00     0.049 A 
ATOM     49  C   UNL A   1      41.597  33.119  30.659  1.00  0.00     0.074 A 
ATOM     50  C   UNL A   1      47.988  32.717  29.841  1.00  0.00     0.029 A 
ATOM     51  N   UNL A   1      45.807  32.247  29.882  1.00  0.00    -0.354 N 
ATOM     52  N   UNL A   1      42.878  32.912  30.445  1.00  0.00    -0.248 NA
ATOM     53  C   UNL A   1      41.291  34.388  31.323  1.00  0.00     0.031 C 
ATOM     54  C   UNL A   1      47.306  33.753  30.486  1.00  0.00     0.029 A 
ATOM     55  C   UNL A   1      45.941  33.486  30.464  1.00  0.00     0.049 A 
ATOM     56  H   UNL A   1      44.954  31.776  29.746  1.00  0.00     0.167 HD
ATOM     57  C   UNL A   1      43.533  34.037  30.923  1.00  0.00     0.074 A 
ATOM     58  C   UNL A   1      42.501  34.923  31.434  1.00  0.00     0.031 C 
ATOM     59  C   UNL A   1      44.861  34.322  30.937  1.00  0.00     0.031 A 
BRANCH  46  60
ATOM     60  C   UNL A   1      48.629  29.962  28.576  1.00  0.00    -0.014 A 
ATOM     61  C   UNL A   1      49.192  30.027  27.287  1.00  0.00     0.010 A 
ATOM     62  C   UNL A   1      49.313  29.262  29.584  1.00  0.00     0.010 A 
ATOM     63  C   UNL A   1      50.370  29.334  26.995  1.00  0.00     0.020 A 
ATOM     64  C   UNL A   1      50.519  28.617  29.312  1.00  0.00     0.020 A 
ATOM     65  C   UNL A   1      51.027  28.638  28.012  1.00  0.00     0.054 A 
BRANCH  65  66
ATOM     66  S   UNL A   1      52.574  27.784  27.619  1.00  0.00     0.124 S 
ATOM     67  O   UNL A   1      52.774  28.141  26.216  1.00  0.00    -0.237 OA
ATOM     68  O   UNL A   1      53.514  28.390  28.559  1.00  0.00    -0.237 OA
ATOM     69  O   UNL A   1      52.267  26.378  27.867  1.00  0.00    -0.744 OA
ENDBRANCH  65  66
ENDBRANCH  46  60
BRANCH  47  70
ATOM     70  C   UNL A   1      39.024  32.552  30.674  1.00  0.00    -0.014 A 
ATOM     71  C   UNL A   1      38.472  32.219  31.924  1.00  0.00     0.010 A 
ATOM     72  C   UNL A   1      38.218  33.253  29.753  1.00  0.00     0.010 A 
ATOM     73  C   UNL A   1      37.157  32.588  32.248  1.00  0.00     0.020 A 
ATOM     74  C   UNL A   1      36.917  33.650  30.081  1.00  0.00     0.020 A 
ATOM     75  C   UNL A   1      36.393  33.316  31.329  1.00  0.00     0.054 A 
BRANCH  75  76
ATOM     76  S   UNL A   1      34.727  33.867  31.802  1.00  0.00     0.124 S 
ATOM     77  O   UNL A   1      34.071  32.610  32.144  1.00  0.00    -0.237 OA
ATOM     78  O   UNL A   1      35.001  34.763  32.923  1.00  0.00    -0.237 OA
ATOM     79  O   UNL A   1      34.226  34.525  30.597  1.00  0.00    -0.744 OA
ENDBRANCH  75  76
ENDBRANCH  47  70
BRANCH  59  80
ATOM     80  C   UNL A   1      45.265  35.671  31.447  1.00  0.00    -0.014 A 
ATOM     81  C   UNL A   1      45.281  36.798  30.610  1.00  0.00     0.010 A 
ATOM     82  C   UNL A   1      45.486  35.821  32.829  1.00  0.00     0.010 A 
ATOM     83  C   UNL A   1      45.521  38.060  31.154  1.00  0.00     0.020 A 
ATOM     84  C   UNL A   1      45.681  37.083  33.378  1.00  0.00     0.020 A 
ATOM     85  C   UNL A   1      45.703  38.194  32.535  1.00  0.00     0.054 A 
BRANCH  85  86
ATOM     86  S   UNL A   1      45.911  39.855  33.223  1.00  0.00     0.124 S 
ATOM     87  O   UNL A   1      44.723  39.985  34.063  1.00  0.00    -0.237 OA
ATOM     88  O   UNL A   1      47.180  39.745  33.936  1.00  0.00    -0.237 OA
ATOM     89  O   UNL A   1      45.936  40.718  32.044  1.00  0.00    -0.744 OA
ENDBRANCH  85  86
ENDBRANCH  59  80
ENDBRANCH  33  34
ENDBRANCH  26  28
ENDBRANCH  25  26
ENDBRANCH  24  25
ENDBRANCH   1  24
TORSDOF 18
ENDMDL
