MODEL 1
REMARK VINA RESULT:      -9.3      0.000      0.000
REMARK SMILES CS(=O)(=O)c1ccc(/C=C(/C(=O)OCCOC(=O)c2ccc(-c3c4nc(c(-c5ccc(S(=O)(=O)[O-])cc5)c5ccc([nH]5)c(-c5ccc(S(=O)(=O)[O-])cc5)c5nc(c(-c6ccc(S(=O)(=O)[O-])cc6)c6ccc3[nH]6)C=C5)C=C4)cc2)c2ccc(-c3ccc(S(C)(=O)=O)cc3)cc2)cc1
REMARK SMILES IDX 14 1 13 2 11 3 12 4 10 5 9 6 8 7 5 8 6 9 96 10 7 11 95 12
REMARK SMILES IDX 2 13 1 14 3 15 4 16 79 17 80 18 94 19 81 20 93 21 82 22
REMARK SMILES IDX 83 23 84 24 92 25 85 26 91 27 86 28 87 29 88 30 89 31 90 32
REMARK SMILES IDX 15 33 16 34 17 35 18 36 19 37 20 38 78 39 21 40 77 41 22 42
REMARK SMILES IDX 23 43 24 44 71 45 25 46 76 47 70 48 72 49 26 50 75 51 69 52
REMARK SMILES IDX 68 53 27 55 57 56 38 57 56 58 39 59 42 60 55 61 73 62 40 63
REMARK SMILES IDX 41 64 54 66 74 67 43 68 28 69 29 70 37 71 30 72 36 73 31 74
REMARK SMILES IDX 32 75 33 76 34 77 35 78 58 79 59 80 67 81 60 82 66 83 61 84
REMARK SMILES IDX 62 85 63 86 64 87 65 88 44 89 45 90 53 91 46 92 52 93 47 94
REMARK SMILES IDX 48 95 49 96 50 97 51 98
REMARK H PARENT 72 54 42 65
REMARK Flexibility Score: inf
ROOT
ATOM      1  C   UNL A   1      41.968  29.035  26.789  1.00  0.00     0.275 C 
ENDROOT
BRANCH   1   2
ATOM      2  O   UNL A   1      43.099  28.144  26.696  1.00  0.00    -0.458 OA
BRANCH   2   3
ATOM      3  C   UNL A   1      43.220  27.493  25.509  1.00  0.00     0.338 C 
ATOM      4  O   UNL A   1      42.852  27.921  24.424  1.00  0.00    -0.246 OA
BRANCH   3   5
ATOM      5  C   UNL A   1      43.901  26.173  25.662  1.00  0.00     0.067 C 
ATOM      6  C   UNL A   1      43.164  25.044  25.548  1.00  0.00     0.024 C 
BRANCH   6   7
ATOM      7  C   UNL A   1      43.640  23.647  25.386  1.00  0.00    -0.025 A 
ATOM      8  C   UNL A   1      44.211  20.914  25.013  1.00  0.00     0.067 A 
ATOM      9  C   UNL A   1      44.803  21.863  24.188  1.00  0.00     0.021 A 
ATOM     10  C   UNL A   1      43.400  21.315  26.075  1.00  0.00     0.021 A 
ATOM     11  C   UNL A   1      44.543  23.219  24.404  1.00  0.00     0.009 A 
ATOM     12  C   UNL A   1      43.113  22.674  26.251  1.00  0.00     0.009 A 
BRANCH   8  13
ATOM     13  S   UNL A   1      44.465  19.193  24.659  1.00  0.00     0.175 S 
ATOM     14  C   UNL A   1      46.018  18.790  25.413  1.00  0.00     0.163 C 
ATOM     15  O   UNL A   1      44.619  19.081  23.218  1.00  0.00    -0.224 OA
ATOM     16  O   UNL A   1      43.450  18.445  25.369  1.00  0.00    -0.224 OA
ENDBRANCH   8  13
ENDBRANCH   6   7
BRANCH   5  17
ATOM     17  C   UNL A   1      45.369  26.174  25.756  1.00  0.00    -0.011 A 
ATOM     18  C   UNL A   1      45.985  25.691  26.916  1.00  0.00     0.009 A 
ATOM     19  C   UNL A   1      46.165  26.591  24.688  1.00  0.00     0.009 A 
ATOM     20  C   UNL A   1      47.379  25.601  26.992  1.00  0.00     0.009 A 
ATOM     21  C   UNL A   1      47.559  26.500  24.774  1.00  0.00     0.009 A 
ATOM     22  C   UNL A   1      48.201  26.007  25.926  1.00  0.00    -0.018 A 
BRANCH  22  23
ATOM     23  C   UNL A   1      49.680  25.921  26.012  1.00  0.00    -0.018 A 
ATOM     24  C   UNL A   1      50.499  26.245  24.912  1.00  0.00     0.010 A 
ATOM     25  C   UNL A   1      50.323  25.528  27.202  1.00  0.00     0.010 A 
ATOM     26  C   UNL A   1      51.894  26.207  25.002  1.00  0.00     0.021 A 
ATOM     27  C   UNL A   1      51.717  25.499  27.308  1.00  0.00     0.021 A 
ATOM     28  C   UNL A   1      52.495  25.844  26.206  1.00  0.00     0.067 A 
BRANCH  28  29
ATOM     29  S   UNL A   1      54.264  25.896  26.342  1.00  0.00     0.175 S 
ATOM     30  C   UNL A   1      54.552  25.917  28.087  1.00  0.00     0.163 C 
ATOM     31  O   UNL A   1      54.759  24.643  25.800  1.00  0.00    -0.224 OA
ATOM     32  O   UNL A   1      54.708  27.162  25.788  1.00  0.00    -0.224 OA
ENDBRANCH  28  29
ENDBRANCH  22  23
ENDBRANCH   5  17
ENDBRANCH   3   5
ENDBRANCH   2   3
ENDBRANCH   1   2
BRANCH   1  33
ATOM     33  C   UNL A   1      40.664  28.283  26.531  1.00  0.00     0.275 C 
BRANCH  33  34
ATOM     34  O   UNL A   1      40.551  27.171  27.438  1.00  0.00    -0.458 OA
BRANCH  34  35
ATOM     35  C   UNL A   1      40.388  27.487  28.743  1.00  0.00     0.338 C 
ATOM     36  O   UNL A   1      39.413  28.020  29.252  1.00  0.00    -0.246 OA
BRANCH  35  37
ATOM     37  C   UNL A   1      41.566  27.071  29.530  1.00  0.00     0.060 A 
ATOM     38  C   UNL A   1      41.993  27.831  30.613  1.00  0.00     0.016 A 
ATOM     39  C   UNL A   1      42.351  26.008  29.083  1.00  0.00     0.016 A 
ATOM     40  C   UNL A   1      43.266  27.618  31.147  1.00  0.00     0.010 A 
ATOM     41  C   UNL A   1      43.578  25.729  29.704  1.00  0.00     0.010 A 
ATOM     42  C   UNL A   1      44.093  26.575  30.702  1.00  0.00    -0.014 A 
BRANCH  42  43
ATOM     43  C   UNL A   1      45.494  26.411  31.218  1.00  0.00     0.031 A 
ATOM     44  C   UNL A   1      46.629  27.253  30.668  1.00  0.00     0.074 A 
ATOM     45  C   UNL A   1      45.787  25.530  32.200  1.00  0.00     0.049 A 
ATOM     46  N   UNL A   1      47.924  27.091  30.800  1.00  0.00    -0.248 NA
ATOM     47  C   UNL A   1      46.261  28.418  29.844  1.00  0.00     0.031 C 
ATOM     48  C   UNL A   1      44.825  24.680  32.903  1.00  0.00     0.029 A 
ATOM     49  N   UNL A   1      46.991  25.211  32.787  1.00  0.00    -0.354 N 
ATOM     50  C   UNL A   1      48.518  28.061  29.996  1.00  0.00     0.074 A 
ATOM     51  C   UNL A   1      47.443  28.826  29.402  1.00  0.00     0.031 C 
ATOM     52  C   UNL A   1      45.456  24.002  33.871  1.00  0.00     0.029 A 
ATOM     53  C   UNL A   1      46.888  24.256  33.771  1.00  0.00     0.049 A 
ATOM     54  H   UNL A   1      47.844  25.627  32.526  1.00  0.00     0.167 HD
ATOM     55  C   UNL A   1      49.835  28.286  29.761  1.00  0.00     0.031 A 
ATOM     56  C   UNL A   1      47.825  23.595  34.477  1.00  0.00     0.031 A 
ATOM     57  C   UNL A   1      50.909  27.583  30.415  1.00  0.00     0.049 A 
ATOM     58  C   UNL A   1      49.276  23.833  34.192  1.00  0.00     0.074 A 
ATOM     59  C   UNL A   1      52.272  27.804  30.303  1.00  0.00     0.029 A 
ATOM     60  N   UNL A   1      50.748  26.533  31.305  1.00  0.00    -0.354 N 
ATOM     61  N   UNL A   1      49.818  24.644  33.317  1.00  0.00    -0.248 NA
ATOM     62  C   UNL A   1      50.243  23.044  34.968  1.00  0.00     0.031 C 
ATOM     63  C   UNL A   1      52.936  26.881  31.120  1.00  0.00     0.029 A 
ATOM     64  C   UNL A   1      51.984  26.121  31.778  1.00  0.00     0.049 A 
ATOM     65  H   UNL A   1      49.883  26.139  31.564  1.00  0.00     0.167 HD
ATOM     66  C   UNL A   1      51.190  24.470  33.442  1.00  0.00     0.074 A 
ATOM     67  C   UNL A   1      51.396  23.482  34.480  1.00  0.00     0.031 C 
ATOM     68  C   UNL A   1      52.186  25.094  32.768  1.00  0.00     0.031 A 
BRANCH  55  69
ATOM     69  C   UNL A   1      50.202  29.313  28.718  1.00  0.00    -0.014 A 
ATOM     70  C   UNL A   1      50.315  28.986  27.356  1.00  0.00     0.010 A 
ATOM     71  C   UNL A   1      50.382  30.651  29.117  1.00  0.00     0.010 A 
ATOM     72  C   UNL A   1      50.647  29.972  26.419  1.00  0.00     0.020 A 
ATOM     73  C   UNL A   1      50.687  31.643  28.181  1.00  0.00     0.020 A 
ATOM     74  C   UNL A   1      50.838  31.293  26.838  1.00  0.00     0.054 A 
BRANCH  74  75
ATOM     75  S   UNL A   1      51.255  32.556  25.604  1.00  0.00     0.124 S 
ATOM     76  O   UNL A   1      52.364  33.252  26.251  1.00  0.00    -0.237 OA
ATOM     77  O   UNL A   1      51.612  31.757  24.434  1.00  0.00    -0.237 OA
ATOM     78  O   UNL A   1      50.024  33.331  25.473  1.00  0.00    -0.744 OA
ENDBRANCH  74  75
ENDBRANCH  55  69
BRANCH  56  79
ATOM     79  C   UNL A   1      47.398  22.579  35.475  1.00  0.00    -0.014 A 
ATOM     80  C   UNL A   1      47.236  21.234  35.102  1.00  0.00     0.010 A 
ATOM     81  C   UNL A   1      47.219  22.946  36.823  1.00  0.00     0.010 A 
ATOM     82  C   UNL A   1      46.917  20.271  36.063  1.00  0.00     0.020 A 
ATOM     83  C   UNL A   1      46.930  21.981  37.789  1.00  0.00     0.020 A 
ATOM     84  C   UNL A   1      46.777  20.648  37.403  1.00  0.00     0.054 A 
BRANCH  84  85
ATOM     85  S   UNL A   1      46.475  19.372  38.656  1.00  0.00     0.124 S 
ATOM     86  O   UNL A   1      47.809  18.816  38.851  1.00  0.00    -0.237 OA
ATOM     87  O   UNL A   1      45.940  20.144  39.775  1.00  0.00    -0.237 OA
ATOM     88  O   UNL A   1      45.512  18.485  38.009  1.00  0.00    -0.744 OA
ENDBRANCH  84  85
ENDBRANCH  56  79
BRANCH  68  89
ATOM     89  C   UNL A   1      53.596  24.729  33.142  1.00  0.00    -0.014 A 
ATOM     90  C   UNL A   1      54.311  23.764  32.412  1.00  0.00     0.010 A 
ATOM     91  C   UNL A   1      54.219  25.376  34.224  1.00  0.00     0.010 A 
ATOM     92  C   UNL A   1      55.617  23.430  32.779  1.00  0.00     0.020 A 
ATOM     93  C   UNL A   1      55.532  25.060  34.580  1.00  0.00     0.020 A 
ATOM     94  C   UNL A   1      56.218  24.077  33.863  1.00  0.00     0.054 A 
BRANCH  94  95
ATOM     95  S   UNL A   1      57.926  23.651  34.300  1.00  0.00     0.124 S 
ATOM     96  O   UNL A   1      58.539  24.969  34.445  1.00  0.00    -0.237 OA
ATOM     97  O   UNL A   1      57.763  22.895  35.540  1.00  0.00    -0.237 OA
ATOM     98  O   UNL A   1      58.390  22.869  33.157  1.00  0.00    -0.744 OA
ENDBRANCH  94  95
ENDBRANCH  68  89
ENDBRANCH  42  43
ENDBRANCH  35  37
ENDBRANCH  34  35
ENDBRANCH  33  34
ENDBRANCH   1  33
TORSDOF 19
ENDMDL
MODEL 2
REMARK VINA RESULT:      -9.1      6.590     11.066
REMARK SMILES CS(=O)(=O)c1ccc(/C=C(/C(=O)OCCOC(=O)c2ccc(-c3c4nc(c(-c5ccc(S(=O)(=O)[O-])cc5)c5ccc([nH]5)c(-c5ccc(S(=O)(=O)[O-])cc5)c5nc(c(-c6ccc(S(=O)(=O)[O-])cc6)c6ccc3[nH]6)C=C5)C=C4)cc2)c2ccc(-c3ccc(S(C)(=O)=O)cc3)cc2)cc1
REMARK SMILES IDX 14 1 13 2 11 3 12 4 10 5 9 6 8 7 5 8 6 9 96 10 7 11 95 12
REMARK SMILES IDX 2 13 1 14 3 15 4 16 79 17 80 18 94 19 81 20 93 21 82 22
REMARK SMILES IDX 83 23 84 24 92 25 85 26 91 27 86 28 87 29 88 30 89 31 90 32
REMARK SMILES IDX 15 33 16 34 17 35 18 36 19 37 20 38 78 39 21 40 77 41 22 42
REMARK SMILES IDX 23 43 24 44 71 45 25 46 76 47 70 48 72 49 26 50 75 51 69 52
REMARK SMILES IDX 68 53 27 55 57 56 38 57 56 58 39 59 42 60 55 61 73 62 40 63
REMARK SMILES IDX 41 64 54 66 74 67 43 68 28 69 29 70 37 71 30 72 36 73 31 74
REMARK SMILES IDX 32 75 33 76 34 77 35 78 58 79 59 80 67 81 60 82 66 83 61 84
REMARK SMILES IDX 62 85 63 86 64 87 65 88 44 89 45 90 53 91 46 92 52 93 47 94
REMARK SMILES IDX 48 95 49 96 50 97 51 98
REMARK H PARENT 72 54 42 65
REMARK Flexibility Score: inf
ROOT
ATOM      1  C   UNL A   1      38.389  32.339  37.933  1.00  0.00     0.275 C 
ENDROOT
BRANCH   1   2
ATOM      2  O   UNL A   1      38.067  32.467  36.532  1.00  0.00    -0.458 OA
BRANCH   2   3
ATOM      3  C   UNL A   1      38.413  31.399  35.765  1.00  0.00     0.338 C 
ATOM      4  O   UNL A   1      39.125  30.470  36.121  1.00  0.00    -0.246 OA
BRANCH   3   5
ATOM      5  C   UNL A   1      37.787  31.457  34.411  1.00  0.00     0.067 C 
ATOM      6  C   UNL A   1      36.855  32.407  34.164  1.00  0.00     0.024 C 
BRANCH   6   7
ATOM      7  C   UNL A   1      36.304  32.838  32.855  1.00  0.00    -0.025 A 
ATOM      8  C   UNL A   1      34.967  33.738  30.546  1.00  0.00     0.067 A 
ATOM      9  C   UNL A   1      36.144  34.358  30.950  1.00  0.00     0.021 A 
ATOM     10  C   UNL A   1      34.491  32.621  31.232  1.00  0.00     0.021 A 
ATOM     11  C   UNL A   1      36.819  33.881  32.076  1.00  0.00     0.009 A 
ATOM     12  C   UNL A   1      35.154  32.183  32.384  1.00  0.00     0.009 A 
BRANCH   8  13
ATOM     13  S   UNL A   1      34.064  34.423  29.179  1.00  0.00     0.175 S 
ATOM     14  C   UNL A   1      33.840  33.075  28.050  1.00  0.00     0.163 C 
ATOM     15  O   UNL A   1      34.935  35.401  28.550  1.00  0.00    -0.224 OA
ATOM     16  O   UNL A   1      32.748  34.786  29.661  1.00  0.00    -0.224 OA
ENDBRANCH   8  13
ENDBRANCH   6   7
BRANCH   5  17
ATOM     17  C   UNL A   1      38.348  30.585  33.367  1.00  0.00    -0.011 A 
ATOM     18  C   UNL A   1      39.558  30.932  32.756  1.00  0.00     0.009 A 
ATOM     19  C   UNL A   1      37.730  29.385  33.014  1.00  0.00     0.009 A 
ATOM     20  C   UNL A   1      40.153  30.075  31.824  1.00  0.00     0.009 A 
ATOM     21  C   UNL A   1      38.331  28.533  32.079  1.00  0.00     0.009 A 
ATOM     22  C   UNL A   1      39.553  28.857  31.459  1.00  0.00    -0.018 A 
BRANCH  22  23
ATOM     23  C   UNL A   1      40.180  27.952  30.464  1.00  0.00    -0.018 A 
ATOM     24  C   UNL A   1      39.406  27.077  29.676  1.00  0.00     0.010 A 
ATOM     25  C   UNL A   1      41.574  27.945  30.256  1.00  0.00     0.010 A 
ATOM     26  C   UNL A   1      39.988  26.255  28.707  1.00  0.00     0.021 A 
ATOM     27  C   UNL A   1      42.166  27.137  29.280  1.00  0.00     0.021 A 
ATOM     28  C   UNL A   1      41.367  26.299  28.508  1.00  0.00     0.067 A 
BRANCH  28  29
ATOM     29  S   UNL A   1      42.086  25.328  27.207  1.00  0.00     0.175 S 
ATOM     30  C   UNL A   1      41.325  25.957  25.740  1.00  0.00     0.163 C 
ATOM     31  O   UNL A   1      43.501  25.656  27.179  1.00  0.00    -0.224 OA
ATOM     32  O   UNL A   1      41.655  23.955  27.397  1.00  0.00    -0.224 OA
ENDBRANCH  28  29
ENDBRANCH  22  23
ENDBRANCH   5  17
ENDBRANCH   3   5
ENDBRANCH   2   3
ENDBRANCH   1   2
BRANCH   1  33
ATOM     33  C   UNL A   1      39.007  33.629  38.466  1.00  0.00     0.275 C 
BRANCH  33  34
ATOM     34  O   UNL A   1      38.542  34.752  37.696  1.00  0.00    -0.458 OA
BRANCH  34  35
ATOM     35  C   UNL A   1      39.442  35.740  37.488  1.00  0.00     0.338 C 
ATOM     36  O   UNL A   1      39.569  36.765  38.141  1.00  0.00    -0.246 OA
BRANCH  35  37
ATOM     37  C   UNL A   1      40.316  35.415  36.343  1.00  0.00     0.060 A 
ATOM     38  C   UNL A   1      39.767  35.029  35.126  1.00  0.00     0.016 A 
ATOM     39  C   UNL A   1      41.696  35.334  36.533  1.00  0.00     0.016 A 
ATOM     40  C   UNL A   1      40.580  34.426  34.163  1.00  0.00     0.010 A 
ATOM     41  C   UNL A   1      42.519  34.833  35.512  1.00  0.00     0.010 A 
ATOM     42  C   UNL A   1      41.967  34.302  34.333  1.00  0.00    -0.014 A 
BRANCH  42  43
ATOM     43  C   UNL A   1      42.819  33.571  33.334  1.00  0.00     0.031 A 
ATOM     44  C   UNL A   1      43.403  34.294  32.136  1.00  0.00     0.074 A 
ATOM     45  C   UNL A   1      43.111  32.261  33.479  1.00  0.00     0.049 A 
ATOM     46  N   UNL A   1      43.944  33.797  31.049  1.00  0.00    -0.248 NA
ATOM     47  C   UNL A   1      43.355  35.766  32.151  1.00  0.00     0.031 C 
ATOM     48  C   UNL A   1      42.701  31.410  34.597  1.00  0.00     0.029 A 
ATOM     49  N   UNL A   1      43.840  31.412  32.676  1.00  0.00    -0.354 N 
ATOM     50  C   UNL A   1      44.199  34.883  30.214  1.00  0.00     0.074 A 
ATOM     51  C   UNL A   1      43.780  36.068  30.932  1.00  0.00     0.031 C 
ATOM     52  C   UNL A   1      43.244  30.194  34.453  1.00  0.00     0.029 A 
ATOM     53  C   UNL A   1      43.924  30.129  33.166  1.00  0.00     0.049 A 
ATOM     54  H   UNL A   1      44.259  31.695  31.832  1.00  0.00     0.167 HD
ATOM     55  C   UNL A   1      44.720  34.893  28.961  1.00  0.00     0.031 A 
ATOM     56  C   UNL A   1      44.424  28.999  32.630  1.00  0.00     0.031 A 
ATOM     57  C   UNL A   1      45.216  33.727  28.278  1.00  0.00     0.049 A 
ATOM     58  C   UNL A   1      44.974  29.016  31.236  1.00  0.00     0.074 A 
ATOM     59  C   UNL A   1      45.840  33.657  27.042  1.00  0.00     0.029 A 
ATOM     60  N   UNL A   1      45.157  32.431  28.766  1.00  0.00    -0.354 N 
ATOM     61  N   UNL A   1      45.064  30.024  30.403  1.00  0.00    -0.248 NA
ATOM     62  C   UNL A   1      45.460  27.739  30.698  1.00  0.00     0.031 C 
ATOM     63  C   UNL A   1      46.149  32.317  26.780  1.00  0.00     0.029 A 
ATOM     64  C   UNL A   1      45.764  31.561  27.875  1.00  0.00     0.049 A 
ATOM     65  H   UNL A   1      44.744  32.169  29.621  1.00  0.00     0.167 HD
ATOM     66  C   UNL A   1      45.626  29.504  29.244  1.00  0.00     0.074 A 
ATOM     67  C   UNL A   1      45.859  28.095  29.485  1.00  0.00     0.031 C 
ATOM     68  C   UNL A   1      45.939  30.147  28.094  1.00  0.00     0.031 A 
BRANCH  55  69
ATOM     69  C   UNL A   1      44.747  36.206  28.218  1.00  0.00    -0.014 A 
ATOM     70  C   UNL A   1      43.622  36.701  27.536  1.00  0.00     0.010 A 
ATOM     71  C   UNL A   1      45.920  36.984  28.255  1.00  0.00     0.010 A 
ATOM     72  C   UNL A   1      43.686  37.930  26.868  1.00  0.00     0.020 A 
ATOM     73  C   UNL A   1      45.979  38.223  27.612  1.00  0.00     0.020 A 
ATOM     74  C   UNL A   1      44.867  38.679  26.904  1.00  0.00     0.054 A 
BRANCH  74  75
ATOM     75  S   UNL A   1      44.922  40.274  26.040  1.00  0.00     0.124 S 
ATOM     76  O   UNL A   1      45.922  40.020  25.007  1.00  0.00    -0.237 OA
ATOM     77  O   UNL A   1      43.550  40.430  25.563  1.00  0.00    -0.237 OA
ATOM     78  O   UNL A   1      45.326  41.217  27.081  1.00  0.00    -0.744 OA
ENDBRANCH  74  75
ENDBRANCH  55  69
BRANCH  56  79
ATOM     79  C   UNL A   1      44.347  27.733  33.406  1.00  0.00    -0.014 A 
ATOM     80  C   UNL A   1      43.195  26.930  33.351  1.00  0.00     0.010 A 
ATOM     81  C   UNL A   1      45.458  27.293  34.150  1.00  0.00     0.010 A 
ATOM     82  C   UNL A   1      43.163  25.700  34.016  1.00  0.00     0.020 A 
ATOM     83  C   UNL A   1      45.439  26.053  34.788  1.00  0.00     0.020 A 
ATOM     84  C   UNL A   1      44.289  25.264  34.721  1.00  0.00     0.054 A 
BRANCH  84  85
ATOM     85  S   UNL A   1      44.275  23.618  35.483  1.00  0.00     0.124 S 
ATOM     86  O   UNL A   1      42.868  23.248  35.380  1.00  0.00    -0.237 OA
ATOM     87  O   UNL A   1      45.194  22.864  34.634  1.00  0.00    -0.237 OA
ATOM     88  O   UNL A   1      44.761  23.870  36.838  1.00  0.00    -0.744 OA
ENDBRANCH  84  85
ENDBRANCH  56  79
BRANCH  68  89
ATOM     89  C   UNL A   1      46.579  29.330  27.006  1.00  0.00    -0.014 A 
ATOM     90  C   UNL A   1      47.968  29.117  26.984  1.00  0.00     0.010 A 
ATOM     91  C   UNL A   1      45.776  28.753  26.006  1.00  0.00     0.010 A 
ATOM     92  C   UNL A   1      48.547  28.363  25.960  1.00  0.00     0.020 A 
ATOM     93  C   UNL A   1      46.351  27.980  24.994  1.00  0.00     0.020 A 
ATOM     94  C   UNL A   1      47.735  27.802  24.969  1.00  0.00     0.054 A 
BRANCH  94  95
ATOM     95  S   UNL A   1      48.506  26.799  23.669  1.00  0.00     0.124 S 
ATOM     96  O   UNL A   1      48.036  27.464  22.457  1.00  0.00    -0.237 OA
ATOM     97  O   UNL A   1      49.932  26.944  23.953  1.00  0.00    -0.237 OA
ATOM     98  O   UNL A   1      47.965  25.462  23.899  1.00  0.00    -0.744 OA
ENDBRANCH  94  95
ENDBRANCH  68  89
ENDBRANCH  42  43
ENDBRANCH  35  37
ENDBRANCH  34  35
ENDBRANCH  33  34
ENDBRANCH   1  33
TORSDOF 19
ENDMDL
MODEL 3
REMARK VINA RESULT:      -8.9      8.921     13.081
REMARK SMILES CS(=O)(=O)c1ccc(/C=C(/C(=O)OCCOC(=O)c2ccc(-c3c4nc(c(-c5ccc(S(=O)(=O)[O-])cc5)c5ccc([nH]5)c(-c5ccc(S(=O)(=O)[O-])cc5)c5nc(c(-c6ccc(S(=O)(=O)[O-])cc6)c6ccc3[nH]6)C=C5)C=C4)cc2)c2ccc(-c3ccc(S(C)(=O)=O)cc3)cc2)cc1
REMARK SMILES IDX 14 1 13 2 11 3 12 4 10 5 9 6 8 7 5 8 6 9 96 10 7 11 95 12
REMARK SMILES IDX 2 13 1 14 3 15 4 16 79 17 80 18 94 19 81 20 93 21 82 22
REMARK SMILES IDX 83 23 84 24 92 25 85 26 91 27 86 28 87 29 88 30 89 31 90 32
REMARK SMILES IDX 15 33 16 34 17 35 18 36 19 37 20 38 78 39 21 40 77 41 22 42
REMARK SMILES IDX 23 43 24 44 71 45 25 46 76 47 70 48 72 49 26 50 75 51 69 52
REMARK SMILES IDX 68 53 27 55 57 56 38 57 56 58 39 59 42 60 55 61 73 62 40 63
REMARK SMILES IDX 41 64 54 66 74 67 43 68 28 69 29 70 37 71 30 72 36 73 31 74
REMARK SMILES IDX 32 75 33 76 34 77 35 78 58 79 59 80 67 81 60 82 66 83 61 84
REMARK SMILES IDX 62 85 63 86 64 87 65 88 44 89 45 90 53 91 46 92 52 93 47 94
REMARK SMILES IDX 48 95 49 96 50 97 51 98
REMARK H PARENT 72 54 42 65
REMARK Flexibility Score: inf
ROOT
ATOM      1  C   UNL A   1      33.441  35.755  29.182  1.00  0.00     0.275 C 
ENDROOT
BRANCH   1   2
ATOM      2  O   UNL A   1      33.544  34.327  29.008  1.00  0.00    -0.458 OA
BRANCH   2   3
ATOM      3  C   UNL A   1      34.483  33.925  28.110  1.00  0.00     0.338 C 
ATOM      4  O   UNL A   1      34.777  34.514  27.079  1.00  0.00    -0.246 OA
BRANCH   3   5
ATOM      5  C   UNL A   1      35.169  32.671  28.542  1.00  0.00     0.067 C 
ATOM      6  C   UNL A   1      36.129  32.748  29.492  1.00  0.00     0.024 C 
BRANCH   6   7
ATOM      7  C   UNL A   1      36.746  31.644  30.269  1.00  0.00    -0.025 A 
ATOM      8  C   UNL A   1      38.174  29.772  31.814  1.00  0.00     0.067 A 
ATOM      9  C   UNL A   1      36.892  30.149  32.196  1.00  0.00     0.021 A 
ATOM     10  C   UNL A   1      38.724  30.255  30.627  1.00  0.00     0.021 A 
ATOM     11  C   UNL A   1      36.177  31.050  31.403  1.00  0.00     0.009 A 
ATOM     12  C   UNL A   1      38.013  31.192  29.867  1.00  0.00     0.009 A 
BRANCH   8  13
ATOM     13  S   UNL A   1      39.110  28.712  32.887  1.00  0.00     0.175 S 
ATOM     14  C   UNL A   1      40.653  28.454  32.053  1.00  0.00     0.163 C 
ATOM     15  O   UNL A   1      38.406  27.443  32.940  1.00  0.00    -0.224 OA
ATOM     16  O   UNL A   1      39.407  29.459  34.092  1.00  0.00    -0.224 OA
ENDBRANCH   8  13
ENDBRANCH   6   7
BRANCH   5  17
ATOM     17  C   UNL A   1      34.638  31.398  28.031  1.00  0.00    -0.011 A 
ATOM     18  C   UNL A   1      33.286  31.307  27.679  1.00  0.00     0.009 A 
ATOM     19  C   UNL A   1      35.467  30.293  27.831  1.00  0.00     0.009 A 
ATOM     20  C   UNL A   1      32.780  30.134  27.109  1.00  0.00     0.009 A 
ATOM     21  C   UNL A   1      34.951  29.122  27.263  1.00  0.00     0.009 A 
ATOM     22  C   UNL A   1      33.598  29.011  26.891  1.00  0.00    -0.018 A 
BRANCH  22  23
ATOM     23  C   UNL A   1      33.058  27.763  26.296  1.00  0.00    -0.018 A 
ATOM     24  C   UNL A   1      33.904  26.815  25.687  1.00  0.00     0.010 A 
ATOM     25  C   UNL A   1      31.680  27.470  26.332  1.00  0.00     0.010 A 
ATOM     26  C   UNL A   1      33.405  25.618  25.164  1.00  0.00     0.021 A 
ATOM     27  C   UNL A   1      31.171  26.271  25.825  1.00  0.00     0.021 A 
ATOM     28  C   UNL A   1      32.040  25.349  25.247  1.00  0.00     0.067 A 
BRANCH  28  29
ATOM     29  S   UNL A   1      31.428  23.784  24.672  1.00  0.00     0.175 S 
ATOM     30  C   UNL A   1      30.615  23.104  26.088  1.00  0.00     0.163 C 
ATOM     31  O   UNL A   1      30.433  24.076  23.655  1.00  0.00    -0.224 OA
ATOM     32  O   UNL A   1      32.576  22.955  24.359  1.00  0.00    -0.224 OA
ENDBRANCH  28  29
ENDBRANCH  22  23
ENDBRANCH   5  17
ENDBRANCH   3   5
ENDBRANCH   2   3
ENDBRANCH   1   2
BRANCH   1  33
ATOM     33  C   UNL A   1      32.567  36.092  30.388  1.00  0.00     0.275 C 
BRANCH  33  34
ATOM     34  O   UNL A   1      33.374  36.146  31.579  1.00  0.00    -0.458 OA
BRANCH  34  35
ATOM     35  C   UNL A   1      33.264  35.089  32.416  1.00  0.00     0.338 C 
ATOM     36  O   UNL A   1      32.231  34.611  32.860  1.00  0.00    -0.246 OA
BRANCH  35  37
ATOM     37  C   UNL A   1      34.595  34.532  32.728  1.00  0.00     0.060 A 
ATOM     38  C   UNL A   1      34.729  33.504  33.653  1.00  0.00     0.016 A 
ATOM     39  C   UNL A   1      35.737  35.152  32.218  1.00  0.00     0.016 A 
ATOM     40  C   UNL A   1      35.990  33.203  34.174  1.00  0.00     0.010 A 
ATOM     41  C   UNL A   1      37.009  34.761  32.664  1.00  0.00     0.010 A 
ATOM     42  C   UNL A   1      37.155  33.827  33.705  1.00  0.00    -0.014 A 
BRANCH  42  43
ATOM     43  C   UNL A   1      38.495  33.564  34.333  1.00  0.00     0.031 A 
ATOM     44  C   UNL A   1      39.713  33.284  33.476  1.00  0.00     0.074 A 
ATOM     45  C   UNL A   1      38.664  33.590  35.673  1.00  0.00     0.049 A 
ATOM     46  N   UNL A   1      40.880  32.796  33.825  1.00  0.00    -0.248 NA
ATOM     47  C   UNL A   1      39.601  33.571  32.035  1.00  0.00     0.031 C 
ATOM     48  C   UNL A   1      37.631  33.908  36.661  1.00  0.00     0.029 A 
ATOM     49  N   UNL A   1      39.783  33.354  36.439  1.00  0.00    -0.354 N 
ATOM     50  C   UNL A   1      41.593  32.619  32.641  1.00  0.00     0.074 A 
ATOM     51  C   UNL A   1      40.740  33.079  31.567  1.00  0.00     0.031 C 
ATOM     52  C   UNL A   1      38.177  33.925  37.884  1.00  0.00     0.029 A 
ATOM     53  C   UNL A   1      39.562  33.483  37.790  1.00  0.00     0.049 A 
ATOM     54  H   UNL A   1      40.657  33.115  36.056  1.00  0.00     0.167 HD
ATOM     55  C   UNL A   1      42.837  32.107  32.463  1.00  0.00     0.031 A 
ATOM     56  C   UNL A   1      40.345  33.216  38.854  1.00  0.00     0.031 A 
ATOM     57  C   UNL A   1      43.722  31.728  33.534  1.00  0.00     0.049 A 
ATOM     58  C   UNL A   1      41.707  32.628  38.646  1.00  0.00     0.074 A 
ATOM     59  C   UNL A   1      45.031  31.282  33.448  1.00  0.00     0.029 A 
ATOM     60  N   UNL A   1      43.399  31.754  34.882  1.00  0.00    -0.354 N 
ATOM     61  N   UNL A   1      42.305  32.323  37.520  1.00  0.00    -0.248 NA
ATOM     62  C   UNL A   1      42.489  32.319  39.851  1.00  0.00     0.031 C 
ATOM     63  C   UNL A   1      45.496  31.030  34.745  1.00  0.00     0.029 A 
ATOM     64  C   UNL A   1      44.494  31.369  35.638  1.00  0.00     0.049 A 
ATOM     65  H   UNL A   1      42.520  32.010  35.246  1.00  0.00     0.167 HD
ATOM     66  C   UNL A   1      43.538  31.793  37.881  1.00  0.00     0.074 A 
ATOM     67  C   UNL A   1      43.602  31.825  39.327  1.00  0.00     0.031 C 
ATOM     68  C   UNL A   1      44.532  31.344  37.078  1.00  0.00     0.031 A 
BRANCH  55  69
ATOM     69  C   UNL A   1      43.313  31.884  31.049  1.00  0.00    -0.014 A 
ATOM     70  C   UNL A   1      43.010  30.713  30.334  1.00  0.00     0.010 A 
ATOM     71  C   UNL A   1      44.038  32.907  30.406  1.00  0.00     0.010 A 
ATOM     72  C   UNL A   1      43.462  30.551  29.019  1.00  0.00     0.020 A 
ATOM     73  C   UNL A   1      44.468  32.760  29.085  1.00  0.00     0.020 A 
ATOM     74  C   UNL A   1      44.194  31.572  28.405  1.00  0.00     0.054 A 
BRANCH  74  75
ATOM     75  S   UNL A   1      44.759  31.344  26.696  1.00  0.00     0.124 S 
ATOM     76  O   UNL A   1      44.641  29.897  26.533  1.00  0.00    -0.237 OA
ATOM     77  O   UNL A   1      43.804  32.142  25.932  1.00  0.00    -0.237 OA
ATOM     78  O   UNL A   1      46.125  31.860  26.712  1.00  0.00    -0.744 OA
ENDBRANCH  74  75
ENDBRANCH  55  69
BRANCH  56  79
ATOM     79  C   UNL A   1      39.808  33.437  40.223  1.00  0.00    -0.014 A 
ATOM     80  C   UNL A   1      39.898  34.701  40.830  1.00  0.00     0.010 A 
ATOM     81  C   UNL A   1      39.142  32.396  40.896  1.00  0.00     0.010 A 
ATOM     82  C   UNL A   1      39.316  34.922  42.082  1.00  0.00     0.020 A 
ATOM     83  C   UNL A   1      38.534  32.623  42.131  1.00  0.00     0.020 A 
ATOM     84  C   UNL A   1      38.628  33.885  42.719  1.00  0.00     0.054 A 
BRANCH  84  85
ATOM     85  S   UNL A   1      37.781  34.217  44.289  1.00  0.00     0.124 S 
ATOM     86  O   UNL A   1      37.780  35.675  44.331  1.00  0.00    -0.237 OA
ATOM     87  O   UNL A   1      36.479  33.586  44.089  1.00  0.00    -0.237 OA
ATOM     88  O   UNL A   1      38.634  33.560  45.278  1.00  0.00    -0.744 OA
ENDBRANCH  84  85
ENDBRANCH  56  79
BRANCH  68  89
ATOM     89  C   UNL A   1      45.784  30.855  37.751  1.00  0.00    -0.014 A 
ATOM     90  C   UNL A   1      46.830  31.741  38.063  1.00  0.00     0.010 A 
ATOM     91  C   UNL A   1      45.906  29.496  38.093  1.00  0.00     0.010 A 
ATOM     92  C   UNL A   1      47.992  31.268  38.680  1.00  0.00     0.020 A 
ATOM     93  C   UNL A   1      47.057  29.025  38.730  1.00  0.00     0.020 A 
ATOM     94  C   UNL A   1      48.099  29.912  39.006  1.00  0.00     0.054 A 
BRANCH  94  95
ATOM     95  S   UNL A   1      49.602  29.328  39.836  1.00  0.00     0.124 S 
ATOM     96  O   UNL A   1      50.168  28.425  38.838  1.00  0.00    -0.237 OA
ATOM     97  O   UNL A   1      50.349  30.564  40.060  1.00  0.00    -0.237 OA
ATOM     98  O   UNL A   1      49.099  28.684  41.048  1.00  0.00    -0.744 OA
ENDBRANCH  94  95
ENDBRANCH  68  89
ENDBRANCH  42  43
ENDBRANCH  35  37
ENDBRANCH  34  35
ENDBRANCH  33  34
ENDBRANCH   1  33
TORSDOF 19
ENDMDL
