MODEL 1
REMARK VINA RESULT:     -12.6      0.000      0.000
REMARK SMILES C[C@H]1c2ccc(O)cc2OC(=O)[C@@H]1CC(=O)N[C@@H](CC1=c2ccccc2=NC1)C(=O)OCCOC(=O)c1ccc(-c2c3nc(c(-c4ccc(S(=O)(=O)[O-])cc4)c4ccc([nH]4)c(-c4ccc(S(=O)(=O)[O-])cc4)c4nc(c(-c5ccc(S(=O)(=O)[O-])cc5)c5ccc2[nH]5)C=C4)C=C3)cc1
REMARK SMILES IDX 32 1 31 2 29 3 30 4 18 5 17 6 15 7 16 8 14 10 13 11 1 12
REMARK SMILES IDX 2 13 3 14 4 15 9 16 11 17 5 18 8 19 10 20 12 21 6 22 7 23
REMARK SMILES IDX 19 25 20 26 21 27 28 28 22 29 26 30 27 31 23 32 25 33 24 34
REMARK SMILES IDX 33 35 34 36 35 37 36 38 37 39 38 40 96 41 39 42 95 43 40 44
REMARK SMILES IDX 41 45 42 46 89 47 43 48 94 49 88 50 90 51 44 52 93 53 87 54
REMARK SMILES IDX 86 55 45 57 75 58 56 59 74 60 57 61 60 62 73 63 91 64 58 65
REMARK SMILES IDX 59 66 72 68 92 69 61 70 46 71 47 72 55 73 48 74 54 75 49 76
REMARK SMILES IDX 50 77 51 78 52 79 53 80 76 81 77 82 85 83 78 84 84 85 79 86
REMARK SMILES IDX 80 87 81 88 82 89 83 90 62 91 63 92 71 93 64 94 70 95 65 96
REMARK SMILES IDX 66 97 67 98 68 99 69 100
REMARK H PARENT 17 9 7 24 90 56 60 67
REMARK Flexibility Score: inf
ROOT
ATOM      1  C   UNL A   1      33.409  28.972  25.486  1.00  0.00     0.274 C 
ENDROOT
BRANCH   1   2
ATOM      2  O   UNL A   1      32.625  29.184  24.291  1.00  0.00    -0.461 OA
BRANCH   2   3
ATOM      3  C   UNL A   1      32.771  28.255  23.312  1.00  0.00     0.329 C 
ATOM      4  O   UNL A   1      33.695  28.238  22.504  1.00  0.00    -0.250 OA
BRANCH   3   5
ATOM      5  C   UNL A   1      31.571  27.302  23.202  1.00  0.00     0.196 C 
BRANCH   5   6
ATOM      6  N   UNL A   1      31.034  26.716  24.439  1.00  0.00    -0.342 N 
ATOM      7  C   UNL A   1      31.124  25.442  24.926  1.00  0.00     0.221 C 
ATOM      8  O   UNL A   1      30.289  25.058  25.745  1.00  0.00    -0.275 OA
ATOM      9  H   UNL A   1      30.530  27.342  25.007  1.00  0.00     0.164 HD
BRANCH   7  10
ATOM     10  C   UNL A   1      32.306  24.560  24.555  1.00  0.00     0.116 C 
BRANCH  10  11
ATOM     11  C   UNL A   1      32.203  23.723  23.262  1.00  0.00     0.116 C 
ATOM     12  C   UNL A   1      32.067  21.331  22.302  1.00  0.00     0.014 C 
ATOM     13  C   UNL A   1      32.314  22.201  23.537  1.00  0.00     0.034 C 
ATOM     14  C   UNL A   1      33.693  21.938  24.079  1.00  0.00    -0.001 A 
ATOM     15  C   UNL A   1      33.935  21.013  25.097  1.00  0.00     0.011 A 
ATOM     16  C   UNL A   1      34.745  22.736  23.620  1.00  0.00     0.138 A 
ATOM     17  C   UNL A   1      33.273  24.103  22.271  1.00  0.00     0.315 C 
ATOM     18  C   UNL A   1      35.183  20.991  25.719  1.00  0.00     0.047 A 
ATOM     19  C   UNL A   1      35.981  22.741  24.244  1.00  0.00     0.093 A 
ATOM     20  O   UNL A   1      34.550  23.641  22.562  1.00  0.00    -0.426 OA
ATOM     21  O   UNL A   1      33.059  24.821  21.301  1.00  0.00    -0.251 OA
ATOM     22  C   UNL A   1      36.162  21.901  25.327  1.00  0.00     0.119 A 
BRANCH  22  23
ATOM     23  O   UNL A   1      37.301  22.051  26.052  1.00  0.00    -0.508 OA
ATOM     24  H   UNL A   1      37.283  22.525  26.861  1.00  0.00     0.293 HD
ENDBRANCH  22  23
ENDBRANCH  10  11
ENDBRANCH   7  10
ENDBRANCH   5   6
BRANCH   5  25
ATOM     25  C   UNL A   1      30.435  27.969  22.345  1.00  0.00     0.070 C 
BRANCH  25  26
ATOM     26  C   UNL A   1      29.407  28.872  23.039  1.00  0.00    -0.037 C 
ATOM     27  C   UNL A   1      29.418  30.197  22.817  1.00  0.00     0.001 A 
ATOM     28  C   UNL A   1      27.978  28.416  23.025  1.00  0.00     0.174 C 
ATOM     29  C   UNL A   1      29.429  31.263  23.808  1.00  0.00     0.010 A 
ATOM     30  C   UNL A   1      28.164  30.292  22.007  1.00  0.00     0.065 A 
ATOM     31  N   UNL A   1      27.340  29.289  22.017  1.00  0.00    -0.280 NA
ATOM     32  C   UNL A   1      28.901  32.451  23.449  1.00  0.00     0.001 A 
ATOM     33  C   UNL A   1      27.994  31.598  21.346  1.00  0.00     0.028 A 
ATOM     34  C   UNL A   1      28.384  32.645  22.095  1.00  0.00     0.002 A 
ENDBRANCH  25  26
ENDBRANCH   5  25
ENDBRANCH   3   5
ENDBRANCH   2   3
ENDBRANCH   1   2
BRANCH   1  35
ATOM     35  C   UNL A   1      32.752  29.658  26.679  1.00  0.00     0.275 C 
BRANCH  35  36
ATOM     36  O   UNL A   1      33.626  29.553  27.815  1.00  0.00    -0.458 OA
BRANCH  36  37
ATOM     37  C   UNL A   1      34.418  30.638  28.010  1.00  0.00     0.338 C 
ATOM     38  O   UNL A   1      34.066  31.788  28.164  1.00  0.00    -0.246 OA
BRANCH  37  39
ATOM     39  C   UNL A   1      35.799  30.163  28.238  1.00  0.00     0.060 A 
ATOM     40  C   UNL A   1      36.783  30.205  27.247  1.00  0.00     0.016 A 
ATOM     41  C   UNL A   1      36.091  29.654  29.504  1.00  0.00     0.016 A 
ATOM     42  C   UNL A   1      38.072  29.737  27.528  1.00  0.00     0.010 A 
ATOM     43  C   UNL A   1      37.370  29.179  29.775  1.00  0.00     0.010 A 
ATOM     44  C   UNL A   1      38.373  29.211  28.792  1.00  0.00    -0.014 A 
BRANCH  44  45
ATOM     45  C   UNL A   1      39.754  28.808  29.154  1.00  0.00     0.031 A 
ATOM     46  C   UNL A   1      40.667  29.711  29.931  1.00  0.00     0.074 A 
ATOM     47  C   UNL A   1      40.214  27.638  28.674  1.00  0.00     0.049 A 
ATOM     48  N   UNL A   1      41.952  29.598  30.145  1.00  0.00    -0.248 NA
ATOM     49  C   UNL A   1      40.079  30.944  30.463  1.00  0.00     0.031 C 
ATOM     50  C   UNL A   1      39.429  26.692  27.881  1.00  0.00     0.029 A 
ATOM     51  N   UNL A   1      41.443  27.047  28.791  1.00  0.00    -0.354 N 
ATOM     52  C   UNL A   1      42.347  30.790  30.749  1.00  0.00     0.074 A 
ATOM     53  C   UNL A   1      41.162  31.617  30.835  1.00  0.00     0.031 C 
ATOM     54  C   UNL A   1      40.188  25.621  27.607  1.00  0.00     0.029 A 
ATOM     55  C   UNL A   1      41.507  25.806  28.206  1.00  0.00     0.049 A 
ATOM     56  H   UNL A   1      42.206  27.469  29.248  1.00  0.00     0.167 HD
ATOM     57  C   UNL A   1      43.577  31.141  31.202  1.00  0.00     0.031 A 
ATOM     58  C   UNL A   1      42.500  24.896  28.199  1.00  0.00     0.031 A 
ATOM     59  C   UNL A   1      44.686  30.217  31.261  1.00  0.00     0.049 A 
ATOM     60  C   UNL A   1      43.766  25.193  28.948  1.00  0.00     0.074 A 
ATOM     61  C   UNL A   1      45.930  30.402  31.845  1.00  0.00     0.029 A 
ATOM     62  N   UNL A   1      44.665  28.915  30.782  1.00  0.00    -0.354 N 
ATOM     63  N   UNL A   1      44.124  26.310  29.533  1.00  0.00    -0.248 NA
ATOM     64  C   UNL A   1      44.740  24.102  29.076  1.00  0.00     0.031 C 
ATOM     65  C   UNL A   1      46.660  29.218  31.710  1.00  0.00     0.029 A 
ATOM     66  C   UNL A   1      45.855  28.277  31.089  1.00  0.00     0.049 A 
ATOM     67  H   UNL A   1      43.914  28.504  30.297  1.00  0.00     0.167 HD
ATOM     68  C   UNL A   1      45.357  26.051  30.119  1.00  0.00     0.074 A 
ATOM     69  C   UNL A   1      45.672  24.666  29.836  1.00  0.00     0.031 C 
ATOM     70  C   UNL A   1      46.156  26.893  30.820  1.00  0.00     0.031 A 
BRANCH  57  71
ATOM     71  C   UNL A   1      43.805  32.539  31.742  1.00  0.00    -0.014 A 
ATOM     72  C   UNL A   1      43.460  32.837  33.078  1.00  0.00     0.010 A 
ATOM     73  C   UNL A   1      44.224  33.593  30.912  1.00  0.00     0.010 A 
ATOM     74  C   UNL A   1      43.505  34.151  33.559  1.00  0.00     0.020 A 
ATOM     75  C   UNL A   1      44.316  34.900  31.400  1.00  0.00     0.020 A 
ATOM     76  C   UNL A   1      43.928  35.177  32.713  1.00  0.00     0.054 A 
BRANCH  76  77
ATOM     77  S   UNL A   1      43.977  36.882  33.334  1.00  0.00     0.124 S 
ATOM     78  O   UNL A   1      42.764  36.949  34.143  1.00  0.00    -0.237 OA
ATOM     79  O   UNL A   1      45.234  36.923  34.077  1.00  0.00    -0.237 OA
ATOM     80  O   UNL A   1      43.960  37.688  32.114  1.00  0.00    -0.744 OA
ENDBRANCH  76  77
ENDBRANCH  57  71
BRANCH  58  81
ATOM     81  C   UNL A   1      42.224  23.565  27.601  1.00  0.00    -0.014 A 
ATOM     82  C   UNL A   1      41.640  22.536  28.361  1.00  0.00     0.010 A 
ATOM     83  C   UNL A   1      42.704  23.282  26.310  1.00  0.00     0.010 A 
ATOM     84  C   UNL A   1      41.594  21.232  27.860  1.00  0.00     0.020 A 
ATOM     85  C   UNL A   1      42.637  21.987  25.796  1.00  0.00     0.020 A 
ATOM     86  C   UNL A   1      42.112  20.964  26.588  1.00  0.00     0.054 A 
BRANCH  86  87
ATOM     87  S   UNL A   1      42.129  19.251  25.994  1.00  0.00     0.124 S 
ATOM     88  O   UNL A   1      43.013  19.347  24.835  1.00  0.00    -0.237 OA
ATOM     89  O   UNL A   1      42.667  18.521  27.140  1.00  0.00    -0.237 OA
ATOM     90  O   UNL A   1      40.727  18.981  25.689  1.00  0.00    -0.744 OA
ENDBRANCH  86  87
ENDBRANCH  58  81
BRANCH  70  91
ATOM     91  C   UNL A   1      47.461  26.363  31.351  1.00  0.00    -0.014 A 
ATOM     92  C   UNL A   1      48.554  26.198  30.479  1.00  0.00     0.010 A 
ATOM     93  C   UNL A   1      47.559  25.889  32.671  1.00  0.00     0.010 A 
ATOM     94  C   UNL A   1      49.706  25.535  30.906  1.00  0.00     0.020 A 
ATOM     95  C   UNL A   1      48.721  25.247  33.108  1.00  0.00     0.020 A 
ATOM     96  C   UNL A   1      49.777  25.050  32.215  1.00  0.00     0.054 A 
BRANCH  96  97
ATOM     97  S   UNL A   1      51.257  24.140  32.735  1.00  0.00     0.124 S 
ATOM     98  O   UNL A   1      52.318  24.847  32.023  1.00  0.00    -0.237 OA
ATOM     99  O   UNL A   1      51.247  24.315  34.186  1.00  0.00    -0.237 OA
ATOM    100  O   UNL A   1      50.999  22.777  32.278  1.00  0.00    -0.744 OA
ENDBRANCH  96  97
ENDBRANCH  70  91
ENDBRANCH  44  45
ENDBRANCH  37  39
ENDBRANCH  36  37
ENDBRANCH  35  36
ENDBRANCH   1  35
TORSDOF 20
ENDMDL
MODEL 2
REMARK VINA RESULT:     -12.3      1.107      2.202
REMARK SMILES C[C@H]1c2ccc(O)cc2OC(=O)[C@@H]1CC(=O)N[C@@H](CC1=c2ccccc2=NC1)C(=O)OCCOC(=O)c1ccc(-c2c3nc(c(-c4ccc(S(=O)(=O)[O-])cc4)c4ccc([nH]4)c(-c4ccc(S(=O)(=O)[O-])cc4)c4nc(c(-c5ccc(S(=O)(=O)[O-])cc5)c5ccc2[nH]5)C=C4)C=C3)cc1
REMARK SMILES IDX 32 1 31 2 29 3 30 4 18 5 17 6 15 7 16 8 14 10 13 11 1 12
REMARK SMILES IDX 2 13 3 14 4 15 9 16 11 17 5 18 8 19 10 20 12 21 6 22 7 23
REMARK SMILES IDX 19 25 20 26 21 27 28 28 22 29 26 30 27 31 23 32 25 33 24 34
REMARK SMILES IDX 33 35 34 36 35 37 36 38 37 39 38 40 96 41 39 42 95 43 40 44
REMARK SMILES IDX 41 45 42 46 89 47 43 48 94 49 88 50 90 51 44 52 93 53 87 54
REMARK SMILES IDX 86 55 45 57 75 58 56 59 74 60 57 61 60 62 73 63 91 64 58 65
REMARK SMILES IDX 59 66 72 68 92 69 61 70 46 71 47 72 55 73 48 74 54 75 49 76
REMARK SMILES IDX 50 77 51 78 52 79 53 80 76 81 77 82 85 83 78 84 84 85 79 86
REMARK SMILES IDX 80 87 81 88 82 89 83 90 62 91 63 92 71 93 64 94 70 95 65 96
REMARK SMILES IDX 66 97 67 98 68 99 69 100
REMARK H PARENT 17 9 7 24 90 56 60 67
REMARK Flexibility Score: inf
ROOT
ATOM      1  C   UNL A   1      31.877  27.448  26.970  1.00  0.00     0.274 C 
ENDROOT
BRANCH   1   2
ATOM      2  O   UNL A   1      32.284  26.982  25.666  1.00  0.00    -0.461 OA
BRANCH   2   3
ATOM      3  C   UNL A   1      31.291  26.528  24.860  1.00  0.00     0.329 C 
ATOM      4  O   UNL A   1      30.238  26.042  25.263  1.00  0.00    -0.250 OA
BRANCH   3   5
ATOM      5  C   UNL A   1      31.673  26.528  23.373  1.00  0.00     0.196 C 
BRANCH   5   6
ATOM      6  N   UNL A   1      32.034  25.247  22.749  1.00  0.00    -0.342 N 
ATOM      7  C   UNL A   1      33.240  24.606  22.678  1.00  0.00     0.221 C 
ATOM      8  O   UNL A   1      33.419  23.773  21.790  1.00  0.00    -0.275 OA
ATOM      9  H   UNL A   1      31.289  24.774  22.314  1.00  0.00     0.164 HD
BRANCH   7  10
ATOM     10  C   UNL A   1      34.293  24.831  23.752  1.00  0.00     0.116 C 
BRANCH  10  11
ATOM     11  C   UNL A   1      35.082  23.603  24.255  1.00  0.00     0.116 C 
ATOM     12  C   UNL A   1      35.037  21.038  24.539  1.00  0.00     0.014 C 
ATOM     13  C   UNL A   1      34.244  22.299  24.191  1.00  0.00     0.034 C 
ATOM     14  C   UNL A   1      33.089  22.455  25.144  1.00  0.00    -0.001 A 
ATOM     15  C   UNL A   1      31.809  21.977  24.855  1.00  0.00     0.011 A 
ATOM     16  C   UNL A   1      33.289  23.208  26.304  1.00  0.00     0.138 A 
ATOM     17  C   UNL A   1      35.552  23.792  25.675  1.00  0.00     0.315 C 
ATOM     18  C   UNL A   1      30.737  22.363  25.659  1.00  0.00     0.047 A 
ATOM     19  C   UNL A   1      32.231  23.618  27.097  1.00  0.00     0.093 A 
ATOM     20  O   UNL A   1      34.573  23.662  26.652  1.00  0.00    -0.426 OA
ATOM     21  O   UNL A   1      36.704  24.099  25.961  1.00  0.00    -0.251 OA
ATOM     22  C   UNL A   1      30.956  23.231  26.726  1.00  0.00     0.119 A 
BRANCH  22  23
ATOM     23  O   UNL A   1      29.913  23.794  27.389  1.00  0.00    -0.508 OA
ATOM     24  H   UNL A   1      29.805  23.642  28.308  1.00  0.00     0.293 HD
ENDBRANCH  22  23
ENDBRANCH  10  11
ENDBRANCH   7  10
ENDBRANCH   5   6
BRANCH   5  25
ATOM     25  C   UNL A   1      30.575  27.281  22.537  1.00  0.00     0.070 C 
BRANCH  25  26
ATOM     26  C   UNL A   1      30.654  28.807  22.399  1.00  0.00    -0.037 C 
ATOM     27  C   UNL A   1      29.530  29.527  22.251  1.00  0.00     0.001 A 
ATOM     28  C   UNL A   1      31.544  29.534  23.363  1.00  0.00     0.174 C 
ATOM     29  C   UNL A   1      29.242  30.523  21.230  1.00  0.00     0.010 A 
ATOM     30  C   UNL A   1      29.516  30.183  23.596  1.00  0.00     0.065 A 
ATOM     31  N   UNL A   1      30.598  30.159  24.312  1.00  0.00    -0.280 NA
ATOM     32  C   UNL A   1      28.358  31.493  21.540  1.00  0.00     0.001 A 
ATOM     33  C   UNL A   1      28.244  30.864  23.899  1.00  0.00     0.028 A 
ATOM     34  C   UNL A   1      27.696  31.494  22.843  1.00  0.00     0.002 A 
ENDBRANCH  25  26
ENDBRANCH   5  25
ENDBRANCH   3   5
ENDBRANCH   2   3
ENDBRANCH   1   2
BRANCH   1  35
ATOM     35  C   UNL A   1      32.284  28.906  27.165  1.00  0.00     0.275 C 
BRANCH  35  36
ATOM     36  O   UNL A   1      33.708  29.016  27.011  1.00  0.00    -0.458 OA
BRANCH  36  37
ATOM     37  C   UNL A   1      34.240  30.144  27.547  1.00  0.00     0.338 C 
ATOM     38  O   UNL A   1      33.674  31.194  27.762  1.00  0.00    -0.246 OA
BRANCH  37  39
ATOM     39  C   UNL A   1      35.590  29.819  28.052  1.00  0.00     0.060 A 
ATOM     40  C   UNL A   1      35.821  29.387  29.361  1.00  0.00     0.016 A 
ATOM     41  C   UNL A   1      36.652  29.970  27.159  1.00  0.00     0.016 A 
ATOM     42  C   UNL A   1      37.126  29.098  29.777  1.00  0.00     0.010 A 
ATOM     43  C   UNL A   1      37.949  29.693  27.580  1.00  0.00     0.010 A 
ATOM     44  C   UNL A   1      38.201  29.259  28.892  1.00  0.00    -0.014 A 
BRANCH  44  45
ATOM     45  C   UNL A   1      39.580  28.860  29.269  1.00  0.00     0.031 A 
ATOM     46  C   UNL A   1      40.477  29.761  30.066  1.00  0.00     0.074 A 
ATOM     47  C   UNL A   1      40.053  27.698  28.784  1.00  0.00     0.049 A 
ATOM     48  N   UNL A   1      41.760  29.653  30.296  1.00  0.00    -0.248 NA
ATOM     49  C   UNL A   1      39.875  30.985  30.602  1.00  0.00     0.031 C 
ATOM     50  C   UNL A   1      39.284  26.755  27.971  1.00  0.00     0.029 A 
ATOM     51  N   UNL A   1      41.284  27.112  28.910  1.00  0.00    -0.354 N 
ATOM     52  C   UNL A   1      42.140  30.842  30.915  1.00  0.00     0.074 A 
ATOM     53  C   UNL A   1      40.950  31.661  30.994  1.00  0.00     0.031 C 
ATOM     54  C   UNL A   1      40.053  25.691  27.697  1.00  0.00     0.029 A 
ATOM     55  C   UNL A   1      41.363  25.878  28.315  1.00  0.00     0.049 A 
ATOM     56  H   UNL A   1      42.038  27.535  29.381  1.00  0.00     0.167 HD
ATOM     57  C   UNL A   1      43.362  31.196  31.388  1.00  0.00     0.031 A 
ATOM     58  C   UNL A   1      42.361  24.973  28.312  1.00  0.00     0.031 A 
ATOM     59  C   UNL A   1      44.476  30.277  31.453  1.00  0.00     0.049 A 
ATOM     60  C   UNL A   1      43.616  25.271  29.080  1.00  0.00     0.074 A 
ATOM     61  C   UNL A   1      45.711  30.464  32.055  1.00  0.00     0.029 A 
ATOM     62  N   UNL A   1      44.469  28.980  30.962  1.00  0.00    -0.354 N 
ATOM     63  N   UNL A   1      43.959  26.384  29.681  1.00  0.00    -0.248 NA
ATOM     64  C   UNL A   1      44.594  24.184  29.211  1.00  0.00     0.031 C 
ATOM     65  C   UNL A   1      46.450  29.286  31.918  1.00  0.00     0.029 A 
ATOM     66  C   UNL A   1      45.659  28.346  31.278  1.00  0.00     0.049 A 
ATOM     67  H   UNL A   1      43.726  28.569  30.463  1.00  0.00     0.167 HD
ATOM     68  C   UNL A   1      45.186  26.126  30.280  1.00  0.00     0.074 A 
ATOM     69  C   UNL A   1      45.514  24.746  29.988  1.00  0.00     0.031 C 
ATOM     70  C   UNL A   1      45.971  26.966  30.999  1.00  0.00     0.031 A 
BRANCH  57  71
ATOM     71  C   UNL A   1      43.575  32.589  31.945  1.00  0.00    -0.014 A 
ATOM     72  C   UNL A   1      43.259  32.860  33.293  1.00  0.00     0.010 A 
ATOM     73  C   UNL A   1      43.949  33.665  31.120  1.00  0.00     0.010 A 
ATOM     74  C   UNL A   1      43.289  34.166  33.794  1.00  0.00     0.020 A 
ATOM     75  C   UNL A   1      44.027  34.966  31.627  1.00  0.00     0.020 A 
ATOM     76  C   UNL A   1      43.668  35.215  32.954  1.00  0.00     0.054 A 
BRANCH  76  77
ATOM     77  S   UNL A   1      43.697  36.910  33.601  1.00  0.00     0.124 S 
ATOM     78  O   UNL A   1      42.409  37.001  34.282  1.00  0.00    -0.237 OA
ATOM     79  O   UNL A   1      44.871  36.909  34.470  1.00  0.00    -0.237 OA
ATOM     80  O   UNL A   1      43.827  37.730  32.397  1.00  0.00    -0.744 OA
ENDBRANCH  76  77
ENDBRANCH  57  71
BRANCH  58  81
ATOM     81  C   UNL A   1      42.101  23.647  27.698  1.00  0.00    -0.014 A 
ATOM     82  C   UNL A   1      41.506  22.610  28.437  1.00  0.00     0.010 A 
ATOM     83  C   UNL A   1      42.607  23.376  26.414  1.00  0.00     0.010 A 
ATOM     84  C   UNL A   1      41.474  21.310  27.925  1.00  0.00     0.020 A 
ATOM     85  C   UNL A   1      42.554  22.085  25.889  1.00  0.00     0.020 A 
ATOM     86  C   UNL A   1      42.017  21.054  26.662  1.00  0.00     0.054 A 
BRANCH  86  87
ATOM     87  S   UNL A   1      42.051  19.346  26.054  1.00  0.00     0.124 S 
ATOM     88  O   UNL A   1      42.560  18.626  27.218  1.00  0.00    -0.237 OA
ATOM     89  O   UNL A   1      40.650  19.098  25.722  1.00  0.00    -0.237 OA
ATOM     90  O   UNL A   1      42.958  19.408  24.911  1.00  0.00    -0.744 OA
ENDBRANCH  86  87
ENDBRANCH  58  81
BRANCH  70  91
ATOM     91  C   UNL A   1      47.272  26.439  31.542  1.00  0.00    -0.014 A 
ATOM     92  C   UNL A   1      48.399  26.361  30.702  1.00  0.00     0.010 A 
ATOM     93  C   UNL A   1      47.339  25.883  32.832  1.00  0.00     0.010 A 
ATOM     94  C   UNL A   1      49.555  25.703  31.127  1.00  0.00     0.020 A 
ATOM     95  C   UNL A   1      48.504  25.247  33.269  1.00  0.00     0.020 A 
ATOM     96  C   UNL A   1      49.595  25.137  32.403  1.00  0.00     0.054 A 
BRANCH  96  97
ATOM     97  S   UNL A   1      51.082  24.236  32.917  1.00  0.00     0.124 S 
ATOM     98  O   UNL A   1      51.091  23.105  31.994  1.00  0.00    -0.237 OA
ATOM     99  O   UNL A   1      52.141  25.222  32.714  1.00  0.00    -0.237 OA
ATOM    100  O   UNL A   1      50.815  23.900  34.314  1.00  0.00    -0.744 OA
ENDBRANCH  96  97
ENDBRANCH  70  91
ENDBRANCH  44  45
ENDBRANCH  37  39
ENDBRANCH  36  37
ENDBRANCH  35  36
ENDBRANCH   1  35
TORSDOF 20
ENDMDL
MODEL 3
REMARK VINA RESULT:     -12.1      2.569      3.379
REMARK SMILES C[C@H]1c2ccc(O)cc2OC(=O)[C@@H]1CC(=O)N[C@@H](CC1=c2ccccc2=NC1)C(=O)OCCOC(=O)c1ccc(-c2c3nc(c(-c4ccc(S(=O)(=O)[O-])cc4)c4ccc([nH]4)c(-c4ccc(S(=O)(=O)[O-])cc4)c4nc(c(-c5ccc(S(=O)(=O)[O-])cc5)c5ccc2[nH]5)C=C4)C=C3)cc1
REMARK SMILES IDX 32 1 31 2 29 3 30 4 18 5 17 6 15 7 16 8 14 10 13 11 1 12
REMARK SMILES IDX 2 13 3 14 4 15 9 16 11 17 5 18 8 19 10 20 12 21 6 22 7 23
REMARK SMILES IDX 19 25 20 26 21 27 28 28 22 29 26 30 27 31 23 32 25 33 24 34
REMARK SMILES IDX 33 35 34 36 35 37 36 38 37 39 38 40 96 41 39 42 95 43 40 44
REMARK SMILES IDX 41 45 42 46 89 47 43 48 94 49 88 50 90 51 44 52 93 53 87 54
REMARK SMILES IDX 86 55 45 57 75 58 56 59 74 60 57 61 60 62 73 63 91 64 58 65
REMARK SMILES IDX 59 66 72 68 92 69 61 70 46 71 47 72 55 73 48 74 54 75 49 76
REMARK SMILES IDX 50 77 51 78 52 79 53 80 76 81 77 82 85 83 78 84 84 85 79 86
REMARK SMILES IDX 80 87 81 88 82 89 83 90 62 91 63 92 71 93 64 94 70 95 65 96
REMARK SMILES IDX 66 97 67 98 68 99 69 100
REMARK H PARENT 17 9 7 24 90 56 60 67
REMARK Flexibility Score: inf
ROOT
ATOM      1  C   UNL A   1      31.977  29.295  26.404  1.00  0.00     0.274 C 
ENDROOT
BRANCH   1   2
ATOM      2  O   UNL A   1      31.442  29.533  25.084  1.00  0.00    -0.461 OA
BRANCH   2   3
ATOM      3  C   UNL A   1      32.235  29.164  24.046  1.00  0.00     0.329 C 
ATOM      4  O   UNL A   1      33.453  29.315  24.015  1.00  0.00    -0.250 OA
BRANCH   3   5
ATOM      5  C   UNL A   1      31.441  28.679  22.824  1.00  0.00     0.196 C 
BRANCH   5   6
ATOM      6  N   UNL A   1      32.084  27.717  21.916  1.00  0.00    -0.342 N 
ATOM      7  C   UNL A   1      32.858  26.624  22.189  1.00  0.00     0.221 C 
ATOM      8  O   UNL A   1      33.617  26.200  21.317  1.00  0.00    -0.275 OA
ATOM      9  H   UNL A   1      31.932  27.888  20.958  1.00  0.00     0.164 HD
BRANCH   7  10
ATOM     10  C   UNL A   1      32.692  25.874  23.501  1.00  0.00     0.116 C 
BRANCH  10  11
ATOM     11  C   UNL A   1      33.953  25.634  24.358  1.00  0.00     0.116 C 
ATOM     12  C   UNL A   1      35.666  23.869  25.142  1.00  0.00     0.014 C 
ATOM     13  C   UNL A   1      34.339  24.133  24.427  1.00  0.00     0.034 C 
ATOM     14  C   UNL A   1      33.225  23.410  25.136  1.00  0.00    -0.001 A 
ATOM     15  C   UNL A   1      32.793  22.139  24.753  1.00  0.00     0.011 A 
ATOM     16  C   UNL A   1      32.529  24.093  26.138  1.00  0.00     0.138 A 
ATOM     17  C   UNL A   1      33.768  26.138  25.766  1.00  0.00     0.315 C 
ATOM     18  C   UNL A   1      31.608  21.630  25.285  1.00  0.00     0.047 A 
ATOM     19  C   UNL A   1      31.339  23.610  26.656  1.00  0.00     0.093 A 
ATOM     20  O   UNL A   1      32.966  25.352  26.584  1.00  0.00    -0.426 OA
ATOM     21  O   UNL A   1      34.238  27.200  26.161  1.00  0.00    -0.251 OA
ATOM     22  C   UNL A   1      30.867  22.403  26.176  1.00  0.00     0.119 A 
BRANCH  22  23
ATOM     23  O   UNL A   1      29.613  22.031  26.540  1.00  0.00    -0.508 OA
ATOM     24  H   UNL A   1      28.922  22.028  25.907  1.00  0.00     0.293 HD
ENDBRANCH  22  23
ENDBRANCH  10  11
ENDBRANCH   7  10
ENDBRANCH   5   6
BRANCH   5  25
ATOM     25  C   UNL A   1      30.020  28.180  23.272  1.00  0.00     0.070 C 
BRANCH  25  26
ATOM     26  C   UNL A   1      28.889  29.201  23.448  1.00  0.00    -0.037 C 
ATOM     27  C   UNL A   1      29.032  30.450  22.976  1.00  0.00     0.001 A 
ATOM     28  C   UNL A   1      27.498  28.742  23.122  1.00  0.00     0.174 C 
ATOM     29  C   UNL A   1      28.823  31.700  23.694  1.00  0.00     0.010 A 
ATOM     30  C   UNL A   1      28.060  30.366  21.842  1.00  0.00     0.065 A 
ATOM     31  N   UNL A   1      27.213  29.383  21.820  1.00  0.00    -0.280 NA
ATOM     32  C   UNL A   1      28.480  32.783  22.968  1.00  0.00     0.001 A 
ATOM     33  C   UNL A   1      28.151  31.505  20.911  1.00  0.00     0.028 A 
ATOM     34  C   UNL A   1      28.372  32.688  21.513  1.00  0.00     0.002 A 
ENDBRANCH  25  26
ENDBRANCH   5  25
ENDBRANCH   3   5
ENDBRANCH   2   3
ENDBRANCH   1   2
BRANCH   1  35
ATOM     35  C   UNL A   1      32.440  30.605  27.033  1.00  0.00     0.275 C 
BRANCH  35  36
ATOM     36  O   UNL A   1      33.876  30.631  27.052  1.00  0.00    -0.458 OA
BRANCH  36  37
ATOM     37  C   UNL A   1      34.405  31.656  27.767  1.00  0.00     0.338 C 
ATOM     38  O   UNL A   1      33.878  32.714  28.036  1.00  0.00    -0.246 OA
BRANCH  37  39
ATOM     39  C   UNL A   1      35.667  31.188  28.377  1.00  0.00     0.060 A 
ATOM     40  C   UNL A   1      36.816  31.982  28.434  1.00  0.00     0.016 A 
ATOM     41  C   UNL A   1      35.675  29.894  28.900  1.00  0.00     0.016 A 
ATOM     42  C   UNL A   1      37.980  31.477  29.025  1.00  0.00     0.010 A 
ATOM     43  C   UNL A   1      36.838  29.392  29.475  1.00  0.00     0.010 A 
ATOM     44  C   UNL A   1      38.003  30.174  29.541  1.00  0.00    -0.014 A 
BRANCH  44  45
ATOM     45  C   UNL A   1      39.185  29.649  30.267  1.00  0.00     0.031 A 
ATOM     46  C   UNL A   1      39.591  30.178  31.611  1.00  0.00     0.074 A 
ATOM     47  C   UNL A   1      39.960  28.747  29.638  1.00  0.00     0.049 A 
ATOM     48  N   UNL A   1      40.699  29.980  32.276  1.00  0.00    -0.248 NA
ATOM     49  C   UNL A   1      38.670  31.121  32.254  1.00  0.00     0.031 C 
ATOM     50  C   UNL A   1      39.685  28.183  28.316  1.00  0.00     0.029 A 
ATOM     51  N   UNL A   1      41.126  28.144  30.029  1.00  0.00    -0.354 N 
ATOM     52  C   UNL A   1      40.655  30.847  33.365  1.00  0.00     0.074 A 
ATOM     53  C   UNL A   1      39.419  31.590  33.246  1.00  0.00     0.031 C 
ATOM     54  C   UNL A   1      40.640  27.290  28.018  1.00  0.00     0.029 A 
ATOM     55  C   UNL A   1      41.589  27.219  29.126  1.00  0.00     0.049 A 
ATOM     56  H   UNL A   1      41.586  28.352  30.873  1.00  0.00     0.167 HD
ATOM     57  C   UNL A   1      41.554  30.987  34.372  1.00  0.00     0.031 A 
ATOM     58  C   UNL A   1      42.632  26.371  29.203  1.00  0.00     0.031 A 
ATOM     59  C   UNL A   1      42.681  30.099  34.549  1.00  0.00     0.049 A 
ATOM     60  C   UNL A   1      43.460  26.348  30.455  1.00  0.00     0.074 A 
ATOM     61  C   UNL A   1      43.566  30.035  35.613  1.00  0.00     0.029 A 
ATOM     62  N   UNL A   1      43.035  29.078  33.678  1.00  0.00    -0.354 N 
ATOM     63  N   UNL A   1      43.399  27.153  31.488  1.00  0.00    -0.248 NA
ATOM     64  C   UNL A   1      44.461  25.281  30.576  1.00  0.00     0.031 C 
ATOM     65  C   UNL A   1      44.459  28.986  35.380  1.00  0.00     0.029 A 
ATOM     66  C   UNL A   1      44.099  28.360  34.197  1.00  0.00     0.049 A 
ATOM     67  H   UNL A   1      42.594  28.891  32.818  1.00  0.00     0.167 HD
ATOM     68  C   UNL A   1      44.341  26.678  32.393  1.00  0.00     0.074 A 
ATOM     69  C   UNL A   1      44.940  25.503  31.795  1.00  0.00     0.031 C 
ATOM     70  C   UNL A   1      44.680  27.181  33.605  1.00  0.00     0.031 A 
BRANCH  57  71
ATOM     71  C   UNL A   1      41.351  32.070  35.413  1.00  0.00    -0.014 A 
ATOM     72  C   UNL A   1      40.254  31.993  36.297  1.00  0.00     0.010 A 
ATOM     73  C   UNL A   1      42.146  33.230  35.437  1.00  0.00     0.010 A 
ATOM     74  C   UNL A   1      39.945  33.053  37.158  1.00  0.00     0.020 A 
ATOM     75  C   UNL A   1      41.870  34.272  36.328  1.00  0.00     0.020 A 
ATOM     76  C   UNL A   1      40.754  34.190  37.164  1.00  0.00     0.054 A 
BRANCH  76  77
ATOM     77  S   UNL A   1      40.347  35.568  38.273  1.00  0.00     0.124 S 
ATOM     78  O   UNL A   1      39.429  34.941  39.219  1.00  0.00    -0.237 OA
ATOM     79  O   UNL A   1      41.649  35.947  38.815  1.00  0.00    -0.237 OA
ATOM     80  O   UNL A   1      39.745  36.556  37.379  1.00  0.00    -0.744 OA
ENDBRANCH  76  77
ENDBRANCH  57  71
BRANCH  58  81
ATOM     81  C   UNL A   1      42.804  25.372  28.119  1.00  0.00    -0.014 A 
ATOM     82  C   UNL A   1      42.183  24.112  28.188  1.00  0.00     0.010 A 
ATOM     83  C   UNL A   1      43.730  25.629  27.092  1.00  0.00     0.010 A 
ATOM     84  C   UNL A   1      42.530  23.107  27.282  1.00  0.00     0.020 A 
ATOM     85  C   UNL A   1      44.060  24.635  26.170  1.00  0.00     0.020 A 
ATOM     86  C   UNL A   1      43.482  23.370  26.292  1.00  0.00     0.054 A 
BRANCH  86  87
ATOM     87  S   UNL A   1      43.989  22.026  25.186  1.00  0.00     0.124 S 
ATOM     88  O   UNL A   1      43.898  22.668  23.877  1.00  0.00    -0.237 OA
ATOM     89  O   UNL A   1      45.342  21.725  25.648  1.00  0.00    -0.237 OA
ATOM     90  O   UNL A   1      43.000  20.983  25.440  1.00  0.00    -0.744 OA
ENDBRANCH  86  87
ENDBRANCH  58  81
BRANCH  70  91
ATOM     91  C   UNL A   1      45.748  26.475  34.398  1.00  0.00    -0.014 A 
ATOM     92  C   UNL A   1      47.104  26.759  34.150  1.00  0.00     0.010 A 
ATOM     93  C   UNL A   1      45.415  25.429  35.277  1.00  0.00     0.010 A 
ATOM     94  C   UNL A   1      48.108  25.985  34.734  1.00  0.00     0.020 A 
ATOM     95  C   UNL A   1      46.419  24.669  35.884  1.00  0.00     0.020 A 
ATOM     96  C   UNL A   1      47.759  24.935  35.587  1.00  0.00     0.054 A 
BRANCH  96  97
ATOM     97  S   UNL A   1      49.073  23.902  36.292  1.00  0.00     0.124 S 
ATOM     98  O   UNL A   1      50.075  23.913  35.230  1.00  0.00    -0.237 OA
ATOM     99  O   UNL A   1      49.435  24.630  37.506  1.00  0.00    -0.237 OA
ATOM    100  O   UNL A   1      48.416  22.617  36.518  1.00  0.00    -0.744 OA
ENDBRANCH  96  97
ENDBRANCH  70  91
ENDBRANCH  44  45
ENDBRANCH  37  39
ENDBRANCH  36  37
ENDBRANCH  35  36
ENDBRANCH   1  35
TORSDOF 20
ENDMDL
