MODEL 1
REMARK VINA RESULT:     -11.6      0.000      0.000
REMARK SMILES Nc1c(Nc2ccc(I)cc2)ncnc1Nc1ccc(C(=O)OCCOC(=O)c2ccc(-c3c4nc(c(-c5ccc(S(=O)(=O)[O-])cc5)c5ccc([nH]5)c(-c5ccc(S(=O)(=O)[O-])cc5)c5nc(c(-c6ccc(S(=O)(=O)[O-])cc6)c6ccc3[nH]6)C=C5)C=C4)cc2)cc1
REMARK SMILES IDX 24 1 23 2 21 3 22 4 20 5 17 6 18 7 90 8 19 9 89 10 16 11
REMARK SMILES IDX 15 13 2 14 3 15 12 16 14 17 13 18 1 19 4 22 5 24 6 25 11 26
REMARK SMILES IDX 7 27 10 28 8 29 9 30 25 31 26 32 27 33 28 34 29 35 30 36
REMARK SMILES IDX 88 37 31 38 87 39 32 40 33 41 34 42 81 43 35 44 86 45 80 46
REMARK SMILES IDX 82 47 36 48 85 49 79 50 78 51 37 53 67 54 48 55 66 56 49 57
REMARK SMILES IDX 52 58 65 59 83 60 50 61 51 62 64 64 84 65 53 66 38 67 39 68
REMARK SMILES IDX 47 69 40 70 46 71 41 72 42 73 43 74 44 75 45 76 68 77 69 78
REMARK SMILES IDX 77 79 70 80 76 81 71 82 72 83 73 84 74 85 75 86 54 87 55 88
REMARK SMILES IDX 63 89 56 90 62 91 57 92 58 93 59 94 60 95 61 96
REMARK H PARENT 16 12 1 20 1 21 4 23 82 52 52 63
REMARK Flexibility Score: inf
ROOT
ATOM      1  C   UNL A   1      39.614  21.649  26.045  1.00  0.00     0.275 C 
ENDROOT
BRANCH   1   2
ATOM      2  O   UNL A   1      38.235  21.871  25.686  1.00  0.00    -0.458 OA
BRANCH   2   3
ATOM      3  C   UNL A   1      37.635  20.844  25.036  1.00  0.00     0.338 C 
ATOM      4  O   UNL A   1      38.087  19.721  24.878  1.00  0.00    -0.246 OA
BRANCH   3   5
ATOM      5  C   UNL A   1      36.266  21.220  24.618  1.00  0.00     0.060 A 
ATOM      6  C   UNL A   1      33.710  22.082  23.839  1.00  0.00     0.040 A 
ATOM      7  C   UNL A   1      34.840  22.827  23.496  1.00  0.00     0.027 A 
ATOM      8  C   UNL A   1      33.871  20.905  24.585  1.00  0.00     0.027 A 
ATOM      9  C   UNL A   1      36.101  22.418  23.916  1.00  0.00     0.018 A 
ATOM     10  C   UNL A   1      35.146  20.453  24.950  1.00  0.00     0.018 A 
BRANCH   6  11
ATOM     11  N   UNL A   1      32.440  22.638  23.595  1.00  0.00    -0.338 N 
ATOM     12  H   UNL A   1      32.000  22.441  22.736  1.00  0.00     0.168 HD
BRANCH  11  13
ATOM     13  C   UNL A   1      31.758  23.468  24.525  1.00  0.00     0.159 A 
ATOM     14  C   UNL A   1      31.820  24.857  24.362  1.00  0.00     0.118 A 
ATOM     15  C   UNL A   1      31.123  25.600  25.327  1.00  0.00     0.159 A 
ATOM     16  N   UNL A   1      30.507  25.031  26.380  1.00  0.00    -0.217 NA
ATOM     17  N   UNL A   1      31.097  22.887  25.547  1.00  0.00    -0.217 NA
ATOM     18  C   UNL A   1      30.526  23.699  26.435  1.00  0.00     0.226 A 
BRANCH  14  19
ATOM     19  N   UNL A   1      32.465  25.475  23.280  1.00  0.00    -0.393 N 
ATOM     20  H   UNL A   1      33.434  25.352  23.149  1.00  0.00     0.156 HD
ATOM     21  H   UNL A   1      31.951  26.031  22.652  1.00  0.00     0.156 HD
ENDBRANCH  14  19
BRANCH  15  22
ATOM     22  N   UNL A   1      31.044  27.005  25.152  1.00  0.00    -0.338 N 
ATOM     23  H   UNL A   1      30.409  27.333  24.474  1.00  0.00     0.168 HD
BRANCH  22  24
ATOM     24  C   UNL A   1      31.779  27.976  25.850  1.00  0.00     0.040 A 
ATOM     25  C   UNL A   1      32.911  27.589  26.578  1.00  0.00     0.027 A 
ATOM     26  C   UNL A   1      31.487  29.342  25.743  1.00  0.00     0.027 A 
ATOM     27  C   UNL A   1      33.745  28.544  27.166  1.00  0.00     0.017 A 
ATOM     28  C   UNL A   1      32.307  30.303  26.340  1.00  0.00     0.017 A 
ATOM     29  C   UNL A   1      33.441  29.899  27.040  1.00  0.00     0.013 A 
ATOM     30  I   UNL A   1      34.706  31.322  27.872  1.00  0.00    -0.044 I 
ENDBRANCH  22  24
ENDBRANCH  15  22
ENDBRANCH  11  13
ENDBRANCH   6  11
ENDBRANCH   3   5
ENDBRANCH   2   3
ENDBRANCH   1   2
BRANCH   1  31
ATOM     31  C   UNL A   1      40.139  22.801  26.901  1.00  0.00     0.275 C 
BRANCH  31  32
ATOM     32  O   UNL A   1      39.466  24.022  26.543  1.00  0.00    -0.458 OA
BRANCH  32  33
ATOM     33  C   UNL A   1      40.267  25.090  26.327  1.00  0.00     0.338 C 
ATOM     34  O   UNL A   1      40.770  25.432  25.269  1.00  0.00    -0.246 OA
BRANCH  33  35
ATOM     35  C   UNL A   1      40.459  25.852  27.576  1.00  0.00     0.060 A 
ATOM     36  C   UNL A   1      39.488  25.808  28.572  1.00  0.00     0.016 A 
ATOM     37  C   UNL A   1      41.520  26.747  27.682  1.00  0.00     0.016 A 
ATOM     38  C   UNL A   1      39.487  26.761  29.592  1.00  0.00     0.010 A 
ATOM     39  C   UNL A   1      41.585  27.619  28.777  1.00  0.00     0.010 A 
ATOM     40  C   UNL A   1      40.533  27.687  29.711  1.00  0.00    -0.014 A 
BRANCH  40  41
ATOM     41  C   UNL A   1      40.508  28.774  30.738  1.00  0.00     0.031 A 
ATOM     42  C   UNL A   1      41.512  28.759  31.870  1.00  0.00     0.074 A 
ATOM     43  C   UNL A   1      39.619  29.787  30.677  1.00  0.00     0.049 A 
ATOM     44  N   UNL A   1      41.516  29.444  32.986  1.00  0.00    -0.248 NA
ATOM     45  C   UNL A   1      42.657  27.841  31.733  1.00  0.00     0.031 C 
ATOM     46  C   UNL A   1      38.636  30.001  29.613  1.00  0.00     0.029 A 
ATOM     47  N   UNL A   1      39.404  30.840  31.536  1.00  0.00    -0.354 N 
ATOM     48  C   UNL A   1      42.614  28.989  33.711  1.00  0.00     0.074 A 
ATOM     49  C   UNL A   1      43.256  27.970  32.908  1.00  0.00     0.031 C 
ATOM     50  C   UNL A   1      37.961  31.136  29.856  1.00  0.00     0.029 A 
ATOM     51  C   UNL A   1      38.381  31.672  31.146  1.00  0.00     0.049 A 
ATOM     52  H   UNL A   1      39.933  30.984  32.355  1.00  0.00     0.167 HD
ATOM     53  C   UNL A   1      43.049  29.379  34.935  1.00  0.00     0.031 A 
ATOM     54  C   UNL A   1      37.801  32.716  31.770  1.00  0.00     0.031 A 
ATOM     55  C   UNL A   1      42.445  30.432  35.711  1.00  0.00     0.049 A 
ATOM     56  C   UNL A   1      38.258  33.097  33.151  1.00  0.00     0.074 A 
ATOM     57  C   UNL A   1      42.808  30.895  36.964  1.00  0.00     0.029 A 
ATOM     58  N   UNL A   1      41.371  31.204  35.297  1.00  0.00    -0.354 N 
ATOM     59  N   UNL A   1      39.226  32.582  33.870  1.00  0.00    -0.248 NA
ATOM     60  C   UNL A   1      37.523  34.183  33.814  1.00  0.00     0.031 C 
ATOM     61  C   UNL A   1      41.929  31.923  37.323  1.00  0.00     0.029 A 
ATOM     62  C   UNL A   1      41.052  32.133  36.273  1.00  0.00     0.049 A 
ATOM     63  H   UNL A   1      40.904  31.106  34.435  1.00  0.00     0.167 HD
ATOM     64  C   UNL A   1      39.215  33.279  35.072  1.00  0.00     0.074 A 
ATOM     65  C   UNL A   1      38.166  34.274  34.970  1.00  0.00     0.031 C 
ATOM     66  C   UNL A   1      39.996  33.106  36.166  1.00  0.00     0.031 A 
BRANCH  53  67
ATOM     67  C   UNL A   1      44.215  28.640  35.536  1.00  0.00    -0.014 A 
ATOM     68  C   UNL A   1      45.513  29.180  35.527  1.00  0.00     0.010 A 
ATOM     69  C   UNL A   1      43.995  27.403  36.172  1.00  0.00     0.010 A 
ATOM     70  C   UNL A   1      46.572  28.484  36.116  1.00  0.00     0.020 A 
ATOM     71  C   UNL A   1      45.046  26.716  36.784  1.00  0.00     0.020 A 
ATOM     72  C   UNL A   1      46.332  27.255  36.742  1.00  0.00     0.054 A 
BRANCH  72  73
ATOM     73  S   UNL A   1      47.721  26.392  37.527  1.00  0.00     0.124 S 
ATOM     74  O   UNL A   1      47.962  25.294  36.594  1.00  0.00    -0.237 OA
ATOM     75  O   UNL A   1      48.757  27.421  37.566  1.00  0.00    -0.237 OA
ATOM     76  O   UNL A   1      47.192  25.996  38.831  1.00  0.00    -0.744 OA
ENDBRANCH  72  73
ENDBRANCH  53  67
BRANCH  54  77
ATOM     77  C   UNL A   1      36.672  33.437  31.119  1.00  0.00    -0.014 A 
ATOM     78  C   UNL A   1      36.868  34.129  29.910  1.00  0.00     0.010 A 
ATOM     79  C   UNL A   1      35.389  33.418  31.695  1.00  0.00     0.010 A 
ATOM     80  C   UNL A   1      35.801  34.788  29.292  1.00  0.00     0.020 A 
ATOM     81  C   UNL A   1      34.313  34.049  31.065  1.00  0.00     0.020 A 
ATOM     82  C   UNL A   1      34.529  34.737  29.870  1.00  0.00     0.054 A 
BRANCH  82  83
ATOM     83  S   UNL A   1      33.144  35.537  29.012  1.00  0.00     0.124 S 
ATOM     84  O   UNL A   1      32.336  36.022  30.126  1.00  0.00    -0.237 OA
ATOM     85  O   UNL A   1      33.816  36.566  28.222  1.00  0.00    -0.237 OA
ATOM     86  O   UNL A   1      32.552  34.451  28.234  1.00  0.00    -0.744 OA
ENDBRANCH  82  83
ENDBRANCH  54  77
BRANCH  66  87
ATOM     87  C   UNL A   1      39.754  34.022  37.335  1.00  0.00    -0.014 A 
ATOM     88  C   UNL A   1      40.269  35.331  37.345  1.00  0.00     0.010 A 
ATOM     89  C   UNL A   1      38.982  33.579  38.423  1.00  0.00     0.010 A 
ATOM     90  C   UNL A   1      40.051  36.167  38.442  1.00  0.00     0.020 A 
ATOM     91  C   UNL A   1      38.739  34.421  39.511  1.00  0.00     0.020 A 
ATOM     92  C   UNL A   1      39.291  35.704  39.522  1.00  0.00     0.054 A 
BRANCH  92  93
ATOM     93  S   UNL A   1      39.007  36.814  40.928  1.00  0.00     0.124 S 
ATOM     94  O   UNL A   1      38.380  37.965  40.284  1.00  0.00    -0.237 OA
ATOM     95  O   UNL A   1      38.132  36.022  41.791  1.00  0.00    -0.237 OA
ATOM     96  O   UNL A   1      40.348  37.050  41.459  1.00  0.00    -0.744 OA
ENDBRANCH  92  93
ENDBRANCH  66  87
ENDBRANCH  40  41
ENDBRANCH  33  35
ENDBRANCH  32  33
ENDBRANCH  31  32
ENDBRANCH   1  31
TORSDOF 19
ENDMDL
MODEL 2
REMARK VINA RESULT:     -11.3      1.504      8.239
REMARK SMILES Nc1c(Nc2ccc(I)cc2)ncnc1Nc1ccc(C(=O)OCCOC(=O)c2ccc(-c3c4nc(c(-c5ccc(S(=O)(=O)[O-])cc5)c5ccc([nH]5)c(-c5ccc(S(=O)(=O)[O-])cc5)c5nc(c(-c6ccc(S(=O)(=O)[O-])cc6)c6ccc3[nH]6)C=C5)C=C4)cc2)cc1
REMARK SMILES IDX 24 1 23 2 21 3 22 4 20 5 17 6 18 7 90 8 19 9 89 10 16 11
REMARK SMILES IDX 15 13 2 14 3 15 12 16 14 17 13 18 1 19 4 22 5 24 6 25 11 26
REMARK SMILES IDX 7 27 10 28 8 29 9 30 25 31 26 32 27 33 28 34 29 35 30 36
REMARK SMILES IDX 88 37 31 38 87 39 32 40 33 41 34 42 81 43 35 44 86 45 80 46
REMARK SMILES IDX 82 47 36 48 85 49 79 50 78 51 37 53 67 54 48 55 66 56 49 57
REMARK SMILES IDX 52 58 65 59 83 60 50 61 51 62 64 64 84 65 53 66 38 67 39 68
REMARK SMILES IDX 47 69 40 70 46 71 41 72 42 73 43 74 44 75 45 76 68 77 69 78
REMARK SMILES IDX 77 79 70 80 76 81 71 82 72 83 73 84 74 85 75 86 54 87 55 88
REMARK SMILES IDX 63 89 56 90 62 91 57 92 58 93 59 94 60 95 61 96
REMARK H PARENT 16 12 1 20 1 21 4 23 82 52 52 63
REMARK Flexibility Score: inf
ROOT
ATOM      1  C   UNL A   1      42.116  22.523  26.112  1.00  0.00     0.275 C 
ENDROOT
BRANCH   1   2
ATOM      2  O   UNL A   1      40.762  22.590  26.602  1.00  0.00    -0.458 OA
BRANCH   2   3
ATOM      3  C   UNL A   1      39.961  21.563  26.229  1.00  0.00     0.338 C 
ATOM      4  O   UNL A   1      40.245  20.375  26.249  1.00  0.00    -0.246 OA
BRANCH   3   5
ATOM      5  C   UNL A   1      38.607  22.054  25.888  1.00  0.00     0.060 A 
ATOM      6  C   UNL A   1      36.040  22.888  25.117  1.00  0.00     0.040 A 
ATOM      7  C   UNL A   1      36.450  21.573  24.891  1.00  0.00     0.027 A 
ATOM      8  C   UNL A   1      36.931  23.786  25.723  1.00  0.00     0.027 A 
ATOM      9  C   UNL A   1      37.735  21.172  25.239  1.00  0.00     0.018 A 
ATOM     10  C   UNL A   1      38.202  23.366  26.139  1.00  0.00     0.018 A 
BRANCH   6  11
ATOM     11  N   UNL A   1      34.824  23.318  24.552  1.00  0.00    -0.338 N 
ATOM     12  H   UNL A   1      34.745  23.335  23.570  1.00  0.00     0.168 HD
BRANCH  11  13
ATOM     13  C   UNL A   1      33.705  23.731  25.323  1.00  0.00     0.159 A 
ATOM     14  C   UNL A   1      33.430  25.099  25.438  1.00  0.00     0.118 A 
ATOM     15  C   UNL A   1      32.310  25.416  26.221  1.00  0.00     0.159 A 
ATOM     16  N   UNL A   1      31.597  24.486  26.884  1.00  0.00    -0.217 NA
ATOM     17  N   UNL A   1      32.963  22.788  25.940  1.00  0.00    -0.217 NA
ATOM     18  C   UNL A   1      31.962  23.216  26.708  1.00  0.00     0.226 A 
BRANCH  14  19
ATOM     19  N   UNL A   1      34.165  26.087  24.766  1.00  0.00    -0.393 N 
ATOM     20  H   UNL A   1      34.029  26.231  23.801  1.00  0.00     0.156 HD
ATOM     21  H   UNL A   1      34.816  26.637  25.259  1.00  0.00     0.156 HD
ENDBRANCH  14  19
BRANCH  15  22
ATOM     22  N   UNL A   1      31.904  26.773  26.279  1.00  0.00    -0.338 N 
ATOM     23  H   UNL A   1      32.098  27.259  27.114  1.00  0.00     0.168 HD
BRANCH  22  24
ATOM     24  C   UNL A   1      31.255  27.496  25.266  1.00  0.00     0.040 A 
ATOM     25  C   UNL A   1      30.323  26.845  24.448  1.00  0.00     0.027 A 
ATOM     26  C   UNL A   1      31.420  28.879  25.123  1.00  0.00     0.027 A 
ATOM     27  C   UNL A   1      29.556  27.562  23.525  1.00  0.00     0.017 A 
ATOM     28  C   UNL A   1      30.668  29.602  24.192  1.00  0.00     0.017 A 
ATOM     29  C   UNL A   1      29.730  28.940  23.405  1.00  0.00     0.013 A 
ATOM     30  I   UNL A   1      28.557  30.015  22.069  1.00  0.00    -0.044 I 
ENDBRANCH  22  24
ENDBRANCH  15  22
ENDBRANCH  11  13
ENDBRANCH   6  11
ENDBRANCH   3   5
ENDBRANCH   2   3
ENDBRANCH   1   2
BRANCH   1  31
ATOM     31  C   UNL A   1      42.581  23.894  25.623  1.00  0.00     0.275 C 
BRANCH  31  32
ATOM     32  O   UNL A   1      41.529  24.860  25.807  1.00  0.00    -0.458 OA
BRANCH  32  33
ATOM     33  C   UNL A   1      41.887  26.154  25.645  1.00  0.00     0.338 C 
ATOM     34  O   UNL A   1      42.546  26.628  24.733  1.00  0.00    -0.246 OA
BRANCH  33  35
ATOM     35  C   UNL A   1      41.346  26.980  26.741  1.00  0.00     0.060 A 
ATOM     36  C   UNL A   1      41.756  28.303  26.882  1.00  0.00     0.016 A 
ATOM     37  C   UNL A   1      40.568  26.388  27.733  1.00  0.00     0.016 A 
ATOM     38  C   UNL A   1      41.524  28.985  28.078  1.00  0.00     0.010 A 
ATOM     39  C   UNL A   1      40.230  27.119  28.878  1.00  0.00     0.010 A 
ATOM     40  C   UNL A   1      40.761  28.404  29.100  1.00  0.00    -0.014 A 
BRANCH  40  41
ATOM     41  C   UNL A   1      40.577  29.077  30.423  1.00  0.00     0.031 A 
ATOM     42  C   UNL A   1      39.466  30.090  30.601  1.00  0.00     0.074 A 
ATOM     43  C   UNL A   1      41.369  28.794  31.478  1.00  0.00     0.049 A 
ATOM     44  N   UNL A   1      39.282  30.960  31.562  1.00  0.00    -0.248 NA
ATOM     45  C   UNL A   1      38.433  30.136  29.551  1.00  0.00     0.031 C 
ATOM     46  C   UNL A   1      42.433  27.789  31.506  1.00  0.00     0.029 A 
ATOM     47  N   UNL A   1      41.393  29.331  32.745  1.00  0.00    -0.354 N 
ATOM     48  C   UNL A   1      38.162  31.702  31.196  1.00  0.00     0.074 A 
ATOM     49  C   UNL A   1      37.705  31.179  29.927  1.00  0.00     0.031 C 
ATOM     50  C   UNL A   1      42.969  27.747  32.736  1.00  0.00     0.029 A 
ATOM     51  C   UNL A   1      42.369  28.795  33.553  1.00  0.00     0.049 A 
ATOM     52  H   UNL A   1      40.771  30.034  33.045  1.00  0.00     0.167 HD
ATOM     53  C   UNL A   1      37.568  32.728  31.854  1.00  0.00     0.031 A 
ATOM     54  C   UNL A   1      42.780  29.137  34.790  1.00  0.00     0.031 A 
ATOM     55  C   UNL A   1      37.986  33.213  33.144  1.00  0.00     0.049 A 
ATOM     56  C   UNL A   1      42.148  30.314  35.479  1.00  0.00     0.074 A 
ATOM     57  C   UNL A   1      37.453  34.253  33.888  1.00  0.00     0.029 A 
ATOM     58  N   UNL A   1      39.021  32.676  33.894  1.00  0.00    -0.354 N 
ATOM     59  N   UNL A   1      41.164  31.077  35.071  1.00  0.00    -0.248 NA
ATOM     60  C   UNL A   1      42.706  30.691  36.786  1.00  0.00     0.031 C 
ATOM     61  C   UNL A   1      38.189  34.366  35.073  1.00  0.00     0.029 A 
ATOM     62  C   UNL A   1      39.148  33.367  35.088  1.00  0.00     0.049 A 
ATOM     63  H   UNL A   1      39.582  31.915  33.619  1.00  0.00     0.167 HD
ATOM     64  C   UNL A   1      40.984  32.027  36.069  1.00  0.00     0.074 A 
ATOM     65  C   UNL A   1      41.940  31.723  37.115  1.00  0.00     0.031 C 
ATOM     66  C   UNL A   1      40.114  33.065  36.112  1.00  0.00     0.031 A 
BRANCH  53  67
ATOM     67  C   UNL A   1      36.420  33.428  31.176  1.00  0.00    -0.014 A 
ATOM     68  C   UNL A   1      35.217  33.697  31.854  1.00  0.00     0.010 A 
ATOM     69  C   UNL A   1      36.570  33.874  29.849  1.00  0.00     0.010 A 
ATOM     70  C   UNL A   1      34.179  34.373  31.207  1.00  0.00     0.020 A 
ATOM     71  C   UNL A   1      35.544  34.571  29.207  1.00  0.00     0.020 A 
ATOM     72  C   UNL A   1      34.347  34.806  29.887  1.00  0.00     0.054 A 
BRANCH  72  73
ATOM     73  S   UNL A   1      32.993  35.710  29.087  1.00  0.00     0.124 S 
ATOM     74  O   UNL A   1      32.188  36.124  30.233  1.00  0.00    -0.237 OA
ATOM     75  O   UNL A   1      33.694  36.785  28.391  1.00  0.00    -0.237 OA
ATOM     76  O   UNL A   1      32.373  34.710  28.220  1.00  0.00    -0.744 OA
ENDBRANCH  72  73
ENDBRANCH  53  67
BRANCH  54  77
ATOM     77  C   UNL A   1      43.899  28.392  35.432  1.00  0.00    -0.014 A 
ATOM     78  C   UNL A   1      45.229  28.814  35.263  1.00  0.00     0.010 A 
ATOM     79  C   UNL A   1      43.637  27.265  36.233  1.00  0.00     0.010 A 
ATOM     80  C   UNL A   1      46.275  28.124  35.883  1.00  0.00     0.020 A 
ATOM     81  C   UNL A   1      44.676  26.590  36.879  1.00  0.00     0.020 A 
ATOM     82  C   UNL A   1      45.990  27.021  36.693  1.00  0.00     0.054 A 
BRANCH  82  83
ATOM     83  S   UNL A   1      47.356  26.184  37.547  1.00  0.00     0.124 S 
ATOM     84  O   UNL A   1      47.987  25.445  36.458  1.00  0.00    -0.237 OA
ATOM     85  O   UNL A   1      48.126  27.305  38.082  1.00  0.00    -0.237 OA
ATOM     86  O   UNL A   1      46.680  25.367  38.552  1.00  0.00    -0.744 OA
ENDBRANCH  82  83
ENDBRANCH  54  77
BRANCH  66  87
ATOM     87  C   UNL A   1      40.145  33.938  37.337  1.00  0.00    -0.014 A 
ATOM     88  C   UNL A   1      39.344  33.643  38.455  1.00  0.00     0.010 A 
ATOM     89  C   UNL A   1      41.004  35.050  37.382  1.00  0.00     0.010 A 
ATOM     90  C   UNL A   1      39.371  34.470  39.581  1.00  0.00     0.020 A 
ATOM     91  C   UNL A   1      41.054  35.864  38.515  1.00  0.00     0.020 A 
ATOM     92  C   UNL A   1      40.223  35.579  39.602  1.00  0.00     0.054 A 
BRANCH  92  93
ATOM     93  S   UNL A   1      40.253  36.628  41.081  1.00  0.00     0.124 S 
ATOM     94  O   UNL A   1      41.302  37.588  40.751  1.00  0.00    -0.237 OA
ATOM     95  O   UNL A   1      38.895  37.167  41.120  1.00  0.00    -0.237 OA
ATOM     96  O   UNL A   1      40.578  35.696  42.159  1.00  0.00    -0.744 OA
ENDBRANCH  92  93
ENDBRANCH  66  87
ENDBRANCH  40  41
ENDBRANCH  33  35
ENDBRANCH  32  33
ENDBRANCH  31  32
ENDBRANCH   1  31
TORSDOF 19
ENDMDL
MODEL 3
REMARK VINA RESULT:     -11.3      6.487     11.982
REMARK SMILES Nc1c(Nc2ccc(I)cc2)ncnc1Nc1ccc(C(=O)OCCOC(=O)c2ccc(-c3c4nc(c(-c5ccc(S(=O)(=O)[O-])cc5)c5ccc([nH]5)c(-c5ccc(S(=O)(=O)[O-])cc5)c5nc(c(-c6ccc(S(=O)(=O)[O-])cc6)c6ccc3[nH]6)C=C5)C=C4)cc2)cc1
REMARK SMILES IDX 24 1 23 2 21 3 22 4 20 5 17 6 18 7 90 8 19 9 89 10 16 11
REMARK SMILES IDX 15 13 2 14 3 15 12 16 14 17 13 18 1 19 4 22 5 24 6 25 11 26
REMARK SMILES IDX 7 27 10 28 8 29 9 30 25 31 26 32 27 33 28 34 29 35 30 36
REMARK SMILES IDX 88 37 31 38 87 39 32 40 33 41 34 42 81 43 35 44 86 45 80 46
REMARK SMILES IDX 82 47 36 48 85 49 79 50 78 51 37 53 67 54 48 55 66 56 49 57
REMARK SMILES IDX 52 58 65 59 83 60 50 61 51 62 64 64 84 65 53 66 38 67 39 68
REMARK SMILES IDX 47 69 40 70 46 71 41 72 42 73 43 74 44 75 45 76 68 77 69 78
REMARK SMILES IDX 77 79 70 80 76 81 71 82 72 83 73 84 74 85 75 86 54 87 55 88
REMARK SMILES IDX 63 89 56 90 62 91 57 92 58 93 59 94 60 95 61 96
REMARK H PARENT 16 12 1 20 1 21 4 23 82 52 52 63
REMARK Flexibility Score: inf
ROOT
ATOM      1  C   UNL A   1      35.280  32.598  29.836  1.00  0.00     0.275 C 
ENDROOT
BRANCH   1   2
ATOM      2  O   UNL A   1      34.906  31.591  28.875  1.00  0.00    -0.458 OA
BRANCH   2   3
ATOM      3  C   UNL A   1      33.872  31.923  28.063  1.00  0.00     0.338 C 
ATOM      4  O   UNL A   1      33.436  33.046  27.865  1.00  0.00    -0.246 OA
BRANCH   3   5
ATOM      5  C   UNL A   1      33.384  30.735  27.327  1.00  0.00     0.060 A 
ATOM      6  C   UNL A   1      32.312  28.526  25.966  1.00  0.00     0.040 A 
ATOM      7  C   UNL A   1      31.626  29.741  25.987  1.00  0.00     0.027 A 
ATOM      8  C   UNL A   1      33.537  28.423  26.643  1.00  0.00     0.027 A 
ATOM      9  C   UNL A   1      32.140  30.823  26.694  1.00  0.00     0.018 A 
ATOM     10  C   UNL A   1      34.092  29.531  27.297  1.00  0.00     0.018 A 
BRANCH   6  11
ATOM     11  N   UNL A   1      31.660  27.396  25.437  1.00  0.00    -0.338 N 
ATOM     12  H   UNL A   1      30.676  27.388  25.424  1.00  0.00     0.168 HD
BRANCH  11  13
ATOM     13  C   UNL A   1      32.349  26.266  24.921  1.00  0.00     0.159 A 
ATOM     14  C   UNL A   1      32.396  25.095  25.687  1.00  0.00     0.118 A 
ATOM     15  C   UNL A   1      33.100  24.031  25.103  1.00  0.00     0.159 A 
ATOM     16  N   UNL A   1      33.754  24.145  23.932  1.00  0.00    -0.217 NA
ATOM     17  N   UNL A   1      32.956  26.372  23.721  1.00  0.00    -0.217 NA
ATOM     18  C   UNL A   1      33.647  25.313  23.300  1.00  0.00     0.226 A 
BRANCH  14  19
ATOM     19  N   UNL A   1      31.732  24.955  26.915  1.00  0.00    -0.393 N 
ATOM     20  H   UNL A   1      30.772  25.165  26.983  1.00  0.00     0.156 HD
ATOM     21  H   UNL A   1      32.225  24.648  27.710  1.00  0.00     0.156 HD
ENDBRANCH  14  19
BRANCH  15  22
ATOM     22  N   UNL A   1      33.083  22.779  25.770  1.00  0.00    -0.338 N 
ATOM     23  H   UNL A   1      32.913  22.796  26.740  1.00  0.00     0.168 HD
BRANCH  22  24
ATOM     24  C   UNL A   1      33.284  21.519  25.186  1.00  0.00     0.040 A 
ATOM     25  C   UNL A   1      34.542  20.909  25.283  1.00  0.00     0.027 A 
ATOM     26  C   UNL A   1      32.232  20.794  24.614  1.00  0.00     0.027 A 
ATOM     27  C   UNL A   1      34.738  19.599  24.839  1.00  0.00     0.017 A 
ATOM     28  C   UNL A   1      32.423  19.488  24.153  1.00  0.00     0.017 A 
ATOM     29  C   UNL A   1      33.675  18.892  24.280  1.00  0.00     0.013 A 
ATOM     30  I   UNL A   1      33.953  16.927  23.665  1.00  0.00    -0.044 I 
ENDBRANCH  22  24
ENDBRANCH  15  22
ENDBRANCH  11  13
ENDBRANCH   6  11
ENDBRANCH   3   5
ENDBRANCH   2   3
ENDBRANCH   1   2
BRANCH   1  31
ATOM     31  C   UNL A   1      35.227  32.035  31.255  1.00  0.00     0.275 C 
BRANCH  31  32
ATOM     32  O   UNL A   1      36.556  31.700  31.698  1.00  0.00    -0.458 OA
BRANCH  32  33
ATOM     33  C   UNL A   1      36.970  30.446  31.408  1.00  0.00     0.338 C 
ATOM     34  O   UNL A   1      36.347  29.408  31.567  1.00  0.00    -0.246 OA
BRANCH  33  35
ATOM     35  C   UNL A   1      38.326  30.472  30.827  1.00  0.00     0.060 A 
ATOM     36  C   UNL A   1      38.494  30.711  29.466  1.00  0.00     0.016 A 
ATOM     37  C   UNL A   1      39.417  30.085  31.601  1.00  0.00     0.016 A 
ATOM     38  C   UNL A   1      39.709  30.413  28.847  1.00  0.00     0.010 A 
ATOM     39  C   UNL A   1      40.668  29.909  30.998  1.00  0.00     0.010 A 
ATOM     40  C   UNL A   1      40.818  30.003  29.601  1.00  0.00    -0.014 A 
BRANCH  40  41
ATOM     41  C   UNL A   1      42.100  29.590  28.951  1.00  0.00     0.031 A 
ATOM     42  C   UNL A   1      42.248  28.185  28.409  1.00  0.00     0.074 A 
ATOM     43  C   UNL A   1      43.134  30.447  28.816  1.00  0.00     0.049 A 
ATOM     44  N   UNL A   1      43.330  27.546  28.039  1.00  0.00    -0.248 NA
ATOM     45  C   UNL A   1      41.014  27.389  28.278  1.00  0.00     0.031 C 
ATOM     46  C   UNL A   1      43.135  31.858  29.207  1.00  0.00     0.029 A 
ATOM     47  N   UNL A   1      44.394  30.250  28.300  1.00  0.00    -0.354 N 
ATOM     48  C   UNL A   1      42.919  26.259  27.704  1.00  0.00     0.074 A 
ATOM     49  C   UNL A   1      41.488  26.206  27.912  1.00  0.00     0.031 C 
ATOM     50  C   UNL A   1      44.313  32.408  28.873  1.00  0.00     0.029 A 
ATOM     51  C   UNL A   1      45.192  31.370  28.349  1.00  0.00     0.049 A 
ATOM     52  H   UNL A   1      44.698  29.389  27.930  1.00  0.00     0.167 HD
ATOM     53  C   UNL A   1      43.664  25.214  27.268  1.00  0.00     0.031 A 
ATOM     54  C   UNL A   1      46.497  31.540  28.060  1.00  0.00     0.031 A 
ATOM     55  C   UNL A   1      45.079  25.280  27.007  1.00  0.00     0.049 A 
ATOM     56  C   UNL A   1      47.320  30.357  27.633  1.00  0.00     0.074 A 
ATOM     57  C   UNL A   1      45.923  24.273  26.569  1.00  0.00     0.029 A 
ATOM     58  N   UNL A   1      45.853  26.423  27.132  1.00  0.00    -0.354 N 
ATOM     59  N   UNL A   1      46.939  29.119  27.430  1.00  0.00    -0.248 NA
ATOM     60  C   UNL A   1      48.756  30.591  27.425  1.00  0.00     0.031 C 
ATOM     61  C   UNL A   1      47.215  24.799  26.465  1.00  0.00     0.029 A 
ATOM     62  C   UNL A   1      47.166  26.144  26.789  1.00  0.00     0.049 A 
ATOM     63  H   UNL A   1      45.519  27.303  27.421  1.00  0.00     0.167 HD
ATOM     64  C   UNL A   1      48.089  28.425  27.072  1.00  0.00     0.074 A 
ATOM     65  C   UNL A   1      49.172  29.387  27.054  1.00  0.00     0.031 C 
ATOM     66  C   UNL A   1      48.237  27.107  26.792  1.00  0.00     0.031 A 
BRANCH  53  67
ATOM     67  C   UNL A   1      42.974  23.889  27.078  1.00  0.00    -0.014 A 
ATOM     68  C   UNL A   1      42.623  23.417  25.800  1.00  0.00     0.010 A 
ATOM     69  C   UNL A   1      42.722  23.075  28.199  1.00  0.00     0.010 A 
ATOM     70  C   UNL A   1      42.007  22.171  25.652  1.00  0.00     0.020 A 
ATOM     71  C   UNL A   1      42.129  21.818  28.053  1.00  0.00     0.020 A 
ATOM     72  C   UNL A   1      41.763  21.378  26.780  1.00  0.00     0.054 A 
BRANCH  72  73
ATOM     73  S   UNL A   1      40.994  19.752  26.551  1.00  0.00     0.124 S 
ATOM     74  O   UNL A   1      40.906  19.263  27.924  1.00  0.00    -0.237 OA
ATOM     75  O   UNL A   1      39.719  20.086  25.921  1.00  0.00    -0.237 OA
ATOM     76  O   UNL A   1      41.940  19.037  25.696  1.00  0.00    -0.744 OA
ENDBRANCH  72  73
ENDBRANCH  53  67
BRANCH  54  77
ATOM     77  C   UNL A   1      47.127  32.879  28.233  1.00  0.00    -0.014 A 
ATOM     78  C   UNL A   1      47.202  33.778  27.153  1.00  0.00     0.010 A 
ATOM     79  C   UNL A   1      47.638  33.270  29.484  1.00  0.00     0.010 A 
ATOM     80  C   UNL A   1      47.776  35.042  27.324  1.00  0.00     0.020 A 
ATOM     81  C   UNL A   1      48.184  34.543  29.666  1.00  0.00     0.020 A 
ATOM     82  C   UNL A   1      48.256  35.418  28.582  1.00  0.00     0.054 A 
BRANCH  82  83
ATOM     83  S   UNL A   1      48.930  37.090  28.798  1.00  0.00     0.124 S 
ATOM     84  O   UNL A   1      50.087  37.068  27.910  1.00  0.00    -0.237 OA
ATOM     85  O   UNL A   1      47.818  37.935  28.369  1.00  0.00    -0.237 OA
ATOM     86  O   UNL A   1      49.235  37.152  30.225  1.00  0.00    -0.744 OA
ENDBRANCH  82  83
ENDBRANCH  54  77
BRANCH  66  87
ATOM     87  C   UNL A   1      49.618  26.633  26.429  1.00  0.00    -0.014 A 
ATOM     88  C   UNL A   1      50.130  26.825  25.133  1.00  0.00     0.010 A 
ATOM     89  C   UNL A   1      50.423  26.012  27.400  1.00  0.00     0.010 A 
ATOM     90  C   UNL A   1      51.407  26.367  24.803  1.00  0.00     0.020 A 
ATOM     91  C   UNL A   1      51.711  25.576  27.082  1.00  0.00     0.020 A 
ATOM     92  C   UNL A   1      52.189  25.740  25.780  1.00  0.00     0.054 A 
BRANCH  92  93
ATOM     93  S   UNL A   1      53.851  25.170  25.332  1.00  0.00     0.124 S 
ATOM     94  O   UNL A   1      53.723  23.722  25.474  1.00  0.00    -0.237 OA
ATOM     95  O   UNL A   1      54.001  25.657  23.963  1.00  0.00    -0.237 OA
ATOM     96  O   UNL A   1      54.716  25.818  26.316  1.00  0.00    -0.744 OA
ENDBRANCH  92  93
ENDBRANCH  66  87
ENDBRANCH  40  41
ENDBRANCH  33  35
ENDBRANCH  32  33
ENDBRANCH  31  32
ENDBRANCH   1  31
TORSDOF 19
ENDMDL
