MODEL 1
REMARK VINA RESULT:     -11.7      0.000      0.000
REMARK SMILES CCn1nc(C)c(NS(=O)(=O)c2cc(C(=O)OCCOC(=O)c3ccc(-c4c5nc(c(-c6ccc(S(=O)(=O)[O-])cc6)c6ccc([nH]6)c(-c6ccc(S(=O)(=O)[O-])cc6)c6nc(c(-c7ccc(S(=O)(=O)[O-])cc7)c7ccc4[nH]7)C=C6)C=C5)cc3)cc(F)c2C)c1C
REMARK SMILES IDX 18 1 17 2 15 3 16 4 14 5 12 6 13 7 86 8 84 9 87 10 83 11
REMARK SMILES IDX 85 12 9 13 10 14 11 15 8 16 7 18 3 19 4 20 88 21 5 22 89 23
REMARK SMILES IDX 6 24 2 25 1 26 19 27 20 28 21 29 22 30 23 31 24 32 82 33
REMARK SMILES IDX 25 34 81 35 26 36 27 37 28 38 75 39 29 40 80 41 74 42 76 43
REMARK SMILES IDX 30 44 79 45 73 46 72 47 31 49 61 50 42 51 60 52 43 53 46 54
REMARK SMILES IDX 59 55 77 56 44 57 45 58 58 60 78 61 47 62 32 63 33 64 41 65
REMARK SMILES IDX 34 66 40 67 35 68 36 69 37 70 38 71 39 72 62 73 63 74 71 75
REMARK SMILES IDX 64 76 70 77 65 78 66 79 67 80 68 81 69 82 48 83 49 84 57 85
REMARK SMILES IDX 50 86 56 87 51 88 52 89 53 90 54 91 55 92
REMARK H PARENT 8 17 76 48 46 59
REMARK Flexibility Score: inf
ROOT
ATOM      1  C   UNL A   1      36.390  21.097  25.607  1.00  0.00     0.275 C 
ENDROOT
BRANCH   1   2
ATOM      2  O   UNL A   1      35.935  22.232  24.847  1.00  0.00    -0.458 OA
BRANCH   2   3
ATOM      3  C   UNL A   1      35.023  23.040  25.446  1.00  0.00     0.338 C 
ATOM      4  O   UNL A   1      34.815  23.155  26.644  1.00  0.00    -0.246 OA
BRANCH   3   5
ATOM      5  C   UNL A   1      34.395  23.910  24.425  1.00  0.00     0.064 A 
ATOM      6  C   UNL A   1      33.545  26.074  23.737  1.00  0.00     0.094 A 
ATOM      7  C   UNL A   1      34.080  25.229  24.724  1.00  0.00     0.038 A 
ATOM      8  C   UNL A   1      33.156  25.567  22.488  1.00  0.00     0.005 A 
ATOM      9  C   UNL A   1      33.471  24.226  22.223  1.00  0.00     0.128 A 
ATOM     10  C   UNL A   1      32.498  26.359  21.397  1.00  0.00     0.049 C 
ATOM     11  C   UNL A   1      34.123  23.415  23.151  1.00  0.00     0.055 A 
ATOM     12  F   UNL A   1      33.199  23.713  21.014  1.00  0.00    -0.207 F 
BRANCH   6  13
ATOM     13  S   UNL A   1      33.604  27.789  24.158  1.00  0.00     0.262 S 
ATOM     14  O   UNL A   1      34.319  28.485  23.107  1.00  0.00    -0.201 OA
ATOM     15  O   UNL A   1      34.057  27.869  25.531  1.00  0.00    -0.201 OA
BRANCH  13  16
ATOM     16  N   UNL A   1      32.067  28.400  24.161  1.00  0.00    -0.276 N 
ATOM     17  H   UNL A   1      32.039  29.350  24.416  1.00  0.00     0.180 HD
BRANCH  16  18
ATOM     18  C   UNL A   1      30.800  27.883  23.886  1.00  0.00     0.093 A 
ATOM     19  N   UNL A   1      28.714  28.025  23.207  1.00  0.00    -0.268 N 
ATOM     20  N   UNL A   1      28.762  26.867  23.885  1.00  0.00    -0.176 NA
ATOM     21  C   UNL A   1      29.961  28.551  23.006  1.00  0.00     0.060 A 
ATOM     22  C   UNL A   1      30.033  26.758  24.299  1.00  0.00     0.084 A 
ATOM     23  C   UNL A   1      30.314  29.627  22.048  1.00  0.00     0.069 C 
ATOM     24  C   UNL A   1      30.347  25.562  25.114  1.00  0.00     0.071 C 
BRANCH  19  25
ATOM     25  C   UNL A   1      27.403  28.618  23.009  1.00  0.00     0.141 C 
ATOM     26  C   UNL A   1      27.302  30.127  23.112  1.00  0.00     0.029 C 
ENDBRANCH  19  25
ENDBRANCH  16  18
ENDBRANCH  13  16
ENDBRANCH   6  13
ENDBRANCH   3   5
ENDBRANCH   2   3
ENDBRANCH   1   2
BRANCH   1  27
ATOM     27  C   UNL A   1      37.582  20.422  24.938  1.00  0.00     0.275 C 
BRANCH  27  28
ATOM     28  O   UNL A   1      38.801  21.015  25.375  1.00  0.00    -0.458 OA
BRANCH  28  29
ATOM     29  C   UNL A   1      39.776  20.131  25.681  1.00  0.00     0.338 C 
ATOM     30  O   UNL A   1      39.733  18.917  25.568  1.00  0.00    -0.246 OA
BRANCH  29  31
ATOM     31  C   UNL A   1      40.884  20.825  26.335  1.00  0.00     0.060 A 
ATOM     32  C   UNL A   1      40.865  20.869  27.735  1.00  0.00     0.016 A 
ATOM     33  C   UNL A   1      41.648  21.707  25.564  1.00  0.00     0.016 A 
ATOM     34  C   UNL A   1      41.430  21.953  28.361  1.00  0.00     0.010 A 
ATOM     35  C   UNL A   1      42.181  22.804  26.185  1.00  0.00     0.010 A 
ATOM     36  C   UNL A   1      41.973  22.952  27.558  1.00  0.00    -0.014 A 
BRANCH  36  37
ATOM     37  C   UNL A   1      42.274  24.227  28.164  1.00  0.00     0.031 A 
ATOM     38  C   UNL A   1      41.200  25.234  28.041  1.00  0.00     0.074 A 
ATOM     39  C   UNL A   1      43.387  24.350  28.915  1.00  0.00     0.049 A 
ATOM     40  N   UNL A   1      41.284  26.439  27.586  1.00  0.00    -0.248 NA
ATOM     41  C   UNL A   1      39.825  24.801  28.346  1.00  0.00     0.031 C 
ATOM     42  C   UNL A   1      44.332  23.294  29.300  1.00  0.00     0.029 A 
ATOM     43  N   UNL A   1      43.803  25.413  29.645  1.00  0.00    -0.354 N 
ATOM     44  C   UNL A   1      40.005  26.975  27.689  1.00  0.00     0.074 A 
ATOM     45  C   UNL A   1      39.125  25.885  28.019  1.00  0.00     0.031 C 
ATOM     46  C   UNL A   1      45.013  23.697  30.394  1.00  0.00     0.029 A 
ATOM     47  C   UNL A   1      44.629  25.063  30.705  1.00  0.00     0.049 A 
ATOM     48  H   UNL A   1      43.545  26.342  29.444  1.00  0.00     0.167 HD
ATOM     49  C   UNL A   1      39.775  28.314  27.679  1.00  0.00     0.031 A 
ATOM     50  C   UNL A   1      44.857  25.803  31.821  1.00  0.00     0.031 A 
ATOM     51  C   UNL A   1      40.919  29.051  27.226  1.00  0.00     0.049 A 
ATOM     52  C   UNL A   1      44.441  27.198  31.515  1.00  0.00     0.074 A 
ATOM     53  C   UNL A   1      41.595  29.126  26.025  1.00  0.00     0.029 A 
ATOM     54  N   UNL A   1      41.765  29.561  28.184  1.00  0.00    -0.354 N 
ATOM     55  N   UNL A   1      45.044  27.950  30.634  1.00  0.00    -0.248 NA
ATOM     56  C   UNL A   1      43.072  27.595  31.826  1.00  0.00     0.031 C 
ATOM     57  C   UNL A   1      42.966  29.248  26.384  1.00  0.00     0.029 A 
ATOM     58  C   UNL A   1      43.048  29.297  27.778  1.00  0.00     0.049 A 
ATOM     59  H   UNL A   1      41.497  30.029  29.008  1.00  0.00     0.167 HD
ATOM     60  C   UNL A   1      44.024  28.630  29.978  1.00  0.00     0.074 A 
ATOM     61  C   UNL A   1      42.846  28.452  30.824  1.00  0.00     0.031 C 
ATOM     62  C   UNL A   1      44.155  29.021  28.675  1.00  0.00     0.031 A 
BRANCH  49  63
ATOM     63  C   UNL A   1      38.631  28.966  28.402  1.00  0.00    -0.014 A 
ATOM     64  C   UNL A   1      37.817  29.877  27.702  1.00  0.00     0.010 A 
ATOM     65  C   UNL A   1      38.501  28.927  29.806  1.00  0.00     0.010 A 
ATOM     66  C   UNL A   1      36.973  30.762  28.385  1.00  0.00     0.020 A 
ATOM     67  C   UNL A   1      37.631  29.772  30.492  1.00  0.00     0.020 A 
ATOM     68  C   UNL A   1      36.906  30.717  29.779  1.00  0.00     0.054 A 
BRANCH  68  69
ATOM     69  S   UNL A   1      35.942  31.968  30.660  1.00  0.00     0.124 S 
ATOM     70  O   UNL A   1      34.720  32.019  29.862  1.00  0.00    -0.237 OA
ATOM     71  O   UNL A   1      35.809  31.379  31.989  1.00  0.00    -0.237 OA
ATOM     72  O   UNL A   1      36.784  33.160  30.592  1.00  0.00    -0.744 OA
ENDBRANCH  68  69
ENDBRANCH  49  63
BRANCH  50  73
ATOM     73  C   UNL A   1      45.060  25.281  33.199  1.00  0.00    -0.014 A 
ATOM     74  C   UNL A   1      44.047  24.585  33.880  1.00  0.00     0.010 A 
ATOM     75  C   UNL A   1      46.352  25.269  33.772  1.00  0.00     0.010 A 
ATOM     76  C   UNL A   1      44.325  23.875  35.064  1.00  0.00     0.020 A 
ATOM     77  C   UNL A   1      46.635  24.578  34.956  1.00  0.00     0.020 A 
ATOM     78  C   UNL A   1      45.622  23.864  35.586  1.00  0.00     0.054 A 
BRANCH  78  79
ATOM     79  S   UNL A   1      46.012  22.818  37.020  1.00  0.00     0.124 S 
ATOM     80  O   UNL A   1      45.560  21.502  36.578  1.00  0.00    -0.237 OA
ATOM     81  O   UNL A   1      47.457  22.983  37.148  1.00  0.00    -0.237 OA
ATOM     82  O   UNL A   1      45.227  23.411  38.102  1.00  0.00    -0.744 OA
ENDBRANCH  78  79
ENDBRANCH  50  73
BRANCH  62  83
ATOM     83  C   UNL A   1      45.510  28.893  28.014  1.00  0.00    -0.014 A 
ATOM     84  C   UNL A   1      46.475  29.919  28.041  1.00  0.00     0.010 A 
ATOM     85  C   UNL A   1      45.896  27.624  27.551  1.00  0.00     0.010 A 
ATOM     86  C   UNL A   1      47.788  29.683  27.609  1.00  0.00     0.020 A 
ATOM     87  C   UNL A   1      47.208  27.376  27.138  1.00  0.00     0.020 A 
ATOM     88  C   UNL A   1      48.148  28.408  27.166  1.00  0.00     0.054 A 
BRANCH  88  89
ATOM     89  S   UNL A   1      49.871  28.082  26.698  1.00  0.00     0.124 S 
ATOM     90  O   UNL A   1      49.900  26.627  26.591  1.00  0.00    -0.237 OA
ATOM     91  O   UNL A   1      50.012  28.809  25.438  1.00  0.00    -0.237 OA
ATOM     92  O   UNL A   1      50.643  28.636  27.810  1.00  0.00    -0.744 OA
ENDBRANCH  88  89
ENDBRANCH  62  83
ENDBRANCH  36  37
ENDBRANCH  29  31
ENDBRANCH  28  29
ENDBRANCH  27  28
ENDBRANCH   1  27
TORSDOF 18
ENDMDL
MODEL 2
REMARK VINA RESULT:     -11.5      3.072      8.230
REMARK SMILES CCn1nc(C)c(NS(=O)(=O)c2cc(C(=O)OCCOC(=O)c3ccc(-c4c5nc(c(-c6ccc(S(=O)(=O)[O-])cc6)c6ccc([nH]6)c(-c6ccc(S(=O)(=O)[O-])cc6)c6nc(c(-c7ccc(S(=O)(=O)[O-])cc7)c7ccc4[nH]7)C=C6)C=C5)cc3)cc(F)c2C)c1C
REMARK SMILES IDX 18 1 17 2 15 3 16 4 14 5 12 6 13 7 86 8 84 9 87 10 83 11
REMARK SMILES IDX 85 12 9 13 10 14 11 15 8 16 7 18 3 19 4 20 88 21 5 22 89 23
REMARK SMILES IDX 6 24 2 25 1 26 19 27 20 28 21 29 22 30 23 31 24 32 82 33
REMARK SMILES IDX 25 34 81 35 26 36 27 37 28 38 75 39 29 40 80 41 74 42 76 43
REMARK SMILES IDX 30 44 79 45 73 46 72 47 31 49 61 50 42 51 60 52 43 53 46 54
REMARK SMILES IDX 59 55 77 56 44 57 45 58 58 60 78 61 47 62 32 63 33 64 41 65
REMARK SMILES IDX 34 66 40 67 35 68 36 69 37 70 38 71 39 72 62 73 63 74 71 75
REMARK SMILES IDX 64 76 70 77 65 78 66 79 67 80 68 81 69 82 48 83 49 84 57 85
REMARK SMILES IDX 50 86 56 87 51 88 52 89 53 90 54 91 55 92
REMARK H PARENT 8 17 76 48 46 59
REMARK Flexibility Score: inf
ROOT
ATOM      1  C   UNL A   1      38.078  22.488  25.647  1.00  0.00     0.275 C 
ENDROOT
BRANCH   1   2
ATOM      2  O   UNL A   1      37.382  21.785  24.602  1.00  0.00    -0.458 OA
BRANCH   2   3
ATOM      3  C   UNL A   1      36.543  22.521  23.827  1.00  0.00     0.338 C 
ATOM      4  O   UNL A   1      36.761  22.945  22.703  1.00  0.00    -0.246 OA
BRANCH   3   5
ATOM      5  C   UNL A   1      35.221  22.612  24.489  1.00  0.00     0.064 A 
ATOM      6  C   UNL A   1      33.008  23.591  24.646  1.00  0.00     0.094 A 
ATOM      7  C   UNL A   1      34.286  23.546  24.063  1.00  0.00     0.038 A 
ATOM      8  C   UNL A   1      32.706  22.819  25.779  1.00  0.00     0.005 A 
ATOM      9  C   UNL A   1      33.678  21.897  26.195  1.00  0.00     0.128 A 
ATOM     10  C   UNL A   1      31.407  22.851  26.529  1.00  0.00     0.049 C 
ATOM     11  C   UNL A   1      34.900  21.753  25.539  1.00  0.00     0.055 A 
ATOM     12  F   UNL A   1      33.408  21.074  27.219  1.00  0.00    -0.207 F 
BRANCH   6  13
ATOM     13  S   UNL A   1      31.832  24.526  23.718  1.00  0.00     0.262 S 
ATOM     14  O   UNL A   1      30.689  23.677  23.455  1.00  0.00    -0.201 OA
ATOM     15  O   UNL A   1      32.555  25.142  22.625  1.00  0.00    -0.201 OA
BRANCH  13  16
ATOM     16  N   UNL A   1      31.281  25.779  24.647  1.00  0.00    -0.276 N 
ATOM     17  H   UNL A   1      31.199  25.536  25.598  1.00  0.00     0.180 HD
BRANCH  16  18
ATOM     18  C   UNL A   1      30.904  27.099  24.399  1.00  0.00     0.093 A 
ATOM     19  N   UNL A   1      29.692  28.659  23.435  1.00  0.00    -0.268 N 
ATOM     20  N   UNL A   1      30.758  29.320  23.916  1.00  0.00    -0.176 NA
ATOM     21  C   UNL A   1      29.642  27.370  23.890  1.00  0.00     0.060 A 
ATOM     22  C   UNL A   1      31.505  28.384  24.519  1.00  0.00     0.084 A 
ATOM     23  C   UNL A   1      28.470  26.464  23.825  1.00  0.00     0.069 C 
ATOM     24  C   UNL A   1      32.777  28.855  25.112  1.00  0.00     0.071 C 
BRANCH  19  25
ATOM     25  C   UNL A   1      28.933  29.313  22.382  1.00  0.00     0.141 C 
ATOM     26  C   UNL A   1      27.615  29.951  22.772  1.00  0.00     0.029 C 
ENDBRANCH  19  25
ENDBRANCH  16  18
ENDBRANCH  13  16
ENDBRANCH   6  13
ENDBRANCH   3   5
ENDBRANCH   2   3
ENDBRANCH   1   2
BRANCH   1  27
ATOM     27  C   UNL A   1      39.271  21.687  26.156  1.00  0.00     0.275 C 
BRANCH  27  28
ATOM     28  O   UNL A   1      40.225  22.549  26.772  1.00  0.00    -0.458 OA
BRANCH  28  29
ATOM     29  C   UNL A   1      41.398  22.650  26.109  1.00  0.00     0.338 C 
ATOM     30  O   UNL A   1      42.020  21.751  25.568  1.00  0.00    -0.246 OA
BRANCH  29  31
ATOM     31  C   UNL A   1      41.931  24.004  26.256  1.00  0.00     0.060 A 
ATOM     32  C   UNL A   1      43.030  24.161  27.109  1.00  0.00     0.016 A 
ATOM     33  C   UNL A   1      41.114  25.072  25.874  1.00  0.00     0.016 A 
ATOM     34  C   UNL A   1      43.173  25.354  27.775  1.00  0.00     0.010 A 
ATOM     35  C   UNL A   1      41.235  26.249  26.562  1.00  0.00     0.010 A 
ATOM     36  C   UNL A   1      42.200  26.330  27.569  1.00  0.00    -0.014 A 
BRANCH  36  37
ATOM     37  C   UNL A   1      42.147  27.445  28.483  1.00  0.00     0.031 A 
ATOM     38  C   UNL A   1      43.305  28.361  28.403  1.00  0.00     0.074 A 
ATOM     39  C   UNL A   1      41.020  27.662  29.189  1.00  0.00     0.049 A 
ATOM     40  N   UNL A   1      44.069  28.764  29.360  1.00  0.00    -0.248 NA
ATOM     41  C   UNL A   1      43.746  28.781  27.062  1.00  0.00     0.031 C 
ATOM     42  C   UNL A   1      39.742  26.944  29.084  1.00  0.00     0.029 A 
ATOM     43  N   UNL A   1      40.723  28.692  30.018  1.00  0.00    -0.354 N 
ATOM     44  C   UNL A   1      45.000  29.614  28.771  1.00  0.00     0.074 A 
ATOM     45  C   UNL A   1      44.847  29.471  27.347  1.00  0.00     0.031 C 
ATOM     46  C   UNL A   1      38.761  27.726  29.585  1.00  0.00     0.029 A 
ATOM     47  C   UNL A   1      39.360  28.929  30.136  1.00  0.00     0.049 A 
ATOM     48  H   UNL A   1      41.407  29.220  30.490  1.00  0.00     0.167 HD
ATOM     49  C   UNL A   1      45.710  30.523  29.489  1.00  0.00     0.031 A 
ATOM     50  C   UNL A   1      38.780  30.093  30.529  1.00  0.00     0.031 A 
ATOM     51  C   UNL A   1      45.637  30.268  30.899  1.00  0.00     0.049 A 
ATOM     52  C   UNL A   1      39.828  30.893  31.219  1.00  0.00     0.074 A 
ATOM     53  C   UNL A   1      46.072  29.240  31.710  1.00  0.00     0.029 A 
ATOM     54  N   UNL A   1      44.694  30.963  31.620  1.00  0.00    -0.354 N 
ATOM     55  N   UNL A   1      40.376  30.536  32.349  1.00  0.00    -0.248 NA
ATOM     56  C   UNL A   1      40.612  31.834  30.427  1.00  0.00     0.031 C 
ATOM     57  C   UNL A   1      45.052  29.091  32.691  1.00  0.00     0.029 A 
ATOM     58  C   UNL A   1      44.081  30.069  32.460  1.00  0.00     0.049 A 
ATOM     59  H   UNL A   1      44.497  31.925  31.547  1.00  0.00     0.167 HD
ATOM     60  C   UNL A   1      41.723  30.855  32.215  1.00  0.00     0.074 A 
ATOM     61  C   UNL A   1      41.788  31.745  31.059  1.00  0.00     0.031 C 
ATOM     62  C   UNL A   1      42.690  30.141  32.866  1.00  0.00     0.031 A 
BRANCH  49  63
ATOM     63  C   UNL A   1      46.189  31.833  28.931  1.00  0.00    -0.014 A 
ATOM     64  C   UNL A   1      45.261  32.681  28.298  1.00  0.00     0.010 A 
ATOM     65  C   UNL A   1      47.557  32.131  28.764  1.00  0.00     0.010 A 
ATOM     66  C   UNL A   1      45.687  33.727  27.471  1.00  0.00     0.020 A 
ATOM     67  C   UNL A   1      47.991  33.197  27.979  1.00  0.00     0.020 A 
ATOM     68  C   UNL A   1      47.052  33.961  27.300  1.00  0.00     0.054 A 
BRANCH  68  69
ATOM     69  S   UNL A   1      47.596  35.205  26.105  1.00  0.00     0.124 S 
ATOM     70  O   UNL A   1      48.188  34.375  25.060  1.00  0.00    -0.237 OA
ATOM     71  O   UNL A   1      46.343  35.868  25.755  1.00  0.00    -0.237 OA
ATOM     72  O   UNL A   1      48.538  36.022  26.865  1.00  0.00    -0.744 OA
ENDBRANCH  68  69
ENDBRANCH  49  63
BRANCH  50  73
ATOM     73  C   UNL A   1      37.506  30.662  30.015  1.00  0.00    -0.014 A 
ATOM     74  C   UNL A   1      36.565  31.256  30.873  1.00  0.00     0.010 A 
ATOM     75  C   UNL A   1      37.310  30.826  28.625  1.00  0.00     0.010 A 
ATOM     76  C   UNL A   1      35.496  32.017  30.361  1.00  0.00     0.020 A 
ATOM     77  C   UNL A   1      36.243  31.568  28.107  1.00  0.00     0.020 A 
ATOM     78  C   UNL A   1      35.351  32.180  28.980  1.00  0.00     0.054 A 
BRANCH  78  79
ATOM     79  S   UNL A   1      34.069  33.291  28.331  1.00  0.00     0.124 S 
ATOM     80  O   UNL A   1      34.840  34.199  27.487  1.00  0.00    -0.237 OA
ATOM     81  O   UNL A   1      33.180  32.372  27.627  1.00  0.00    -0.237 OA
ATOM     82  O   UNL A   1      33.498  33.898  29.533  1.00  0.00    -0.744 OA
ENDBRANCH  78  79
ENDBRANCH  50  73
BRANCH  62  83
ATOM     83  C   UNL A   1      42.264  29.128  33.907  1.00  0.00    -0.014 A 
ATOM     84  C   UNL A   1      41.927  27.798  33.588  1.00  0.00     0.010 A 
ATOM     85  C   UNL A   1      42.425  29.471  35.260  1.00  0.00     0.010 A 
ATOM     86  C   UNL A   1      41.750  26.839  34.596  1.00  0.00     0.020 A 
ATOM     87  C   UNL A   1      42.269  28.517  36.269  1.00  0.00     0.020 A 
ATOM     88  C   UNL A   1      41.929  27.205  35.932  1.00  0.00     0.054 A 
BRANCH  88  89
ATOM     89  S   UNL A   1      41.792  25.941  37.227  1.00  0.00     0.124 S 
ATOM     90  O   UNL A   1      42.820  26.350  38.179  1.00  0.00    -0.237 OA
ATOM     91  O   UNL A   1      40.413  26.091  37.687  1.00  0.00    -0.237 OA
ATOM     92  O   UNL A   1      42.065  24.690  36.521  1.00  0.00    -0.744 OA
ENDBRANCH  88  89
ENDBRANCH  62  83
ENDBRANCH  36  37
ENDBRANCH  29  31
ENDBRANCH  28  29
ENDBRANCH  27  28
ENDBRANCH   1  27
TORSDOF 18
ENDMDL
MODEL 3
REMARK VINA RESULT:     -11.3      3.348      9.207
REMARK SMILES CCn1nc(C)c(NS(=O)(=O)c2cc(C(=O)OCCOC(=O)c3ccc(-c4c5nc(c(-c6ccc(S(=O)(=O)[O-])cc6)c6ccc([nH]6)c(-c6ccc(S(=O)(=O)[O-])cc6)c6nc(c(-c7ccc(S(=O)(=O)[O-])cc7)c7ccc4[nH]7)C=C6)C=C5)cc3)cc(F)c2C)c1C
REMARK SMILES IDX 18 1 17 2 15 3 16 4 14 5 12 6 13 7 86 8 84 9 87 10 83 11
REMARK SMILES IDX 85 12 9 13 10 14 11 15 8 16 7 18 3 19 4 20 88 21 5 22 89 23
REMARK SMILES IDX 6 24 2 25 1 26 19 27 20 28 21 29 22 30 23 31 24 32 82 33
REMARK SMILES IDX 25 34 81 35 26 36 27 37 28 38 75 39 29 40 80 41 74 42 76 43
REMARK SMILES IDX 30 44 79 45 73 46 72 47 31 49 61 50 42 51 60 52 43 53 46 54
REMARK SMILES IDX 59 55 77 56 44 57 45 58 58 60 78 61 47 62 32 63 33 64 41 65
REMARK SMILES IDX 34 66 40 67 35 68 36 69 37 70 38 71 39 72 62 73 63 74 71 75
REMARK SMILES IDX 64 76 70 77 65 78 66 79 67 80 68 81 69 82 48 83 49 84 57 85
REMARK SMILES IDX 50 86 56 87 51 88 52 89 53 90 54 91 55 92
REMARK H PARENT 8 17 76 48 46 59
REMARK Flexibility Score: inf
ROOT
ATOM      1  C   UNL A   1      34.384  29.930  27.879  1.00  0.00     0.275 C 
ENDROOT
BRANCH   1   2
ATOM      2  O   UNL A   1      34.037  29.335  26.615  1.00  0.00    -0.458 OA
BRANCH   2   3
ATOM      3  C   UNL A   1      32.850  28.677  26.557  1.00  0.00     0.338 C 
ATOM      4  O   UNL A   1      31.786  29.035  27.036  1.00  0.00    -0.246 OA
BRANCH   3   5
ATOM      5  C   UNL A   1      32.987  27.500  25.669  1.00  0.00     0.064 A 
ATOM      6  C   UNL A   1      32.835  25.107  25.306  1.00  0.00     0.094 A 
ATOM      7  C   UNL A   1      32.769  26.220  26.162  1.00  0.00     0.038 A 
ATOM      8  C   UNL A   1      33.289  25.240  23.985  1.00  0.00     0.005 A 
ATOM      9  C   UNL A   1      33.518  26.544  23.522  1.00  0.00     0.128 A 
ATOM     10  C   UNL A   1      33.478  24.111  23.015  1.00  0.00     0.049 C 
ATOM     11  C   UNL A   1      33.327  27.667  24.327  1.00  0.00     0.055 A 
ATOM     12  F   UNL A   1      33.870  26.736  22.242  1.00  0.00    -0.207 F 
BRANCH   6  13
ATOM     13  S   UNL A   1      32.127  23.640  25.989  1.00  0.00     0.262 S 
ATOM     14  O   UNL A   1      31.366  22.981  24.947  1.00  0.00    -0.201 OA
ATOM     15  O   UNL A   1      31.491  24.020  27.232  1.00  0.00    -0.201 OA
BRANCH  13  16
ATOM     16  N   UNL A   1      33.340  22.598  26.411  1.00  0.00    -0.276 N 
ATOM     17  H   UNL A   1      33.173  22.152  27.272  1.00  0.00     0.180 HD
BRANCH  16  18
ATOM     18  C   UNL A   1      34.547  22.203  25.832  1.00  0.00     0.093 A 
ATOM     19  N   UNL A   1      35.970  20.722  25.049  1.00  0.00    -0.268 N 
ATOM     20  N   UNL A   1      36.712  21.827  25.234  1.00  0.00    -0.176 NA
ATOM     21  C   UNL A   1      34.633  20.974  25.193  1.00  0.00     0.060 A 
ATOM     22  C   UNL A   1      35.856  22.746  25.702  1.00  0.00     0.084 A 
ATOM     23  C   UNL A   1      33.524  20.090  24.762  1.00  0.00     0.069 C 
ATOM     24  C   UNL A   1      36.440  24.068  26.024  1.00  0.00     0.071 C 
BRANCH  19  25
ATOM     25  C   UNL A   1      36.682  19.459  24.960  1.00  0.00     0.141 C 
ATOM     26  C   UNL A   1      38.186  19.522  24.780  1.00  0.00     0.029 C 
ENDBRANCH  19  25
ENDBRANCH  16  18
ENDBRANCH  13  16
ENDBRANCH   6  13
ENDBRANCH   3   5
ENDBRANCH   2   3
ENDBRANCH   1   2
BRANCH   1  27
ATOM     27  C   UNL A   1      34.989  31.317  27.693  1.00  0.00     0.275 C 
BRANCH  27  28
ATOM     28  O   UNL A   1      36.400  31.276  27.891  1.00  0.00    -0.458 OA
BRANCH  28  29
ATOM     29  C   UNL A   1      36.788  30.665  29.032  1.00  0.00     0.338 C 
ATOM     30  O   UNL A   1      36.592  31.044  30.175  1.00  0.00    -0.246 OA
BRANCH  29  31
ATOM     31  C   UNL A   1      37.640  29.521  28.713  1.00  0.00     0.060 A 
ATOM     32  C   UNL A   1      37.958  28.656  29.768  1.00  0.00     0.016 A 
ATOM     33  C   UNL A   1      38.381  29.568  27.528  1.00  0.00     0.016 A 
ATOM     34  C   UNL A   1      39.165  28.002  29.733  1.00  0.00     0.010 A 
ATOM     35  C   UNL A   1      39.598  28.944  27.509  1.00  0.00     0.010 A 
ATOM     36  C   UNL A   1      40.007  28.256  28.653  1.00  0.00    -0.014 A 
BRANCH  36  37
ATOM     37  C   UNL A   1      41.387  27.844  28.751  1.00  0.00     0.031 A 
ATOM     38  C   UNL A   1      41.658  26.481  28.249  1.00  0.00     0.074 A 
ATOM     39  C   UNL A   1      42.317  28.749  29.114  1.00  0.00     0.049 A 
ATOM     40  N   UNL A   1      42.257  25.513  28.855  1.00  0.00    -0.248 NA
ATOM     41  C   UNL A   1      41.073  26.107  26.949  1.00  0.00     0.031 C 
ATOM     42  C   UNL A   1      42.129  30.188  29.342  1.00  0.00     0.029 A 
ATOM     43  N   UNL A   1      43.663  28.604  29.173  1.00  0.00    -0.354 N 
ATOM     44  C   UNL A   1      42.265  24.449  27.958  1.00  0.00     0.074 A 
ATOM     45  C   UNL A   1      41.400  24.820  26.869  1.00  0.00     0.031 C 
ATOM     46  C   UNL A   1      43.324  30.807  29.225  1.00  0.00     0.029 A 
ATOM     47  C   UNL A   1      44.353  29.800  29.027  1.00  0.00     0.049 A 
ATOM     48  H   UNL A   1      44.108  27.736  29.307  1.00  0.00     0.167 HD
ATOM     49  C   UNL A   1      43.129  23.407  28.074  1.00  0.00     0.031 A 
ATOM     50  C   UNL A   1      45.645  29.938  28.633  1.00  0.00     0.031 A 
ATOM     51  C   UNL A   1      43.759  23.374  29.364  1.00  0.00     0.049 A 
ATOM     52  C   UNL A   1      46.301  28.615  28.814  1.00  0.00     0.074 A 
ATOM     53  C   UNL A   1      43.297  23.177  30.649  1.00  0.00     0.029 A 
ATOM     54  N   UNL A   1      45.000  23.955  29.478  1.00  0.00    -0.354 N 
ATOM     55  N   UNL A   1      46.492  28.063  29.983  1.00  0.00    -0.248 NA
ATOM     56  C   UNL A   1      46.310  27.687  27.689  1.00  0.00     0.031 C 
ATOM     57  C   UNL A   1      44.072  24.057  31.454  1.00  0.00     0.029 A 
ATOM     58  C   UNL A   1      44.998  24.701  30.629  1.00  0.00     0.049 A 
ATOM     59  H   UNL A   1      45.751  23.854  28.849  1.00  0.00     0.167 HD
ATOM     60  C   UNL A   1      46.220  26.713  29.794  1.00  0.00     0.074 A 
ATOM     61  C   UNL A   1      46.218  26.525  28.346  1.00  0.00     0.031 C 
ATOM     62  C   UNL A   1      45.734  25.938  30.810  1.00  0.00     0.031 A 
BRANCH  49  63
ATOM     63  C   UNL A   1      43.650  22.624  26.904  1.00  0.00    -0.014 A 
ATOM     64  C   UNL A   1      42.876  21.562  26.398  1.00  0.00     0.010 A 
ATOM     65  C   UNL A   1      44.988  22.716  26.465  1.00  0.00     0.010 A 
ATOM     66  C   UNL A   1      43.440  20.595  25.558  1.00  0.00     0.020 A 
ATOM     67  C   UNL A   1      45.546  21.783  25.594  1.00  0.00     0.020 A 
ATOM     68  C   UNL A   1      44.780  20.701  25.182  1.00  0.00     0.054 A 
BRANCH  68  69
ATOM     69  S   UNL A   1      45.544  19.364  24.234  1.00  0.00     0.124 S 
ATOM     70  O   UNL A   1      45.301  18.211  25.096  1.00  0.00    -0.237 OA
ATOM     71  O   UNL A   1      44.787  19.395  22.986  1.00  0.00    -0.237 OA
ATOM     72  O   UNL A   1      46.940  19.779  24.121  1.00  0.00    -0.744 OA
ENDBRANCH  68  69
ENDBRANCH  49  63
BRANCH  50  73
ATOM     73  C   UNL A   1      46.198  31.029  27.788  1.00  0.00    -0.014 A 
ATOM     74  C   UNL A   1      45.363  31.883  27.046  1.00  0.00     0.010 A 
ATOM     75  C   UNL A   1      47.563  31.384  27.887  1.00  0.00     0.010 A 
ATOM     76  C   UNL A   1      45.866  33.062  26.464  1.00  0.00     0.020 A 
ATOM     77  C   UNL A   1      48.074  32.546  27.299  1.00  0.00     0.020 A 
ATOM     78  C   UNL A   1      47.216  33.394  26.607  1.00  0.00     0.054 A 
BRANCH  78  79
ATOM     79  S   UNL A   1      47.826  34.991  25.993  1.00  0.00     0.124 S 
ATOM     80  O   UNL A   1      46.600  35.780  25.905  1.00  0.00    -0.237 OA
ATOM     81  O   UNL A   1      48.765  35.394  27.036  1.00  0.00    -0.237 OA
ATOM     82  O   UNL A   1      48.440  34.655  24.709  1.00  0.00    -0.744 OA
ENDBRANCH  78  79
ENDBRANCH  50  73
BRANCH  62  83
ATOM     83  C   UNL A   1      45.695  26.518  32.207  1.00  0.00    -0.014 A 
ATOM     84  C   UNL A   1      44.655  27.354  32.660  1.00  0.00     0.010 A 
ATOM     85  C   UNL A   1      46.614  26.024  33.148  1.00  0.00     0.010 A 
ATOM     86  C   UNL A   1      44.543  27.691  34.017  1.00  0.00     0.020 A 
ATOM     87  C   UNL A   1      46.497  26.341  34.504  1.00  0.00     0.020 A 
ATOM     88  C   UNL A   1      45.464  27.176  34.932  1.00  0.00     0.054 A 
BRANCH  88  89
ATOM     89  S   UNL A   1      45.260  27.537  36.699  1.00  0.00     0.124 S 
ATOM     90  O   UNL A   1      46.216  26.627  37.321  1.00  0.00    -0.237 OA
ATOM     91  O   UNL A   1      45.596  28.957  36.784  1.00  0.00    -0.237 OA
ATOM     92  O   UNL A   1      43.853  27.229  36.956  1.00  0.00    -0.744 OA
ENDBRANCH  88  89
ENDBRANCH  62  83
ENDBRANCH  36  37
ENDBRANCH  29  31
ENDBRANCH  28  29
ENDBRANCH  27  28
ENDBRANCH   1  27
TORSDOF 18
ENDMDL
