MODEL 1
REMARK VINA RESULT:     -11.1      0.000      0.000
REMARK SMILES CC[C@@H](C)[C@@H](NC(=O)Cn1ncc2ccccc2c1=O)C(=O)OCCOC(=O)c1ccc(-c2c3nc(c(-c4ccc(S(=O)(=O)[O-])cc4)c4ccc([nH]4)c(-c4ccc(S(=O)(=O)[O-])cc4)c4nc(c(-c5ccc(S(=O)(=O)[O-])cc5)c5ccc2[nH]5)C=C4)C=C3)cc1
REMARK SMILES IDX 24 1 23 2 21 3 22 4 5 5 3 6 4 7 2 8 1 9 6 10 7 11 8 13 9 14
REMARK SMILES IDX 10 15 11 16 19 17 12 18 18 19 20 20 13 21 17 22 14 23 16 24
REMARK SMILES IDX 15 25 25 26 26 27 27 28 28 29 29 30 30 31 88 32 31 33 87 34
REMARK SMILES IDX 32 35 33 36 34 37 81 38 35 39 86 40 80 41 82 42 36 43 85 44
REMARK SMILES IDX 79 45 78 46 37 48 67 49 48 50 66 51 49 52 52 53 65 54 83 55
REMARK SMILES IDX 50 56 51 57 64 59 84 60 53 61 38 62 39 63 47 64 40 65 46 66
REMARK SMILES IDX 41 67 42 68 43 69 44 70 45 71 68 72 69 73 77 74 70 75 76 76
REMARK SMILES IDX 71 77 72 78 73 79 74 80 75 81 54 82 55 83 63 84 56 85 62 86
REMARK SMILES IDX 57 87 58 88 59 89 60 90 61 91
REMARK H PARENT 6 12 82 47 52 58
REMARK Flexibility Score: inf
ROOT
ATOM      1  C   UNL A   1      35.934  23.281  24.136  1.00  0.00     0.274 C 
ENDROOT
BRANCH   1   2
ATOM      2  O   UNL A   1      34.874  22.562  24.820  1.00  0.00    -0.461 OA
BRANCH   2   3
ATOM      3  C   UNL A   1      33.823  22.194  24.046  1.00  0.00     0.329 C 
ATOM      4  O   UNL A   1      33.632  22.632  22.913  1.00  0.00    -0.250 OA
BRANCH   3   5
ATOM      5  C   UNL A   1      32.783  21.268  24.717  1.00  0.00     0.195 C 
BRANCH   5   6
ATOM      6  C   UNL A   1      32.643  19.733  24.484  1.00  0.00     0.019 C 
ATOM      7  C   UNL A   1      33.929  18.945  24.709  1.00  0.00     0.010 C 
BRANCH   6   8
ATOM      8  C   UNL A   1      32.092  19.455  23.054  1.00  0.00     0.002 C 
ATOM      9  C   UNL A   1      32.467  18.086  22.490  1.00  0.00     0.004 C 
ENDBRANCH   6   8
ENDBRANCH   5   6
BRANCH   5  10
ATOM     10  N   UNL A   1      32.601  21.647  26.133  1.00  0.00    -0.341 N 
ATOM     11  C   UNL A   1      31.872  22.618  26.755  1.00  0.00     0.242 C 
ATOM     12  H   UNL A   1      33.112  21.082  26.757  1.00  0.00     0.164 HD
ATOM     13  O   UNL A   1      32.091  22.767  27.965  1.00  0.00    -0.273 OA
BRANCH  11  14
ATOM     14  C   UNL A   1      30.687  23.344  26.100  1.00  0.00     0.248 C 
BRANCH  14  15
ATOM     15  N   UNL A   1      30.927  24.436  25.167  1.00  0.00    -0.220 N 
ATOM     16  N   UNL A   1      30.802  24.183  23.828  1.00  0.00    -0.177 NA
ATOM     17  C   UNL A   1      31.323  25.676  25.676  1.00  0.00     0.275 A 
ATOM     18  C   UNL A   1      30.723  25.195  23.022  1.00  0.00     0.142 A 
ATOM     19  C   UNL A   1      31.174  26.826  24.758  1.00  0.00     0.050 A 
ATOM     20  O   UNL A   1      31.663  25.876  26.839  1.00  0.00    -0.267 OA
ATOM     21  C   UNL A   1      30.769  26.581  23.456  1.00  0.00     0.007 A 
ATOM     22  C   UNL A   1      31.265  28.143  25.217  1.00  0.00     0.014 A 
ATOM     23  C   UNL A   1      30.391  27.617  22.605  1.00  0.00     0.010 A 
ATOM     24  C   UNL A   1      30.899  29.194  24.370  1.00  0.00     0.001 A 
ATOM     25  C   UNL A   1      30.445  28.929  23.075  1.00  0.00     0.001 A 
ENDBRANCH  14  15
ENDBRANCH  11  14
ENDBRANCH   5  10
ENDBRANCH   3   5
ENDBRANCH   2   3
ENDBRANCH   1   2
BRANCH   1  26
ATOM     26  C   UNL A   1      37.307  22.720  24.500  1.00  0.00     0.275 C 
BRANCH  26  27
ATOM     27  O   UNL A   1      37.627  23.154  25.826  1.00  0.00    -0.458 OA
BRANCH  27  28
ATOM     28  C   UNL A   1      38.909  22.946  26.199  1.00  0.00     0.338 C 
ATOM     29  O   UNL A   1      39.643  22.033  25.870  1.00  0.00    -0.246 OA
BRANCH  28  30
ATOM     30  C   UNL A   1      39.334  24.162  26.894  1.00  0.00     0.060 A 
ATOM     31  C   UNL A   1      38.912  24.391  28.200  1.00  0.00     0.016 A 
ATOM     32  C   UNL A   1      40.107  25.104  26.203  1.00  0.00     0.016 A 
ATOM     33  C   UNL A   1      39.266  25.582  28.815  1.00  0.00     0.010 A 
ATOM     34  C   UNL A   1      40.473  26.290  26.823  1.00  0.00     0.010 A 
ATOM     35  C   UNL A   1      40.052  26.530  28.133  1.00  0.00    -0.014 A 
BRANCH  35  36
ATOM     36  C   UNL A   1      40.530  27.711  28.870  1.00  0.00     0.031 A 
ATOM     37  C   UNL A   1      41.965  27.848  29.253  1.00  0.00     0.074 A 
ATOM     38  C   UNL A   1      39.631  28.679  29.114  1.00  0.00     0.049 A 
ATOM     39  N   UNL A   1      42.595  28.919  29.653  1.00  0.00    -0.248 NA
ATOM     40  C   UNL A   1      42.803  26.640  29.184  1.00  0.00     0.031 C 
ATOM     41  C   UNL A   1      38.202  28.578  28.803  1.00  0.00     0.029 A 
ATOM     42  N   UNL A   1      39.778  29.942  29.619  1.00  0.00    -0.354 N 
ATOM     43  C   UNL A   1      43.908  28.525  29.867  1.00  0.00     0.074 A 
ATOM     44  C   UNL A   1      43.976  27.104  29.600  1.00  0.00     0.031 C 
ATOM     45  C   UNL A   1      37.620  29.761  29.041  1.00  0.00     0.029 A 
ATOM     46  C   UNL A   1      38.626  30.689  29.548  1.00  0.00     0.049 A 
ATOM     47  H   UNL A   1      40.623  30.282  29.994  1.00  0.00     0.167 HD
ATOM     48  C   UNL A   1      44.953  29.299  30.235  1.00  0.00     0.031 A 
ATOM     49  C   UNL A   1      38.413  31.991  29.818  1.00  0.00     0.031 A 
ATOM     50  C   UNL A   1      44.830  30.711  30.502  1.00  0.00     0.049 A 
ATOM     51  C   UNL A   1      39.589  32.831  30.219  1.00  0.00     0.074 A 
ATOM     52  C   UNL A   1      45.828  31.611  30.826  1.00  0.00     0.029 A 
ATOM     53  N   UNL A   1      43.636  31.422  30.491  1.00  0.00    -0.354 N 
ATOM     54  N   UNL A   1      40.849  32.476  30.316  1.00  0.00    -0.248 NA
ATOM     55  C   UNL A   1      39.329  34.240  30.530  1.00  0.00     0.031 C 
ATOM     56  C   UNL A   1      45.227  32.843  31.095  1.00  0.00     0.029 A 
ATOM     57  C   UNL A   1      43.865  32.738  30.851  1.00  0.00     0.049 A 
ATOM     58  H   UNL A   1      42.756  31.044  30.261  1.00  0.00     0.167 HD
ATOM     59  C   UNL A   1      41.538  33.619  30.696  1.00  0.00     0.074 A 
ATOM     60  C   UNL A   1      40.555  34.683  30.784  1.00  0.00     0.031 C 
ATOM     61  C   UNL A   1      42.861  33.774  30.952  1.00  0.00     0.031 A 
BRANCH  48  62
ATOM     62  C   UNL A   1      46.313  28.662  30.376  1.00  0.00    -0.014 A 
ATOM     63  C   UNL A   1      47.145  28.536  29.247  1.00  0.00     0.010 A 
ATOM     64  C   UNL A   1      46.725  28.085  31.590  1.00  0.00     0.010 A 
ATOM     65  C   UNL A   1      48.343  27.819  29.320  1.00  0.00     0.020 A 
ATOM     66  C   UNL A   1      47.938  27.391  31.676  1.00  0.00     0.020 A 
ATOM     67  C   UNL A   1      48.727  27.241  30.532  1.00  0.00     0.054 A 
BRANCH  67  68
ATOM     68  S   UNL A   1      50.268  26.286  30.598  1.00  0.00     0.124 S 
ATOM     69  O   UNL A   1      51.252  27.310  30.937  1.00  0.00    -0.237 OA
ATOM     70  O   UNL A   1      49.991  25.304  31.644  1.00  0.00    -0.237 OA
ATOM     71  O   UNL A   1      50.385  25.729  29.251  1.00  0.00    -0.744 OA
ENDBRANCH  67  68
ENDBRANCH  48  62
BRANCH  49  72
ATOM     72  C   UNL A   1      37.048  32.546  29.609  1.00  0.00    -0.014 A 
ATOM     73  C   UNL A   1      36.713  33.158  28.384  1.00  0.00     0.010 A 
ATOM     74  C   UNL A   1      36.140  32.623  30.679  1.00  0.00     0.010 A 
ATOM     75  C   UNL A   1      35.541  33.906  28.261  1.00  0.00     0.020 A 
ATOM     76  C   UNL A   1      34.948  33.346  30.548  1.00  0.00     0.020 A 
ATOM     77  C   UNL A   1      34.677  34.015  29.353  1.00  0.00     0.054 A 
BRANCH  77  78
ATOM     78  S   UNL A   1      33.222  35.090  29.204  1.00  0.00     0.124 S 
ATOM     79  O   UNL A   1      33.814  36.324  28.693  1.00  0.00    -0.237 OA
ATOM     80  O   UNL A   1      32.381  34.357  28.262  1.00  0.00    -0.237 OA
ATOM     81  O   UNL A   1      32.708  35.162  30.569  1.00  0.00    -0.744 OA
ENDBRANCH  77  78
ENDBRANCH  49  72
BRANCH  61  82
ATOM     82  C   UNL A   1      43.338  35.133  31.390  1.00  0.00    -0.014 A 
ATOM     83  C   UNL A   1      43.224  35.514  32.740  1.00  0.00     0.010 A 
ATOM     84  C   UNL A   1      43.753  36.083  30.441  1.00  0.00     0.010 A 
ATOM     85  C   UNL A   1      43.465  36.833  33.126  1.00  0.00     0.020 A 
ATOM     86  C   UNL A   1      44.031  37.397  30.828  1.00  0.00     0.020 A 
ATOM     87  C   UNL A   1      43.854  37.769  32.164  1.00  0.00     0.054 A 
BRANCH  87  88
ATOM     88  S   UNL A   1      44.109  39.490  32.674  1.00  0.00     0.124 S 
ATOM     89  O   UNL A   1      42.858  39.795  33.362  1.00  0.00    -0.237 OA
ATOM     90  O   UNL A   1      45.292  39.398  33.528  1.00  0.00    -0.237 OA
ATOM     91  O   UNL A   1      44.316  40.196  31.411  1.00  0.00    -0.744 OA
ENDBRANCH  87  88
ENDBRANCH  61  82
ENDBRANCH  35  36
ENDBRANCH  28  30
ENDBRANCH  27  28
ENDBRANCH  26  27
ENDBRANCH   1  26
TORSDOF 19
ENDMDL
MODEL 2
REMARK VINA RESULT:     -11.1      2.813      9.549
REMARK SMILES CC[C@@H](C)[C@@H](NC(=O)Cn1ncc2ccccc2c1=O)C(=O)OCCOC(=O)c1ccc(-c2c3nc(c(-c4ccc(S(=O)(=O)[O-])cc4)c4ccc([nH]4)c(-c4ccc(S(=O)(=O)[O-])cc4)c4nc(c(-c5ccc(S(=O)(=O)[O-])cc5)c5ccc2[nH]5)C=C4)C=C3)cc1
REMARK SMILES IDX 24 1 23 2 21 3 22 4 5 5 3 6 4 7 2 8 1 9 6 10 7 11 8 13 9 14
REMARK SMILES IDX 10 15 11 16 19 17 12 18 18 19 20 20 13 21 17 22 14 23 16 24
REMARK SMILES IDX 15 25 25 26 26 27 27 28 28 29 29 30 30 31 88 32 31 33 87 34
REMARK SMILES IDX 32 35 33 36 34 37 81 38 35 39 86 40 80 41 82 42 36 43 85 44
REMARK SMILES IDX 79 45 78 46 37 48 67 49 48 50 66 51 49 52 52 53 65 54 83 55
REMARK SMILES IDX 50 56 51 57 64 59 84 60 53 61 38 62 39 63 47 64 40 65 46 66
REMARK SMILES IDX 41 67 42 68 43 69 44 70 45 71 68 72 69 73 77 74 70 75 76 76
REMARK SMILES IDX 71 77 72 78 73 79 74 80 75 81 54 82 55 83 63 84 56 85 62 86
REMARK SMILES IDX 57 87 58 88 59 89 60 90 61 91
REMARK H PARENT 6 12 82 47 52 58
REMARK Flexibility Score: inf
ROOT
ATOM      1  C   UNL A   1      32.560  29.099  25.685  1.00  0.00     0.274 C 
ENDROOT
BRANCH   1   2
ATOM      2  O   UNL A   1      31.435  28.197  25.855  1.00  0.00    -0.461 OA
BRANCH   2   3
ATOM      3  C   UNL A   1      30.944  27.653  24.714  1.00  0.00     0.329 C 
ATOM      4  O   UNL A   1      30.196  28.256  23.945  1.00  0.00    -0.250 OA
BRANCH   3   5
ATOM      5  C   UNL A   1      31.275  26.161  24.480  1.00  0.00     0.195 C 
BRANCH   5   6
ATOM      6  C   UNL A   1      32.366  25.610  23.514  1.00  0.00     0.019 C 
ATOM      7  C   UNL A   1      33.551  26.547  23.306  1.00  0.00     0.010 C 
BRANCH   6   8
ATOM      8  C   UNL A   1      31.732  25.242  22.139  1.00  0.00     0.002 C 
ATOM      9  C   UNL A   1      32.595  25.600  20.932  1.00  0.00     0.004 C 
ENDBRANCH   6   8
ENDBRANCH   5   6
BRANCH   5  10
ATOM     10  N   UNL A   1      31.218  25.420  25.756  1.00  0.00    -0.341 N 
ATOM     11  C   UNL A   1      31.379  24.105  26.082  1.00  0.00     0.242 C 
ATOM     12  H   UNL A   1      31.023  25.993  26.533  1.00  0.00     0.164 HD
ATOM     13  O   UNL A   1      31.086  23.795  27.245  1.00  0.00    -0.273 OA
BRANCH  11  14
ATOM     14  C   UNL A   1      32.091  23.086  25.179  1.00  0.00     0.248 C 
BRANCH  14  15
ATOM     15  N   UNL A   1      33.397  22.564  25.557  1.00  0.00    -0.220 N 
ATOM     16  N   UNL A   1      33.591  21.211  25.519  1.00  0.00    -0.177 NA
ATOM     17  C   UNL A   1      34.377  23.463  25.991  1.00  0.00     0.275 A 
ATOM     18  C   UNL A   1      34.807  20.767  25.565  1.00  0.00     0.142 A 
ATOM     19  C   UNL A   1      35.765  22.954  25.984  1.00  0.00     0.050 A 
ATOM     20  O   UNL A   1      34.171  24.644  26.253  1.00  0.00    -0.267 OA
ATOM     21  C   UNL A   1      35.977  21.623  25.664  1.00  0.00     0.007 A 
ATOM     22  C   UNL A   1      36.858  23.814  26.123  1.00  0.00     0.014 A 
ATOM     23  C   UNL A   1      37.257  21.129  25.418  1.00  0.00     0.010 A 
ATOM     24  C   UNL A   1      38.149  23.330  25.889  1.00  0.00     0.001 A 
ATOM     25  C   UNL A   1      38.344  21.996  25.519  1.00  0.00     0.001 A 
ENDBRANCH  14  15
ENDBRANCH  11  14
ENDBRANCH   5  10
ENDBRANCH   3   5
ENDBRANCH   2   3
ENDBRANCH   1   2
BRANCH   1  26
ATOM     26  C   UNL A   1      32.706  30.033  26.884  1.00  0.00     0.275 C 
BRANCH  26  27
ATOM     27  O   UNL A   1      33.937  29.721  27.544  1.00  0.00    -0.458 OA
BRANCH  27  28
ATOM     28  C   UNL A   1      34.539  30.768  28.150  1.00  0.00     0.338 C 
ATOM     29  O   UNL A   1      34.023  31.791  28.559  1.00  0.00    -0.246 OA
BRANCH  28  30
ATOM     30  C   UNL A   1      35.909  30.338  28.439  1.00  0.00     0.060 A 
ATOM     31  C   UNL A   1      36.889  30.464  27.460  1.00  0.00     0.016 A 
ATOM     32  C   UNL A   1      36.188  29.748  29.678  1.00  0.00     0.016 A 
ATOM     33  C   UNL A   1      38.163  29.986  27.729  1.00  0.00     0.010 A 
ATOM     34  C   UNL A   1      37.465  29.281  29.952  1.00  0.00     0.010 A 
ATOM     35  C   UNL A   1      38.456  29.401  28.975  1.00  0.00    -0.014 A 
BRANCH  35  36
ATOM     36  C   UNL A   1      39.852  29.043  29.275  1.00  0.00     0.031 A 
ATOM     37  C   UNL A   1      40.690  29.899  30.164  1.00  0.00     0.074 A 
ATOM     38  C   UNL A   1      40.303  27.882  28.770  1.00  0.00     0.049 A 
ATOM     39  N   UNL A   1      41.823  29.598  30.739  1.00  0.00    -0.248 NA
ATOM     40  C   UNL A   1      40.209  31.261  30.443  1.00  0.00     0.031 C 
ATOM     41  C   UNL A   1      39.540  27.026  27.856  1.00  0.00     0.029 A 
ATOM     42  N   UNL A   1      41.466  27.194  28.985  1.00  0.00    -0.354 N 
ATOM     43  C   UNL A   1      42.185  30.724  31.467  1.00  0.00     0.074 A 
ATOM     44  C   UNL A   1      41.177  31.732  31.221  1.00  0.00     0.031 C 
ATOM     45  C   UNL A   1      40.217  25.887  27.659  1.00  0.00     0.029 A 
ATOM     46  C   UNL A   1      41.470  25.947  28.406  1.00  0.00     0.049 A 
ATOM     47  H   UNL A   1      42.221  27.555  29.503  1.00  0.00     0.167 HD
ATOM     48  C   UNL A   1      43.257  30.874  32.276  1.00  0.00     0.031 A 
ATOM     49  C   UNL A   1      42.362  24.943  28.503  1.00  0.00     0.031 A 
ATOM     50  C   UNL A   1      44.242  29.840  32.476  1.00  0.00     0.049 A 
ATOM     51  C   UNL A   1      43.540  25.132  29.412  1.00  0.00     0.074 A 
ATOM     52  C   UNL A   1      45.340  29.855  33.316  1.00  0.00     0.029 A 
ATOM     53  N   UNL A   1      44.255  28.615  31.820  1.00  0.00    -0.354 N 
ATOM     54  N   UNL A   1      43.822  26.158  30.181  1.00  0.00    -0.248 NA
ATOM     55  C   UNL A   1      44.510  24.035  29.484  1.00  0.00     0.031 C 
ATOM     56  C   UNL A   1      46.062  28.678  33.103  1.00  0.00     0.029 A 
ATOM     57  C   UNL A   1      45.369  27.887  32.198  1.00  0.00     0.049 A 
ATOM     58  H   UNL A   1      43.572  28.310  31.179  1.00  0.00     0.167 HD
ATOM     59  C   UNL A   1      45.001  25.832  30.836  1.00  0.00     0.074 A 
ATOM     60  C   UNL A   1      45.365  24.499  30.389  1.00  0.00     0.031 C 
ATOM     61  C   UNL A   1      45.719  26.567  31.720  1.00  0.00     0.031 A 
BRANCH  48  62
ATOM     62  C   UNL A   1      43.438  32.182  33.004  1.00  0.00    -0.014 A 
ATOM     63  C   UNL A   1      42.848  32.364  34.269  1.00  0.00     0.010 A 
ATOM     64  C   UNL A   1      44.088  33.271  32.395  1.00  0.00     0.010 A 
ATOM     65  C   UNL A   1      42.875  33.613  34.896  1.00  0.00     0.020 A 
ATOM     66  C   UNL A   1      44.144  34.516  33.032  1.00  0.00     0.020 A 
ATOM     67  C   UNL A   1      43.514  34.685  34.268  1.00  0.00     0.054 A 
BRANCH  67  68
ATOM     68  S   UNL A   1      43.509  36.306  35.082  1.00  0.00     0.124 S 
ATOM     69  O   UNL A   1      43.003  35.982  36.413  1.00  0.00    -0.237 OA
ATOM     70  O   UNL A   1      44.915  36.700  35.020  1.00  0.00    -0.237 OA
ATOM     71  O   UNL A   1      42.612  37.106  34.250  1.00  0.00    -0.744 OA
ENDBRANCH  67  68
ENDBRANCH  48  62
BRANCH  49  72
ATOM     72  C   UNL A   1      42.081  23.670  27.786  1.00  0.00    -0.014 A 
ATOM     73  C   UNL A   1      41.306  22.668  28.402  1.00  0.00     0.010 A 
ATOM     74  C   UNL A   1      42.723  23.383  26.569  1.00  0.00     0.010 A 
ATOM     75  C   UNL A   1      41.249  21.381  27.861  1.00  0.00     0.020 A 
ATOM     76  C   UNL A   1      42.642  22.103  26.008  1.00  0.00     0.020 A 
ATOM     77  C   UNL A   1      41.938  21.102  26.679  1.00  0.00     0.054 A 
BRANCH  77  78
ATOM     78  S   UNL A   1      41.945  19.394  26.064  1.00  0.00     0.124 S 
ATOM     79  O   UNL A   1      42.809  19.503  24.891  1.00  0.00    -0.237 OA
ATOM     80  O   UNL A   1      42.502  18.653  27.191  1.00  0.00    -0.237 OA
ATOM     81  O   UNL A   1      40.537  19.126  25.779  1.00  0.00    -0.744 OA
ENDBRANCH  77  78
ENDBRANCH  49  72
BRANCH  61  82
ATOM     82  C   UNL A   1      46.998  25.976  32.251  1.00  0.00    -0.014 A 
ATOM     83  C   UNL A   1      48.186  26.095  31.506  1.00  0.00     0.010 A 
ATOM     84  C   UNL A   1      46.988  25.175  33.406  1.00  0.00     0.010 A 
ATOM     85  C   UNL A   1      49.327  25.382  31.877  1.00  0.00     0.020 A 
ATOM     86  C   UNL A   1      48.138  24.488  33.801  1.00  0.00     0.020 A 
ATOM     87  C   UNL A   1      49.291  24.571  33.015  1.00  0.00     0.054 A 
BRANCH  87  88
ATOM     88  S   UNL A   1      50.765  23.610  33.449  1.00  0.00     0.124 S 
ATOM     89  O   UNL A   1      51.774  24.178  32.560  1.00  0.00    -0.237 OA
ATOM     90  O   UNL A   1      50.935  23.909  34.869  1.00  0.00    -0.237 OA
ATOM     91  O   UNL A   1      50.376  22.232  33.153  1.00  0.00    -0.744 OA
ENDBRANCH  87  88
ENDBRANCH  61  82
ENDBRANCH  35  36
ENDBRANCH  28  30
ENDBRANCH  27  28
ENDBRANCH  26  27
ENDBRANCH   1  26
TORSDOF 19
ENDMDL
MODEL 3
REMARK VINA RESULT:     -10.8      3.719      9.720
REMARK SMILES CC[C@@H](C)[C@@H](NC(=O)Cn1ncc2ccccc2c1=O)C(=O)OCCOC(=O)c1ccc(-c2c3nc(c(-c4ccc(S(=O)(=O)[O-])cc4)c4ccc([nH]4)c(-c4ccc(S(=O)(=O)[O-])cc4)c4nc(c(-c5ccc(S(=O)(=O)[O-])cc5)c5ccc2[nH]5)C=C4)C=C3)cc1
REMARK SMILES IDX 24 1 23 2 21 3 22 4 5 5 3 6 4 7 2 8 1 9 6 10 7 11 8 13 9 14
REMARK SMILES IDX 10 15 11 16 19 17 12 18 18 19 20 20 13 21 17 22 14 23 16 24
REMARK SMILES IDX 15 25 25 26 26 27 27 28 28 29 29 30 30 31 88 32 31 33 87 34
REMARK SMILES IDX 32 35 33 36 34 37 81 38 35 39 86 40 80 41 82 42 36 43 85 44
REMARK SMILES IDX 79 45 78 46 37 48 67 49 48 50 66 51 49 52 52 53 65 54 83 55
REMARK SMILES IDX 50 56 51 57 64 59 84 60 53 61 38 62 39 63 47 64 40 65 46 66
REMARK SMILES IDX 41 67 42 68 43 69 44 70 45 71 68 72 69 73 77 74 70 75 76 76
REMARK SMILES IDX 71 77 72 78 73 79 74 80 75 81 54 82 55 83 63 84 56 85 62 86
REMARK SMILES IDX 57 87 58 88 59 89 60 90 61 91
REMARK H PARENT 6 12 82 47 52 58
REMARK Flexibility Score: inf
ROOT
ATOM      1  C   UNL A   1      31.875  29.954  25.671  1.00  0.00     0.274 C 
ENDROOT
BRANCH   1   2
ATOM      2  O   UNL A   1      32.305  28.683  25.118  1.00  0.00    -0.461 OA
BRANCH   2   3
ATOM      3  C   UNL A   1      31.310  27.824  24.781  1.00  0.00     0.329 C 
ATOM      4  O   UNL A   1      30.762  27.076  25.588  1.00  0.00    -0.250 OA
BRANCH   3   5
ATOM      5  C   UNL A   1      30.973  27.739  23.275  1.00  0.00     0.195 C 
BRANCH   5   6
ATOM      6  C   UNL A   1      29.735  28.382  22.580  1.00  0.00     0.019 C 
ATOM      7  C   UNL A   1      29.788  29.903  22.485  1.00  0.00     0.010 C 
BRANCH   6   8
ATOM      8  C   UNL A   1      28.425  27.939  23.298  1.00  0.00     0.002 C 
ATOM      9  C   UNL A   1      27.250  28.895  23.109  1.00  0.00     0.004 C 
ENDBRANCH   6   8
ENDBRANCH   5   6
BRANCH   5  10
ATOM     10  N   UNL A   1      32.205  27.862  22.468  1.00  0.00    -0.341 N 
ATOM     11  C   UNL A   1      33.064  26.950  21.928  1.00  0.00     0.242 C 
ATOM     12  H   UNL A   1      32.458  28.795  22.282  1.00  0.00     0.164 HD
ATOM     13  O   UNL A   1      34.111  27.410  21.451  1.00  0.00    -0.273 OA
BRANCH  11  14
ATOM     14  C   UNL A   1      32.703  25.476  21.694  1.00  0.00     0.248 C 
BRANCH  14  15
ATOM     15  N   UNL A   1      32.608  24.560  22.823  1.00  0.00    -0.220 N 
ATOM     16  N   UNL A   1      31.414  24.468  23.484  1.00  0.00    -0.177 NA
ATOM     17  C   UNL A   1      33.752  23.857  23.212  1.00  0.00     0.275 A 
ATOM     18  C   UNL A   1      31.236  23.462  24.282  1.00  0.00     0.142 A 
ATOM     19  C   UNL A   1      33.522  22.682  24.078  1.00  0.00     0.050 A 
ATOM     20  O   UNL A   1      34.884  24.082  22.793  1.00  0.00    -0.267 OA
ATOM     21  C   UNL A   1      32.233  22.434  24.523  1.00  0.00     0.007 A 
ATOM     22  C   UNL A   1      34.527  21.738  24.312  1.00  0.00     0.014 A 
ATOM     23  C   UNL A   1      31.898  21.234  25.148  1.00  0.00     0.010 A 
ATOM     24  C   UNL A   1      34.207  20.535  24.947  1.00  0.00     0.001 A 
ATOM     25  C   UNL A   1      32.893  20.277  25.347  1.00  0.00     0.001 A 
ENDBRANCH  14  15
ENDBRANCH  11  14
ENDBRANCH   5  10
ENDBRANCH   3   5
ENDBRANCH   2   3
ENDBRANCH   1   2
BRANCH   1  26
ATOM     26  C   UNL A   1      32.359  30.123  27.109  1.00  0.00     0.275 C 
BRANCH  26  27
ATOM     27  O   UNL A   1      33.779  30.306  27.083  1.00  0.00    -0.458 OA
BRANCH  27  28
ATOM     28  C   UNL A   1      34.212  31.467  27.622  1.00  0.00     0.338 C 
ATOM     29  O   UNL A   1      33.605  32.515  27.724  1.00  0.00    -0.246 OA
BRANCH  28  30
ATOM     30  C   UNL A   1      35.483  31.159  28.282  1.00  0.00     0.060 A 
ATOM     31  C   UNL A   1      35.634  29.950  28.953  1.00  0.00     0.016 A 
ATOM     32  C   UNL A   1      36.500  32.121  28.277  1.00  0.00     0.016 A 
ATOM     33  C   UNL A   1      36.819  29.708  29.632  1.00  0.00     0.010 A 
ATOM     34  C   UNL A   1      37.691  31.875  28.945  1.00  0.00     0.010 A 
ATOM     35  C   UNL A   1      37.852  30.664  29.624  1.00  0.00    -0.014 A 
BRANCH  35  36
ATOM     36  C   UNL A   1      39.146  30.310  30.228  1.00  0.00     0.031 A 
ATOM     37  C   UNL A   1      39.575  30.904  31.527  1.00  0.00     0.074 A 
ATOM     38  C   UNL A   1      39.880  29.381  29.591  1.00  0.00     0.049 A 
ATOM     39  N   UNL A   1      40.535  30.507  32.318  1.00  0.00    -0.248 NA
ATOM     40  C   UNL A   1      38.845  32.090  32.004  1.00  0.00     0.031 C 
ATOM     41  C   UNL A   1      39.530  28.800  28.292  1.00  0.00     0.029 A 
ATOM     42  N   UNL A   1      41.023  28.726  29.958  1.00  0.00    -0.354 N 
ATOM     43  C   UNL A   1      40.517  31.379  33.398  1.00  0.00     0.074 A 
ATOM     44  C   UNL A   1      39.483  32.358  33.138  1.00  0.00     0.031 C 
ATOM     45  C   UNL A   1      40.391  27.812  28.011  1.00  0.00     0.029 A 
ATOM     46  C   UNL A   1      41.365  27.713  29.093  1.00  0.00     0.049 A 
ATOM     47  H   UNL A   1      41.546  28.955  30.759  1.00  0.00     0.167 HD
ATOM     48  C   UNL A   1      41.290  31.338  34.505  1.00  0.00     0.031 A 
ATOM     49  C   UNL A   1      42.330  26.778  29.183  1.00  0.00     0.031 A 
ATOM     50  C   UNL A   1      42.318  30.348  34.710  1.00  0.00     0.049 A 
ATOM     51  C   UNL A   1      43.171  26.749  30.425  1.00  0.00     0.074 A 
ATOM     52  C   UNL A   1      43.127  30.170  35.817  1.00  0.00     0.029 A 
ATOM     53  N   UNL A   1      42.687  29.380  33.783  1.00  0.00    -0.354 N 
ATOM     54  N   UNL A   1      43.079  27.510  31.491  1.00  0.00    -0.248 NA
ATOM     55  C   UNL A   1      44.229  25.736  30.491  1.00  0.00     0.031 C 
ATOM     56  C   UNL A   1      44.040  29.154  35.526  1.00  0.00     0.029 A 
ATOM     57  C   UNL A   1      43.745  28.634  34.273  1.00  0.00     0.049 A 
ATOM     58  H   UNL A   1      42.259  29.245  32.907  1.00  0.00     0.167 HD
ATOM     59  C   UNL A   1      44.065  27.067  32.361  1.00  0.00     0.074 A 
ATOM     60  C   UNL A   1      44.724  25.953  31.704  1.00  0.00     0.031 C 
ATOM     61  C   UNL A   1      44.398  27.542  33.587  1.00  0.00     0.031 A 
BRANCH  48  62
ATOM     62  C   UNL A   1      41.074  32.375  35.579  1.00  0.00    -0.014 A 
ATOM     63  C   UNL A   1      40.024  32.214  36.503  1.00  0.00     0.010 A 
ATOM     64  C   UNL A   1      41.828  33.562  35.609  1.00  0.00     0.010 A 
ATOM     65  C   UNL A   1      39.711  33.230  37.411  1.00  0.00     0.020 A 
ATOM     66  C   UNL A   1      41.538  34.569  36.536  1.00  0.00     0.020 A 
ATOM     67  C   UNL A   1      40.463  34.407  37.415  1.00  0.00     0.054 A 
BRANCH  67  68
ATOM     68  S   UNL A   1      40.020  35.726  38.578  1.00  0.00     0.124 S 
ATOM     69  O   UNL A   1      38.934  35.115  39.338  1.00  0.00    -0.237 OA
ATOM     70  O   UNL A   1      41.265  35.937  39.312  1.00  0.00    -0.237 OA
ATOM     71  O   UNL A   1      39.627  36.833  37.708  1.00  0.00    -0.744 OA
ENDBRANCH  67  68
ENDBRANCH  48  62
BRANCH  49  72
ATOM     72  C   UNL A   1      42.443  25.766  28.098  1.00  0.00    -0.014 A 
ATOM     73  C   UNL A   1      41.727  24.555  28.182  1.00  0.00     0.010 A 
ATOM     74  C   UNL A   1      43.389  25.928  27.071  1.00  0.00     0.010 A 
ATOM     75  C   UNL A   1      42.016  23.498  27.317  1.00  0.00     0.020 A 
ATOM     76  C   UNL A   1      43.658  24.880  26.182  1.00  0.00     0.020 A 
ATOM     77  C   UNL A   1      42.997  23.660  26.337  1.00  0.00     0.054 A 
BRANCH  77  78
ATOM     78  S   UNL A   1      43.437  22.232  25.306  1.00  0.00     0.124 S 
ATOM     79  O   UNL A   1      44.747  21.869  25.840  1.00  0.00    -0.237 OA
ATOM     80  O   UNL A   1      42.357  21.291  25.591  1.00  0.00    -0.237 OA
ATOM     81  O   UNL A   1      43.445  22.778  23.951  1.00  0.00    -0.744 OA
ENDBRANCH  77  78
ENDBRANCH  49  72
BRANCH  61  82
ATOM     82  C   UNL A   1      45.550  26.889  34.303  1.00  0.00    -0.014 A 
ATOM     83  C   UNL A   1      45.309  25.832  35.201  1.00  0.00     0.010 A 
ATOM     84  C   UNL A   1      46.847  27.424  34.205  1.00  0.00     0.010 A 
ATOM     85  C   UNL A   1      46.330  25.356  36.024  1.00  0.00     0.020 A 
ATOM     86  C   UNL A   1      47.880  26.926  35.002  1.00  0.00     0.020 A 
ATOM     87  C   UNL A   1      47.606  25.917  35.929  1.00  0.00     0.054 A 
BRANCH  87  88
ATOM     88  S   UNL A   1      48.905  25.323  37.045  1.00  0.00     0.124 S 
ATOM     89  O   UNL A   1      48.381  24.027  37.465  1.00  0.00    -0.237 OA
ATOM     90  O   UNL A   1      50.078  25.277  36.175  1.00  0.00    -0.237 OA
ATOM     91  O   UNL A   1      48.954  26.345  38.089  1.00  0.00    -0.744 OA
ENDBRANCH  87  88
ENDBRANCH  61  82
ENDBRANCH  35  36
ENDBRANCH  28  30
ENDBRANCH  27  28
ENDBRANCH  26  27
ENDBRANCH   1  26
TORSDOF 19
ENDMDL
