MODEL 1
REMARK VINA RESULT:     -10.8      0.000      0.000
REMARK SMILES CC1=CC2=[NH+]C(=O)C[C@@](C)(C(=O)OCCOC(=O)c3ccc(-c4c5nc(c(-c6ccc(S(=O)(=O)[O-])cc6)c6ccc([nH]6)c(-c6ccc(S(=O)(=O)[O-])cc6)c6nc(c(-c7ccc(S(=O)(=O)[O-])cc7)c7ccc4[nH]7)C=C6)C=C5)cc3)N2C=C1
REMARK SMILES IDX 16 1 15 2 14 3 13 4 11 5 12 6 9 7 1 8 2 9 3 10 81 11 4 12
REMARK SMILES IDX 80 13 5 14 79 15 6 16 7 18 8 19 10 20 17 21 18 22 19 23
REMARK SMILES IDX 20 24 78 25 21 26 77 27 22 28 23 29 24 30 71 31 25 32 76 33
REMARK SMILES IDX 70 34 72 35 26 36 75 37 69 38 68 39 27 41 57 42 38 43 56 44
REMARK SMILES IDX 39 45 42 46 55 47 73 48 40 49 41 50 54 52 74 53 43 54 28 55
REMARK SMILES IDX 29 56 37 57 30 58 36 59 31 60 32 61 33 62 34 63 35 64 58 65
REMARK SMILES IDX 59 66 67 67 60 68 66 69 61 70 62 71 63 72 64 73 65 74 44 75
REMARK SMILES IDX 45 76 53 77 46 78 52 79 47 80 48 81 49 82 50 83 51 84
REMARK H PARENT 5 17 72 40 42 51
REMARK Flexibility Score: inf
ROOT
ATOM      1  O   UNL A   1      33.756  28.766  27.590  1.00  0.00    -0.458 OA
ENDROOT
BRANCH   1   2
ATOM      2  C   UNL A   1      33.617  28.319  26.223  1.00  0.00     0.275 C 
BRANCH   2   3
ATOM      3  C   UNL A   1      32.189  28.655  25.730  1.00  0.00     0.274 C 
BRANCH   3   4
ATOM      4  O   UNL A   1      31.466  27.422  25.486  1.00  0.00    -0.459 OA
BRANCH   4   5
ATOM      5  C   UNL A   1      31.560  26.831  24.243  1.00  0.00     0.355 C 
ATOM      6  O   UNL A   1      31.744  27.454  23.209  1.00  0.00    -0.247 OA
BRANCH   5   7
ATOM      7  C   UNL A   1      31.477  25.279  24.406  1.00  0.00     0.216 C 
ATOM      8  C   UNL A   1      36.587  22.601  23.986  1.00  0.00     0.045 C 
ATOM      9  C   UNL A   1      35.342  23.433  23.901  1.00  0.00    -0.039 C 
ATOM     10  C   UNL A   1      35.163  24.413  24.801  1.00  0.00     0.102 C 
ATOM     11  C   UNL A   1      34.266  23.086  22.970  1.00  0.00     0.047 C 
ATOM     12  C   UNL A   1      33.724  24.590  25.108  1.00  0.00     0.282 C 
ATOM     13  C   UNL A   1      33.078  23.730  23.038  1.00  0.00     0.202 C 
ATOM     14  N   UNL A   1      33.405  24.434  26.355  1.00  0.00    -0.210 N 
ATOM     15  N   UNL A   1      32.782  24.611  24.086  1.00  0.00    -0.217 N 
ATOM     16  C   UNL A   1      32.087  24.141  26.555  1.00  0.00     0.312 C 
ATOM     17  H   UNL A   1      34.054  24.519  27.091  1.00  0.00     0.315 HD
ATOM     18  O   UNL A   1      31.684  23.249  27.277  1.00  0.00    -0.247 OA
ATOM     19  C   UNL A   1      31.147  25.086  25.900  1.00  0.00     0.193 C 
ATOM     20  C   UNL A   1      30.324  24.739  23.554  1.00  0.00     0.076 C 
ENDBRANCH   5   7
ENDBRANCH   4   5
ENDBRANCH   3   4
ENDBRANCH   2   3
ENDBRANCH   1   2
BRANCH   1  21
ATOM     21  C   UNL A   1      34.283  30.007  27.815  1.00  0.00     0.338 C 
ATOM     22  O   UNL A   1      33.660  31.053  27.797  1.00  0.00    -0.246 OA
BRANCH  21  23
ATOM     23  C   UNL A   1      35.732  29.873  28.182  1.00  0.00     0.060 A 
ATOM     24  C   UNL A   1      36.697  30.107  27.216  1.00  0.00     0.016 A 
ATOM     25  C   UNL A   1      36.164  29.414  29.437  1.00  0.00     0.016 A 
ATOM     26  C   UNL A   1      38.029  29.777  27.462  1.00  0.00     0.010 A 
ATOM     27  C   UNL A   1      37.545  29.178  29.697  1.00  0.00     0.010 A 
ATOM     28  C   UNL A   1      38.517  29.327  28.693  1.00  0.00    -0.014 A 
BRANCH  28  29
ATOM     29  C   UNL A   1      39.995  29.002  28.840  1.00  0.00     0.031 A 
ATOM     30  C   UNL A   1      40.981  29.989  29.448  1.00  0.00     0.074 A 
ATOM     31  C   UNL A   1      40.493  27.774  28.537  1.00  0.00     0.049 A 
ATOM     32  N   UNL A   1      42.294  29.969  29.418  1.00  0.00    -0.248 NA
ATOM     33  C   UNL A   1      40.428  31.133  30.189  1.00  0.00     0.031 C 
ATOM     34  C   UNL A   1      39.721  26.625  28.054  1.00  0.00     0.029 A 
ATOM     35  N   UNL A   1      41.773  27.261  28.634  1.00  0.00    -0.354 N 
ATOM     36  C   UNL A   1      42.720  31.135  30.053  1.00  0.00     0.074 A 
ATOM     37  C   UNL A   1      41.523  31.823  30.491  1.00  0.00     0.031 C 
ATOM     38  C   UNL A   1      40.494  25.533  28.033  1.00  0.00     0.029 A 
ATOM     39  C   UNL A   1      41.872  25.933  28.273  1.00  0.00     0.049 A 
ATOM     40  H   UNL A   1      42.544  27.795  28.933  1.00  0.00     0.167 HD
ATOM     41  C   UNL A   1      43.984  31.602  30.232  1.00  0.00     0.031 A 
ATOM     42  C   UNL A   1      42.930  25.127  28.044  1.00  0.00     0.031 A 
ATOM     43  C   UNL A   1      45.184  30.891  29.857  1.00  0.00     0.049 A 
ATOM     44  C   UNL A   1      44.316  25.698  28.123  1.00  0.00     0.074 A 
ATOM     45  C   UNL A   1      46.501  31.321  29.932  1.00  0.00     0.029 A 
ATOM     46  N   UNL A   1      45.223  29.596  29.369  1.00  0.00    -0.354 N 
ATOM     47  N   UNL A   1      44.696  26.880  28.537  1.00  0.00    -0.248 NA
ATOM     48  C   UNL A   1      45.414  24.841  27.649  1.00  0.00     0.031 C 
ATOM     49  C   UNL A   1      47.329  30.303  29.441  1.00  0.00     0.029 A 
ATOM     50  C   UNL A   1      46.534  29.217  29.120  1.00  0.00     0.049 A 
ATOM     51  H   UNL A   1      44.434  29.025  29.220  1.00  0.00     0.167 HD
ATOM     52  C   UNL A   1      46.076  26.910  28.371  1.00  0.00     0.074 A 
ATOM     53  C   UNL A   1      46.469  25.616  27.855  1.00  0.00     0.031 C 
ATOM     54  C   UNL A   1      46.935  27.930  28.612  1.00  0.00     0.031 A 
BRANCH  41  55
ATOM     55  C   UNL A   1      44.150  33.003  30.771  1.00  0.00    -0.014 A 
ATOM     56  C   UNL A   1      44.410  33.269  32.125  1.00  0.00     0.010 A 
ATOM     57  C   UNL A   1      44.102  34.082  29.863  1.00  0.00     0.010 A 
ATOM     58  C   UNL A   1      44.574  34.588  32.568  1.00  0.00     0.020 A 
ATOM     59  C   UNL A   1      44.292  35.396  30.296  1.00  0.00     0.020 A 
ATOM     60  C   UNL A   1      44.508  35.644  31.651  1.00  0.00     0.054 A 
BRANCH  60  61
ATOM     61  S   UNL A   1      44.726  37.345  32.248  1.00  0.00     0.124 S 
ATOM     62  O   UNL A   1      43.554  37.518  33.102  1.00  0.00    -0.237 OA
ATOM     63  O   UNL A   1      46.008  37.281  32.944  1.00  0.00    -0.237 OA
ATOM     64  O   UNL A   1      44.725  38.145  31.026  1.00  0.00    -0.744 OA
ENDBRANCH  60  61
ENDBRANCH  41  55
BRANCH  42  65
ATOM     65  C   UNL A   1      42.721  23.730  27.553  1.00  0.00    -0.014 A 
ATOM     66  C   UNL A   1      42.621  23.447  26.180  1.00  0.00     0.010 A 
ATOM     67  C   UNL A   1      42.596  22.669  28.474  1.00  0.00     0.010 A 
ATOM     68  C   UNL A   1      42.393  22.137  25.741  1.00  0.00     0.020 A 
ATOM     69  C   UNL A   1      42.417  21.355  28.039  1.00  0.00     0.020 A 
ATOM     70  C   UNL A   1      42.299  21.100  26.673  1.00  0.00     0.054 A 
BRANCH  70  71
ATOM     71  S   UNL A   1      42.051  19.400  26.087  1.00  0.00     0.124 S 
ATOM     72  O   UNL A   1      42.887  19.369  24.892  1.00  0.00    -0.237 OA
ATOM     73  O   UNL A   1      42.525  18.603  27.215  1.00  0.00    -0.237 OA
ATOM     74  O   UNL A   1      40.611  19.330  25.847  1.00  0.00    -0.744 OA
ENDBRANCH  70  71
ENDBRANCH  42  65
BRANCH  54  75
ATOM     75  C   UNL A   1      48.398  27.682  28.359  1.00  0.00    -0.014 A 
ATOM     76  C   UNL A   1      49.227  27.133  29.354  1.00  0.00     0.010 A 
ATOM     77  C   UNL A   1      48.943  27.967  27.094  1.00  0.00     0.010 A 
ATOM     78  C   UNL A   1      50.581  26.896  29.094  1.00  0.00     0.020 A 
ATOM     79  C   UNL A   1      50.289  27.708  26.823  1.00  0.00     0.020 A 
ATOM     80  C   UNL A   1      51.103  27.184  27.830  1.00  0.00     0.054 A 
BRANCH  80  81
ATOM     81  S   UNL A   1      52.851  26.821  27.501  1.00  0.00     0.124 S 
ATOM     82  O   UNL A   1      52.781  25.483  26.922  1.00  0.00    -0.237 OA
ATOM     83  O   UNL A   1      53.231  27.887  26.577  1.00  0.00    -0.237 OA
ATOM     84  O   UNL A   1      53.475  26.897  28.821  1.00  0.00    -0.744 OA
ENDBRANCH  80  81
ENDBRANCH  54  75
ENDBRANCH  28  29
ENDBRANCH  21  23
ENDBRANCH   1  21
TORSDOF 14
ENDMDL
MODEL 2
REMARK VINA RESULT:     -10.8      1.202      2.548
REMARK SMILES CC1=CC2=[NH+]C(=O)C[C@@](C)(C(=O)OCCOC(=O)c3ccc(-c4c5nc(c(-c6ccc(S(=O)(=O)[O-])cc6)c6ccc([nH]6)c(-c6ccc(S(=O)(=O)[O-])cc6)c6nc(c(-c7ccc(S(=O)(=O)[O-])cc7)c7ccc4[nH]7)C=C6)C=C5)cc3)N2C=C1
REMARK SMILES IDX 16 1 15 2 14 3 13 4 11 5 12 6 9 7 1 8 2 9 3 10 81 11 4 12
REMARK SMILES IDX 80 13 5 14 79 15 6 16 7 18 8 19 10 20 17 21 18 22 19 23
REMARK SMILES IDX 20 24 78 25 21 26 77 27 22 28 23 29 24 30 71 31 25 32 76 33
REMARK SMILES IDX 70 34 72 35 26 36 75 37 69 38 68 39 27 41 57 42 38 43 56 44
REMARK SMILES IDX 39 45 42 46 55 47 73 48 40 49 41 50 54 52 74 53 43 54 28 55
REMARK SMILES IDX 29 56 37 57 30 58 36 59 31 60 32 61 33 62 34 63 35 64 58 65
REMARK SMILES IDX 59 66 67 67 60 68 66 69 61 70 62 71 63 72 64 73 65 74 44 75
REMARK SMILES IDX 45 76 53 77 46 78 52 79 47 80 48 81 49 82 50 83 51 84
REMARK H PARENT 5 17 72 40 42 51
REMARK Flexibility Score: inf
ROOT
ATOM      1  O   UNL A   1      33.477  28.757  27.807  1.00  0.00    -0.458 OA
ENDROOT
BRANCH   1   2
ATOM      2  C   UNL A   1      33.357  28.030  26.565  1.00  0.00     0.275 C 
BRANCH   2   3
ATOM      3  C   UNL A   1      32.062  27.183  26.605  1.00  0.00     0.274 C 
BRANCH   3   4
ATOM      4  O   UNL A   1      32.378  25.812  26.252  1.00  0.00    -0.459 OA
BRANCH   4   5
ATOM      5  C   UNL A   1      33.180  25.577  25.154  1.00  0.00     0.355 C 
ATOM      6  O   UNL A   1      34.399  25.519  25.205  1.00  0.00    -0.247 OA
BRANCH   5   7
ATOM      7  C   UNL A   1      32.276  25.325  23.904  1.00  0.00     0.216 C 
ATOM      8  C   UNL A   1      29.668  30.083  21.898  1.00  0.00     0.045 C 
ATOM      9  C   UNL A   1      30.284  28.937  22.646  1.00  0.00    -0.039 C 
ATOM     10  C   UNL A   1      31.620  28.901  22.775  1.00  0.00     0.102 C 
ATOM     11  C   UNL A   1      29.473  27.797  23.080  1.00  0.00     0.047 C 
ATOM     12  C   UNL A   1      32.111  27.502  22.787  1.00  0.00     0.282 C 
ATOM     13  C   UNL A   1      30.072  26.692  23.582  1.00  0.00     0.202 C 
ATOM     14  N   UNL A   1      32.962  27.211  21.854  1.00  0.00    -0.210 N 
ATOM     15  N   UNL A   1      31.463  26.534  23.547  1.00  0.00    -0.217 N 
ATOM     16  C   UNL A   1      33.048  25.876  21.582  1.00  0.00     0.312 C 
ATOM     17  H   UNL A   1      33.497  27.890  21.382  1.00  0.00     0.315 HD
ATOM     18  O   UNL A   1      33.030  25.400  20.463  1.00  0.00    -0.247 OA
ATOM     19  C   UNL A   1      33.287  25.027  22.778  1.00  0.00     0.193 C 
ATOM     20  C   UNL A   1      31.403  24.090  24.148  1.00  0.00     0.076 C 
ENDBRANCH   5   7
ENDBRANCH   4   5
ENDBRANCH   3   4
ENDBRANCH   2   3
ENDBRANCH   1   2
BRANCH   1  21
ATOM     21  C   UNL A   1      34.051  29.996  27.780  1.00  0.00     0.338 C 
ATOM     22  O   UNL A   1      33.463  31.042  27.573  1.00  0.00    -0.246 OA
BRANCH  21  23
ATOM     23  C   UNL A   1      35.504  29.881  28.140  1.00  0.00     0.060 A 
ATOM     24  C   UNL A   1      36.460  30.177  27.183  1.00  0.00     0.016 A 
ATOM     25  C   UNL A   1      35.949  29.380  29.373  1.00  0.00     0.016 A 
ATOM     26  C   UNL A   1      37.801  29.869  27.413  1.00  0.00     0.010 A 
ATOM     27  C   UNL A   1      37.336  29.166  29.621  1.00  0.00     0.010 A 
ATOM     28  C   UNL A   1      38.301  29.379  28.624  1.00  0.00    -0.014 A 
BRANCH  28  29
ATOM     29  C   UNL A   1      39.787  29.083  28.755  1.00  0.00     0.031 A 
ATOM     30  C   UNL A   1      40.763  30.098  29.332  1.00  0.00     0.074 A 
ATOM     31  C   UNL A   1      40.302  27.859  28.467  1.00  0.00     0.049 A 
ATOM     32  N   UNL A   1      42.076  30.100  29.284  1.00  0.00    -0.248 NA
ATOM     33  C   UNL A   1      40.200  31.244  30.061  1.00  0.00     0.031 C 
ATOM     34  C   UNL A   1      39.544  26.688  28.014  1.00  0.00     0.029 A 
ATOM     35  N   UNL A   1      41.592  27.370  28.554  1.00  0.00    -0.354 N 
ATOM     36  C   UNL A   1      42.490  31.284  29.892  1.00  0.00     0.074 A 
ATOM     37  C   UNL A   1      41.287  31.959  30.335  1.00  0.00     0.031 C 
ATOM     38  C   UNL A   1      40.337  25.610  28.001  1.00  0.00     0.029 A 
ATOM     39  C   UNL A   1      41.710  26.038  28.215  1.00  0.00     0.049 A 
ATOM     40  H   UNL A   1      42.358  27.922  28.833  1.00  0.00     0.167 HD
ATOM     41  C   UNL A   1      43.748  31.776  30.045  1.00  0.00     0.031 A 
ATOM     42  C   UNL A   1      42.779  25.247  27.984  1.00  0.00     0.031 A 
ATOM     43  C   UNL A   1      44.955  31.080  29.665  1.00  0.00     0.049 A 
ATOM     44  C   UNL A   1      44.156  25.843  28.033  1.00  0.00     0.074 A 
ATOM     45  C   UNL A   1      46.266  31.534  29.714  1.00  0.00     0.029 A 
ATOM     46  N   UNL A   1      45.010  29.777  29.199  1.00  0.00    -0.354 N 
ATOM     47  N   UNL A   1      44.520  27.039  28.422  1.00  0.00    -0.248 NA
ATOM     48  C   UNL A   1      45.262  24.997  27.559  1.00  0.00     0.031 C 
ATOM     49  C   UNL A   1      47.104  30.523  29.229  1.00  0.00     0.029 A 
ATOM     50  C   UNL A   1      46.324  29.417  28.938  1.00  0.00     0.049 A 
ATOM     51  H   UNL A   1      44.230  29.190  29.071  1.00  0.00     0.167 HD
ATOM     52  C   UNL A   1      45.897  27.090  28.236  1.00  0.00     0.074 A 
ATOM     53  C   UNL A   1      46.306  25.794  27.736  1.00  0.00     0.031 C 
ATOM     54  C   UNL A   1      46.740  28.129  28.447  1.00  0.00     0.031 A 
BRANCH  41  55
ATOM     55  C   UNL A   1      43.897  33.189  30.557  1.00  0.00    -0.014 A 
ATOM     56  C   UNL A   1      43.918  34.305  29.706  1.00  0.00     0.010 A 
ATOM     57  C   UNL A   1      43.957  33.396  31.951  1.00  0.00     0.010 A 
ATOM     58  C   UNL A   1      44.039  35.597  30.236  1.00  0.00     0.020 A 
ATOM     59  C   UNL A   1      44.050  34.683  32.485  1.00  0.00     0.020 A 
ATOM     60  C   UNL A   1      44.111  35.777  31.622  1.00  0.00     0.054 A 
BRANCH  60  61
ATOM     61  S   UNL A   1      44.265  37.459  32.287  1.00  0.00     0.124 S 
ATOM     62  O   UNL A   1      43.844  38.273  31.149  1.00  0.00    -0.237 OA
ATOM     63  O   UNL A   1      43.347  37.444  33.423  1.00  0.00    -0.237 OA
ATOM     64  O   UNL A   1      45.680  37.567  32.637  1.00  0.00    -0.744 OA
ENDBRANCH  60  61
ENDBRANCH  41  55
BRANCH  42  65
ATOM     65  C   UNL A   1      42.588  23.838  27.520  1.00  0.00    -0.014 A 
ATOM     66  C   UNL A   1      42.508  23.525  26.152  1.00  0.00     0.010 A 
ATOM     67  C   UNL A   1      42.461  22.795  28.462  1.00  0.00     0.010 A 
ATOM     68  C   UNL A   1      42.296  22.203  25.739  1.00  0.00     0.020 A 
ATOM     69  C   UNL A   1      42.298  21.471  28.052  1.00  0.00     0.020 A 
ATOM     70  C   UNL A   1      42.199  21.186  26.692  1.00  0.00     0.054 A 
BRANCH  70  71
ATOM     71  S   UNL A   1      41.973  19.472  26.138  1.00  0.00     0.124 S 
ATOM     72  O   UNL A   1      40.537  19.422  25.889  1.00  0.00    -0.237 OA
ATOM     73  O   UNL A   1      42.826  19.406  24.954  1.00  0.00    -0.237 OA
ATOM     74  O   UNL A   1      42.440  18.683  27.277  1.00  0.00    -0.744 OA
ENDBRANCH  70  71
ENDBRANCH  42  65
BRANCH  54  75
ATOM     75  C   UNL A   1      48.204  27.903  28.177  1.00  0.00    -0.014 A 
ATOM     76  C   UNL A   1      49.051  27.357  29.159  1.00  0.00     0.010 A 
ATOM     77  C   UNL A   1      48.733  28.204  26.909  1.00  0.00     0.010 A 
ATOM     78  C   UNL A   1      50.405  27.140  28.884  1.00  0.00     0.020 A 
ATOM     79  C   UNL A   1      50.080  27.965  26.622  1.00  0.00     0.020 A 
ATOM     80  C   UNL A   1      50.910  27.444  27.617  1.00  0.00     0.054 A 
BRANCH  80  81
ATOM     81  S   UNL A   1      52.659  27.107  27.268  1.00  0.00     0.124 S 
ATOM     82  O   UNL A   1      53.316  27.638  28.458  1.00  0.00    -0.237 OA
ATOM     83  O   UNL A   1      52.684  25.652  27.132  1.00  0.00    -0.237 OA
ATOM     84  O   UNL A   1      52.916  27.845  26.033  1.00  0.00    -0.744 OA
ENDBRANCH  80  81
ENDBRANCH  54  75
ENDBRANCH  28  29
ENDBRANCH  21  23
ENDBRANCH   1  21
TORSDOF 14
ENDMDL
MODEL 3
REMARK VINA RESULT:     -10.8      4.596      9.654
REMARK SMILES CC1=CC2=[NH+]C(=O)C[C@@](C)(C(=O)OCCOC(=O)c3ccc(-c4c5nc(c(-c6ccc(S(=O)(=O)[O-])cc6)c6ccc([nH]6)c(-c6ccc(S(=O)(=O)[O-])cc6)c6nc(c(-c7ccc(S(=O)(=O)[O-])cc7)c7ccc4[nH]7)C=C6)C=C5)cc3)N2C=C1
REMARK SMILES IDX 16 1 15 2 14 3 13 4 11 5 12 6 9 7 1 8 2 9 3 10 81 11 4 12
REMARK SMILES IDX 80 13 5 14 79 15 6 16 7 18 8 19 10 20 17 21 18 22 19 23
REMARK SMILES IDX 20 24 78 25 21 26 77 27 22 28 23 29 24 30 71 31 25 32 76 33
REMARK SMILES IDX 70 34 72 35 26 36 75 37 69 38 68 39 27 41 57 42 38 43 56 44
REMARK SMILES IDX 39 45 42 46 55 47 73 48 40 49 41 50 54 52 74 53 43 54 28 55
REMARK SMILES IDX 29 56 37 57 30 58 36 59 31 60 32 61 33 62 34 63 35 64 58 65
REMARK SMILES IDX 59 66 67 67 60 68 66 69 61 70 62 71 63 72 64 73 65 74 44 75
REMARK SMILES IDX 45 76 53 77 46 78 52 79 47 80 48 81 49 82 50 83 51 84
REMARK H PARENT 5 17 72 40 42 51
REMARK Flexibility Score: inf
ROOT
ATOM      1  O   UNL A   1      33.431  29.977  26.912  1.00  0.00    -0.458 OA
ENDROOT
BRANCH   1   2
ATOM      2  C   UNL A   1      32.037  29.669  27.131  1.00  0.00     0.275 C 
BRANCH   2   3
ATOM      3  C   UNL A   1      31.912  28.182  27.541  1.00  0.00     0.274 C 
BRANCH   3   4
ATOM      4  O   UNL A   1      32.141  27.346  26.378  1.00  0.00    -0.459 OA
BRANCH   4   5
ATOM      5  C   UNL A   1      31.090  26.612  25.869  1.00  0.00     0.355 C 
ATOM      6  O   UNL A   1      30.285  26.010  26.563  1.00  0.00    -0.247 OA
BRANCH   5   7
ATOM      7  C   UNL A   1      31.068  26.757  24.313  1.00  0.00     0.216 C 
ATOM      8  C   UNL A   1      28.378  31.524  22.440  1.00  0.00     0.045 C 
ATOM      9  C   UNL A   1      28.885  30.270  23.089  1.00  0.00    -0.039 C 
ATOM     10  C   UNL A   1      29.904  30.364  23.958  1.00  0.00     0.102 C 
ATOM     11  C   UNL A   1      28.401  28.954  22.666  1.00  0.00     0.047 C 
ATOM     12  C   UNL A   1      30.760  29.156  23.901  1.00  0.00     0.282 C 
ATOM     13  C   UNL A   1      29.003  27.831  23.125  1.00  0.00     0.202 C 
ATOM     14  N   UNL A   1      32.002  29.375  23.602  1.00  0.00    -0.210 N 
ATOM     15  N   UNL A   1      30.189  27.888  23.867  1.00  0.00    -0.217 N 
ATOM     16  C   UNL A   1      32.652  28.282  23.106  1.00  0.00     0.312 C 
ATOM     17  H   UNL A   1      32.437  30.250  23.720  1.00  0.00     0.315 HD
ATOM     18  O   UNL A   1      33.351  28.291  22.111  1.00  0.00    -0.247 OA
ATOM     19  C   UNL A   1      32.536  27.069  23.956  1.00  0.00     0.193 C 
ATOM     20  C   UNL A   1      30.661  25.422  23.682  1.00  0.00     0.076 C 
ENDBRANCH   5   7
ENDBRANCH   4   5
ENDBRANCH   3   4
ENDBRANCH   2   3
ENDBRANCH   1   2
BRANCH   1  21
ATOM     21  C   UNL A   1      33.942  31.109  27.481  1.00  0.00     0.338 C 
ATOM     22  O   UNL A   1      33.348  32.164  27.610  1.00  0.00    -0.246 OA
BRANCH  21  23
ATOM     23  C   UNL A   1      35.319  30.825  28.007  1.00  0.00     0.060 A 
ATOM     24  C   UNL A   1      35.601  29.567  28.511  1.00  0.00     0.016 A 
ATOM     25  C   UNL A   1      36.314  31.809  28.114  1.00  0.00     0.016 A 
ATOM     26  C   UNL A   1      36.790  29.340  29.204  1.00  0.00     0.010 A 
ATOM     27  C   UNL A   1      37.563  31.525  28.740  1.00  0.00     0.010 A 
ATOM     28  C   UNL A   1      37.819  30.278  29.334  1.00  0.00    -0.014 A 
BRANCH  28  29
ATOM     29  C   UNL A   1      39.073  29.912  30.113  1.00  0.00     0.031 A 
ATOM     30  C   UNL A   1      40.066  28.878  29.601  1.00  0.00     0.074 A 
ATOM     31  C   UNL A   1      39.428  30.567  31.249  1.00  0.00     0.049 A 
ATOM     32  N   UNL A   1      41.039  28.277  30.249  1.00  0.00    -0.248 NA
ATOM     33  C   UNL A   1      39.963  28.476  28.191  1.00  0.00     0.031 C 
ATOM     34  C   UNL A   1      38.699  31.679  31.868  1.00  0.00     0.029 A 
ATOM     35  N   UNL A   1      40.527  30.427  32.076  1.00  0.00    -0.354 N 
ATOM     36  C   UNL A   1      41.602  27.366  29.356  1.00  0.00     0.074 A 
ATOM     37  C   UNL A   1      40.884  27.521  28.107  1.00  0.00     0.031 C 
ATOM     38  C   UNL A   1      39.423  32.198  32.866  1.00  0.00     0.029 A 
ATOM     39  C   UNL A   1      40.558  31.326  33.122  1.00  0.00     0.049 A 
ATOM     40  H   UNL A   1      41.224  29.747  31.931  1.00  0.00     0.167 HD
ATOM     41  C   UNL A   1      42.603  26.470  29.562  1.00  0.00     0.031 A 
ATOM     42  C   UNL A   1      41.322  31.407  34.232  1.00  0.00     0.031 A 
ATOM     43  C   UNL A   1      43.366  26.356  30.782  1.00  0.00     0.049 A 
ATOM     44  C   UNL A   1      42.336  30.333  34.503  1.00  0.00     0.074 A 
ATOM     45  C   UNL A   1      44.345  25.427  31.104  1.00  0.00     0.029 A 
ATOM     46  N   UNL A   1      43.266  27.210  31.868  1.00  0.00    -0.354 N 
ATOM     47  N   UNL A   1      42.721  29.350  33.728  1.00  0.00    -0.248 NA
ATOM     48  C   UNL A   1      42.980  30.349  35.825  1.00  0.00     0.031 C 
ATOM     49  C   UNL A   1      44.798  25.691  32.403  1.00  0.00     0.029 A 
ATOM     50  C   UNL A   1      44.147  26.821  32.865  1.00  0.00     0.049 A 
ATOM     51  H   UNL A   1      42.657  27.982  31.923  1.00  0.00     0.167 HD
ATOM     52  C   UNL A   1      43.649  28.629  34.470  1.00  0.00     0.074 A 
ATOM     53  C   UNL A   1      43.797  29.309  35.740  1.00  0.00     0.031 C 
ATOM     54  C   UNL A   1      44.305  27.494  34.129  1.00  0.00     0.031 A 
BRANCH  41  55
ATOM     55  C   UNL A   1      42.875  25.454  28.478  1.00  0.00    -0.014 A 
ATOM     56  C   UNL A   1      43.870  25.632  27.504  1.00  0.00     0.010 A 
ATOM     57  C   UNL A   1      42.138  24.251  28.484  1.00  0.00     0.010 A 
ATOM     58  C   UNL A   1      44.093  24.647  26.532  1.00  0.00     0.020 A 
ATOM     59  C   UNL A   1      42.375  23.256  27.534  1.00  0.00     0.020 A 
ATOM     60  C   UNL A   1      43.339  23.468  26.549  1.00  0.00     0.054 A 
BRANCH  60  61
ATOM     61  S   UNL A   1      43.647  22.206  25.281  1.00  0.00     0.124 S 
ATOM     62  O   UNL A   1      43.405  22.951  24.048  1.00  0.00    -0.237 OA
ATOM     63  O   UNL A   1      45.038  21.833  25.528  1.00  0.00    -0.237 OA
ATOM     64  O   UNL A   1      42.666  21.166  25.579  1.00  0.00    -0.744 OA
ENDBRANCH  60  61
ENDBRANCH  41  55
BRANCH  42  65
ATOM     65  C   UNL A   1      41.048  32.457  35.261  1.00  0.00    -0.014 A 
ATOM     66  C   UNL A   1      40.103  32.249  36.281  1.00  0.00     0.010 A 
ATOM     67  C   UNL A   1      41.724  33.693  35.206  1.00  0.00     0.010 A 
ATOM     68  C   UNL A   1      39.837  33.257  37.216  1.00  0.00     0.020 A 
ATOM     69  C   UNL A   1      41.497  34.682  36.164  1.00  0.00     0.020 A 
ATOM     70  C   UNL A   1      40.540  34.463  37.154  1.00  0.00     0.054 A 
BRANCH  70  71
ATOM     71  S   UNL A   1      40.218  35.741  38.402  1.00  0.00     0.124 S 
ATOM     72  O   UNL A   1      41.552  35.976  38.945  1.00  0.00    -0.237 OA
ATOM     73  O   UNL A   1      39.656  36.828  37.606  1.00  0.00    -0.237 OA
ATOM     74  O   UNL A   1      39.275  35.095  39.314  1.00  0.00    -0.744 OA
ENDBRANCH  70  71
ENDBRANCH  42  65
BRANCH  54  75
ATOM     75  C   UNL A   1      45.280  26.928  35.127  1.00  0.00    -0.014 A 
ATOM     76  C   UNL A   1      44.872  25.989  36.092  1.00  0.00     0.010 A 
ATOM     77  C   UNL A   1      46.632  27.311  35.074  1.00  0.00     0.010 A 
ATOM     78  C   UNL A   1      45.796  25.463  37.001  1.00  0.00     0.020 A 
ATOM     79  C   UNL A   1      47.563  26.768  35.964  1.00  0.00     0.020 A 
ATOM     80  C   UNL A   1      47.136  25.855  36.930  1.00  0.00     0.054 A 
BRANCH  80  81
ATOM     81  S   UNL A   1      48.325  25.120  38.088  1.00  0.00     0.124 S 
ATOM     82  O   UNL A   1      47.448  24.569  39.117  1.00  0.00    -0.237 OA
ATOM     83  O   UNL A   1      49.015  24.136  37.257  1.00  0.00    -0.237 OA
ATOM     84  O   UNL A   1      49.145  26.254  38.510  1.00  0.00    -0.744 OA
ENDBRANCH  80  81
ENDBRANCH  54  75
ENDBRANCH  28  29
ENDBRANCH  21  23
ENDBRANCH   1  21
TORSDOF 14
ENDMDL
