MODEL 1
REMARK VINA RESULT:     -12.1      0.000      0.000
REMARK SMILES CN1C(=O)C[C@H](C(=O)Nc2ccc(C(=O)OCCOC(=O)c3ccc(-c4c5nc(c(-c6ccc(S(=O)(=O)[O-])cc6)c6ccc([nH]6)c(-c6ccc(S(=O)(=O)[O-])cc6)c6nc(c(-c7ccc(S(=O)(=O)[O-])cc7)c7ccc4[nH]7)C=C6)C=C5)cc3)cc2)S/C1=[NH+]\c1cccc(C(F)(F)F)c1
REMARK SMILES IDX 17 1 16 2 14 3 15 4 13 5 10 6 11 7 83 8 12 9 82 10 9 11 7 12
REMARK SMILES IDX 8 13 6 15 1 16 2 17 3 18 85 19 4 20 5 21 84 22 86 23 87 25
REMARK SMILES IDX 88 26 96 27 89 28 91 29 90 30 92 31 93 32 94 33 95 34 18 35
REMARK SMILES IDX 19 36 20 37 21 38 22 39 23 40 81 41 24 42 80 43 25 44 26 45
REMARK SMILES IDX 27 46 74 47 28 48 79 49 73 50 75 51 29 52 78 53 72 54 71 55
REMARK SMILES IDX 30 57 60 58 41 59 59 60 42 61 45 62 58 63 76 64 43 65 44 66
REMARK SMILES IDX 57 68 77 69 46 70 31 71 32 72 40 73 33 74 39 75 34 76 35 77
REMARK SMILES IDX 36 78 37 79 38 80 61 81 62 82 70 83 63 84 69 85 64 86 65 87
REMARK SMILES IDX 66 88 67 89 68 90 47 91 48 92 56 93 49 94 55 95 50 96 51 97
REMARK SMILES IDX 52 98 53 99 54 100
REMARK H PARENT 9 14 86 24 75 56 45 67
REMARK Flexibility Score: inf
ROOT
ATOM      1  C   UNL A   1      38.890  22.057  25.917  1.00  0.00     0.275 C 
ENDROOT
BRANCH   1   2
ATOM      2  O   UNL A   1      37.492  22.389  26.026  1.00  0.00    -0.458 OA
BRANCH   2   3
ATOM      3  C   UNL A   1      36.782  22.302  24.874  1.00  0.00     0.338 C 
ATOM      4  O   UNL A   1      37.074  21.647  23.892  1.00  0.00    -0.246 OA
BRANCH   3   5
ATOM      5  C   UNL A   1      35.516  23.068  24.977  1.00  0.00     0.060 A 
ATOM      6  C   UNL A   1      33.179  24.517  25.439  1.00  0.00     0.041 A 
ATOM      7  C   UNL A   1      34.409  25.115  25.676  1.00  0.00     0.027 A 
ATOM      8  C   UNL A   1      33.113  23.244  24.860  1.00  0.00     0.027 A 
ATOM      9  C   UNL A   1      35.565  24.362  25.510  1.00  0.00     0.018 A 
ATOM     10  C   UNL A   1      34.285  22.520  24.617  1.00  0.00     0.018 A 
BRANCH   6  11
ATOM     11  N   UNL A   1      32.060  25.189  25.936  1.00  0.00    -0.325 N 
ATOM     12  C   UNL A   1      31.310  26.140  25.285  1.00  0.00     0.238 C 
ATOM     13  O   UNL A   1      30.256  26.490  25.819  1.00  0.00    -0.273 OA
ATOM     14  H   UNL A   1      31.778  24.958  26.850  1.00  0.00     0.169 HD
BRANCH  12  15
ATOM     15  C   UNL A   1      31.761  26.664  23.915  1.00  0.00     0.160 C 
ATOM     16  C   UNL A   1      29.547  30.463  23.642  1.00  0.00     0.301 C 
ATOM     17  N   UNL A   1      30.339  29.244  23.708  1.00  0.00    -0.194 N 
ATOM     18  C   UNL A   1      29.783  28.104  23.145  1.00  0.00     0.311 C 
ATOM     19  C   UNL A   1      31.507  29.292  24.467  1.00  0.00     0.319 C 
ATOM     20  O   UNL A   1      28.605  28.049  22.778  1.00  0.00    -0.247 OA
ATOM     21  C   UNL A   1      30.651  26.893  22.918  1.00  0.00     0.153 C 
ATOM     22  S   UNL A   1      32.752  28.146  24.025  1.00  0.00    -0.024 SA
ATOM     23  N   UNL A   1      31.639  30.204  25.383  1.00  0.00    -0.235 N 
ATOM     24  H   UNL A   1      30.978  30.930  25.452  1.00  0.00     0.313 HD
BRANCH  23  25
ATOM     25  C   UNL A   1      32.721  30.154  26.271  1.00  0.00     0.126 A 
ATOM     26  C   UNL A   1      33.557  29.034  26.263  1.00  0.00     0.052 A 
ATOM     27  C   UNL A   1      33.010  31.216  27.127  1.00  0.00     0.064 A 
ATOM     28  C   UNL A   1      34.700  28.996  27.059  1.00  0.00     0.005 A 
ATOM     29  C   UNL A   1      34.189  31.221  27.885  1.00  0.00     0.060 A 
ATOM     30  C   UNL A   1      35.024  30.092  27.857  1.00  0.00     0.013 A 
BRANCH  29  31
ATOM     31  C   UNL A   1      34.572  32.438  28.681  1.00  0.00     0.416 C 
ATOM     32  F   UNL A   1      35.873  32.798  28.496  1.00  0.00    -0.166 F 
ATOM     33  F   UNL A   1      33.832  33.535  28.354  1.00  0.00    -0.166 F 
ATOM     34  F   UNL A   1      34.418  32.282  30.027  1.00  0.00    -0.166 F 
ENDBRANCH  29  31
ENDBRANCH  23  25
ENDBRANCH  12  15
ENDBRANCH   6  11
ENDBRANCH   3   5
ENDBRANCH   2   3
ENDBRANCH   1   2
BRANCH   1  35
ATOM     35  C   UNL A   1      39.742  22.971  26.798  1.00  0.00     0.275 C 
BRANCH  35  36
ATOM     36  O   UNL A   1      39.086  24.234  27.023  1.00  0.00    -0.458 OA
BRANCH  36  37
ATOM     37  C   UNL A   1      39.874  25.321  26.867  1.00  0.00     0.338 C 
ATOM     38  O   UNL A   1      40.687  25.520  25.977  1.00  0.00    -0.246 OA
BRANCH  37  39
ATOM     39  C   UNL A   1      39.571  26.342  27.881  1.00  0.00     0.060 A 
ATOM     40  C   UNL A   1      40.146  27.594  27.723  1.00  0.00     0.016 A 
ATOM     41  C   UNL A   1      38.958  26.010  29.084  1.00  0.00     0.016 A 
ATOM     42  C   UNL A   1      40.285  28.447  28.814  1.00  0.00     0.010 A 
ATOM     43  C   UNL A   1      38.960  26.939  30.137  1.00  0.00     0.010 A 
ATOM     44  C   UNL A   1      39.685  28.143  30.043  1.00  0.00    -0.014 A 
BRANCH  44  45
ATOM     45  C   UNL A   1      39.867  29.049  31.224  1.00  0.00     0.031 A 
ATOM     46  C   UNL A   1      41.072  28.898  32.130  1.00  0.00     0.074 A 
ATOM     47  C   UNL A   1      38.979  30.035  31.482  1.00  0.00     0.049 A 
ATOM     48  N   UNL A   1      41.319  29.470  33.283  1.00  0.00    -0.248 NA
ATOM     49  C   UNL A   1      42.128  27.969  31.693  1.00  0.00     0.031 C 
ATOM     50  C   UNL A   1      37.793  30.347  30.681  1.00  0.00     0.029 A 
ATOM     51  N   UNL A   1      38.945  30.973  32.487  1.00  0.00    -0.354 N 
ATOM     52  C   UNL A   1      42.514  28.920  33.739  1.00  0.00     0.074 A 
ATOM     53  C   UNL A   1      42.939  27.960  32.743  1.00  0.00     0.031 C 
ATOM     54  C   UNL A   1      37.187  31.432  31.185  1.00  0.00     0.029 A 
ATOM     55  C   UNL A   1      37.867  31.827  32.411  1.00  0.00     0.049 A 
ATOM     56  H   UNL A   1      39.626  31.029  33.196  1.00  0.00     0.167 HD
ATOM     57  C   UNL A   1      43.197  29.186  34.880  1.00  0.00     0.031 A 
ATOM     58  C   UNL A   1      37.433  32.788  33.249  1.00  0.00     0.031 A 
ATOM     59  C   UNL A   1      42.803  30.181  35.845  1.00  0.00     0.049 A 
ATOM     60  C   UNL A   1      38.183  33.040  34.525  1.00  0.00     0.074 A 
ATOM     61  C   UNL A   1      43.441  30.538  37.022  1.00  0.00     0.029 A 
ATOM     62  N   UNL A   1      41.683  30.990  35.740  1.00  0.00    -0.354 N 
ATOM     63  N   UNL A   1      39.280  32.469  34.962  1.00  0.00    -0.248 NA
ATOM     64  C   UNL A   1      37.629  34.057  35.430  1.00  0.00     0.031 C 
ATOM     65  C   UNL A   1      42.678  31.525  37.653  1.00  0.00     0.029 A 
ATOM     66  C   UNL A   1      41.600  31.830  36.839  1.00  0.00     0.049 A 
ATOM     67  H   UNL A   1      41.040  30.970  34.994  1.00  0.00     0.167 HD
ATOM     68  C   UNL A   1      39.556  33.069  36.185  1.00  0.00     0.074 A 
ATOM     69  C   UNL A   1      38.526  34.064  36.406  1.00  0.00     0.031 C 
ATOM     70  C   UNL A   1      40.569  32.815  37.050  1.00  0.00     0.031 A 
BRANCH  57  71
ATOM     71  C   UNL A   1      44.426  28.359  35.176  1.00  0.00    -0.014 A 
ATOM     72  C   UNL A   1      45.703  28.741  34.730  1.00  0.00     0.010 A 
ATOM     73  C   UNL A   1      44.298  27.194  35.959  1.00  0.00     0.010 A 
ATOM     74  C   UNL A   1      46.822  27.951  35.022  1.00  0.00     0.020 A 
ATOM     75  C   UNL A   1      45.417  26.420  36.279  1.00  0.00     0.020 A 
ATOM     76  C   UNL A   1      46.670  26.793  35.792  1.00  0.00     0.054 A 
BRANCH  76  77
ATOM     77  S   UNL A   1      48.140  25.797  36.168  1.00  0.00     0.124 S 
ATOM     78  O   UNL A   1      48.529  26.317  37.476  1.00  0.00    -0.237 OA
ATOM     79  O   UNL A   1      47.613  24.435  36.167  1.00  0.00    -0.237 OA
ATOM     80  O   UNL A   1      49.059  26.107  35.076  1.00  0.00    -0.744 OA
ENDBRANCH  76  77
ENDBRANCH  57  71
BRANCH  58  81
ATOM     81  C   UNL A   1      36.185  33.542  32.934  1.00  0.00    -0.014 A 
ATOM     82  C   UNL A   1      34.952  33.156  33.488  1.00  0.00     0.010 A 
ATOM     83  C   UNL A   1      36.229  34.664  32.084  1.00  0.00     0.010 A 
ATOM     84  C   UNL A   1      33.787  33.870  33.189  1.00  0.00     0.020 A 
ATOM     85  C   UNL A   1      35.074  35.401  31.812  1.00  0.00     0.020 A 
ATOM     86  C   UNL A   1      33.857  34.991  32.356  1.00  0.00     0.054 A 
BRANCH  86  87
ATOM     87  S   UNL A   1      32.343  35.934  32.024  1.00  0.00     0.124 S 
ATOM     88  O   UNL A   1      32.400  36.101  30.576  1.00  0.00    -0.237 OA
ATOM     89  O   UNL A   1      31.298  35.040  32.518  1.00  0.00    -0.237 OA
ATOM     90  O   UNL A   1      32.524  37.157  32.804  1.00  0.00    -0.744 OA
ENDBRANCH  86  87
ENDBRANCH  58  81
BRANCH  70  91
ATOM     91  C   UNL A   1      40.637  33.657  38.296  1.00  0.00    -0.014 A 
ATOM     92  C   UNL A   1      41.287  34.903  38.303  1.00  0.00     0.010 A 
ATOM     93  C   UNL A   1      40.010  33.203  39.472  1.00  0.00     0.010 A 
ATOM     94  C   UNL A   1      41.347  35.662  39.475  1.00  0.00     0.020 A 
ATOM     95  C   UNL A   1      40.040  33.974  40.637  1.00  0.00     0.020 A 
ATOM     96  C   UNL A   1      40.723  35.191  40.635  1.00  0.00     0.054 A 
BRANCH  96  97
ATOM     97  S   UNL A   1      40.790  36.207  42.136  1.00  0.00     0.124 S 
ATOM     98  O   UNL A   1      41.703  37.276  41.741  1.00  0.00    -0.237 OA
ATOM     99  O   UNL A   1      39.395  36.605  42.315  1.00  0.00    -0.237 OA
ATOM    100  O   UNL A   1      41.305  35.291  43.152  1.00  0.00    -0.744 OA
ENDBRANCH  96  97
ENDBRANCH  70  91
ENDBRANCH  44  45
ENDBRANCH  37  39
ENDBRANCH  36  37
ENDBRANCH  35  36
ENDBRANCH   1  35
TORSDOF 18
ENDMDL
MODEL 2
REMARK VINA RESULT:     -11.5      0.570      7.777
REMARK SMILES CN1C(=O)C[C@H](C(=O)Nc2ccc(C(=O)OCCOC(=O)c3ccc(-c4c5nc(c(-c6ccc(S(=O)(=O)[O-])cc6)c6ccc([nH]6)c(-c6ccc(S(=O)(=O)[O-])cc6)c6nc(c(-c7ccc(S(=O)(=O)[O-])cc7)c7ccc4[nH]7)C=C6)C=C5)cc3)cc2)S/C1=[NH+]\c1cccc(C(F)(F)F)c1
REMARK SMILES IDX 17 1 16 2 14 3 15 4 13 5 10 6 11 7 83 8 12 9 82 10 9 11 7 12
REMARK SMILES IDX 8 13 6 15 1 16 2 17 3 18 85 19 4 20 5 21 84 22 86 23 87 25
REMARK SMILES IDX 88 26 96 27 89 28 91 29 90 30 92 31 93 32 94 33 95 34 18 35
REMARK SMILES IDX 19 36 20 37 21 38 22 39 23 40 81 41 24 42 80 43 25 44 26 45
REMARK SMILES IDX 27 46 74 47 28 48 79 49 73 50 75 51 29 52 78 53 72 54 71 55
REMARK SMILES IDX 30 57 60 58 41 59 59 60 42 61 45 62 58 63 76 64 43 65 44 66
REMARK SMILES IDX 57 68 77 69 46 70 31 71 32 72 40 73 33 74 39 75 34 76 35 77
REMARK SMILES IDX 36 78 37 79 38 80 61 81 62 82 70 83 63 84 69 85 64 86 65 87
REMARK SMILES IDX 66 88 67 89 68 90 47 91 48 92 56 93 49 94 55 95 50 96 51 97
REMARK SMILES IDX 52 98 53 99 54 100
REMARK H PARENT 9 14 86 24 75 56 45 67
REMARK Flexibility Score: inf
ROOT
ATOM      1  C   UNL A   1      39.459  22.131  26.146  1.00  0.00     0.275 C 
ENDROOT
BRANCH   1   2
ATOM      2  O   UNL A   1      38.053  22.393  26.321  1.00  0.00    -0.458 OA
BRANCH   2   3
ATOM      3  C   UNL A   1      37.270  22.103  25.252  1.00  0.00     0.338 C 
ATOM      4  O   UNL A   1      37.512  21.296  24.376  1.00  0.00    -0.246 OA
BRANCH   3   5
ATOM      5  C   UNL A   1      35.995  22.859  25.313  1.00  0.00     0.060 A 
ATOM      6  C   UNL A   1      33.644  24.309  25.695  1.00  0.00     0.041 A 
ATOM      7  C   UNL A   1      34.869  24.939  25.872  1.00  0.00     0.027 A 
ATOM      8  C   UNL A   1      33.589  22.996  25.212  1.00  0.00     0.027 A 
ATOM      9  C   UNL A   1      36.032  24.190  25.749  1.00  0.00     0.018 A 
ATOM     10  C   UNL A   1      34.767  22.270  25.009  1.00  0.00     0.018 A 
BRANCH   6  11
ATOM     11  N   UNL A   1      32.522  25.002  26.154  1.00  0.00    -0.325 N 
ATOM     12  C   UNL A   1      31.803  25.955  25.473  1.00  0.00     0.238 C 
ATOM     13  O   UNL A   1      30.740  26.326  25.975  1.00  0.00    -0.273 OA
ATOM     14  H   UNL A   1      32.212  24.785  27.063  1.00  0.00     0.169 HD
BRANCH  12  15
ATOM     15  C   UNL A   1      32.296  26.457  24.110  1.00  0.00     0.160 C 
ATOM     16  C   UNL A   1      29.938  30.144  23.610  1.00  0.00     0.301 C 
ATOM     17  N   UNL A   1      30.778  28.964  23.752  1.00  0.00    -0.194 N 
ATOM     18  C   UNL A   1      30.298  27.784  23.201  1.00  0.00     0.311 C 
ATOM     19  C   UNL A   1      31.904  29.086  24.564  1.00  0.00     0.319 C 
ATOM     20  O   UNL A   1      29.144  27.666  22.781  1.00  0.00    -0.247 OA
ATOM     21  C   UNL A   1      31.227  26.606  23.055  1.00  0.00     0.153 C 
ATOM     22  S   UNL A   1      33.217  27.984  24.219  1.00  0.00    -0.024 SA
ATOM     23  N   UNL A   1      31.952  30.031  25.455  1.00  0.00    -0.235 N 
ATOM     24  H   UNL A   1      31.258  30.729  25.469  1.00  0.00     0.313 HD
BRANCH  23  25
ATOM     25  C   UNL A   1      32.991  30.056  26.395  1.00  0.00     0.126 A 
ATOM     26  C   UNL A   1      33.805  28.928  26.539  1.00  0.00     0.052 A 
ATOM     27  C   UNL A   1      33.260  31.195  27.152  1.00  0.00     0.064 A 
ATOM     28  C   UNL A   1      34.909  28.955  27.389  1.00  0.00     0.005 A 
ATOM     29  C   UNL A   1      34.403  31.259  27.962  1.00  0.00     0.060 A 
ATOM     30  C   UNL A   1      35.216  30.122  28.088  1.00  0.00     0.013 A 
BRANCH  29  31
ATOM     31  C   UNL A   1      34.772  32.545  28.648  1.00  0.00     0.416 C 
ATOM     32  F   UNL A   1      33.946  33.575  28.315  1.00  0.00    -0.166 F 
ATOM     33  F   UNL A   1      34.719  32.449  30.007  1.00  0.00    -0.166 F 
ATOM     34  F   UNL A   1      36.034  32.975  28.363  1.00  0.00    -0.166 F 
ENDBRANCH  29  31
ENDBRANCH  23  25
ENDBRANCH  12  15
ENDBRANCH   6  11
ENDBRANCH   3   5
ENDBRANCH   2   3
ENDBRANCH   1   2
BRANCH   1  35
ATOM     35  C   UNL A   1      40.304  23.275  26.706  1.00  0.00     0.275 C 
BRANCH  35  36
ATOM     36  O   UNL A   1      39.488  24.424  27.008  1.00  0.00    -0.458 OA
BRANCH  36  37
ATOM     37  C   UNL A   1      40.090  25.618  26.809  1.00  0.00     0.338 C 
ATOM     38  O   UNL A   1      40.740  25.962  25.834  1.00  0.00    -0.246 OA
BRANCH  37  39
ATOM     39  C   UNL A   1      39.788  26.550  27.906  1.00  0.00     0.060 A 
ATOM     40  C   UNL A   1      40.443  27.773  27.908  1.00  0.00     0.016 A 
ATOM     41  C   UNL A   1      39.089  26.138  29.035  1.00  0.00     0.016 A 
ATOM     42  C   UNL A   1      40.567  28.502  29.087  1.00  0.00     0.010 A 
ATOM     43  C   UNL A   1      39.083  26.956  30.177  1.00  0.00     0.010 A 
ATOM     44  C   UNL A   1      39.881  28.115  30.246  1.00  0.00    -0.014 A 
BRANCH  44  45
ATOM     45  C   UNL A   1      40.046  28.885  31.522  1.00  0.00     0.031 A 
ATOM     46  C   UNL A   1      39.042  29.951  31.911  1.00  0.00     0.074 A 
ATOM     47  C   UNL A   1      41.072  28.620  32.361  1.00  0.00     0.049 A 
ATOM     48  N   UNL A   1      39.101  30.830  32.881  1.00  0.00    -0.248 NA
ATOM     49  C   UNL A   1      37.823  30.056  31.092  1.00  0.00     0.031 C 
ATOM     50  C   UNL A   1      42.097  27.593  32.160  1.00  0.00     0.029 A 
ATOM     51  N   UNL A   1      41.415  29.186  33.567  1.00  0.00    -0.354 N 
ATOM     52  C   UNL A   1      37.971  31.632  32.745  1.00  0.00     0.074 A 
ATOM     53  C   UNL A   1      37.247  31.141  31.592  1.00  0.00     0.031 C 
ATOM     54  C   UNL A   1      42.909  27.559  33.225  1.00  0.00     0.029 A 
ATOM     55  C   UNL A   1      42.542  28.636  34.135  1.00  0.00     0.049 A 
ATOM     56  H   UNL A   1      40.903  29.916  33.985  1.00  0.00     0.167 HD
ATOM     57  C   UNL A   1      37.569  32.680  33.507  1.00  0.00     0.031 A 
ATOM     58  C   UNL A   1      43.243  28.980  35.233  1.00  0.00     0.031 A 
ATOM     59  C   UNL A   1      38.261  33.134  34.687  1.00  0.00     0.049 A 
ATOM     60  C   UNL A   1      42.802  30.167  36.040  1.00  0.00     0.074 A 
ATOM     61  C   UNL A   1      37.920  34.174  35.537  1.00  0.00     0.029 A 
ATOM     62  N   UNL A   1      39.419  32.568  35.196  1.00  0.00    -0.354 N 
ATOM     63  N   UNL A   1      41.762  30.944  35.861  1.00  0.00    -0.248 NA
ATOM     64  C   UNL A   1      43.639  30.533  37.191  1.00  0.00     0.031 C 
ATOM     65  C   UNL A   1      38.902  34.269  36.528  1.00  0.00     0.029 A 
ATOM     66  C   UNL A   1      39.817  33.248  36.336  1.00  0.00     0.049 A 
ATOM     67  H   UNL A   1      39.890  31.796  34.805  1.00  0.00     0.167 HD
ATOM     68  C   UNL A   1      41.810  31.882  36.886  1.00  0.00     0.074 A 
ATOM     69  C   UNL A   1      42.967  31.558  37.696  1.00  0.00     0.031 C 
ATOM     70  C   UNL A   1      40.973  32.919  37.132  1.00  0.00     0.031 A 
BRANCH  57  71
ATOM     71  C   UNL A   1      36.343  33.443  33.066  1.00  0.00    -0.014 A 
ATOM     72  C   UNL A   1      36.427  34.542  32.194  1.00  0.00     0.010 A 
ATOM     73  C   UNL A   1      35.073  33.017  33.503  1.00  0.00     0.010 A 
ATOM     74  C   UNL A   1      35.270  35.228  31.803  1.00  0.00     0.020 A 
ATOM     75  C   UNL A   1      33.913  33.679  33.091  1.00  0.00     0.020 A 
ATOM     76  C   UNL A   1      34.021  34.793  32.258  1.00  0.00     0.054 A 
BRANCH  76  77
ATOM     77  S   UNL A   1      32.537  35.692  31.723  1.00  0.00     0.124 S 
ATOM     78  O   UNL A   1      31.521  35.158  32.626  1.00  0.00    -0.237 OA
ATOM     79  O   UNL A   1      32.908  37.086  31.950  1.00  0.00    -0.237 OA
ATOM     80  O   UNL A   1      32.386  35.311  30.322  1.00  0.00    -0.744 OA
ENDBRANCH  76  77
ENDBRANCH  57  71
BRANCH  58  81
ATOM     81  C   UNL A   1      44.476  28.224  35.596  1.00  0.00    -0.014 A 
ATOM     82  C   UNL A   1      44.408  27.095  36.430  1.00  0.00     0.010 A 
ATOM     83  C   UNL A   1      45.729  28.625  35.094  1.00  0.00     0.010 A 
ATOM     84  C   UNL A   1      45.570  26.389  36.763  1.00  0.00     0.020 A 
ATOM     85  C   UNL A   1      46.886  27.902  35.394  1.00  0.00     0.020 A 
ATOM     86  C   UNL A   1      46.800  26.795  36.239  1.00  0.00     0.054 A 
BRANCH  86  87
ATOM     87  S   UNL A   1      48.286  25.834  36.640  1.00  0.00     0.124 S 
ATOM     88  O   UNL A   1      47.767  24.472  36.672  1.00  0.00    -0.237 OA
ATOM     89  O   UNL A   1      49.176  26.148  35.524  1.00  0.00    -0.237 OA
ATOM     90  O   UNL A   1      48.706  26.376  37.931  1.00  0.00    -0.744 OA
ENDBRANCH  86  87
ENDBRANCH  58  81
BRANCH  70  91
ATOM     91  C   UNL A   1      41.256  33.757  38.351  1.00  0.00    -0.014 A 
ATOM     92  C   UNL A   1      40.753  33.402  39.615  1.00  0.00     0.010 A 
ATOM     93  C   UNL A   1      42.064  34.902  38.231  1.00  0.00     0.010 A 
ATOM     94  C   UNL A   1      41.020  34.201  40.731  1.00  0.00     0.020 A 
ATOM     95  C   UNL A   1      42.360  35.686  39.349  1.00  0.00     0.020 A 
ATOM     96  C   UNL A   1      41.821  35.339  40.590  1.00  0.00     0.054 A 
BRANCH  96  97
ATOM     97  S   UNL A   1      42.176  36.344  42.057  1.00  0.00     0.124 S 
ATOM     98  O   UNL A   1      40.836  36.708  42.508  1.00  0.00    -0.237 OA
ATOM     99  O   UNL A   1      42.898  35.410  42.918  1.00  0.00    -0.237 OA
ATOM    100  O   UNL A   1      42.978  37.448  41.534  1.00  0.00    -0.744 OA
ENDBRANCH  96  97
ENDBRANCH  70  91
ENDBRANCH  44  45
ENDBRANCH  37  39
ENDBRANCH  36  37
ENDBRANCH  35  36
ENDBRANCH   1  35
TORSDOF 18
ENDMDL
MODEL 3
REMARK VINA RESULT:     -11.5      4.092      9.574
REMARK SMILES CN1C(=O)C[C@H](C(=O)Nc2ccc(C(=O)OCCOC(=O)c3ccc(-c4c5nc(c(-c6ccc(S(=O)(=O)[O-])cc6)c6ccc([nH]6)c(-c6ccc(S(=O)(=O)[O-])cc6)c6nc(c(-c7ccc(S(=O)(=O)[O-])cc7)c7ccc4[nH]7)C=C6)C=C5)cc3)cc2)S/C1=[NH+]\c1cccc(C(F)(F)F)c1
REMARK SMILES IDX 17 1 16 2 14 3 15 4 13 5 10 6 11 7 83 8 12 9 82 10 9 11 7 12
REMARK SMILES IDX 8 13 6 15 1 16 2 17 3 18 85 19 4 20 5 21 84 22 86 23 87 25
REMARK SMILES IDX 88 26 96 27 89 28 91 29 90 30 92 31 93 32 94 33 95 34 18 35
REMARK SMILES IDX 19 36 20 37 21 38 22 39 23 40 81 41 24 42 80 43 25 44 26 45
REMARK SMILES IDX 27 46 74 47 28 48 79 49 73 50 75 51 29 52 78 53 72 54 71 55
REMARK SMILES IDX 30 57 60 58 41 59 59 60 42 61 45 62 58 63 76 64 43 65 44 66
REMARK SMILES IDX 57 68 77 69 46 70 31 71 32 72 40 73 33 74 39 75 34 76 35 77
REMARK SMILES IDX 36 78 37 79 38 80 61 81 62 82 70 83 63 84 69 85 64 86 65 87
REMARK SMILES IDX 66 88 67 89 68 90 47 91 48 92 56 93 49 94 55 95 50 96 51 97
REMARK SMILES IDX 52 98 53 99 54 100
REMARK H PARENT 9 14 86 24 75 56 45 67
REMARK Flexibility Score: inf
ROOT
ATOM      1  C   UNL A   1      43.668  23.577  26.620  1.00  0.00     0.275 C 
ENDROOT
BRANCH   1   2
ATOM      2  O   UNL A   1      42.673  22.535  26.663  1.00  0.00    -0.458 OA
BRANCH   2   3
ATOM      3  C   UNL A   1      41.681  22.717  27.570  1.00  0.00     0.338 C 
ATOM      4  O   UNL A   1      41.818  22.961  28.753  1.00  0.00    -0.246 OA
BRANCH   3   5
ATOM      5  C   UNL A   1      40.352  22.657  26.914  1.00  0.00     0.060 A 
ATOM      6  C   UNL A   1      37.985  22.494  25.449  1.00  0.00     0.041 A 
ATOM      7  C   UNL A   1      38.764  21.356  25.613  1.00  0.00     0.027 A 
ATOM      8  C   UNL A   1      38.320  23.680  26.112  1.00  0.00     0.027 A 
ATOM      9  C   UNL A   1      39.976  21.464  26.284  1.00  0.00     0.018 A 
ATOM     10  C   UNL A   1      39.501  23.761  26.857  1.00  0.00     0.018 A 
BRANCH   6  11
ATOM     11  N   UNL A   1      36.967  22.412  24.496  1.00  0.00    -0.325 N 
ATOM     12  C   UNL A   1      35.620  22.273  24.735  1.00  0.00     0.238 C 
ATOM     13  O   UNL A   1      34.861  22.398  23.772  1.00  0.00    -0.273 OA
ATOM     14  H   UNL A   1      37.243  22.460  23.552  1.00  0.00     0.169 HD
BRANCH  12  15
ATOM     15  C   UNL A   1      35.116  22.048  26.166  1.00  0.00     0.160 C 
ATOM     16  C   UNL A   1      30.886  23.227  25.817  1.00  0.00     0.301 C 
ATOM     17  N   UNL A   1      32.261  22.777  25.971  1.00  0.00    -0.194 N 
ATOM     18  C   UNL A   1      33.187  23.722  26.392  1.00  0.00     0.311 C 
ATOM     19  C   UNL A   1      32.555  21.488  25.530  1.00  0.00     0.319 C 
ATOM     20  O   UNL A   1      32.927  24.928  26.450  1.00  0.00    -0.247 OA
ATOM     21  C   UNL A   1      34.550  23.270  26.848  1.00  0.00     0.153 C 
ATOM     22  S   UNL A   1      33.931  20.717  26.288  1.00  0.00    -0.024 SA
ATOM     23  N   UNL A   1      31.775  20.913  24.665  1.00  0.00    -0.235 N 
ATOM     24  H   UNL A   1      30.919  21.332  24.420  1.00  0.00     0.313 HD
BRANCH  23  25
ATOM     25  C   UNL A   1      32.154  19.698  24.079  1.00  0.00     0.126 A 
ATOM     26  C   UNL A   1      32.282  19.624  22.688  1.00  0.00     0.052 A 
ATOM     27  C   UNL A   1      32.452  18.578  24.853  1.00  0.00     0.064 A 
ATOM     28  C   UNL A   1      32.756  18.462  22.081  1.00  0.00     0.005 A 
ATOM     29  C   UNL A   1      32.990  17.426  24.264  1.00  0.00     0.060 A 
ATOM     30  C   UNL A   1      33.123  17.371  22.867  1.00  0.00     0.013 A 
BRANCH  29  31
ATOM     31  C   UNL A   1      33.458  16.284  25.123  1.00  0.00     0.416 C 
ATOM     32  F   UNL A   1      32.915  15.091  24.753  1.00  0.00    -0.166 F 
ATOM     33  F   UNL A   1      34.809  16.109  25.075  1.00  0.00    -0.166 F 
ATOM     34  F   UNL A   1      33.157  16.435  26.445  1.00  0.00    -0.166 F 
ENDBRANCH  29  31
ENDBRANCH  23  25
ENDBRANCH  12  15
ENDBRANCH   6  11
ENDBRANCH   3   5
ENDBRANCH   2   3
ENDBRANCH   1   2
BRANCH   1  35
ATOM     35  C   UNL A   1      43.454  24.490  25.412  1.00  0.00     0.275 C 
BRANCH  35  36
ATOM     36  O   UNL A   1      42.243  25.260  25.551  1.00  0.00    -0.458 OA
BRANCH  36  37
ATOM     37  C   UNL A   1      42.420  26.600  25.576  1.00  0.00     0.338 C 
ATOM     38  O   UNL A   1      42.423  27.360  24.620  1.00  0.00    -0.246 OA
BRANCH  37  39
ATOM     39  C   UNL A   1      42.519  27.093  26.958  1.00  0.00     0.060 A 
ATOM     40  C   UNL A   1      41.754  26.456  27.923  1.00  0.00     0.016 A 
ATOM     41  C   UNL A   1      43.137  28.304  27.252  1.00  0.00     0.016 A 
ATOM     42  C   UNL A   1      41.442  27.105  29.114  1.00  0.00     0.010 A 
ATOM     43  C   UNL A   1      42.949  28.882  28.518  1.00  0.00     0.010 A 
ATOM     44  C   UNL A   1      42.041  28.329  29.443  1.00  0.00    -0.014 A 
BRANCH  44  45
ATOM     45  C   UNL A   1      41.675  29.039  30.712  1.00  0.00     0.031 A 
ATOM     46  C   UNL A   1      40.445  29.922  30.770  1.00  0.00     0.074 A 
ATOM     47  C   UNL A   1      42.415  28.881  31.832  1.00  0.00     0.049 A 
ATOM     48  N   UNL A   1      40.057  30.741  31.716  1.00  0.00    -0.248 NA
ATOM     49  C   UNL A   1      39.542  29.893  29.607  1.00  0.00     0.031 C 
ATOM     50  C   UNL A   1      43.601  28.030  31.958  1.00  0.00     0.029 A 
ATOM     51  N   UNL A   1      42.270  29.420  33.089  1.00  0.00    -0.354 N 
ATOM     52  C   UNL A   1      38.914  31.375  31.234  1.00  0.00     0.074 A 
ATOM     53  C   UNL A   1      38.675  30.851  29.907  1.00  0.00     0.031 C 
ATOM     54  C   UNL A   1      44.034  28.053  33.226  1.00  0.00     0.029 A 
ATOM     55  C   UNL A   1      43.235  29.010  33.981  1.00  0.00     0.049 A 
ATOM     56  H   UNL A   1      41.544  30.040  33.329  1.00  0.00     0.167 HD
ATOM     57  C   UNL A   1      38.134  32.306  31.838  1.00  0.00     0.031 A 
ATOM     58  C   UNL A   1      43.494  29.389  35.248  1.00  0.00     0.031 A 
ATOM     59  C   UNL A   1      38.341  32.787  33.181  1.00  0.00     0.049 A 
ATOM     60  C   UNL A   1      42.640  30.449  35.883  1.00  0.00     0.074 A 
ATOM     61  C   UNL A   1      37.591  33.714  33.887  1.00  0.00     0.029 A 
ATOM     62  N   UNL A   1      39.356  32.370  34.027  1.00  0.00    -0.354 N 
ATOM     63  N   UNL A   1      41.599  31.073  35.388  1.00  0.00    -0.248 NA
ATOM     64  C   UNL A   1      43.006  30.866  37.243  1.00  0.00     0.031 C 
ATOM     65  C   UNL A   1      38.185  33.895  35.139  1.00  0.00     0.029 A 
ATOM     66  C   UNL A   1      39.264  33.034  35.240  1.00  0.00     0.049 A 
ATOM     67  H   UNL A   1      40.041  31.699  33.799  1.00  0.00     0.167 HD
ATOM     68  C   UNL A   1      41.175  31.946  36.383  1.00  0.00     0.074 A 
ATOM     69  C   UNL A   1      42.056  31.750  37.516  1.00  0.00     0.031 C 
ATOM     70  C   UNL A   1      40.150  32.833  36.360  1.00  0.00     0.031 A 
BRANCH  57  71
ATOM     71  C   UNL A   1      37.002  32.904  31.037  1.00  0.00    -0.014 A 
ATOM     72  C   UNL A   1      37.237  33.697  29.900  1.00  0.00     0.010 A 
ATOM     73  C   UNL A   1      35.673  32.624  31.409  1.00  0.00     0.010 A 
ATOM     74  C   UNL A   1      36.165  34.237  29.178  1.00  0.00     0.020 A 
ATOM     75  C   UNL A   1      34.599  33.135  30.672  1.00  0.00     0.020 A 
ATOM     76  C   UNL A   1      34.853  33.954  29.572  1.00  0.00     0.054 A 
BRANCH  76  77
ATOM     77  S   UNL A   1      33.484  34.654  28.608  1.00  0.00     0.124 S 
ATOM     78  O   UNL A   1      32.487  34.911  29.645  1.00  0.00    -0.237 OA
ATOM     79  O   UNL A   1      34.087  35.842  28.010  1.00  0.00    -0.237 OA
ATOM     80  O   UNL A   1      33.142  33.591  27.666  1.00  0.00    -0.744 OA
ENDBRANCH  76  77
ENDBRANCH  57  71
BRANCH  58  81
ATOM     81  C   UNL A   1      44.655  28.803  35.978  1.00  0.00    -0.014 A 
ATOM     82  C   UNL A   1      44.505  27.639  36.751  1.00  0.00     0.010 A 
ATOM     83  C   UNL A   1      45.925  29.404  35.890  1.00  0.00     0.010 A 
ATOM     84  C   UNL A   1      45.600  27.094  37.430  1.00  0.00     0.020 A 
ATOM     85  C   UNL A   1      47.029  28.843  36.537  1.00  0.00     0.020 A 
ATOM     86  C   UNL A   1      46.856  27.697  37.314  1.00  0.00     0.054 A 
BRANCH  86  87
ATOM     87  S   UNL A   1      48.274  26.944  38.160  1.00  0.00     0.124 S 
ATOM     88  O   UNL A   1      49.384  27.333  37.297  1.00  0.00    -0.237 OA
ATOM     89  O   UNL A   1      48.237  27.585  39.472  1.00  0.00    -0.237 OA
ATOM     90  O   UNL A   1      47.952  25.518  38.163  1.00  0.00    -0.744 OA
ENDBRANCH  86  87
ENDBRANCH  58  81
BRANCH  70  91
ATOM     91  C   UNL A   1      39.901  33.630  37.612  1.00  0.00    -0.014 A 
ATOM     92  C   UNL A   1      40.464  34.906  37.790  1.00  0.00     0.010 A 
ATOM     93  C   UNL A   1      39.063  33.104  38.612  1.00  0.00     0.010 A 
ATOM     94  C   UNL A   1      40.227  35.624  38.966  1.00  0.00     0.020 A 
ATOM     95  C   UNL A   1      38.798  33.832  39.775  1.00  0.00     0.020 A 
ATOM     96  C   UNL A   1      39.397  35.081  39.952  1.00  0.00     0.054 A 
BRANCH  96  97
ATOM     97  S   UNL A   1      39.082  36.043  41.456  1.00  0.00     0.124 S 
ATOM     98  O   UNL A   1      39.003  37.405  40.936  1.00  0.00    -0.237 OA
ATOM     99  O   UNL A   1      37.823  35.480  41.939  1.00  0.00    -0.237 OA
ATOM    100  O   UNL A   1      40.245  35.764  42.296  1.00  0.00    -0.744 OA
ENDBRANCH  96  97
ENDBRANCH  70  91
ENDBRANCH  44  45
ENDBRANCH  37  39
ENDBRANCH  36  37
ENDBRANCH  35  36
ENDBRANCH   1  35
TORSDOF 18
ENDMDL
