MODEL 1
REMARK VINA RESULT:     -11.7      0.000      0.000
REMARK SMILES Cc1ccccc1CNc1ccc(C(=O)OCCOC(=O)c2ccc(-c3c4nc(c(-c5ccc(S(=O)(=O)[O-])cc5)c5ccc([nH]5)c(-c5ccc(S(=O)(=O)[O-])cc5)c5nc(c(-c6ccc(S(=O)(=O)[O-])cc6)c6ccc3[nH]6)C=C5)C=C4)cc2)c(F)c1F
REMARK SMILES IDX 17 1 16 2 14 3 15 4 13 5 10 6 11 7 84 8 12 9 82 10 85 11
REMARK SMILES IDX 83 12 9 13 8 15 7 16 1 17 2 18 3 19 4 20 6 21 5 22 18 23
REMARK SMILES IDX 19 24 20 25 21 26 22 27 23 28 81 29 24 30 80 31 25 32 26 33
REMARK SMILES IDX 27 34 74 35 28 36 79 37 73 38 75 39 29 40 78 41 72 42 71 43
REMARK SMILES IDX 30 45 60 46 41 47 59 48 42 49 45 50 58 51 76 52 43 53 44 54
REMARK SMILES IDX 57 56 77 57 46 58 31 59 32 60 40 61 33 62 39 63 34 64 35 65
REMARK SMILES IDX 36 66 37 67 38 68 61 69 62 70 70 71 63 72 69 73 64 74 65 75
REMARK SMILES IDX 66 76 67 77 68 78 47 79 48 80 56 81 49 82 55 83 50 84 51 85
REMARK SMILES IDX 52 86 53 87 54 88
REMARK H PARENT 9 14 75 44 45 55
REMARK Flexibility Score: inf
ROOT
ATOM      1  C   UNL A   1      39.754  21.225  26.394  1.00  0.00     0.275 C 
ENDROOT
BRANCH   1   2
ATOM      2  O   UNL A   1      39.063  21.588  25.184  1.00  0.00    -0.458 OA
BRANCH   2   3
ATOM      3  C   UNL A   1      37.861  20.980  25.069  1.00  0.00     0.341 C 
ATOM      4  O   UNL A   1      37.678  19.770  24.994  1.00  0.00    -0.246 OA
BRANCH   3   5
ATOM      5  C   UNL A   1      36.742  21.900  24.825  1.00  0.00     0.099 A 
ATOM      6  C   UNL A   1      34.475  23.295  23.913  1.00  0.00     0.074 A 
ATOM      7  C   UNL A   1      35.662  23.311  23.174  1.00  0.00     0.030 A 
ATOM      8  C   UNL A   1      34.475  22.641  25.154  1.00  0.00     0.182 A 
ATOM      9  C   UNL A   1      36.780  22.605  23.616  1.00  0.00     0.021 A 
ATOM     10  C   UNL A   1      35.601  21.959  25.614  1.00  0.00     0.175 A 
ATOM     11  F   UNL A   1      33.336  22.602  25.866  1.00  0.00    -0.201 F 
ATOM     12  F   UNL A   1      35.530  21.323  26.783  1.00  0.00    -0.203 F 
BRANCH   6  13
ATOM     13  N   UNL A   1      33.282  23.790  23.374  1.00  0.00    -0.379 N 
ATOM     14  H   UNL A   1      32.461  23.248  23.343  1.00  0.00     0.161 HD
BRANCH  13  15
ATOM     15  C   UNL A   1      33.324  25.153  22.863  1.00  0.00     0.149 C 
BRANCH  15  16
ATOM     16  C   UNL A   1      32.886  26.127  23.933  1.00  0.00    -0.026 A 
ATOM     17  C   UNL A   1      30.971  27.084  22.526  1.00  0.00     0.044 C 
ATOM     18  C   UNL A   1      31.796  27.005  23.781  1.00  0.00    -0.046 A 
ATOM     19  C   UNL A   1      31.424  27.821  24.864  1.00  0.00     0.004 A 
ATOM     20  C   UNL A   1      32.146  27.807  26.058  1.00  0.00     0.000 A 
ATOM     21  C   UNL A   1      33.625  26.151  25.133  1.00  0.00     0.006 A 
ATOM     22  C   UNL A   1      33.256  26.983  26.188  1.00  0.00     0.000 A 
ENDBRANCH  15  16
ENDBRANCH  13  15
ENDBRANCH   6  13
ENDBRANCH   3   5
ENDBRANCH   2   3
ENDBRANCH   1   2
BRANCH   1  23
ATOM     23  C   UNL A   1      40.010  22.425  27.325  1.00  0.00     0.275 C 
BRANCH  23  24
ATOM     24  O   UNL A   1      40.400  23.680  26.729  1.00  0.00    -0.458 OA
BRANCH  24  25
ATOM     25  C   UNL A   1      39.427  24.629  26.623  1.00  0.00     0.338 C 
ATOM     26  O   UNL A   1      38.321  24.405  26.177  1.00  0.00    -0.246 OA
BRANCH  25  27
ATOM     27  C   UNL A   1      39.860  25.810  27.427  1.00  0.00     0.060 A 
ATOM     28  C   UNL A   1      40.491  26.892  26.801  1.00  0.00     0.016 A 
ATOM     29  C   UNL A   1      39.341  25.947  28.718  1.00  0.00     0.016 A 
ATOM     30  C   UNL A   1      40.489  28.148  27.404  1.00  0.00     0.010 A 
ATOM     31  C   UNL A   1      39.226  27.198  29.259  1.00  0.00     0.010 A 
ATOM     32  C   UNL A   1      39.826  28.291  28.619  1.00  0.00    -0.014 A 
BRANCH  32  33
ATOM     33  C   UNL A   1      39.974  29.427  29.511  1.00  0.00     0.031 A 
ATOM     34  C   UNL A   1      39.111  30.615  29.447  1.00  0.00     0.074 A 
ATOM     35  C   UNL A   1      40.800  29.125  30.539  1.00  0.00     0.049 A 
ATOM     36  N   UNL A   1      39.332  31.694  30.111  1.00  0.00    -0.248 NA
ATOM     37  C   UNL A   1      37.919  30.711  28.608  1.00  0.00     0.031 C 
ATOM     38  C   UNL A   1      40.964  29.753  31.835  1.00  0.00     0.029 A 
ATOM     39  N   UNL A   1      41.826  28.166  30.504  1.00  0.00    -0.354 N 
ATOM     40  C   UNL A   1      38.181  32.456  30.066  1.00  0.00     0.074 A 
ATOM     41  C   UNL A   1      37.383  31.868  29.022  1.00  0.00     0.031 C 
ATOM     42  C   UNL A   1      42.187  29.428  32.299  1.00  0.00     0.029 A 
ATOM     43  C   UNL A   1      42.877  28.716  31.225  1.00  0.00     0.049 A 
ATOM     44  H   UNL A   1      41.803  27.287  30.061  1.00  0.00     0.167 HD
ATOM     45  C   UNL A   1      37.979  33.383  31.048  1.00  0.00     0.031 A 
ATOM     46  C   UNL A   1      43.996  29.149  30.570  1.00  0.00     0.031 A 
ATOM     47  C   UNL A   1      39.169  33.472  31.894  1.00  0.00     0.049 A 
ATOM     48  C   UNL A   1      44.133  30.643  30.751  1.00  0.00     0.074 A 
ATOM     49  C   UNL A   1      39.483  32.897  33.114  1.00  0.00     0.029 A 
ATOM     50  N   UNL A   1      40.370  33.891  31.328  1.00  0.00    -0.354 N 
ATOM     51  N   UNL A   1      43.129  31.476  30.845  1.00  0.00    -0.248 NA
ATOM     52  C   UNL A   1      45.425  31.277  30.971  1.00  0.00     0.031 C 
ATOM     53  C   UNL A   1      40.901  32.852  33.213  1.00  0.00     0.029 A 
ATOM     54  C   UNL A   1      41.438  33.423  32.068  1.00  0.00     0.049 A 
ATOM     55  H   UNL A   1      40.446  34.442  30.516  1.00  0.00     0.167 HD
ATOM     56  C   UNL A   1      43.601  32.689  31.275  1.00  0.00     0.074 A 
ATOM     57  C   UNL A   1      45.047  32.525  31.294  1.00  0.00     0.031 C 
ATOM     58  C   UNL A   1      42.804  33.730  31.667  1.00  0.00     0.031 A 
BRANCH  45  59
ATOM     59  C   UNL A   1      36.641  33.981  31.442  1.00  0.00    -0.014 A 
ATOM     60  C   UNL A   1      35.571  33.918  30.519  1.00  0.00     0.010 A 
ATOM     61  C   UNL A   1      36.373  34.665  32.644  1.00  0.00     0.010 A 
ATOM     62  C   UNL A   1      34.338  34.551  30.746  1.00  0.00     0.020 A 
ATOM     63  C   UNL A   1      35.143  35.312  32.882  1.00  0.00     0.020 A 
ATOM     64  C   UNL A   1      34.135  35.260  31.924  1.00  0.00     0.054 A 
BRANCH  64  65
ATOM     65  S   UNL A   1      32.546  36.096  32.183  1.00  0.00     0.124 S 
ATOM     66  O   UNL A   1      32.287  36.691  30.875  1.00  0.00    -0.237 OA
ATOM     67  O   UNL A   1      31.667  34.993  32.558  1.00  0.00    -0.237 OA
ATOM     68  O   UNL A   1      32.827  37.053  33.251  1.00  0.00    -0.744 OA
ENDBRANCH  64  65
ENDBRANCH  45  59
BRANCH  46  69
ATOM     69  C   UNL A   1      44.370  28.359  29.347  1.00  0.00    -0.014 A 
ATOM     70  C   UNL A   1      44.107  26.968  29.369  1.00  0.00     0.010 A 
ATOM     71  C   UNL A   1      44.634  28.957  28.100  1.00  0.00     0.010 A 
ATOM     72  C   UNL A   1      43.984  26.227  28.189  1.00  0.00     0.020 A 
ATOM     73  C   UNL A   1      44.531  28.207  26.908  1.00  0.00     0.020 A 
ATOM     74  C   UNL A   1      44.165  26.858  26.961  1.00  0.00     0.054 A 
BRANCH  74  75
ATOM     75  S   UNL A   1      43.714  25.931  25.458  1.00  0.00     0.124 S 
ATOM     76  O   UNL A   1      42.806  26.854  24.784  1.00  0.00    -0.237 OA
ATOM     77  O   UNL A   1      45.017  25.752  24.819  1.00  0.00    -0.237 OA
ATOM     78  O   UNL A   1      43.100  24.717  25.985  1.00  0.00    -0.744 OA
ENDBRANCH  74  75
ENDBRANCH  46  69
BRANCH  58  79
ATOM     79  C   UNL A   1      43.266  35.158  31.828  1.00  0.00    -0.014 A 
ATOM     80  C   UNL A   1      43.694  35.960  30.762  1.00  0.00     0.010 A 
ATOM     81  C   UNL A   1      43.122  35.791  33.089  1.00  0.00     0.010 A 
ATOM     82  C   UNL A   1      44.041  37.300  30.954  1.00  0.00     0.020 A 
ATOM     83  C   UNL A   1      43.403  37.144  33.279  1.00  0.00     0.020 A 
ATOM     84  C   UNL A   1      43.894  37.883  32.213  1.00  0.00     0.054 A 
BRANCH  84  85
ATOM     85  S   UNL A   1      44.292  39.631  32.427  1.00  0.00     0.124 S 
ATOM     86  O   UNL A   1      45.593  39.722  31.771  1.00  0.00    -0.237 OA
ATOM     87  O   UNL A   1      43.193  40.302  31.736  1.00  0.00    -0.237 OA
ATOM     88  O   UNL A   1      44.305  39.807  33.877  1.00  0.00    -0.744 OA
ENDBRANCH  84  85
ENDBRANCH  58  79
ENDBRANCH  32  33
ENDBRANCH  25  27
ENDBRANCH  24  25
ENDBRANCH  23  24
ENDBRANCH   1  23
TORSDOF 17
ENDMDL
MODEL 2
REMARK VINA RESULT:     -11.4      5.404     12.714
REMARK SMILES Cc1ccccc1CNc1ccc(C(=O)OCCOC(=O)c2ccc(-c3c4nc(c(-c5ccc(S(=O)(=O)[O-])cc5)c5ccc([nH]5)c(-c5ccc(S(=O)(=O)[O-])cc5)c5nc(c(-c6ccc(S(=O)(=O)[O-])cc6)c6ccc3[nH]6)C=C5)C=C4)cc2)c(F)c1F
REMARK SMILES IDX 17 1 16 2 14 3 15 4 13 5 10 6 11 7 84 8 12 9 82 10 85 11
REMARK SMILES IDX 83 12 9 13 8 15 7 16 1 17 2 18 3 19 4 20 6 21 5 22 18 23
REMARK SMILES IDX 19 24 20 25 21 26 22 27 23 28 81 29 24 30 80 31 25 32 26 33
REMARK SMILES IDX 27 34 74 35 28 36 79 37 73 38 75 39 29 40 78 41 72 42 71 43
REMARK SMILES IDX 30 45 60 46 41 47 59 48 42 49 45 50 58 51 76 52 43 53 44 54
REMARK SMILES IDX 57 56 77 57 46 58 31 59 32 60 40 61 33 62 39 63 34 64 35 65
REMARK SMILES IDX 36 66 37 67 38 68 61 69 62 70 70 71 63 72 69 73 64 74 65 75
REMARK SMILES IDX 66 76 67 77 68 78 47 79 48 80 56 81 49 82 55 83 50 84 51 85
REMARK SMILES IDX 52 86 53 87 54 88
REMARK H PARENT 9 14 75 44 45 55
REMARK Flexibility Score: inf
ROOT
ATOM      1  C   UNL A   1      35.867  33.404  29.952  1.00  0.00     0.275 C 
ENDROOT
BRANCH   1   2
ATOM      2  O   UNL A   1      36.984  33.858  30.739  1.00  0.00    -0.458 OA
BRANCH   2   3
ATOM      3  C   UNL A   1      37.705  32.839  31.257  1.00  0.00     0.341 C 
ATOM      4  O   UNL A   1      37.259  31.928  31.946  1.00  0.00    -0.246 OA
BRANCH   3   5
ATOM      5  C   UNL A   1      39.159  32.993  31.110  1.00  0.00     0.099 A 
ATOM      6  C   UNL A   1      41.811  33.397  30.264  1.00  0.00     0.074 A 
ATOM      7  C   UNL A   1      41.118  32.242  29.894  1.00  0.00     0.030 A 
ATOM      8  C   UNL A   1      41.180  34.300  31.133  1.00  0.00     0.182 A 
ATOM      9  C   UNL A   1      39.798  32.049  30.298  1.00  0.00     0.021 A 
ATOM     10  C   UNL A   1      39.870  34.096  31.564  1.00  0.00     0.175 A 
ATOM     11  F   UNL A   1      41.829  35.425  31.481  1.00  0.00    -0.201 F 
ATOM     12  F   UNL A   1      39.309  35.007  32.358  1.00  0.00    -0.203 F 
BRANCH   6  13
ATOM     13  N   UNL A   1      43.040  33.722  29.676  1.00  0.00    -0.379 N 
ATOM     14  H   UNL A   1      43.893  33.389  30.037  1.00  0.00     0.161 HD
BRANCH  13  15
ATOM     15  C   UNL A   1      42.983  34.579  28.499  1.00  0.00     0.149 C 
BRANCH  15  16
ATOM     16  C   UNL A   1      44.357  34.716  27.886  1.00  0.00    -0.026 A 
ATOM     17  C   UNL A   1      43.490  34.574  25.480  1.00  0.00     0.044 C 
ATOM     18  C   UNL A   1      44.587  34.726  26.497  1.00  0.00    -0.046 A 
ATOM     19  C   UNL A   1      45.897  34.932  26.026  1.00  0.00     0.004 A 
ATOM     20  C   UNL A   1      46.967  35.074  26.910  1.00  0.00     0.000 A 
ATOM     21  C   UNL A   1      45.455  34.826  28.764  1.00  0.00     0.006 A 
ATOM     22  C   UNL A   1      46.748  35.007  28.280  1.00  0.00     0.000 A 
ENDBRANCH  15  16
ENDBRANCH  13  15
ENDBRANCH   6  13
ENDBRANCH   3   5
ENDBRANCH   2   3
ENDBRANCH   1   2
BRANCH   1  23
ATOM     23  C   UNL A   1      36.284  32.867  28.570  1.00  0.00     0.275 C 
BRANCH  23  24
ATOM     24  O   UNL A   1      37.231  31.779  28.516  1.00  0.00    -0.458 OA
BRANCH  24  25
ATOM     25  C   UNL A   1      36.707  30.523  28.443  1.00  0.00     0.338 C 
ATOM     26  O   UNL A   1      35.553  30.296  28.144  1.00  0.00    -0.246 OA
BRANCH  25  27
ATOM     27  C   UNL A   1      37.846  29.559  28.464  1.00  0.00     0.060 A 
ATOM     28  C   UNL A   1      38.866  29.656  27.509  1.00  0.00     0.016 A 
ATOM     29  C   UNL A   1      38.033  28.792  29.619  1.00  0.00     0.016 A 
ATOM     30  C   UNL A   1      40.118  29.101  27.763  1.00  0.00     0.010 A 
ATOM     31  C   UNL A   1      39.290  28.353  29.930  1.00  0.00     0.010 A 
ATOM     32  C   UNL A   1      40.323  28.479  28.991  1.00  0.00    -0.014 A 
BRANCH  32  33
ATOM     33  C   UNL A   1      41.443  27.608  29.298  1.00  0.00     0.031 A 
ATOM     34  C   UNL A   1      41.501  26.198  28.885  1.00  0.00     0.074 A 
ATOM     35  C   UNL A   1      42.497  28.324  29.752  1.00  0.00     0.049 A 
ATOM     36  N   UNL A   1      42.401  25.372  29.289  1.00  0.00    -0.248 NA
ATOM     37  C   UNL A   1      40.533  25.573  27.987  1.00  0.00     0.031 C 
ATOM     38  C   UNL A   1      43.905  27.989  29.830  1.00  0.00     0.029 A 
ATOM     39  N   UNL A   1      42.416  29.564  30.408  1.00  0.00    -0.354 N 
ATOM     40  C   UNL A   1      42.345  24.260  28.471  1.00  0.00     0.074 A 
ATOM     41  C   UNL A   1      41.094  24.376  27.766  1.00  0.00     0.031 C 
ATOM     42  C   UNL A   1      44.468  28.783  30.763  1.00  0.00     0.029 A 
ATOM     43  C   UNL A   1      43.383  29.524  31.403  1.00  0.00     0.049 A 
ATOM     44  H   UNL A   1      41.801  30.306  30.204  1.00  0.00     0.167 HD
ATOM     45  C   UNL A   1      43.457  23.476  28.369  1.00  0.00     0.031 A 
ATOM     46  C   UNL A   1      43.006  29.416  32.713  1.00  0.00     0.031 A 
ATOM     47  C   UNL A   1      44.470  23.930  29.322  1.00  0.00     0.049 A 
ATOM     48  C   UNL A   1      43.513  28.106  33.270  1.00  0.00     0.074 A 
ATOM     49  C   UNL A   1      45.577  24.750  29.176  1.00  0.00     0.029 A 
ATOM     50  N   UNL A   1      44.189  23.875  30.684  1.00  0.00    -0.354 N 
ATOM     51  N   UNL A   1      43.627  27.000  32.582  1.00  0.00    -0.248 NA
ATOM     52  C   UNL A   1      44.049  27.999  34.620  1.00  0.00     0.031 C 
ATOM     53  C   UNL A   1      45.873  25.298  30.454  1.00  0.00     0.029 A 
ATOM     54  C   UNL A   1      44.965  24.788  31.371  1.00  0.00     0.049 A 
ATOM     55  H   UNL A   1      43.529  23.273  31.098  1.00  0.00     0.167 HD
ATOM     56  C   UNL A   1      44.366  26.102  33.310  1.00  0.00     0.074 A 
ATOM     57  C   UNL A   1      44.565  26.759  34.594  1.00  0.00     0.031 C 
ATOM     58  C   UNL A   1      44.844  24.919  32.816  1.00  0.00     0.031 A 
BRANCH  45  59
ATOM     59  C   UNL A   1      43.764  22.514  27.235  1.00  0.00    -0.014 A 
ATOM     60  C   UNL A   1      42.908  21.407  27.033  1.00  0.00     0.010 A 
ATOM     61  C   UNL A   1      44.882  22.587  26.382  1.00  0.00     0.010 A 
ATOM     62  C   UNL A   1      43.181  20.401  26.092  1.00  0.00     0.020 A 
ATOM     63  C   UNL A   1      45.173  21.581  25.438  1.00  0.00     0.020 A 
ATOM     64  C   UNL A   1      44.324  20.486  25.307  1.00  0.00     0.054 A 
BRANCH  64  65
ATOM     65  S   UNL A   1      44.674  19.161  24.118  1.00  0.00     0.124 S 
ATOM     66  O   UNL A   1      44.418  19.813  22.836  1.00  0.00    -0.237 OA
ATOM     67  O   UNL A   1      46.072  18.848  24.397  1.00  0.00    -0.237 OA
ATOM     68  O   UNL A   1      43.722  18.111  24.477  1.00  0.00    -0.744 OA
ENDBRANCH  64  65
ENDBRANCH  45  59
BRANCH  46  69
ATOM     69  C   UNL A   1      41.715  30.099  33.068  1.00  0.00    -0.014 A 
ATOM     70  C   UNL A   1      40.599  29.271  33.342  1.00  0.00     0.010 A 
ATOM     71  C   UNL A   1      41.646  31.446  33.468  1.00  0.00     0.010 A 
ATOM     72  C   UNL A   1      39.514  29.730  34.096  1.00  0.00     0.020 A 
ATOM     73  C   UNL A   1      40.543  31.919  34.211  1.00  0.00     0.020 A 
ATOM     74  C   UNL A   1      39.506  31.045  34.555  1.00  0.00     0.054 A 
BRANCH  74  75
ATOM     75  S   UNL A   1      38.225  31.511  35.766  1.00  0.00     0.124 S 
ATOM     76  O   UNL A   1      37.097  31.857  34.906  1.00  0.00    -0.237 OA
ATOM     77  O   UNL A   1      38.076  30.274  36.530  1.00  0.00    -0.237 OA
ATOM     78  O   UNL A   1      38.833  32.626  36.484  1.00  0.00    -0.744 OA
ENDBRANCH  74  75
ENDBRANCH  46  69
BRANCH  58  79
ATOM     79  C   UNL A   1      45.365  23.780  33.659  1.00  0.00    -0.014 A 
ATOM     80  C   UNL A   1      46.699  23.671  34.076  1.00  0.00     0.010 A 
ATOM     81  C   UNL A   1      44.447  22.844  34.196  1.00  0.00     0.010 A 
ATOM     82  C   UNL A   1      47.114  22.636  34.918  1.00  0.00     0.020 A 
ATOM     83  C   UNL A   1      44.837  21.845  35.089  1.00  0.00     0.020 A 
ATOM     84  C   UNL A   1      46.179  21.728  35.418  1.00  0.00     0.054 A 
BRANCH  84  85
ATOM     85  S   UNL A   1      46.727  20.433  36.551  1.00  0.00     0.124 S 
ATOM     86  O   UNL A   1      46.444  19.226  35.781  1.00  0.00    -0.237 OA
ATOM     87  O   UNL A   1      48.144  20.741  36.735  1.00  0.00    -0.237 OA
ATOM     88  O   UNL A   1      45.895  20.635  37.734  1.00  0.00    -0.744 OA
ENDBRANCH  84  85
ENDBRANCH  58  79
ENDBRANCH  32  33
ENDBRANCH  25  27
ENDBRANCH  24  25
ENDBRANCH  23  24
ENDBRANCH   1  23
TORSDOF 17
ENDMDL
MODEL 3
REMARK VINA RESULT:     -11.4      4.134      6.077
REMARK SMILES Cc1ccccc1CNc1ccc(C(=O)OCCOC(=O)c2ccc(-c3c4nc(c(-c5ccc(S(=O)(=O)[O-])cc5)c5ccc([nH]5)c(-c5ccc(S(=O)(=O)[O-])cc5)c5nc(c(-c6ccc(S(=O)(=O)[O-])cc6)c6ccc3[nH]6)C=C5)C=C4)cc2)c(F)c1F
REMARK SMILES IDX 17 1 16 2 14 3 15 4 13 5 10 6 11 7 84 8 12 9 82 10 85 11
REMARK SMILES IDX 83 12 9 13 8 15 7 16 1 17 2 18 3 19 4 20 6 21 5 22 18 23
REMARK SMILES IDX 19 24 20 25 21 26 22 27 23 28 81 29 24 30 80 31 25 32 26 33
REMARK SMILES IDX 27 34 74 35 28 36 79 37 73 38 75 39 29 40 78 41 72 42 71 43
REMARK SMILES IDX 30 45 60 46 41 47 59 48 42 49 45 50 58 51 76 52 43 53 44 54
REMARK SMILES IDX 57 56 77 57 46 58 31 59 32 60 40 61 33 62 39 63 34 64 35 65
REMARK SMILES IDX 36 66 37 67 38 68 61 69 62 70 70 71 63 72 69 73 64 74 65 75
REMARK SMILES IDX 66 76 67 77 68 78 47 79 48 80 56 81 49 82 55 83 50 84 51 85
REMARK SMILES IDX 52 86 53 87 54 88
REMARK H PARENT 9 14 75 44 45 55
REMARK Flexibility Score: inf
ROOT
ATOM      1  C   UNL A   1      42.381  22.032  26.655  1.00  0.00     0.275 C 
ENDROOT
BRANCH   1   2
ATOM      2  O   UNL A   1      43.705  22.474  26.301  1.00  0.00    -0.458 OA
BRANCH   2   3
ATOM      3  C   UNL A   1      43.740  23.116  25.112  1.00  0.00     0.341 C 
ATOM      4  O   UNL A   1      43.369  22.651  24.040  1.00  0.00    -0.246 OA
BRANCH   3   5
ATOM      5  C   UNL A   1      44.468  24.392  25.138  1.00  0.00     0.099 A 
ATOM      6  C   UNL A   1      45.720  26.832  25.761  1.00  0.00     0.074 A 
ATOM      7  C   UNL A   1      44.326  26.740  25.726  1.00  0.00     0.030 A 
ATOM      8  C   UNL A   1      46.470  25.704  25.395  1.00  0.00     0.182 A 
ATOM      9  C   UNL A   1      43.705  25.527  25.435  1.00  0.00     0.021 A 
ATOM     10  C   UNL A   1      45.851  24.496  25.073  1.00  0.00     0.175 A 
ATOM     11  F   UNL A   1      47.811  25.773  25.443  1.00  0.00    -0.201 F 
ATOM     12  F   UNL A   1      46.614  23.447  24.771  1.00  0.00    -0.203 F 
BRANCH   6  13
ATOM     13  N   UNL A   1      46.357  27.965  26.282  1.00  0.00    -0.379 N 
ATOM     14  H   UNL A   1      47.111  27.895  26.911  1.00  0.00     0.161 HD
BRANCH  13  15
ATOM     15  C   UNL A   1      45.840  29.253  25.840  1.00  0.00     0.149 C 
BRANCH  15  16
ATOM     16  C   UNL A   1      45.472  30.107  27.032  1.00  0.00    -0.026 A 
ATOM     17  C   UNL A   1      42.952  29.844  26.665  1.00  0.00     0.044 C 
ATOM     18  C   UNL A   1      44.144  30.367  27.417  1.00  0.00    -0.046 A 
ATOM     19  C   UNL A   1      43.908  31.114  28.585  1.00  0.00     0.004 A 
ATOM     20  C   UNL A   1      44.965  31.638  29.331  1.00  0.00     0.000 A 
ATOM     21  C   UNL A   1      46.527  30.673  27.778  1.00  0.00     0.006 A 
ATOM     22  C   UNL A   1      46.274  31.430  28.919  1.00  0.00     0.000 A 
ENDBRANCH  15  16
ENDBRANCH  13  15
ENDBRANCH   6  13
ENDBRANCH   3   5
ENDBRANCH   2   3
ENDBRANCH   1   2
BRANCH   1  23
ATOM     23  C   UNL A   1      41.790  22.799  27.852  1.00  0.00     0.275 C 
BRANCH  23  24
ATOM     24  O   UNL A   1      41.600  24.224  27.724  1.00  0.00    -0.458 OA
BRANCH  24  25
ATOM     25  C   UNL A   1      40.360  24.639  27.340  1.00  0.00     0.338 C 
ATOM     26  O   UNL A   1      39.584  23.941  26.720  1.00  0.00    -0.246 OA
BRANCH  25  27
ATOM     27  C   UNL A   1      40.055  25.896  28.085  1.00  0.00     0.060 A 
ATOM     28  C   UNL A   1      38.994  25.930  28.999  1.00  0.00     0.016 A 
ATOM     29  C   UNL A   1      41.024  26.903  28.092  1.00  0.00     0.016 A 
ATOM     30  C   UNL A   1      38.969  26.891  30.007  1.00  0.00     0.010 A 
ATOM     31  C   UNL A   1      41.073  27.772  29.148  1.00  0.00     0.010 A 
ATOM     32  C   UNL A   1      40.032  27.787  30.085  1.00  0.00    -0.014 A 
BRANCH  32  33
ATOM     33  C   UNL A   1      40.024  29.010  30.867  1.00  0.00     0.031 A 
ATOM     34  C   UNL A   1      39.264  30.207  30.476  1.00  0.00     0.074 A 
ATOM     35  C   UNL A   1      40.564  28.802  32.089  1.00  0.00     0.049 A 
ATOM     36  N   UNL A   1      39.378  31.346  31.062  1.00  0.00    -0.248 NA
ATOM     37  C   UNL A   1      38.313  30.242  29.368  1.00  0.00     0.031 C 
ATOM     38  C   UNL A   1      40.448  29.565  33.316  1.00  0.00     0.029 A 
ATOM     39  N   UNL A   1      41.516  27.817  32.401  1.00  0.00    -0.354 N 
ATOM     40  C   UNL A   1      38.312  32.130  30.663  1.00  0.00     0.074 A 
ATOM     41  C   UNL A   1      37.756  31.451  29.521  1.00  0.00     0.031 C 
ATOM     42  C   UNL A   1      41.507  29.260  34.093  1.00  0.00     0.029 A 
ATOM     43  C   UNL A   1      42.394  28.415  33.296  1.00  0.00     0.049 A 
ATOM     44  H   UNL A   1      41.553  26.895  32.057  1.00  0.00     0.167 HD
ATOM     45  C   UNL A   1      37.932  33.164  31.468  1.00  0.00     0.031 A 
ATOM     46  C   UNL A   1      43.657  28.743  32.891  1.00  0.00     0.031 A 
ATOM     47  C   UNL A   1      38.890  33.314  32.563  1.00  0.00     0.049 A 
ATOM     48  C   UNL A   1      43.826  30.243  32.948  1.00  0.00     0.074 A 
ATOM     49  C   UNL A   1      38.874  32.870  33.875  1.00  0.00     0.029 A 
ATOM     50  N   UNL A   1      40.211  33.636  32.266  1.00  0.00    -0.354 N 
ATOM     51  N   UNL A   1      42.874  31.108  32.711  1.00  0.00    -0.248 NA
ATOM     52  C   UNL A   1      45.060  30.862  33.409  1.00  0.00     0.031 C 
ATOM     53  C   UNL A   1      40.223  32.797  34.318  1.00  0.00     0.029 A 
ATOM     54  C   UNL A   1      41.047  33.224  33.286  1.00  0.00     0.049 A 
ATOM     55  H   UNL A   1      40.507  34.091  31.445  1.00  0.00     0.167 HD
ATOM     56  C   UNL A   1      43.294  32.348  33.118  1.00  0.00     0.074 A 
ATOM     57  C   UNL A   1      44.684  32.148  33.503  1.00  0.00     0.031 C 
ATOM     58  C   UNL A   1      42.483  33.447  33.199  1.00  0.00     0.031 A 
BRANCH  45  59
ATOM     59  C   UNL A   1      36.572  33.839  31.463  1.00  0.00    -0.014 A 
ATOM     60  C   UNL A   1      35.808  33.818  30.273  1.00  0.00     0.010 A 
ATOM     61  C   UNL A   1      36.011  34.554  32.539  1.00  0.00     0.010 A 
ATOM     62  C   UNL A   1      34.599  34.519  30.138  1.00  0.00     0.020 A 
ATOM     63  C   UNL A   1      34.802  35.269  32.416  1.00  0.00     0.020 A 
ATOM     64  C   UNL A   1      34.108  35.255  31.210  1.00  0.00     0.054 A 
BRANCH  64  65
ATOM     65  S   UNL A   1      32.559  36.178  31.005  1.00  0.00     0.124 S 
ATOM     66  O   UNL A   1      32.231  35.934  29.602  1.00  0.00    -0.237 OA
ATOM     67  O   UNL A   1      31.679  35.538  31.977  1.00  0.00    -0.237 OA
ATOM     68  O   UNL A   1      32.931  37.556  31.321  1.00  0.00    -0.744 OA
ENDBRANCH  64  65
ENDBRANCH  45  59
BRANCH  46  69
ATOM     69  C   UNL A   1      44.270  27.812  31.881  1.00  0.00    -0.014 A 
ATOM     70  C   UNL A   1      44.654  28.369  30.637  1.00  0.00     0.010 A 
ATOM     71  C   UNL A   1      44.781  26.545  32.218  1.00  0.00     0.010 A 
ATOM     72  C   UNL A   1      45.608  27.751  29.821  1.00  0.00     0.020 A 
ATOM     73  C   UNL A   1      45.728  25.908  31.387  1.00  0.00     0.020 A 
ATOM     74  C   UNL A   1      46.165  26.538  30.217  1.00  0.00     0.054 A 
BRANCH  74  75
ATOM     75  S   UNL A   1      47.599  25.918  29.277  1.00  0.00     0.124 S 
ATOM     76  O   UNL A   1      48.537  25.566  30.339  1.00  0.00    -0.237 OA
ATOM     77  O   UNL A   1      47.014  24.790  28.555  1.00  0.00    -0.237 OA
ATOM     78  O   UNL A   1      47.980  27.062  28.455  1.00  0.00    -0.744 OA
ENDBRANCH  74  75
ENDBRANCH  46  69
BRANCH  58  79
ATOM     79  C   UNL A   1      42.968  34.871  33.322  1.00  0.00    -0.014 A 
ATOM     80  C   UNL A   1      43.799  35.492  32.380  1.00  0.00     0.010 A 
ATOM     81  C   UNL A   1      42.445  35.691  34.354  1.00  0.00     0.010 A 
ATOM     82  C   UNL A   1      44.159  36.837  32.503  1.00  0.00     0.020 A 
ATOM     83  C   UNL A   1      42.745  37.049  34.450  1.00  0.00     0.020 A 
ATOM     84  C   UNL A   1      43.630  37.607  33.539  1.00  0.00     0.054 A 
BRANCH  84  85
ATOM     85  S   UNL A   1      44.063  39.357  33.646  1.00  0.00     0.124 S 
ATOM     86  O   UNL A   1      44.108  39.564  35.090  1.00  0.00    -0.237 OA
ATOM     87  O   UNL A   1      45.354  39.415  32.963  1.00  0.00    -0.237 OA
ATOM     88  O   UNL A   1      42.968  40.025  32.947  1.00  0.00    -0.744 OA
ENDBRANCH  84  85
ENDBRANCH  58  79
ENDBRANCH  32  33
ENDBRANCH  25  27
ENDBRANCH  24  25
ENDBRANCH  23  24
ENDBRANCH   1  23
TORSDOF 17
ENDMDL
