MODEL 1
REMARK VINA RESULT:     -11.1      0.000      0.000
REMARK SMILES O=C(OCCOC(=O)c1ccc(-c2c3nc(c(-c4ccc(S(=O)(=O)[O-])cc4)c4ccc([nH]4)c(-c4ccc(S(=O)(=O)[O-])cc4)c4nc(c(-c5ccc(S(=O)(=O)[O-])cc5)c5ccc2[nH]5)C=C4)C=C3)cc1)C1=Cc2cc(S(F)(F)(F)(F)F)cc(Br)c2O[C@@H]1C(F)(F)F
REMARK SMILES IDX 5 1 4 2 3 3 2 4 1 5 69 6 70 7 85 8 71 9 84 10 72 11 83 12
REMARK SMILES IDX 73 13 81 14 80 15 82 16 86 17 87 18 88 19 89 20 74 21 75 22
REMARK SMILES IDX 76 23 77 24 78 25 79 26 6 27 7 28 8 29 9 30 10 31 68 32
REMARK SMILES IDX 11 33 67 34 12 35 13 36 14 37 61 38 15 39 66 40 60 41 62 42
REMARK SMILES IDX 16 43 65 44 59 45 58 46 17 48 47 49 28 50 46 51 29 52 32 53
REMARK SMILES IDX 45 54 63 55 30 56 31 57 44 59 64 60 33 61 18 62 19 63 27 64
REMARK SMILES IDX 20 65 26 66 21 67 22 68 23 69 24 70 25 71 48 72 49 73 57 74
REMARK SMILES IDX 50 75 56 76 51 77 52 78 53 79 54 80 55 81 34 82 35 83 43 84
REMARK SMILES IDX 36 85 42 86 37 87 38 88 39 89 40 90 41 91
REMARK H PARENT 62 47 32 58
REMARK Flexibility Score: inf
ROOT
ATOM      1  C   UNL A   1      37.033  23.470  25.887  1.00  0.00     0.275 C 
ENDROOT
BRANCH   1   2
ATOM      2  C   UNL A   1      36.479  23.508  24.472  1.00  0.00     0.275 C 
BRANCH   2   3
ATOM      3  O   UNL A   1      35.389  24.417  24.415  1.00  0.00    -0.459 OA
BRANCH   3   4
ATOM      4  C   UNL A   1      34.065  23.929  24.263  1.00  0.00     0.338 C 
ATOM      5  O   UNL A   1      33.662  23.528  23.126  1.00  0.00    -0.246 OA
BRANCH   4   6
ATOM      6  C   UNL A   1      33.128  23.888  25.460  1.00  0.00     0.087 C 
ATOM      7  C   UNL A   1      32.792  25.039  26.100  1.00  0.00     0.027 C 
ATOM      8  C   UNL A   1      32.568  22.559  25.940  1.00  0.00     0.316 C 
ATOM      9  C   UNL A   1      33.352  26.368  25.619  1.00  0.00     0.020 A 
ATOM     10  O   UNL A   1      33.071  25.557  23.403  1.00  0.00    -0.474 OA
ATOM     11  C   UNL A   1      33.764  27.330  26.527  1.00  0.00     0.036 A 
ATOM     12  C   UNL A   1      33.344  26.612  24.314  1.00  0.00     0.142 A 
ATOM     13  C   UNL A   1      33.879  28.628  25.976  1.00  0.00     0.109 A 
ATOM     14  C   UNL A   1      33.598  27.874  23.836  1.00  0.00     0.062 A 
ATOM     15  C   UNL A   1      33.954  28.888  24.682  1.00  0.00     0.044 A 
ATOM     16  Br  UNL A   1      33.449  28.229  21.914  1.00  0.00    -0.047 Br
BRANCH   8  17
ATOM     17  C   UNL A   1      31.050  22.591  25.863  1.00  0.00     0.430 C 
ATOM     18  F   UNL A   1      30.560  23.095  26.992  1.00  0.00    -0.167 F 
ATOM     19  F   UNL A   1      30.674  23.351  24.839  1.00  0.00    -0.167 F 
ATOM     20  F   UNL A   1      30.589  21.356  25.692  1.00  0.00    -0.167 F 
ENDBRANCH   8  17
BRANCH  13  21
ATOM     21  S   UNL A   1      33.923  30.029  27.120  1.00  0.00     0.310 S 
ATOM     22  F   UNL A   1      34.425  29.117  28.316  1.00  0.00    -0.094 F 
ATOM     23  F   UNL A   1      32.452  29.675  27.560  1.00  0.00    -0.094 F 
ATOM     24  F   UNL A   1      33.957  31.233  28.104  1.00  0.00    -0.094 F 
ATOM     25  F   UNL A   1      35.442  30.281  26.770  1.00  0.00    -0.094 F 
ATOM     26  F   UNL A   1      33.940  28.742  26.202  1.00  0.00    -0.094 F 
ENDBRANCH  13  21
ENDBRANCH   4   6
ENDBRANCH   3   4
ENDBRANCH   2   3
ENDBRANCH   1   2
BRANCH   1  27
ATOM     27  O   UNL A   1      38.033  22.464  25.976  1.00  0.00    -0.458 OA
BRANCH  27  28
ATOM     28  C   UNL A   1      39.357  22.811  26.354  1.00  0.00     0.338 C 
ATOM     29  O   UNL A   1      40.316  22.012  26.114  1.00  0.00    -0.246 OA
BRANCH  28  30
ATOM     30  C   UNL A   1      39.627  24.136  27.046  1.00  0.00     0.060 A 
ATOM     31  C   UNL A   1      39.369  24.315  28.395  1.00  0.00     0.016 A 
ATOM     32  C   UNL A   1      40.238  25.073  26.331  1.00  0.00     0.016 A 
ATOM     33  C   UNL A   1      39.538  25.648  28.839  1.00  0.00     0.010 A 
ATOM     34  C   UNL A   1      40.494  26.311  26.873  1.00  0.00     0.010 A 
ATOM     35  C   UNL A   1      40.211  26.576  28.184  1.00  0.00    -0.014 A 
BRANCH  35  36
ATOM     36  C   UNL A   1      40.647  27.871  28.850  1.00  0.00     0.031 A 
ATOM     37  C   UNL A   1      39.707  28.901  28.880  1.00  0.00     0.074 A 
ATOM     38  C   UNL A   1      41.960  28.010  29.267  1.00  0.00     0.049 A 
ATOM     39  N   UNL A   1      39.877  30.147  29.327  1.00  0.00    -0.248 NA
ATOM     40  C   UNL A   1      38.321  28.765  28.407  1.00  0.00     0.031 C 
ATOM     41  C   UNL A   1      42.914  26.973  29.248  1.00  0.00     0.029 A 
ATOM     42  N   UNL A   1      42.576  29.139  29.760  1.00  0.00    -0.354 N 
ATOM     43  C   UNL A   1      38.741  30.838  29.210  1.00  0.00     0.074 A 
ATOM     44  C   UNL A   1      37.726  29.960  28.611  1.00  0.00     0.031 C 
ATOM     45  C   UNL A   1      44.089  27.472  29.712  1.00  0.00     0.029 A 
ATOM     46  C   UNL A   1      43.891  28.829  30.030  1.00  0.00     0.049 A 
ATOM     47  H   UNL A   1      42.150  30.016  29.897  1.00  0.00     0.167 HD
ATOM     48  C   UNL A   1      38.512  32.163  29.581  1.00  0.00     0.031 A 
ATOM     49  C   UNL A   1      44.876  29.669  30.523  1.00  0.00     0.031 A 
ATOM     50  C   UNL A   1      39.487  32.991  30.115  1.00  0.00     0.049 A 
ATOM     51  C   UNL A   1      44.662  31.013  30.841  1.00  0.00     0.074 A 
ATOM     52  C   UNL A   1      39.271  34.327  30.502  1.00  0.00     0.029 A 
ATOM     53  N   UNL A   1      40.808  32.689  30.362  1.00  0.00    -0.354 N 
ATOM     54  N   UNL A   1      43.516  31.692  30.761  1.00  0.00    -0.248 NA
ATOM     55  C   UNL A   1      45.706  31.921  31.334  1.00  0.00     0.031 C 
ATOM     56  C   UNL A   1      40.447  34.827  30.967  1.00  0.00     0.029 A 
ATOM     57  C   UNL A   1      41.417  33.811  30.876  1.00  0.00     0.049 A 
ATOM     58  H   UNL A   1      41.241  31.820  30.198  1.00  0.00     0.167 HD
ATOM     59  C   UNL A   1      43.699  32.949  31.169  1.00  0.00     0.074 A 
ATOM     60  C   UNL A   1      45.112  33.117  31.536  1.00  0.00     0.031 C 
ATOM     61  C   UNL A   1      42.743  33.963  31.253  1.00  0.00     0.031 A 
BRANCH  48  62
ATOM     62  C   UNL A   1      37.116  32.731  29.389  1.00  0.00    -0.014 A 
ATOM     63  C   UNL A   1      36.696  33.208  28.158  1.00  0.00     0.010 A 
ATOM     64  C   UNL A   1      36.364  32.873  30.474  1.00  0.00     0.010 A 
ATOM     65  C   UNL A   1      35.588  34.084  28.229  1.00  0.00     0.020 A 
ATOM     66  C   UNL A   1      35.220  33.634  30.439  1.00  0.00     0.020 A 
ATOM     67  C   UNL A   1      34.779  34.185  29.268  1.00  0.00     0.054 A 
BRANCH  67  68
ATOM     68  S   UNL A   1      33.172  35.007  29.148  1.00  0.00     0.124 S 
ATOM     69  O   UNL A   1      32.445  34.906  30.491  1.00  0.00    -0.237 OA
ATOM     70  O   UNL A   1      33.378  36.482  28.791  1.00  0.00    -0.237 OA
ATOM     71  O   UNL A   1      32.233  34.252  27.934  1.00  0.00    -0.744 OA
ENDBRANCH  67  68
ENDBRANCH  48  62
BRANCH  49  72
ATOM     72  C   UNL A   1      46.269  29.097  30.731  1.00  0.00    -0.014 A 
ATOM     73  C   UNL A   1      46.684  28.481  31.901  1.00  0.00     0.010 A 
ATOM     74  C   UNL A   1      47.051  29.138  29.659  1.00  0.00     0.010 A 
ATOM     75  C   UNL A   1      48.068  28.188  31.934  1.00  0.00     0.020 A 
ATOM     76  C   UNL A   1      48.355  28.708  29.728  1.00  0.00     0.020 A 
ATOM     77  C   UNL A   1      48.849  28.143  30.871  1.00  0.00     0.054 A 
BRANCH  77  78
ATOM     78  S   UNL A   1      50.488  27.377  30.923  1.00  0.00     0.124 S 
ATOM     79  O   UNL A   1      50.803  26.755  29.560  1.00  0.00    -0.237 OA
ATOM     80  O   UNL A   1      51.539  28.440  31.253  1.00  0.00    -0.237 OA
ATOM     81  O   UNL A   1      50.512  26.160  32.124  1.00  0.00    -0.744 OA
ENDBRANCH  77  78
ENDBRANCH  49  72
BRANCH  61  82
ATOM     82  C   UNL A   1      43.182  35.317  31.788  1.00  0.00    -0.014 A 
ATOM     83  C   UNL A   1      43.829  36.240  30.985  1.00  0.00     0.010 A 
ATOM     84  C   UNL A   1      42.818  35.618  33.030  1.00  0.00     0.010 A 
ATOM     85  C   UNL A   1      44.310  37.372  31.684  1.00  0.00     0.020 A 
ATOM     86  C   UNL A   1      43.210  36.804  33.604  1.00  0.00     0.020 A 
ATOM     87  C   UNL A   1      43.903  37.738  32.886  1.00  0.00     0.054 A 
BRANCH  87  88
ATOM     88  S   UNL A   1      44.245  39.388  33.547  1.00  0.00     0.124 S 
ATOM     89  O   UNL A   1      44.930  39.260  34.909  1.00  0.00    -0.237 OA
ATOM     90  O   UNL A   1      45.163  40.143  32.582  1.00  0.00    -0.237 OA
ATOM     91  O   UNL A   1      42.777  40.246  33.726  1.00  0.00    -0.744 OA
ENDBRANCH  87  88
ENDBRANCH  61  82
ENDBRANCH  35  36
ENDBRANCH  28  30
ENDBRANCH  27  28
ENDBRANCH   1  27
TORSDOF 16
ENDMDL
MODEL 2
REMARK VINA RESULT:     -11.1      4.225      4.926
REMARK SMILES O=C(OCCOC(=O)c1ccc(-c2c3nc(c(-c4ccc(S(=O)(=O)[O-])cc4)c4ccc([nH]4)c(-c4ccc(S(=O)(=O)[O-])cc4)c4nc(c(-c5ccc(S(=O)(=O)[O-])cc5)c5ccc2[nH]5)C=C4)C=C3)cc1)C1=Cc2cc(S(F)(F)(F)(F)F)cc(Br)c2O[C@@H]1C(F)(F)F
REMARK SMILES IDX 5 1 4 2 3 3 2 4 1 5 69 6 70 7 85 8 71 9 84 10 72 11 83 12
REMARK SMILES IDX 73 13 81 14 80 15 82 16 86 17 87 18 88 19 89 20 74 21 75 22
REMARK SMILES IDX 76 23 77 24 78 25 79 26 6 27 7 28 8 29 9 30 10 31 68 32
REMARK SMILES IDX 11 33 67 34 12 35 13 36 14 37 61 38 15 39 66 40 60 41 62 42
REMARK SMILES IDX 16 43 65 44 59 45 58 46 17 48 47 49 28 50 46 51 29 52 32 53
REMARK SMILES IDX 45 54 63 55 30 56 31 57 44 59 64 60 33 61 18 62 19 63 27 64
REMARK SMILES IDX 20 65 26 66 21 67 22 68 23 69 24 70 25 71 48 72 49 73 57 74
REMARK SMILES IDX 50 75 56 76 51 77 52 78 53 79 54 80 55 81 34 82 35 83 43 84
REMARK SMILES IDX 36 85 42 86 37 87 38 88 39 89 40 90 41 91
REMARK H PARENT 62 47 32 58
REMARK Flexibility Score: inf
ROOT
ATOM      1  C   UNL A   1      38.733  23.551  25.962  1.00  0.00     0.275 C 
ENDROOT
BRANCH   1   2
ATOM      2  C   UNL A   1      37.218  23.680  25.973  1.00  0.00     0.275 C 
BRANCH   2   3
ATOM      3  O   UNL A   1      36.757  23.952  24.658  1.00  0.00    -0.459 OA
BRANCH   3   4
ATOM      4  C   UNL A   1      35.820  23.083  24.040  1.00  0.00     0.338 C 
ATOM      5  O   UNL A   1      35.837  22.922  22.779  1.00  0.00    -0.246 OA
BRANCH   4   6
ATOM      6  C   UNL A   1      34.795  22.345  24.886  1.00  0.00     0.087 C 
ATOM      7  C   UNL A   1      33.765  23.027  25.455  1.00  0.00     0.027 C 
ATOM      8  C   UNL A   1      34.922  20.845  25.096  1.00  0.00     0.316 C 
ATOM      9  C   UNL A   1      33.638  24.527  25.245  1.00  0.00     0.020 A 
ATOM     10  O   UNL A   1      34.353  24.160  23.008  1.00  0.00    -0.474 OA
ATOM     11  C   UNL A   1      33.258  25.356  26.288  1.00  0.00     0.036 A 
ATOM     12  C   UNL A   1      33.809  25.001  24.016  1.00  0.00     0.142 A 
ATOM     13  C   UNL A   1      32.799  26.628  25.871  1.00  0.00     0.109 A 
ATOM     14  C   UNL A   1      33.466  26.295  23.711  1.00  0.00     0.062 A 
ATOM     15  C   UNL A   1      33.027  27.154  24.681  1.00  0.00     0.044 A 
ATOM     16  Br  UNL A   1      33.608  26.922  21.860  1.00  0.00    -0.047 Br
BRANCH   8  17
ATOM     17  C   UNL A   1      33.681  20.151  24.558  1.00  0.00     0.430 C 
ATOM     18  F   UNL A   1      32.759  20.086  25.515  1.00  0.00    -0.167 F 
ATOM     19  F   UNL A   1      33.200  20.839  23.526  1.00  0.00    -0.167 F 
ATOM     20  F   UNL A   1      33.997  18.921  24.163  1.00  0.00    -0.167 F 
ENDBRANCH   8  17
BRANCH  13  21
ATOM     21  S   UNL A   1      31.832  27.602  27.050  1.00  0.00     0.310 S 
ATOM     22  F   UNL A   1      31.573  28.749  25.987  1.00  0.00    -0.094 F 
ATOM     23  F   UNL A   1      33.150  28.367  27.451  1.00  0.00    -0.094 F 
ATOM     24  F   UNL A   1      31.005  28.441  28.066  1.00  0.00    -0.094 F 
ATOM     25  F   UNL A   1      30.502  26.925  26.537  1.00  0.00    -0.094 F 
ATOM     26  F   UNL A   1      32.641  26.825  25.936  1.00  0.00    -0.094 F 
ENDBRANCH  13  21
ENDBRANCH   4   6
ENDBRANCH   3   4
ENDBRANCH   2   3
ENDBRANCH   1   2
BRANCH   1  27
ATOM     27  O   UNL A   1      39.261  24.091  27.165  1.00  0.00    -0.458 OA
BRANCH  27  28
ATOM     28  C   UNL A   1      39.877  25.371  27.159  1.00  0.00     0.338 C 
ATOM     29  O   UNL A   1      40.524  25.760  26.137  1.00  0.00    -0.246 OA
BRANCH  28  30
ATOM     30  C   UNL A   1      39.761  26.275  28.375  1.00  0.00     0.060 A 
ATOM     31  C   UNL A   1      38.923  25.963  29.433  1.00  0.00     0.016 A 
ATOM     32  C   UNL A   1      40.590  27.310  28.436  1.00  0.00     0.016 A 
ATOM     33  C   UNL A   1      38.827  26.983  30.408  1.00  0.00     0.010 A 
ATOM     34  C   UNL A   1      40.532  28.193  29.487  1.00  0.00     0.010 A 
ATOM     35  C   UNL A   1      39.685  27.978  30.539  1.00  0.00    -0.014 A 
BRANCH  35  36
ATOM     36  C   UNL A   1      39.731  28.838  31.792  1.00  0.00     0.031 A 
ATOM     37  C   UNL A   1      38.803  29.877  31.864  1.00  0.00     0.074 A 
ATOM     38  C   UNL A   1      40.745  28.640  32.713  1.00  0.00     0.049 A 
ATOM     39  N   UNL A   1      38.699  30.812  32.811  1.00  0.00    -0.248 NA
ATOM     40  C   UNL A   1      37.746  30.108  30.868  1.00  0.00     0.031 C 
ATOM     41  C   UNL A   1      41.681  27.589  32.652  1.00  0.00     0.029 A 
ATOM     42  N   UNL A   1      41.035  29.397  33.827  1.00  0.00    -0.354 N 
ATOM     43  C   UNL A   1      37.674  31.624  32.547  1.00  0.00     0.074 A 
ATOM     44  C   UNL A   1      37.050  31.187  31.290  1.00  0.00     0.031 C 
ATOM     45  C   UNL A   1      42.529  27.717  33.706  1.00  0.00     0.029 A 
ATOM     46  C   UNL A   1      42.137  28.849  34.445  1.00  0.00     0.049 A 
ATOM     47  H   UNL A   1      40.539  30.192  34.130  1.00  0.00     0.167 HD
ATOM     48  C   UNL A   1      37.234  32.710  33.304  1.00  0.00     0.031 A 
ATOM     49  C   UNL A   1      42.780  29.299  35.587  1.00  0.00     0.031 A 
ATOM     50  C   UNL A   1      37.851  33.134  34.471  1.00  0.00     0.049 A 
ATOM     51  C   UNL A   1      42.375  30.421  36.315  1.00  0.00     0.074 A 
ATOM     52  C   UNL A   1      37.416  34.222  35.251  1.00  0.00     0.029 A 
ATOM     53  N   UNL A   1      38.969  32.601  35.075  1.00  0.00    -0.354 N 
ATOM     54  N   UNL A   1      41.326  31.209  36.071  1.00  0.00    -0.248 NA
ATOM     55  C   UNL A   1      43.068  30.925  37.508  1.00  0.00     0.031 C 
ATOM     56  C   UNL A   1      38.265  34.350  36.306  1.00  0.00     0.029 A 
ATOM     57  C   UNL A   1      39.244  33.345  36.201  1.00  0.00     0.049 A 
ATOM     58  H   UNL A   1      39.482  31.824  34.757  1.00  0.00     0.167 HD
ATOM     59  C   UNL A   1      41.249  32.169  36.995  1.00  0.00     0.074 A 
ATOM     60  C   UNL A   1      42.373  32.005  37.928  1.00  0.00     0.031 C 
ATOM     61  C   UNL A   1      40.285  33.173  37.100  1.00  0.00     0.031 A 
BRANCH  48  62
ATOM     62  C   UNL A   1      36.010  33.471  32.824  1.00  0.00    -0.014 A 
ATOM     63  C   UNL A   1      36.128  34.571  31.989  1.00  0.00     0.010 A 
ATOM     64  C   UNL A   1      34.837  33.124  33.341  1.00  0.00     0.010 A 
ATOM     65  C   UNL A   1      34.995  35.417  31.991  1.00  0.00     0.020 A 
ATOM     66  C   UNL A   1      33.737  33.933  33.189  1.00  0.00     0.020 A 
ATOM     67  C   UNL A   1      33.799  35.066  32.426  1.00  0.00     0.054 A 
BRANCH  67  68
ATOM     68  S   UNL A   1      32.320  36.032  32.034  1.00  0.00     0.124 S 
ATOM     69  O   UNL A   1      32.480  37.453  32.578  1.00  0.00    -0.237 OA
ATOM     70  O   UNL A   1      32.132  36.086  30.515  1.00  0.00    -0.237 OA
ATOM     71  O   UNL A   1      30.952  35.298  32.751  1.00  0.00    -0.744 OA
ENDBRANCH  67  68
ENDBRANCH  48  62
BRANCH  49  72
ATOM     72  C   UNL A   1      43.995  28.527  36.077  1.00  0.00    -0.014 A 
ATOM     73  C   UNL A   1      43.926  27.445  36.939  1.00  0.00     0.010 A 
ATOM     74  C   UNL A   1      45.147  28.905  35.536  1.00  0.00     0.010 A 
ATOM     75  C   UNL A   1      45.186  26.998  37.400  1.00  0.00     0.020 A 
ATOM     76  C   UNL A   1      46.329  28.330  35.936  1.00  0.00     0.020 A 
ATOM     77  C   UNL A   1      46.340  27.295  36.830  1.00  0.00     0.054 A 
BRANCH  77  78
ATOM     78  S   UNL A   1      47.855  26.381  37.211  1.00  0.00     0.124 S 
ATOM     79  O   UNL A   1      47.858  25.057  36.444  1.00  0.00    -0.237 OA
ATOM     80  O   UNL A   1      49.071  27.213  36.795  1.00  0.00    -0.237 OA
ATOM     81  O   UNL A   1      47.927  26.068  38.891  1.00  0.00    -0.744 OA
ENDBRANCH  77  78
ENDBRANCH  49  72
BRANCH  61  82
ATOM     82  C   UNL A   1      40.384  34.138  38.271  1.00  0.00    -0.014 A 
ATOM     83  C   UNL A   1      39.790  33.864  39.491  1.00  0.00     0.010 A 
ATOM     84  C   UNL A   1      41.160  35.204  38.106  1.00  0.00     0.010 A 
ATOM     85  C   UNL A   1      39.841  34.939  40.409  1.00  0.00     0.020 A 
ATOM     86  C   UNL A   1      41.271  36.147  39.099  1.00  0.00     0.020 A 
ATOM     87  C   UNL A   1      40.662  35.969  40.310  1.00  0.00     0.054 A 
BRANCH  87  88
ATOM     88  S   UNL A   1      40.962  37.086  41.703  1.00  0.00     0.124 S 
ATOM     89  O   UNL A   1      39.703  37.172  42.568  1.00  0.00    -0.237 OA
ATOM     90  O   UNL A   1      42.124  36.551  42.543  1.00  0.00    -0.237 OA
ATOM     91  O   UNL A   1      41.356  38.642  41.111  1.00  0.00    -0.744 OA
ENDBRANCH  87  88
ENDBRANCH  61  82
ENDBRANCH  35  36
ENDBRANCH  28  30
ENDBRANCH  27  28
ENDBRANCH   1  27
TORSDOF 16
ENDMDL
MODEL 3
REMARK VINA RESULT:     -11.0      1.004      8.092
REMARK SMILES O=C(OCCOC(=O)c1ccc(-c2c3nc(c(-c4ccc(S(=O)(=O)[O-])cc4)c4ccc([nH]4)c(-c4ccc(S(=O)(=O)[O-])cc4)c4nc(c(-c5ccc(S(=O)(=O)[O-])cc5)c5ccc2[nH]5)C=C4)C=C3)cc1)C1=Cc2cc(S(F)(F)(F)(F)F)cc(Br)c2O[C@@H]1C(F)(F)F
REMARK SMILES IDX 5 1 4 2 3 3 2 4 1 5 69 6 70 7 85 8 71 9 84 10 72 11 83 12
REMARK SMILES IDX 73 13 81 14 80 15 82 16 86 17 87 18 88 19 89 20 74 21 75 22
REMARK SMILES IDX 76 23 77 24 78 25 79 26 6 27 7 28 8 29 9 30 10 31 68 32
REMARK SMILES IDX 11 33 67 34 12 35 13 36 14 37 61 38 15 39 66 40 60 41 62 42
REMARK SMILES IDX 16 43 65 44 59 45 58 46 17 48 47 49 28 50 46 51 29 52 32 53
REMARK SMILES IDX 45 54 63 55 30 56 31 57 44 59 64 60 33 61 18 62 19 63 27 64
REMARK SMILES IDX 20 65 26 66 21 67 22 68 23 69 24 70 25 71 48 72 49 73 57 74
REMARK SMILES IDX 50 75 56 76 51 77 52 78 53 79 54 80 55 81 34 82 35 83 43 84
REMARK SMILES IDX 36 85 42 86 37 87 38 88 39 89 40 90 41 91
REMARK H PARENT 62 47 32 58
REMARK Flexibility Score: inf
ROOT
ATOM      1  C   UNL A   1      37.184  22.111  24.685  1.00  0.00     0.275 C 
ENDROOT
BRANCH   1   2
ATOM      2  C   UNL A   1      37.126  23.390  23.865  1.00  0.00     0.275 C 
BRANCH   2   3
ATOM      3  O   UNL A   1      35.988  24.147  24.248  1.00  0.00    -0.459 OA
BRANCH   3   4
ATOM      4  C   UNL A   1      34.684  23.663  23.962  1.00  0.00     0.338 C 
ATOM      5  O   UNL A   1      34.344  23.425  22.761  1.00  0.00    -0.246 OA
BRANCH   4   6
ATOM      6  C   UNL A   1      33.695  23.430  25.093  1.00  0.00     0.087 C 
ATOM      7  C   UNL A   1      33.159  24.489  25.756  1.00  0.00     0.027 C 
ATOM      8  C   UNL A   1      33.305  22.013  25.481  1.00  0.00     0.316 C 
ATOM      9  C   UNL A   1      33.549  25.906  25.367  1.00  0.00     0.020 A 
ATOM     10  O   UNL A   1      33.518  25.174  23.106  1.00  0.00    -0.474 OA
ATOM     11  C   UNL A   1      33.764  26.870  26.338  1.00  0.00     0.036 A 
ATOM     12  C   UNL A   1      33.582  26.211  24.075  1.00  0.00     0.142 A 
ATOM     13  C   UNL A   1      33.722  28.197  25.849  1.00  0.00     0.109 A 
ATOM     14  C   UNL A   1      33.679  27.519  23.667  1.00  0.00     0.062 A 
ATOM     15  C   UNL A   1      33.835  28.529  24.575  1.00  0.00     0.044 A 
ATOM     16  Br  UNL A   1      33.594  27.943  21.755  1.00  0.00    -0.047 Br
BRANCH   8  17
ATOM     17  C   UNL A   1      31.806  21.834  25.307  1.00  0.00     0.430 C 
ATOM     18  F   UNL A   1      31.524  20.540  25.190  1.00  0.00    -0.167 F 
ATOM     19  F   UNL A   1      31.174  22.332  26.366  1.00  0.00    -0.167 F 
ATOM     20  F   UNL A   1      31.408  22.475  24.211  1.00  0.00    -0.167 F 
ENDBRANCH   8  17
BRANCH  13  21
ATOM     21  S   UNL A   1      33.497  29.531  27.050  1.00  0.00     0.310 S 
ATOM     22  F   UNL A   1      33.383  30.626  25.908  1.00  0.00    -0.094 F 
ATOM     23  F   UNL A   1      35.054  29.771  27.027  1.00  0.00    -0.094 F 
ATOM     24  F   UNL A   1      33.308  30.678  28.083  1.00  0.00    -0.094 F 
ATOM     25  F   UNL A   1      31.930  29.371  26.952  1.00  0.00    -0.094 F 
ATOM     26  F   UNL A   1      33.665  28.442  25.916  1.00  0.00    -0.094 F 
ENDBRANCH  13  21
ENDBRANCH   4   6
ENDBRANCH   3   4
ENDBRANCH   2   3
ENDBRANCH   1   2
BRANCH   1  27
ATOM     27  O   UNL A   1      37.631  22.412  26.000  1.00  0.00    -0.458 OA
BRANCH  27  28
ATOM     28  C   UNL A   1      38.991  22.751  26.227  1.00  0.00     0.338 C 
ATOM     29  O   UNL A   1      39.914  21.957  25.863  1.00  0.00    -0.246 OA
BRANCH  28  30
ATOM     30  C   UNL A   1      39.343  24.064  26.906  1.00  0.00     0.060 A 
ATOM     31  C   UNL A   1      39.118  24.264  28.259  1.00  0.00     0.016 A 
ATOM     32  C   UNL A   1      39.991  24.964  26.176  1.00  0.00     0.016 A 
ATOM     33  C   UNL A   1      39.365  25.588  28.691  1.00  0.00     0.010 A 
ATOM     34  C   UNL A   1      40.321  26.189  26.705  1.00  0.00     0.010 A 
ATOM     35  C   UNL A   1      40.075  26.476  28.019  1.00  0.00    -0.014 A 
BRANCH  35  36
ATOM     36  C   UNL A   1      40.590  27.749  28.670  1.00  0.00     0.031 A 
ATOM     37  C   UNL A   1      41.896  27.710  29.160  1.00  0.00     0.074 A 
ATOM     38  C   UNL A   1      39.724  28.812  28.861  1.00  0.00     0.049 A 
ATOM     39  N   UNL A   1      42.539  28.659  29.843  1.00  0.00    -0.248 NA
ATOM     40  C   UNL A   1      42.806  26.568  28.988  1.00  0.00     0.031 C 
ATOM     41  C   UNL A   1      38.407  28.863  28.363  1.00  0.00     0.029 A 
ATOM     42  N   UNL A   1      39.960  29.983  29.546  1.00  0.00    -0.354 N 
ATOM     43  C   UNL A   1      43.782  28.265  30.123  1.00  0.00     0.074 A 
ATOM     44  C   UNL A   1      43.970  26.911  29.583  1.00  0.00     0.031 C 
ATOM     45  C   UNL A   1      37.854  30.041  28.752  1.00  0.00     0.029 A 
ATOM     46  C   UNL A   1      38.815  30.748  29.499  1.00  0.00     0.049 A 
ATOM     47  H   UNL A   1      40.802  30.230  29.994  1.00  0.00     0.167 HD
ATOM     48  C   UNL A   1      44.767  28.981  30.805  1.00  0.00     0.031 A 
ATOM     49  C   UNL A   1      38.603  31.992  30.070  1.00  0.00     0.031 A 
ATOM     50  C   UNL A   1      44.567  30.244  31.339  1.00  0.00     0.049 A 
ATOM     51  C   UNL A   1      39.569  32.685  30.804  1.00  0.00     0.074 A 
ATOM     52  C   UNL A   1      45.551  30.982  32.023  1.00  0.00     0.029 A 
ATOM     53  N   UNL A   1      43.415  30.998  31.313  1.00  0.00    -0.354 N 
ATOM     54  N   UNL A   1      40.825  32.306  31.049  1.00  0.00    -0.248 NA
ATOM     55  C   UNL A   1      39.345  33.989  31.440  1.00  0.00     0.031 C 
ATOM     56  C   UNL A   1      44.998  32.162  32.413  1.00  0.00     0.029 A 
ATOM     57  C   UNL A   1      43.659  32.179  31.979  1.00  0.00     0.049 A 
ATOM     58  H   UNL A   1      42.565  30.739  30.892  1.00  0.00     0.167 HD
ATOM     59  C   UNL A   1      41.453  33.239  31.767  1.00  0.00     0.074 A 
ATOM     60  C   UNL A   1      40.508  34.332  32.036  1.00  0.00     0.031 C 
ATOM     61  C   UNL A   1      42.778  33.225  32.207  1.00  0.00     0.031 A 
BRANCH  48  62
ATOM     62  C   UNL A   1      46.134  28.339  30.973  1.00  0.00    -0.014 A 
ATOM     63  C   UNL A   1      47.102  28.441  29.988  1.00  0.00     0.010 A 
ATOM     64  C   UNL A   1      46.316  27.567  32.038  1.00  0.00     0.010 A 
ATOM     65  C   UNL A   1      48.115  27.458  30.075  1.00  0.00     0.020 A 
ATOM     66  C   UNL A   1      47.401  26.729  32.119  1.00  0.00     0.020 A 
ATOM     67  C   UNL A   1      48.366  26.735  31.151  1.00  0.00     0.054 A 
BRANCH  67  68
ATOM     68  S   UNL A   1      49.906  25.802  31.335  1.00  0.00     0.124 S 
ATOM     69  O   UNL A   1      50.209  25.056  30.033  1.00  0.00    -0.237 OA
ATOM     70  O   UNL A   1      51.054  26.766  31.649  1.00  0.00    -0.237 OA
ATOM     71  O   UNL A   1      49.742  24.676  32.612  1.00  0.00    -0.744 OA
ENDBRANCH  67  68
ENDBRANCH  48  62
BRANCH  49  72
ATOM     72  C   UNL A   1      37.240  32.641  29.888  1.00  0.00    -0.014 A 
ATOM     73  C   UNL A   1      36.218  32.564  30.821  1.00  0.00     0.010 A 
ATOM     74  C   UNL A   1      37.121  33.387  28.796  1.00  0.00     0.010 A 
ATOM     75  C   UNL A   1      34.985  33.088  30.364  1.00  0.00     0.020 A 
ATOM     76  C   UNL A   1      35.923  33.981  28.481  1.00  0.00     0.020 A 
ATOM     77  C   UNL A   1      34.853  33.896  29.328  1.00  0.00     0.054 A 
BRANCH  77  78
ATOM     78  S   UNL A   1      33.336  34.842  29.044  1.00  0.00     0.124 S 
ATOM     79  O   UNL A   1      32.451  34.097  28.043  1.00  0.00    -0.237 OA
ATOM     80  O   UNL A   1      32.582  35.008  30.366  1.00  0.00    -0.237 OA
ATOM     81  O   UNL A   1      33.733  36.383  28.418  1.00  0.00    -0.744 OA
ENDBRANCH  77  78
ENDBRANCH  49  72
BRANCH  61  82
ATOM     82  C   UNL A   1      43.285  34.429  32.985  1.00  0.00    -0.014 A 
ATOM     83  C   UNL A   1      43.758  35.561  32.343  1.00  0.00     0.010 A 
ATOM     84  C   UNL A   1      43.151  34.390  34.306  1.00  0.00     0.010 A 
ATOM     85  C   UNL A   1      44.340  36.513  33.213  1.00  0.00     0.020 A 
ATOM     86  C   UNL A   1      43.622  35.419  35.086  1.00  0.00     0.020 A 
ATOM     87  C   UNL A   1      44.155  36.543  34.521  1.00  0.00     0.054 A 
BRANCH  87  88
ATOM     88  S   UNL A   1      44.586  37.997  35.511  1.00  0.00     0.124 S 
ATOM     89  O   UNL A   1      46.082  37.970  35.831  1.00  0.00    -0.237 OA
ATOM     90  O   UNL A   1      44.254  39.266  34.723  1.00  0.00    -0.237 OA
ATOM     91  O   UNL A   1      43.690  37.980  36.967  1.00  0.00    -0.744 OA
ENDBRANCH  87  88
ENDBRANCH  61  82
ENDBRANCH  35  36
ENDBRANCH  28  30
ENDBRANCH  27  28
ENDBRANCH   1  27
TORSDOF 16
ENDMDL
