MODEL 1
REMARK VINA RESULT:      -9.6      0.000      0.000
REMARK SMILES C[C@H](CO)CSc1cc(Cl)ccc1C(=O)OCCOC(=O)c1ccc(-c2c3nc(c(-c4ccc(S(=O)(=O)[O-])cc4)c4ccc([nH]4)c(-c4ccc(S(=O)(=O)[O-])cc4)c4nc(c(-c5ccc(S(=O)(=O)[O-])cc5)c5ccc2[nH]5)C=C4)C=C3)cc1
REMARK SMILES IDX 17 1 16 2 14 3 15 4 13 5 7 6 8 7 9 8 12 9 10 10 11 11 6 12
REMARK SMILES IDX 5 13 2 14 1 15 3 16 4 17 18 19 19 20 20 21 21 22 22 23 23 24
REMARK SMILES IDX 81 25 24 26 80 27 25 28 26 29 27 30 74 31 28 32 79 33 73 34
REMARK SMILES IDX 75 35 29 36 78 37 72 38 71 39 30 41 60 42 41 43 59 44 42 45
REMARK SMILES IDX 45 46 58 47 76 48 43 49 44 50 57 52 77 53 46 54 31 55 32 56
REMARK SMILES IDX 40 57 33 58 39 59 34 60 35 61 36 62 37 63 38 64 61 65 62 66
REMARK SMILES IDX 70 67 63 68 69 69 64 70 65 71 66 72 67 73 68 74 47 75 48 76
REMARK SMILES IDX 56 77 49 78 55 79 50 80 51 81 52 82 53 83 54 84
REMARK H PARENT 4 18 75 40 45 51
REMARK Flexibility Score: inf
ROOT
ATOM      1  C   UNL A   1      32.365  27.573  27.038  1.00  0.00     0.275 C 
ENDROOT
BRANCH   1   2
ATOM      2  O   UNL A   1      32.745  26.635  25.999  1.00  0.00    -0.458 OA
BRANCH   2   3
ATOM      3  C   UNL A   1      32.458  25.328  26.195  1.00  0.00     0.339 C 
ATOM      4  O   UNL A   1      31.441  24.882  26.701  1.00  0.00    -0.246 OA
BRANCH   3   5
ATOM      5  C   UNL A   1      33.457  24.476  25.501  1.00  0.00     0.073 A 
ATOM      6  C   UNL A   1      33.183  23.471  24.552  1.00  0.00     0.023 A 
ATOM      7  C   UNL A   1      34.282  22.785  23.984  1.00  0.00     0.036 A 
ATOM      8  C   UNL A   1      35.598  23.061  24.362  1.00  0.00     0.042 A 
ATOM      9  C   UNL A   1      34.798  24.763  25.845  1.00  0.00     0.018 A 
ATOM     10  Cl  UNL A   1      36.894  22.201  23.629  1.00  0.00    -0.084 Cl
ATOM     11  C   UNL A   1      35.863  24.050  25.294  1.00  0.00     0.021 A 
BRANCH   6  12
ATOM     12  S   UNL A   1      31.636  23.072  23.733  1.00  0.00    -0.125 SA
BRANCH  12  13
ATOM     13  C   UNL A   1      30.959  24.601  22.995  1.00  0.00     0.080 C 
BRANCH  13  14
ATOM     14  C   UNL A   1      31.851  25.728  22.435  1.00  0.00     0.022 C 
ATOM     15  C   UNL A   1      31.033  27.032  22.465  1.00  0.00     0.011 C 
BRANCH  14  16
ATOM     16  C   UNL A   1      32.491  25.531  21.057  1.00  0.00     0.160 C 
BRANCH  16  17
ATOM     17  O   UNL A   1      31.674  25.914  19.969  1.00  0.00    -0.396 OA
ATOM     18  H   UNL A   1      30.831  25.437  20.015  1.00  0.00     0.210 HD
ENDBRANCH  16  17
ENDBRANCH  14  16
ENDBRANCH  13  14
ENDBRANCH  12  13
ENDBRANCH   6  12
ENDBRANCH   3   5
ENDBRANCH   2   3
ENDBRANCH   1   2
BRANCH   1  19
ATOM     19  C   UNL A   1      33.017  28.917  26.728  1.00  0.00     0.275 C 
BRANCH  19  20
ATOM     20  O   UNL A   1      34.251  28.947  27.448  1.00  0.00    -0.458 OA
BRANCH  20  21
ATOM     21  C   UNL A   1      34.591  30.121  28.033  1.00  0.00     0.338 C 
ATOM     22  O   UNL A   1      33.905  31.114  28.149  1.00  0.00    -0.246 OA
BRANCH  21  23
ATOM     23  C   UNL A   1      36.015  29.994  28.400  1.00  0.00     0.060 A 
ATOM     24  C   UNL A   1      36.379  29.513  29.663  1.00  0.00     0.016 A 
ATOM     25  C   UNL A   1      36.986  30.271  27.443  1.00  0.00     0.016 A 
ATOM     26  C   UNL A   1      37.713  29.265  29.965  1.00  0.00     0.010 A 
ATOM     27  C   UNL A   1      38.317  29.962  27.724  1.00  0.00     0.010 A 
ATOM     28  C   UNL A   1      38.688  29.439  28.977  1.00  0.00    -0.014 A 
BRANCH  28  29
ATOM     29  C   UNL A   1      40.100  29.046  29.208  1.00  0.00     0.031 A 
ATOM     30  C   UNL A   1      41.081  30.082  29.673  1.00  0.00     0.074 A 
ATOM     31  C   UNL A   1      40.504  27.796  28.909  1.00  0.00     0.049 A 
ATOM     32  N   UNL A   1      42.386  30.042  29.678  1.00  0.00    -0.248 NA
ATOM     33  C   UNL A   1      40.513  31.344  30.174  1.00  0.00     0.031 C 
ATOM     34  C   UNL A   1      39.630  26.697  28.484  1.00  0.00     0.029 A 
ATOM     35  N   UNL A   1      41.759  27.238  28.895  1.00  0.00    -0.354 N 
ATOM     36  C   UNL A   1      42.798  31.290  30.129  1.00  0.00     0.074 A 
ATOM     37  C   UNL A   1      41.604  32.068  30.379  1.00  0.00     0.031 C 
ATOM     38  C   UNL A   1      40.371  25.601  28.259  1.00  0.00     0.029 A 
ATOM     39  C   UNL A   1      41.778  25.939  28.440  1.00  0.00     0.049 A 
ATOM     40  H   UNL A   1      42.567  27.722  29.181  1.00  0.00     0.167 HD
ATOM     41  C   UNL A   1      44.062  31.743  30.307  1.00  0.00     0.031 A 
ATOM     42  C   UNL A   1      42.814  25.127  28.150  1.00  0.00     0.031 A 
ATOM     43  C   UNL A   1      45.232  30.941  30.055  1.00  0.00     0.049 A 
ATOM     44  C   UNL A   1      44.208  25.666  28.312  1.00  0.00     0.074 A 
ATOM     45  C   UNL A   1      46.563  31.284  30.209  1.00  0.00     0.029 A 
ATOM     46  N   UNL A   1      45.205  29.629  29.600  1.00  0.00    -0.354 N 
ATOM     47  N   UNL A   1      44.587  26.856  28.717  1.00  0.00    -0.248 NA
ATOM     48  C   UNL A   1      45.312  24.763  27.967  1.00  0.00     0.031 C 
ATOM     49  C   UNL A   1      47.342  30.195  29.801  1.00  0.00     0.029 A 
ATOM     50  C   UNL A   1      46.496  29.153  29.450  1.00  0.00     0.049 A 
ATOM     51  H   UNL A   1      44.388  29.114  29.412  1.00  0.00     0.167 HD
ATOM     52  C   UNL A   1      45.975  26.838  28.695  1.00  0.00     0.074 A 
ATOM     53  C   UNL A   1      46.368  25.515  28.253  1.00  0.00     0.031 C 
ATOM     54  C   UNL A   1      46.850  27.826  29.009  1.00  0.00     0.031 A 
BRANCH  41  55
ATOM     55  C   UNL A   1      44.238  33.173  30.749  1.00  0.00    -0.014 A 
ATOM     56  C   UNL A   1      44.456  34.208  29.822  1.00  0.00     0.010 A 
ATOM     57  C   UNL A   1      44.173  33.491  32.119  1.00  0.00     0.010 A 
ATOM     58  C   UNL A   1      44.652  35.523  30.258  1.00  0.00     0.020 A 
ATOM     59  C   UNL A   1      44.338  34.809  32.558  1.00  0.00     0.020 A 
ATOM     60  C   UNL A   1      44.597  35.814  31.624  1.00  0.00     0.054 A 
BRANCH  60  61
ATOM     61  S   UNL A   1      44.847  37.529  32.160  1.00  0.00     0.124 S 
ATOM     62  O   UNL A   1      43.619  38.172  31.696  1.00  0.00    -0.237 OA
ATOM     63  O   UNL A   1      44.977  37.397  33.609  1.00  0.00    -0.237 OA
ATOM     64  O   UNL A   1      46.064  37.937  31.462  1.00  0.00    -0.744 OA
ENDBRANCH  60  61
ENDBRANCH  41  55
BRANCH  42  65
ATOM     65  C   UNL A   1      42.566  23.746  27.647  1.00  0.00    -0.014 A 
ATOM     66  C   UNL A   1      42.550  23.482  26.266  1.00  0.00     0.010 A 
ATOM     67  C   UNL A   1      42.377  22.678  28.544  1.00  0.00     0.010 A 
ATOM     68  C   UNL A   1      42.346  22.181  25.793  1.00  0.00     0.020 A 
ATOM     69  C   UNL A   1      42.203  21.371  28.077  1.00  0.00     0.020 A 
ATOM     70  C   UNL A   1      42.179  21.133  26.702  1.00  0.00     0.054 A 
BRANCH  70  71
ATOM     71  S   UNL A   1      41.979  19.445  26.065  1.00  0.00     0.124 S 
ATOM     72  O   UNL A   1      42.466  18.640  27.180  1.00  0.00    -0.237 OA
ATOM     73  O   UNL A   1      40.542  19.371  25.813  1.00  0.00    -0.237 OA
ATOM     74  O   UNL A   1      42.815  19.429  24.868  1.00  0.00    -0.744 OA
ENDBRANCH  70  71
ENDBRANCH  42  65
BRANCH  54  75
ATOM     75  C   UNL A   1      48.315  27.498  28.922  1.00  0.00    -0.014 A 
ATOM     76  C   UNL A   1      49.055  27.772  27.759  1.00  0.00     0.010 A 
ATOM     77  C   UNL A   1      48.971  26.968  30.048  1.00  0.00     0.010 A 
ATOM     78  C   UNL A   1      50.424  27.502  27.717  1.00  0.00     0.020 A 
ATOM     79  C   UNL A   1      50.345  26.723  30.019  1.00  0.00     0.020 A 
ATOM     80  C   UNL A   1      51.061  26.982  28.849  1.00  0.00     0.054 A 
BRANCH  80  81
ATOM     81  S   UNL A   1      52.850  26.699  28.789  1.00  0.00     0.124 S 
ATOM     82  O   UNL A   1      52.973  25.765  27.672  1.00  0.00    -0.237 OA
ATOM     83  O   UNL A   1      53.379  28.039  28.549  1.00  0.00    -0.237 OA
ATOM     84  O   UNL A   1      53.157  26.141  30.104  1.00  0.00    -0.744 OA
ENDBRANCH  80  81
ENDBRANCH  54  75
ENDBRANCH  28  29
ENDBRANCH  21  23
ENDBRANCH  20  21
ENDBRANCH  19  20
ENDBRANCH   1  19
TORSDOF 19
ENDMDL
MODEL 2
REMARK VINA RESULT:      -9.5      1.406      2.094
REMARK SMILES C[C@H](CO)CSc1cc(Cl)ccc1C(=O)OCCOC(=O)c1ccc(-c2c3nc(c(-c4ccc(S(=O)(=O)[O-])cc4)c4ccc([nH]4)c(-c4ccc(S(=O)(=O)[O-])cc4)c4nc(c(-c5ccc(S(=O)(=O)[O-])cc5)c5ccc2[nH]5)C=C4)C=C3)cc1
REMARK SMILES IDX 17 1 16 2 14 3 15 4 13 5 7 6 8 7 9 8 12 9 10 10 11 11 6 12
REMARK SMILES IDX 5 13 2 14 1 15 3 16 4 17 18 19 19 20 20 21 21 22 22 23 23 24
REMARK SMILES IDX 81 25 24 26 80 27 25 28 26 29 27 30 74 31 28 32 79 33 73 34
REMARK SMILES IDX 75 35 29 36 78 37 72 38 71 39 30 41 60 42 41 43 59 44 42 45
REMARK SMILES IDX 45 46 58 47 76 48 43 49 44 50 57 52 77 53 46 54 31 55 32 56
REMARK SMILES IDX 40 57 33 58 39 59 34 60 35 61 36 62 37 63 38 64 61 65 62 66
REMARK SMILES IDX 70 67 63 68 69 69 64 70 65 71 66 72 67 73 68 74 47 75 48 76
REMARK SMILES IDX 56 77 49 78 55 79 50 80 51 81 52 82 53 83 54 84
REMARK H PARENT 4 18 75 40 45 51
REMARK Flexibility Score: inf
ROOT
ATOM      1  C   UNL A   1      32.332  28.678  26.336  1.00  0.00     0.275 C 
ENDROOT
BRANCH   1   2
ATOM      2  O   UNL A   1      32.417  27.382  25.691  1.00  0.00    -0.458 OA
BRANCH   2   3
ATOM      3  C   UNL A   1      31.499  26.449  26.030  1.00  0.00     0.339 C 
ATOM      4  O   UNL A   1      30.628  26.570  26.876  1.00  0.00    -0.246 OA
BRANCH   3   5
ATOM      5  C   UNL A   1      31.544  25.317  25.070  1.00  0.00     0.073 A 
ATOM      6  C   UNL A   1      31.238  25.374  23.696  1.00  0.00     0.023 A 
ATOM      7  C   UNL A   1      31.367  24.184  22.943  1.00  0.00     0.036 A 
ATOM      8  C   UNL A   1      31.752  22.978  23.531  1.00  0.00     0.042 A 
ATOM      9  C   UNL A   1      31.965  24.093  25.640  1.00  0.00     0.018 A 
ATOM     10  Cl  UNL A   1      31.901  21.564  22.562  1.00  0.00    -0.084 Cl
ATOM     11  C   UNL A   1      32.052  22.925  24.882  1.00  0.00     0.021 A 
BRANCH   6  12
ATOM     12  S   UNL A   1      30.943  26.808  22.656  1.00  0.00    -0.125 SA
BRANCH  12  13
ATOM     13  C   UNL A   1      29.489  27.705  23.305  1.00  0.00     0.080 C 
BRANCH  13  14
ATOM     14  C   UNL A   1      28.740  28.785  22.498  1.00  0.00     0.022 C 
ATOM     15  C   UNL A   1      29.744  29.906  22.169  1.00  0.00     0.011 C 
BRANCH  14  16
ATOM     16  C   UNL A   1      27.456  29.376  23.089  1.00  0.00     0.160 C 
BRANCH  16  17
ATOM     17  O   UNL A   1      26.350  28.496  23.092  1.00  0.00    -0.396 OA
ATOM     18  H   UNL A   1      26.182  28.191  23.997  1.00  0.00     0.210 HD
ENDBRANCH  16  17
ENDBRANCH  14  16
ENDBRANCH  13  14
ENDBRANCH  12  13
ENDBRANCH   6  12
ENDBRANCH   3   5
ENDBRANCH   2   3
ENDBRANCH   1   2
BRANCH   1  19
ATOM     19  C   UNL A   1      33.536  28.829  27.262  1.00  0.00     0.275 C 
BRANCH  19  20
ATOM     20  O   UNL A   1      34.053  30.144  27.047  1.00  0.00    -0.458 OA
BRANCH  20  21
ATOM     21  C   UNL A   1      34.590  30.774  28.119  1.00  0.00     0.338 C 
ATOM     22  O   UNL A   1      34.125  31.709  28.736  1.00  0.00    -0.246 OA
BRANCH  21  23
ATOM     23  C   UNL A   1      35.924  30.173  28.318  1.00  0.00     0.060 A 
ATOM     24  C   UNL A   1      36.850  30.147  27.268  1.00  0.00     0.016 A 
ATOM     25  C   UNL A   1      36.278  29.719  29.584  1.00  0.00     0.016 A 
ATOM     26  C   UNL A   1      38.150  29.705  27.487  1.00  0.00     0.010 A 
ATOM     27  C   UNL A   1      37.598  29.338  29.819  1.00  0.00     0.010 A 
ATOM     28  C   UNL A   1      38.548  29.347  28.779  1.00  0.00    -0.014 A 
BRANCH  28  29
ATOM     29  C   UNL A   1      39.961  29.013  29.087  1.00  0.00     0.031 A 
ATOM     30  C   UNL A   1      40.872  30.089  29.602  1.00  0.00     0.074 A 
ATOM     31  C   UNL A   1      40.431  27.780  28.813  1.00  0.00     0.049 A 
ATOM     32  N   UNL A   1      42.175  30.102  29.677  1.00  0.00    -0.248 NA
ATOM     33  C   UNL A   1      40.226  31.327  30.069  1.00  0.00     0.031 C 
ATOM     34  C   UNL A   1      39.628  26.647  28.345  1.00  0.00     0.029 A 
ATOM     35  N   UNL A   1      41.707  27.275  28.869  1.00  0.00    -0.354 N 
ATOM     36  C   UNL A   1      42.511  31.367  30.147  1.00  0.00     0.074 A 
ATOM     37  C   UNL A   1      41.274  32.095  30.330  1.00  0.00     0.031 C 
ATOM     38  C   UNL A   1      40.425  25.582  28.163  1.00  0.00     0.029 A 
ATOM     39  C   UNL A   1      41.804  25.978  28.419  1.00  0.00     0.049 A 
ATOM     40  H   UNL A   1      42.478  27.792  29.197  1.00  0.00     0.167 HD
ATOM     41  C   UNL A   1      43.744  31.871  30.392  1.00  0.00     0.031 A 
ATOM     42  C   UNL A   1      42.887  25.210  28.187  1.00  0.00     0.031 A 
ATOM     43  C   UNL A   1      44.957  31.119  30.205  1.00  0.00     0.049 A 
ATOM     44  C   UNL A   1      44.248  25.805  28.423  1.00  0.00     0.074 A 
ATOM     45  C   UNL A   1      46.262  31.516  30.430  1.00  0.00     0.029 A 
ATOM     46  N   UNL A   1      45.009  29.807  29.753  1.00  0.00    -0.354 N 
ATOM     47  N   UNL A   1      44.555  27.010  28.845  1.00  0.00    -0.248 NA
ATOM     48  C   UNL A   1      45.405  24.948  28.141  1.00  0.00     0.031 C 
ATOM     49  C   UNL A   1      47.106  30.460  30.067  1.00  0.00     0.029 A 
ATOM     50  C   UNL A   1      46.325  29.384  29.674  1.00  0.00     0.049 A 
ATOM     51  H   UNL A   1      44.226  29.258  29.522  1.00  0.00     0.167 HD
ATOM     52  C   UNL A   1      45.942  27.050  28.898  1.00  0.00     0.074 A 
ATOM     53  C   UNL A   1      46.412  25.743  28.481  1.00  0.00     0.031 C 
ATOM     54  C   UNL A   1      46.757  28.073  29.256  1.00  0.00     0.031 A 
BRANCH  41  55
ATOM     55  C   UNL A   1      43.836  33.308  30.839  1.00  0.00    -0.014 A 
ATOM     56  C   UNL A   1      44.041  34.353  29.920  1.00  0.00     0.010 A 
ATOM     57  C   UNL A   1      43.704  33.621  32.205  1.00  0.00     0.010 A 
ATOM     58  C   UNL A   1      44.159  35.674  30.362  1.00  0.00     0.020 A 
ATOM     59  C   UNL A   1      43.791  34.945  32.649  1.00  0.00     0.020 A 
ATOM     60  C   UNL A   1      44.039  35.961  31.725  1.00  0.00     0.054 A 
BRANCH  60  61
ATOM     61  S   UNL A   1      44.189  37.687  32.268  1.00  0.00     0.124 S 
ATOM     62  O   UNL A   1      43.289  37.719  33.419  1.00  0.00    -0.237 OA
ATOM     63  O   UNL A   1      45.611  37.801  32.581  1.00  0.00    -0.237 OA
ATOM     64  O   UNL A   1      43.744  38.456  31.109  1.00  0.00    -0.744 OA
ENDBRANCH  60  61
ENDBRANCH  41  55
BRANCH  42  65
ATOM     65  C   UNL A   1      42.724  23.819  27.675  1.00  0.00    -0.014 A 
ATOM     66  C   UNL A   1      42.502  22.752  28.563  1.00  0.00     0.010 A 
ATOM     67  C   UNL A   1      42.755  23.556  26.292  1.00  0.00     0.010 A 
ATOM     68  C   UNL A   1      42.321  21.451  28.081  1.00  0.00     0.020 A 
ATOM     69  C   UNL A   1      42.544  22.262  25.804  1.00  0.00     0.020 A 
ATOM     70  C   UNL A   1      42.338  21.215  26.704  1.00  0.00     0.054 A 
BRANCH  70  71
ATOM     71  S   UNL A   1      42.037  19.530  26.100  1.00  0.00     0.124 S 
ATOM     72  O   UNL A   1      42.442  18.721  27.245  1.00  0.00    -0.237 OA
ATOM     73  O   UNL A   1      40.605  19.549  25.815  1.00  0.00    -0.237 OA
ATOM     74  O   UNL A   1      42.898  19.428  24.924  1.00  0.00    -0.744 OA
ENDBRANCH  70  71
ENDBRANCH  42  65
BRANCH  54  75
ATOM     75  C   UNL A   1      48.236  27.805  29.250  1.00  0.00    -0.014 A 
ATOM     76  C   UNL A   1      48.914  27.436  30.424  1.00  0.00     0.010 A 
ATOM     77  C   UNL A   1      48.942  27.861  28.034  1.00  0.00     0.010 A 
ATOM     78  C   UNL A   1      50.280  27.147  30.385  1.00  0.00     0.020 A 
ATOM     79  C   UNL A   1      50.300  27.545  27.987  1.00  0.00     0.020 A 
ATOM     80  C   UNL A   1      50.963  27.200  29.166  1.00  0.00     0.054 A 
BRANCH  80  81
ATOM     81  S   UNL A   1      52.721  26.759  29.132  1.00  0.00     0.124 S 
ATOM     82  O   UNL A   1      53.364  28.071  29.160  1.00  0.00    -0.237 OA
ATOM     83  O   UNL A   1      52.874  25.958  30.345  1.00  0.00    -0.237 OA
ATOM     84  O   UNL A   1      52.869  26.019  27.882  1.00  0.00    -0.744 OA
ENDBRANCH  80  81
ENDBRANCH  54  75
ENDBRANCH  28  29
ENDBRANCH  21  23
ENDBRANCH  20  21
ENDBRANCH  19  20
ENDBRANCH   1  19
TORSDOF 19
ENDMDL
MODEL 3
REMARK VINA RESULT:      -9.3      1.310      2.512
REMARK SMILES C[C@H](CO)CSc1cc(Cl)ccc1C(=O)OCCOC(=O)c1ccc(-c2c3nc(c(-c4ccc(S(=O)(=O)[O-])cc4)c4ccc([nH]4)c(-c4ccc(S(=O)(=O)[O-])cc4)c4nc(c(-c5ccc(S(=O)(=O)[O-])cc5)c5ccc2[nH]5)C=C4)C=C3)cc1
REMARK SMILES IDX 17 1 16 2 14 3 15 4 13 5 7 6 8 7 9 8 12 9 10 10 11 11 6 12
REMARK SMILES IDX 5 13 2 14 1 15 3 16 4 17 18 19 19 20 20 21 21 22 22 23 23 24
REMARK SMILES IDX 81 25 24 26 80 27 25 28 26 29 27 30 74 31 28 32 79 33 73 34
REMARK SMILES IDX 75 35 29 36 78 37 72 38 71 39 30 41 60 42 41 43 59 44 42 45
REMARK SMILES IDX 45 46 58 47 76 48 43 49 44 50 57 52 77 53 46 54 31 55 32 56
REMARK SMILES IDX 40 57 33 58 39 59 34 60 35 61 36 62 37 63 38 64 61 65 62 66
REMARK SMILES IDX 70 67 63 68 69 69 64 70 65 71 66 72 67 73 68 74 47 75 48 76
REMARK SMILES IDX 56 77 49 78 55 79 50 80 51 81 52 82 53 83 54 84
REMARK H PARENT 4 18 75 40 45 51
REMARK Flexibility Score: inf
ROOT
ATOM      1  C   UNL A   1      32.869  28.276  27.115  1.00  0.00     0.275 C 
ENDROOT
BRANCH   1   2
ATOM      2  O   UNL A   1      32.541  27.610  25.869  1.00  0.00    -0.458 OA
BRANCH   2   3
ATOM      3  C   UNL A   1      33.057  26.377  25.659  1.00  0.00     0.339 C 
ATOM      4  O   UNL A   1      33.374  25.574  26.520  1.00  0.00    -0.246 OA
BRANCH   3   5
ATOM      5  C   UNL A   1      32.980  26.032  24.217  1.00  0.00     0.073 A 
ATOM      6  C   UNL A   1      32.896  24.735  23.672  1.00  0.00     0.023 A 
ATOM      7  C   UNL A   1      32.806  24.618  22.265  1.00  0.00     0.036 A 
ATOM      8  C   UNL A   1      32.830  25.735  21.429  1.00  0.00     0.042 A 
ATOM      9  C   UNL A   1      32.969  27.153  23.354  1.00  0.00     0.018 A 
ATOM     10  Cl  UNL A   1      32.707  25.530  19.725  1.00  0.00    -0.084 Cl
ATOM     11  C   UNL A   1      32.912  27.008  21.968  1.00  0.00     0.021 A 
BRANCH   6  12
ATOM     12  S   UNL A   1      32.625  23.167  24.504  1.00  0.00    -0.125 SA
BRANCH  12  13
ATOM     13  C   UNL A   1      34.243  22.356  24.754  1.00  0.00     0.080 C 
BRANCH  13  14
ATOM     14  C   UNL A   1      34.471  21.242  25.795  1.00  0.00     0.022 C 
ATOM     15  C   UNL A   1      33.759  19.973  25.289  1.00  0.00     0.011 C 
BRANCH  14  16
ATOM     16  C   UNL A   1      34.090  21.520  27.253  1.00  0.00     0.160 C 
BRANCH  16  17
ATOM     17  O   UNL A   1      34.453  22.804  27.721  1.00  0.00    -0.396 OA
ATOM     18  H   UNL A   1      34.905  23.289  27.013  1.00  0.00     0.210 HD
ENDBRANCH  16  17
ENDBRANCH  14  16
ENDBRANCH  13  14
ENDBRANCH  12  13
ENDBRANCH   6  12
ENDBRANCH   3   5
ENDBRANCH   2   3
ENDBRANCH   1   2
BRANCH   1  19
ATOM     19  C   UNL A   1      32.795  29.783  26.884  1.00  0.00     0.275 C 
BRANCH  19  20
ATOM     20  O   UNL A   1      34.141  30.261  26.880  1.00  0.00    -0.458 OA
BRANCH  20  21
ATOM     21  C   UNL A   1      34.615  30.765  28.045  1.00  0.00     0.338 C 
ATOM     22  O   UNL A   1      34.119  31.633  28.732  1.00  0.00    -0.246 OA
BRANCH  21  23
ATOM     23  C   UNL A   1      35.930  30.128  28.258  1.00  0.00     0.060 A 
ATOM     24  C   UNL A   1      36.868  30.080  27.219  1.00  0.00     0.016 A 
ATOM     25  C   UNL A   1      36.258  29.662  29.527  1.00  0.00     0.016 A 
ATOM     26  C   UNL A   1      38.153  29.604  27.452  1.00  0.00     0.010 A 
ATOM     27  C   UNL A   1      37.565  29.245  29.776  1.00  0.00     0.010 A 
ATOM     28  C   UNL A   1      38.527  29.232  28.748  1.00  0.00    -0.014 A 
BRANCH  28  29
ATOM     29  C   UNL A   1      39.927  28.860  29.071  1.00  0.00     0.031 A 
ATOM     30  C   UNL A   1      40.857  29.909  29.608  1.00  0.00     0.074 A 
ATOM     31  C   UNL A   1      40.370  27.619  28.791  1.00  0.00     0.049 A 
ATOM     32  N   UNL A   1      42.158  29.889  29.701  1.00  0.00    -0.248 NA
ATOM     33  C   UNL A   1      40.235  31.157  30.079  1.00  0.00     0.031 C 
ATOM     34  C   UNL A   1      39.546  26.510  28.300  1.00  0.00     0.029 A 
ATOM     35  N   UNL A   1      41.633  27.082  28.858  1.00  0.00    -0.354 N 
ATOM     36  C   UNL A   1      42.519  31.140  30.188  1.00  0.00     0.074 A 
ATOM     37  C   UNL A   1      41.298  31.896  30.363  1.00  0.00     0.031 C 
ATOM     38  C   UNL A   1      40.319  25.428  28.118  1.00  0.00     0.029 A 
ATOM     39  C   UNL A   1      41.704  25.787  28.396  1.00  0.00     0.049 A 
ATOM     40  H   UNL A   1      42.412  27.577  29.201  1.00  0.00     0.167 HD
ATOM     41  C   UNL A   1      43.760  31.612  30.454  1.00  0.00     0.031 A 
ATOM     42  C   UNL A   1      42.770  24.995  28.171  1.00  0.00     0.031 A 
ATOM     43  C   UNL A   1      44.958  30.831  30.276  1.00  0.00     0.049 A 
ATOM     44  C   UNL A   1      44.142  25.554  28.430  1.00  0.00     0.074 A 
ATOM     45  C   UNL A   1      46.269  31.194  30.522  1.00  0.00     0.029 A 
ATOM     46  N   UNL A   1      44.983  29.523  29.811  1.00  0.00    -0.354 N 
ATOM     47  N   UNL A   1      44.473  26.747  28.869  1.00  0.00    -0.248 NA
ATOM     48  C   UNL A   1      45.282  24.672  28.155  1.00  0.00     0.031 C 
ATOM     49  C   UNL A   1      47.091  30.121  30.160  1.00  0.00     0.029 A 
ATOM     50  C   UNL A   1      46.289  29.069  29.746  1.00  0.00     0.049 A 
ATOM     51  H   UNL A   1      44.190  28.996  29.564  1.00  0.00     0.167 HD
ATOM     52  C   UNL A   1      45.859  26.752  28.941  1.00  0.00     0.074 A 
ATOM     53  C   UNL A   1      46.303  25.439  28.517  1.00  0.00     0.031 C 
ATOM     54  C   UNL A   1      46.694  27.751  29.320  1.00  0.00     0.031 A 
BRANCH  41  55
ATOM     55  C   UNL A   1      43.882  33.041  30.918  1.00  0.00    -0.014 A 
ATOM     56  C   UNL A   1      43.858  33.376  32.284  1.00  0.00     0.010 A 
ATOM     57  C   UNL A   1      44.035  34.069  29.968  1.00  0.00     0.010 A 
ATOM     58  C   UNL A   1      43.937  34.712  32.688  1.00  0.00     0.020 A 
ATOM     59  C   UNL A   1      44.145  35.404  30.370  1.00  0.00     0.020 A 
ATOM     60  C   UNL A   1      44.075  35.719  31.728  1.00  0.00     0.054 A 
BRANCH  60  61
ATOM     61  S   UNL A   1      44.183  37.444  32.284  1.00  0.00     0.124 S 
ATOM     62  O   UNL A   1      45.585  37.544  32.683  1.00  0.00    -0.237 OA
ATOM     63  O   UNL A   1      43.818  38.190  31.082  1.00  0.00    -0.237 OA
ATOM     64  O   UNL A   1      43.217  37.517  33.377  1.00  0.00    -0.744 OA
ENDBRANCH  60  61
ENDBRANCH  41  55
BRANCH  42  65
ATOM     65  C   UNL A   1      42.580  23.614  27.642  1.00  0.00    -0.014 A 
ATOM     66  C   UNL A   1      42.564  23.376  26.257  1.00  0.00     0.010 A 
ATOM     67  C   UNL A   1      42.448  22.521  28.520  1.00  0.00     0.010 A 
ATOM     68  C   UNL A   1      42.414  22.077  25.760  1.00  0.00     0.020 A 
ATOM     69  C   UNL A   1      42.328  21.217  28.028  1.00  0.00     0.020 A 
ATOM     70  C   UNL A   1      42.302  21.005  26.649  1.00  0.00     0.054 A 
BRANCH  70  71
ATOM     71  S   UNL A   1      42.172  19.323  25.980  1.00  0.00     0.124 S 
ATOM     72  O   UNL A   1      43.062  19.385  24.825  1.00  0.00    -0.237 OA
ATOM     73  O   UNL A   1      42.641  18.503  27.095  1.00  0.00    -0.237 OA
ATOM     74  O   UNL A   1      40.752  19.185  25.670  1.00  0.00    -0.744 OA
ENDBRANCH  70  71
ENDBRANCH  42  65
BRANCH  54  75
ATOM     75  C   UNL A   1      48.167  27.447  29.331  1.00  0.00    -0.014 A 
ATOM     76  C   UNL A   1      48.977  27.736  28.219  1.00  0.00     0.010 A 
ATOM     77  C   UNL A   1      48.755  26.927  30.497  1.00  0.00     0.010 A 
ATOM     78  C   UNL A   1      50.350  27.488  28.268  1.00  0.00     0.020 A 
ATOM     79  C   UNL A   1      50.132  26.705  30.559  1.00  0.00     0.020 A 
ATOM     80  C   UNL A   1      50.920  26.977  29.439  1.00  0.00     0.054 A 
BRANCH  80  81
ATOM     81  S   UNL A   1      52.713  26.724  29.497  1.00  0.00     0.124 S 
ATOM     82  O   UNL A   1      52.864  25.891  30.688  1.00  0.00    -0.237 OA
ATOM     83  O   UNL A   1      52.984  26.058  28.226  1.00  0.00    -0.237 OA
ATOM     84  O   UNL A   1      53.251  28.077  29.612  1.00  0.00    -0.744 OA
ENDBRANCH  80  81
ENDBRANCH  54  75
ENDBRANCH  28  29
ENDBRANCH  21  23
ENDBRANCH  20  21
ENDBRANCH  19  20
ENDBRANCH   1  19
TORSDOF 19
ENDMDL
