MODEL 1
REMARK VINA RESULT:     -10.1      0.000      0.000
REMARK SMILES O=C(C[C@H]1CN(c2nc(C3CC3)ns2)CCO1)OCCOC(=O)c1ccc(-c2c3nc(c(-c4ccc(S(=O)(=O)[O-])cc4)c4ccc([nH]4)c(-c4ccc(S(=O)(=O)[O-])cc4)c4nc(c(-c5ccc(S(=O)(=O)[O-])cc5)c5ccc2[nH]5)C=C4)C=C3)cc1
REMARK SMILES IDX 19 1 18 2 2 3 1 4 3 5 4 6 5 7 17 8 6 9 16 10 15 11 7 12 8 13
REMARK SMILES IDX 14 14 9 15 13 16 10 17 11 18 12 19 20 20 21 21 22 22 23 23
REMARK SMILES IDX 24 24 25 25 83 26 26 27 82 28 27 29 28 30 29 31 76 32 30 33
REMARK SMILES IDX 81 34 75 35 77 36 31 37 80 38 74 39 73 40 32 42 62 43 43 44
REMARK SMILES IDX 61 45 44 46 47 47 60 48 78 49 45 50 46 51 59 53 79 54 48 55
REMARK SMILES IDX 33 56 34 57 42 58 35 59 41 60 36 61 37 62 38 63 39 64 40 65
REMARK SMILES IDX 63 66 64 67 72 68 65 69 71 70 66 71 67 72 68 73 69 74 70 75
REMARK SMILES IDX 49 76 50 77 58 78 51 79 57 80 52 81 53 82 54 83 55 84 56 85
REMARK H PARENT 77 41 47 52
REMARK Flexibility Score: inf
ROOT
ATOM      1  C   UNL A   1      34.137  30.234  27.254  1.00  0.00     0.274 C 
ENDROOT
BRANCH   1   2
ATOM      2  O   UNL A   1      33.608  29.690  26.044  1.00  0.00    -0.462 OA
BRANCH   2   3
ATOM      3  C   UNL A   1      33.127  28.418  26.191  1.00  0.00     0.308 C 
ATOM      4  O   UNL A   1      32.359  28.111  27.093  1.00  0.00    -0.252 OA
BRANCH   3   5
ATOM      5  C   UNL A   1      33.707  27.417  25.219  1.00  0.00     0.156 C 
BRANCH   5   6
ATOM      6  C   UNL A   1      32.806  26.247  24.772  1.00  0.00     0.148 C 
ATOM      7  C   UNL A   1      31.315  26.475  24.366  1.00  0.00     0.151 C 
ATOM      8  O   UNL A   1      33.485  25.521  23.717  1.00  0.00    -0.374 OA
ATOM      9  N   UNL A   1      31.172  27.028  23.004  1.00  0.00    -0.342 N 
ATOM     10  C   UNL A   1      33.423  26.198  22.448  1.00  0.00     0.182 C 
ATOM     11  C   UNL A   1      31.975  26.386  21.965  1.00  0.00     0.147 C 
BRANCH   9  12
ATOM     12  C   UNL A   1      30.148  27.880  22.695  1.00  0.00     0.205 A 
ATOM     13  N   UNL A   1      30.288  28.990  21.991  1.00  0.00    -0.203 NA
ATOM     14  S   UNL A   1      28.545  27.785  23.333  1.00  0.00     0.004 S 
ATOM     15  C   UNL A   1      29.168  29.800  22.135  1.00  0.00     0.147 A 
ATOM     16  N   UNL A   1      28.095  29.284  22.742  1.00  0.00    -0.174 NA
BRANCH  15  17
ATOM     17  C   UNL A   1      29.110  31.273  21.662  1.00  0.00     0.059 C 
ATOM     18  C   UNL A   1      28.025  31.769  20.718  1.00  0.00     0.012 C 
ATOM     19  C   UNL A   1      28.021  32.217  22.135  1.00  0.00     0.012 C 
ENDBRANCH  15  17
ENDBRANCH   9  12
ENDBRANCH   5   6
ENDBRANCH   3   5
ENDBRANCH   2   3
ENDBRANCH   1   2
BRANCH   1  20
ATOM     20  C   UNL A   1      35.192  29.437  28.026  1.00  0.00     0.275 C 
BRANCH  20  21
ATOM     21  O   UNL A   1      36.450  30.074  27.962  1.00  0.00    -0.458 OA
BRANCH  21  22
ATOM     22  C   UNL A   1      37.122  29.943  29.123  1.00  0.00     0.338 C 
ATOM     23  O   UNL A   1      36.679  29.987  30.261  1.00  0.00    -0.246 OA
BRANCH  22  24
ATOM     24  C   UNL A   1      38.432  29.439  28.740  1.00  0.00     0.060 A 
ATOM     25  C   UNL A   1      39.232  28.908  29.754  1.00  0.00     0.016 A 
ATOM     26  C   UNL A   1      38.817  29.424  27.395  1.00  0.00     0.016 A 
ATOM     27  C   UNL A   1      40.489  28.438  29.431  1.00  0.00     0.010 A 
ATOM     28  C   UNL A   1      40.067  28.935  27.070  1.00  0.00     0.010 A 
ATOM     29  C   UNL A   1      40.920  28.507  28.100  1.00  0.00    -0.014 A 
BRANCH  29  30
ATOM     30  C   UNL A   1      42.352  28.373  27.813  1.00  0.00     0.031 A 
ATOM     31  C   UNL A   1      43.215  29.575  28.044  1.00  0.00     0.074 A 
ATOM     32  C   UNL A   1      42.840  27.208  27.368  1.00  0.00     0.049 A 
ATOM     33  N   UNL A   1      44.497  29.719  27.846  1.00  0.00    -0.248 NA
ATOM     34  C   UNL A   1      42.543  30.786  28.555  1.00  0.00     0.031 C 
ATOM     35  C   UNL A   1      42.056  25.993  27.139  1.00  0.00     0.029 A 
ATOM     36  N   UNL A   1      44.116  26.863  27.024  1.00  0.00    -0.354 N 
ATOM     37  C   UNL A   1      44.779  31.034  28.193  1.00  0.00     0.074 A 
ATOM     38  C   UNL A   1      43.535  31.660  28.573  1.00  0.00     0.031 C 
ATOM     39  C   UNL A   1      42.873  25.034  26.676  1.00  0.00     0.029 A 
ATOM     40  C   UNL A   1      44.223  25.580  26.552  1.00  0.00     0.049 A 
ATOM     41  H   UNL A   1      44.882  27.476  27.105  1.00  0.00     0.167 HD
ATOM     42  C   UNL A   1      45.979  31.655  28.202  1.00  0.00     0.031 A 
ATOM     43  C   UNL A   1      45.295  24.938  26.054  1.00  0.00     0.031 A 
ATOM     44  C   UNL A   1      47.195  31.007  27.800  1.00  0.00     0.049 A 
ATOM     45  C   UNL A   1      46.613  25.663  26.026  1.00  0.00     0.074 A 
ATOM     46  C   UNL A   1      48.478  31.517  27.789  1.00  0.00     0.029 A 
ATOM     47  N   UNL A   1      47.271  29.705  27.321  1.00  0.00    -0.354 N 
ATOM     48  N   UNL A   1      46.887  26.889  26.412  1.00  0.00    -0.248 NA
ATOM     49  C   UNL A   1      47.768  24.920  25.510  1.00  0.00     0.031 C 
ATOM     50  C   UNL A   1      49.321  30.546  27.238  1.00  0.00     0.029 A 
ATOM     51  C   UNL A   1      48.574  29.405  26.977  1.00  0.00     0.049 A 
ATOM     52  H   UNL A   1      46.508  29.088  27.240  1.00  0.00     0.167 HD
ATOM     53  C   UNL A   1      48.252  27.055  26.211  1.00  0.00     0.074 A 
ATOM     54  C   UNL A   1      48.747  25.801  25.677  1.00  0.00     0.031 C 
ATOM     55  C   UNL A   1      49.029  28.142  26.449  1.00  0.00     0.031 A 
BRANCH  42  56
ATOM     56  C   UNL A   1      46.007  33.103  28.607  1.00  0.00    -0.014 A 
ATOM     57  C   UNL A   1      46.179  33.490  29.948  1.00  0.00     0.010 A 
ATOM     58  C   UNL A   1      45.850  34.096  27.624  1.00  0.00     0.010 A 
ATOM     59  C   UNL A   1      46.144  34.842  30.305  1.00  0.00     0.020 A 
ATOM     60  C   UNL A   1      45.846  35.449  27.972  1.00  0.00     0.020 A 
ATOM     61  C   UNL A   1      45.973  35.813  29.314  1.00  0.00     0.054 A 
BRANCH  61  62
ATOM     62  S   UNL A   1      45.934  37.557  29.803  1.00  0.00     0.124 S 
ATOM     63  O   UNL A   1      45.391  37.480  31.157  1.00  0.00    -0.237 OA
ATOM     64  O   UNL A   1      47.339  37.946  29.713  1.00  0.00    -0.237 OA
ATOM     65  O   UNL A   1      45.055  38.176  28.815  1.00  0.00    -0.744 OA
ENDBRANCH  61  62
ENDBRANCH  42  56
BRANCH  43  66
ATOM     66  C   UNL A   1      45.142  23.553  25.538  1.00  0.00    -0.014 A 
ATOM     67  C   UNL A   1      44.758  23.314  24.209  1.00  0.00     0.010 A 
ATOM     68  C   UNL A   1      45.435  22.458  26.373  1.00  0.00     0.010 A 
ATOM     69  C   UNL A   1      44.660  22.005  23.726  1.00  0.00     0.020 A 
ATOM     70  C   UNL A   1      45.365  21.151  25.888  1.00  0.00     0.020 A 
ATOM     71  C   UNL A   1      44.970  20.932  24.567  1.00  0.00     0.054 A 
BRANCH  71  72
ATOM     72  S   UNL A   1      44.897  19.246  23.900  1.00  0.00     0.124 S 
ATOM     73  O   UNL A   1      44.361  19.472  22.563  1.00  0.00    -0.237 OA
ATOM     74  O   UNL A   1      46.295  18.825  23.961  1.00  0.00    -0.237 OA
ATOM     75  O   UNL A   1      44.004  18.550  24.825  1.00  0.00    -0.744 OA
ENDBRANCH  71  72
ENDBRANCH  43  66
BRANCH  55  76
ATOM     76  C   UNL A   1      50.502  28.018  26.167  1.00  0.00    -0.014 A 
ATOM     77  C   UNL A   1      51.394  27.546  27.144  1.00  0.00     0.010 A 
ATOM     78  C   UNL A   1      50.976  28.281  24.868  1.00  0.00     0.010 A 
ATOM     79  C   UNL A   1      52.740  27.349  26.829  1.00  0.00     0.020 A 
ATOM     80  C   UNL A   1      52.313  28.056  24.541  1.00  0.00     0.020 A 
ATOM     81  C   UNL A   1      53.189  27.598  25.528  1.00  0.00     0.054 A 
BRANCH  81  82
ATOM     82  S   UNL A   1      54.923  27.256  25.125  1.00  0.00     0.124 S 
ATOM     83  O   UNL A   1      55.384  28.554  24.639  1.00  0.00    -0.237 OA
ATOM     84  O   UNL A   1      55.472  26.835  26.411  1.00  0.00    -0.237 OA
ATOM     85  O   UNL A   1      54.845  26.205  24.113  1.00  0.00    -0.744 OA
ENDBRANCH  81  82
ENDBRANCH  55  76
ENDBRANCH  29  30
ENDBRANCH  22  24
ENDBRANCH  21  22
ENDBRANCH  20  21
ENDBRANCH   1  20
TORSDOF 17
ENDMDL
MODEL 2
REMARK VINA RESULT:     -10.1      4.352      6.330
REMARK SMILES O=C(C[C@H]1CN(c2nc(C3CC3)ns2)CCO1)OCCOC(=O)c1ccc(-c2c3nc(c(-c4ccc(S(=O)(=O)[O-])cc4)c4ccc([nH]4)c(-c4ccc(S(=O)(=O)[O-])cc4)c4nc(c(-c5ccc(S(=O)(=O)[O-])cc5)c5ccc2[nH]5)C=C4)C=C3)cc1
REMARK SMILES IDX 19 1 18 2 2 3 1 4 3 5 4 6 5 7 17 8 6 9 16 10 15 11 7 12 8 13
REMARK SMILES IDX 14 14 9 15 13 16 10 17 11 18 12 19 20 20 21 21 22 22 23 23
REMARK SMILES IDX 24 24 25 25 83 26 26 27 82 28 27 29 28 30 29 31 76 32 30 33
REMARK SMILES IDX 81 34 75 35 77 36 31 37 80 38 74 39 73 40 32 42 62 43 43 44
REMARK SMILES IDX 61 45 44 46 47 47 60 48 78 49 45 50 46 51 59 53 79 54 48 55
REMARK SMILES IDX 33 56 34 57 42 58 35 59 41 60 36 61 37 62 38 63 39 64 40 65
REMARK SMILES IDX 63 66 64 67 72 68 65 69 71 70 66 71 67 72 68 73 69 74 70 75
REMARK SMILES IDX 49 76 50 77 58 78 51 79 57 80 52 81 53 82 54 83 55 84 56 85
REMARK H PARENT 77 41 47 52
REMARK Flexibility Score: inf
ROOT
ATOM      1  C   UNL A   1      35.500  32.791  29.166  1.00  0.00     0.274 C 
ENDROOT
BRANCH   1   2
ATOM      2  O   UNL A   1      35.308  34.192  28.966  1.00  0.00    -0.462 OA
BRANCH   2   3
ATOM      3  C   UNL A   1      33.998  34.532  28.763  1.00  0.00     0.308 C 
ATOM      4  O   UNL A   1      33.245  33.850  28.081  1.00  0.00    -0.252 OA
BRANCH   3   5
ATOM      5  C   UNL A   1      33.602  35.863  29.359  1.00  0.00     0.156 C 
BRANCH   5   6
ATOM      6  C   UNL A   1      32.700  35.847  30.611  1.00  0.00     0.148 C 
ATOM      7  C   UNL A   1      33.005  34.909  31.823  1.00  0.00     0.151 C 
ATOM      8  O   UNL A   1      32.547  37.208  31.086  1.00  0.00    -0.374 OA
ATOM      9  N   UNL A   1      34.091  35.421  32.683  1.00  0.00    -0.342 N 
ATOM     10  C   UNL A   1      33.707  37.684  31.792  1.00  0.00     0.182 C 
ATOM     11  C   UNL A   1      34.013  36.836  33.038  1.00  0.00     0.147 C 
BRANCH   9  12
ATOM     12  C   UNL A   1      34.937  34.565  33.332  1.00  0.00     0.205 A 
ATOM     13  N   UNL A   1      35.943  34.949  34.099  1.00  0.00    -0.203 NA
ATOM     14  S   UNL A   1      34.987  32.852  33.107  1.00  0.00     0.004 S 
ATOM     15  C   UNL A   1      36.809  33.886  34.331  1.00  0.00     0.147 A 
ATOM     16  N   UNL A   1      36.416  32.665  33.957  1.00  0.00    -0.174 NA
BRANCH  15  17
ATOM     17  C   UNL A   1      38.211  34.048  34.966  1.00  0.00     0.059 C 
ATOM     18  C   UNL A   1      38.402  34.142  36.472  1.00  0.00     0.012 C 
ATOM     19  C   UNL A   1      38.861  32.925  35.752  1.00  0.00     0.012 C 
ENDBRANCH  15  17
ENDBRANCH   9  12
ENDBRANCH   5   6
ENDBRANCH   3   5
ENDBRANCH   2   3
ENDBRANCH   1   2
BRANCH   1  20
ATOM     20  C   UNL A   1      36.634  32.085  28.417  1.00  0.00     0.275 C 
BRANCH  20  21
ATOM     21  O   UNL A   1      37.381  31.267  29.292  1.00  0.00    -0.458 OA
BRANCH  21  22
ATOM     22  C   UNL A   1      37.191  29.960  29.017  1.00  0.00     0.338 C 
ATOM     23  O   UNL A   1      36.135  29.369  28.852  1.00  0.00    -0.246 OA
BRANCH  22  24
ATOM     24  C   UNL A   1      38.510  29.460  28.659  1.00  0.00     0.060 A 
ATOM     25  C   UNL A   1      39.325  29.010  29.700  1.00  0.00     0.016 A 
ATOM     26  C   UNL A   1      38.890  29.371  27.316  1.00  0.00     0.016 A 
ATOM     27  C   UNL A   1      40.590  28.546  29.400  1.00  0.00     0.010 A 
ATOM     28  C   UNL A   1      40.149  28.888  27.015  1.00  0.00     0.010 A 
ATOM     29  C   UNL A   1      41.014  28.542  28.065  1.00  0.00    -0.014 A 
BRANCH  29  30
ATOM     30  C   UNL A   1      42.447  28.419  27.780  1.00  0.00     0.031 A 
ATOM     31  C   UNL A   1      43.297  29.635  27.992  1.00  0.00     0.074 A 
ATOM     32  C   UNL A   1      42.949  27.253  27.353  1.00  0.00     0.049 A 
ATOM     33  N   UNL A   1      44.577  29.790  27.792  1.00  0.00    -0.248 NA
ATOM     34  C   UNL A   1      42.612  30.846  28.485  1.00  0.00     0.031 C 
ATOM     35  C   UNL A   1      42.178  26.027  27.142  1.00  0.00     0.029 A 
ATOM     36  N   UNL A   1      44.228  26.918  27.013  1.00  0.00    -0.354 N 
ATOM     37  C   UNL A   1      44.845  31.113  28.119  1.00  0.00     0.074 A 
ATOM     38  C   UNL A   1      43.594  31.731  28.489  1.00  0.00     0.031 C 
ATOM     39  C   UNL A   1      43.006  25.069  26.694  1.00  0.00     0.029 A 
ATOM     40  C   UNL A   1      44.350  25.629  26.561  1.00  0.00     0.049 A 
ATOM     41  H   UNL A   1      44.987  27.540  27.085  1.00  0.00     0.167 HD
ATOM     42  C   UNL A   1      46.038  31.747  28.118  1.00  0.00     0.031 A 
ATOM     43  C   UNL A   1      45.428  24.992  26.073  1.00  0.00     0.031 A 
ATOM     44  C   UNL A   1      47.261  31.108  27.725  1.00  0.00     0.049 A 
ATOM     45  C   UNL A   1      46.739  25.731  26.033  1.00  0.00     0.074 A 
ATOM     46  C   UNL A   1      48.538  31.632  27.707  1.00  0.00     0.029 A 
ATOM     47  N   UNL A   1      47.351  29.799  27.267  1.00  0.00    -0.354 N 
ATOM     48  N   UNL A   1      46.999  26.966  26.401  1.00  0.00    -0.248 NA
ATOM     49  C   UNL A   1      47.902  24.992  25.529  1.00  0.00     0.031 C 
ATOM     50  C   UNL A   1      49.391  30.662  27.171  1.00  0.00     0.029 A 
ATOM     51  C   UNL A   1      48.657  29.509  26.927  1.00  0.00     0.049 A 
ATOM     52  H   UNL A   1      46.595  29.173  27.195  1.00  0.00     0.167 HD
ATOM     53  C   UNL A   1      48.362  27.144  26.197  1.00  0.00     0.074 A 
ATOM     54  C   UNL A   1      48.871  25.887  25.682  1.00  0.00     0.031 C 
ATOM     55  C   UNL A   1      49.127  28.242  26.418  1.00  0.00     0.031 A 
BRANCH  42  56
ATOM     56  C   UNL A   1      46.049  33.202  28.501  1.00  0.00    -0.014 A 
ATOM     57  C   UNL A   1      45.832  34.216  27.549  1.00  0.00     0.010 A 
ATOM     58  C   UNL A   1      46.287  33.562  29.839  1.00  0.00     0.010 A 
ATOM     59  C   UNL A   1      45.904  35.562  27.919  1.00  0.00     0.020 A 
ATOM     60  C   UNL A   1      46.327  34.905  30.219  1.00  0.00     0.020 A 
ATOM     61  C   UNL A   1      46.156  35.898  29.253  1.00  0.00     0.054 A 
BRANCH  61  62
ATOM     62  S   UNL A   1      46.240  37.650  29.707  1.00  0.00     0.124 S 
ATOM     63  O   UNL A   1      47.630  37.976  29.397  1.00  0.00    -0.237 OA
ATOM     64  O   UNL A   1      45.243  38.257  28.829  1.00  0.00    -0.237 OA
ATOM     65  O   UNL A   1      45.902  37.658  31.128  1.00  0.00    -0.744 OA
ENDBRANCH  61  62
ENDBRANCH  42  56
BRANCH  43  66
ATOM     66  C   UNL A   1      45.291  23.597  25.578  1.00  0.00    -0.014 A 
ATOM     67  C   UNL A   1      45.378  22.506  26.457  1.00  0.00     0.010 A 
ATOM     68  C   UNL A   1      45.018  23.360  24.217  1.00  0.00     0.010 A 
ATOM     69  C   UNL A   1      45.204  21.201  25.984  1.00  0.00     0.020 A 
ATOM     70  C   UNL A   1      44.817  22.062  23.745  1.00  0.00     0.020 A 
ATOM     71  C   UNL A   1      44.919  20.988  24.631  1.00  0.00     0.054 A 
BRANCH  71  72
ATOM     72  S   UNL A   1      44.635  19.292  24.052  1.00  0.00     0.124 S 
ATOM     73  O   UNL A   1      43.361  18.965  24.684  1.00  0.00    -0.237 OA
ATOM     74  O   UNL A   1      44.598  19.459  22.601  1.00  0.00    -0.237 OA
ATOM     75  O   UNL A   1      45.793  18.558  24.558  1.00  0.00    -0.744 OA
ENDBRANCH  71  72
ENDBRANCH  43  66
BRANCH  55  76
ATOM     76  C   UNL A   1      50.601  28.131  26.138  1.00  0.00    -0.014 A 
ATOM     77  C   UNL A   1      51.518  27.839  27.162  1.00  0.00     0.010 A 
ATOM     78  C   UNL A   1      51.055  28.218  24.808  1.00  0.00     0.010 A 
ATOM     79  C   UNL A   1      52.867  27.646  26.860  1.00  0.00     0.020 A 
ATOM     80  C   UNL A   1      52.397  27.995  24.500  1.00  0.00     0.020 A 
ATOM     81  C   UNL A   1      53.297  27.717  25.531  1.00  0.00     0.054 A 
BRANCH  81  82
ATOM     82  S   UNL A   1      55.039  27.381  25.159  1.00  0.00     0.124 S 
ATOM     83  O   UNL A   1      54.948  26.175  24.340  1.00  0.00    -0.237 OA
ATOM     84  O   UNL A   1      55.453  28.591  24.454  1.00  0.00    -0.237 OA
ATOM     85  O   UNL A   1      55.646  27.196  26.475  1.00  0.00    -0.744 OA
ENDBRANCH  81  82
ENDBRANCH  55  76
ENDBRANCH  29  30
ENDBRANCH  22  24
ENDBRANCH  21  22
ENDBRANCH  20  21
ENDBRANCH   1  20
TORSDOF 17
ENDMDL
MODEL 3
REMARK VINA RESULT:     -10.0      4.768     10.549
REMARK SMILES O=C(C[C@H]1CN(c2nc(C3CC3)ns2)CCO1)OCCOC(=O)c1ccc(-c2c3nc(c(-c4ccc(S(=O)(=O)[O-])cc4)c4ccc([nH]4)c(-c4ccc(S(=O)(=O)[O-])cc4)c4nc(c(-c5ccc(S(=O)(=O)[O-])cc5)c5ccc2[nH]5)C=C4)C=C3)cc1
REMARK SMILES IDX 19 1 18 2 2 3 1 4 3 5 4 6 5 7 17 8 6 9 16 10 15 11 7 12 8 13
REMARK SMILES IDX 14 14 9 15 13 16 10 17 11 18 12 19 20 20 21 21 22 22 23 23
REMARK SMILES IDX 24 24 25 25 83 26 26 27 82 28 27 29 28 30 29 31 76 32 30 33
REMARK SMILES IDX 81 34 75 35 77 36 31 37 80 38 74 39 73 40 32 42 62 43 43 44
REMARK SMILES IDX 61 45 44 46 47 47 60 48 78 49 45 50 46 51 59 53 79 54 48 55
REMARK SMILES IDX 33 56 34 57 42 58 35 59 41 60 36 61 37 62 38 63 39 64 40 65
REMARK SMILES IDX 63 66 64 67 72 68 65 69 71 70 66 71 67 72 68 73 69 74 70 75
REMARK SMILES IDX 49 76 50 77 58 78 51 79 57 80 52 81 53 82 54 83 55 84 56 85
REMARK H PARENT 77 41 47 52
REMARK Flexibility Score: inf
ROOT
ATOM      1  C   UNL A   1      36.731  22.399  25.722  1.00  0.00     0.274 C 
ENDROOT
BRANCH   1   2
ATOM      2  O   UNL A   1      35.736  22.509  24.703  1.00  0.00    -0.462 OA
BRANCH   2   3
ATOM      3  C   UNL A   1      34.762  21.552  24.797  1.00  0.00     0.308 C 
ATOM      4  O   UNL A   1      35.012  20.356  24.721  1.00  0.00    -0.252 OA
BRANCH   3   5
ATOM      5  C   UNL A   1      33.358  22.101  24.893  1.00  0.00     0.156 C 
BRANCH   5   6
ATOM      6  C   UNL A   1      32.845  22.517  26.287  1.00  0.00     0.148 C 
ATOM      7  C   UNL A   1      32.874  24.008  26.755  1.00  0.00     0.151 C 
ATOM      8  O   UNL A   1      31.507  21.986  26.463  1.00  0.00    -0.374 OA
ATOM      9  N   UNL A   1      31.778  24.810  26.177  1.00  0.00    -0.342 N 
ATOM     10  C   UNL A   1      30.511  22.742  25.749  1.00  0.00     0.182 C 
ATOM     11  C   UNL A   1      30.449  24.204  26.221  1.00  0.00     0.147 C 
BRANCH   9  12
ATOM     12  C   UNL A   1      31.952  26.136  25.891  1.00  0.00     0.205 A 
ATOM     13  N   UNL A   1      32.166  27.073  26.798  1.00  0.00    -0.203 NA
ATOM     14  S   UNL A   1      31.716  26.860  24.339  1.00  0.00     0.004 S 
ATOM     15  C   UNL A   1      31.960  28.334  26.250  1.00  0.00     0.147 A 
ATOM     16  N   UNL A   1      31.802  28.424  24.926  1.00  0.00    -0.174 NA
BRANCH  15  17
ATOM     17  C   UNL A   1      31.871  29.630  27.093  1.00  0.00     0.059 C 
ATOM     18  C   UNL A   1      33.034  30.606  27.186  1.00  0.00     0.012 C 
ATOM     19  C   UNL A   1      31.808  30.998  26.442  1.00  0.00     0.012 C 
ENDBRANCH  15  17
ENDBRANCH   9  12
ENDBRANCH   5   6
ENDBRANCH   3   5
ENDBRANCH   2   3
ENDBRANCH   1   2
BRANCH   1  20
ATOM     20  C   UNL A   1      38.078  21.759  25.375  1.00  0.00     0.275 C 
BRANCH  20  21
ATOM     21  O   UNL A   1      39.130  22.687  25.530  1.00  0.00    -0.458 OA
BRANCH  21  22
ATOM     22  C   UNL A   1      39.677  22.602  26.760  1.00  0.00     0.338 C 
ATOM     23  O   UNL A   1      40.223  21.641  27.279  1.00  0.00    -0.246 OA
BRANCH  22  24
ATOM     24  C   UNL A   1      39.750  23.978  27.229  1.00  0.00     0.060 A 
ATOM     25  C   UNL A   1      40.426  24.893  26.419  1.00  0.00     0.016 A 
ATOM     26  C   UNL A   1      39.095  24.358  28.405  1.00  0.00     0.016 A 
ATOM     27  C   UNL A   1      40.532  26.202  26.842  1.00  0.00     0.010 A 
ATOM     28  C   UNL A   1      39.184  25.673  28.817  1.00  0.00     0.010 A 
ATOM     29  C   UNL A   1      39.959  26.571  28.066  1.00  0.00    -0.014 A 
BRANCH  29  30
ATOM     30  C   UNL A   1      40.381  27.827  28.694  1.00  0.00     0.031 A 
ATOM     31  C   UNL A   1      41.767  27.881  29.260  1.00  0.00     0.074 A 
ATOM     32  C   UNL A   1      39.541  28.869  28.739  1.00  0.00     0.049 A 
ATOM     33  N   UNL A   1      42.365  28.860  29.881  1.00  0.00    -0.248 NA
ATOM     34  C   UNL A   1      42.589  26.663  29.120  1.00  0.00     0.031 C 
ATOM     35  C   UNL A   1      38.184  28.887  28.191  1.00  0.00     0.029 A 
ATOM     36  N   UNL A   1      39.709  30.111  29.281  1.00  0.00    -0.354 N 
ATOM     37  C   UNL A   1      43.622  28.373  30.216  1.00  0.00     0.074 A 
ATOM     38  C   UNL A   1      43.689  27.001  29.771  1.00  0.00     0.031 C 
ATOM     39  C   UNL A   1      37.636  30.088  28.438  1.00  0.00     0.029 A 
ATOM     40  C   UNL A   1      38.593  30.902  29.184  1.00  0.00     0.049 A 
ATOM     41  H   UNL A   1      40.548  30.409  29.700  1.00  0.00     0.167 HD
ATOM     42  C   UNL A   1      44.632  29.024  30.834  1.00  0.00     0.031 A 
ATOM     43  C   UNL A   1      38.374  32.135  29.672  1.00  0.00     0.031 A 
ATOM     44  C   UNL A   1      44.525  30.384  31.281  1.00  0.00     0.049 A 
ATOM     45  C   UNL A   1      39.494  32.826  30.400  1.00  0.00     0.074 A 
ATOM     46  C   UNL A   1      45.483  31.165  31.894  1.00  0.00     0.029 A 
ATOM     47  N   UNL A   1      43.376  31.158  31.173  1.00  0.00    -0.354 N 
ATOM     48  N   UNL A   1      40.703  32.382  30.663  1.00  0.00    -0.248 NA
ATOM     49  C   UNL A   1      39.231  34.186  30.886  1.00  0.00     0.031 C 
ATOM     50  C   UNL A   1      44.893  32.390  32.220  1.00  0.00     0.029 A 
ATOM     51  C   UNL A   1      43.589  32.398  31.741  1.00  0.00     0.049 A 
ATOM     52  H   UNL A   1      42.535  30.865  30.753  1.00  0.00     0.167 HD
ATOM     53  C   UNL A   1      41.354  33.418  31.322  1.00  0.00     0.074 A 
ATOM     54  C   UNL A   1      40.407  34.513  31.408  1.00  0.00     0.031 C 
ATOM     55  C   UNL A   1      42.620  33.466  31.807  1.00  0.00     0.031 A 
BRANCH  42  56
ATOM     56  C   UNL A   1      45.895  28.252  31.098  1.00  0.00    -0.014 A 
ATOM     57  C   UNL A   1      46.949  28.222  30.166  1.00  0.00     0.010 A 
ATOM     58  C   UNL A   1      46.026  27.536  32.301  1.00  0.00     0.010 A 
ATOM     59  C   UNL A   1      48.089  27.450  30.411  1.00  0.00     0.020 A 
ATOM     60  C   UNL A   1      47.177  26.789  32.564  1.00  0.00     0.020 A 
ATOM     61  C   UNL A   1      48.193  26.735  31.608  1.00  0.00     0.054 A 
BRANCH  61  62
ATOM     62  S   UNL A   1      49.683  25.745  31.902  1.00  0.00     0.124 S 
ATOM     63  O   UNL A   1      49.898  25.127  30.596  1.00  0.00    -0.237 OA
ATOM     64  O   UNL A   1      50.666  26.754  32.288  1.00  0.00    -0.237 OA
ATOM     65  O   UNL A   1      49.286  24.827  32.966  1.00  0.00    -0.744 OA
ENDBRANCH  61  62
ENDBRANCH  42  56
BRANCH  43  66
ATOM     66  C   UNL A   1      37.040  32.765  29.491  1.00  0.00    -0.014 A 
ATOM     67  C   UNL A   1      36.107  32.797  30.539  1.00  0.00     0.010 A 
ATOM     68  C   UNL A   1      36.719  33.388  28.269  1.00  0.00     0.010 A 
ATOM     69  C   UNL A   1      34.872  33.432  30.367  1.00  0.00     0.020 A 
ATOM     70  C   UNL A   1      35.499  34.046  28.102  1.00  0.00     0.020 A 
ATOM     71  C   UNL A   1      34.578  34.057  29.151  1.00  0.00     0.054 A 
BRANCH  71  72
ATOM     72  S   UNL A   1      32.997  34.928  28.973  1.00  0.00     0.124 S 
ATOM     73  O   UNL A   1      32.289  34.080  28.020  1.00  0.00    -0.237 OA
ATOM     74  O   UNL A   1      32.478  34.917  30.339  1.00  0.00    -0.237 OA
ATOM     75  O   UNL A   1      33.385  36.246  28.473  1.00  0.00    -0.744 OA
ENDBRANCH  71  72
ENDBRANCH  43  66
BRANCH  55  76
ATOM     76  C   UNL A   1      43.072  34.749  32.447  1.00  0.00    -0.014 A 
ATOM     77  C   UNL A   1      43.713  35.752  31.699  1.00  0.00     0.010 A 
ATOM     78  C   UNL A   1      42.752  34.993  33.796  1.00  0.00     0.010 A 
ATOM     79  C   UNL A   1      44.036  36.973  32.294  1.00  0.00     0.020 A 
ATOM     80  C   UNL A   1      43.045  36.224  34.385  1.00  0.00     0.020 A 
ATOM     81  C   UNL A   1      43.693  37.204  33.630  1.00  0.00     0.054 A 
BRANCH  81  82
ATOM     82  S   UNL A   1      44.050  38.828  34.353  1.00  0.00     0.124 S 
ATOM     83  O   UNL A   1      44.041  38.533  35.783  1.00  0.00    -0.237 OA
ATOM     84  O   UNL A   1      45.357  39.148  33.785  1.00  0.00    -0.237 OA
ATOM     85  O   UNL A   1      42.951  39.667  33.884  1.00  0.00    -0.744 OA
ENDBRANCH  81  82
ENDBRANCH  55  76
ENDBRANCH  29  30
ENDBRANCH  22  24
ENDBRANCH  21  22
ENDBRANCH  20  21
ENDBRANCH   1  20
TORSDOF 17
ENDMDL
