MODEL 1
REMARK VINA RESULT:     -11.2      0.000      0.000
REMARK SMILES Cc1cc(C)c2c(O[C@@H](C)C(=O)OCCOC(=O)c3ccc(-c4c5nc(c(-c6ccc(S(=O)(=O)[O-])cc6)c6ccc([nH]6)c(-c6ccc(S(=O)(=O)[O-])cc6)c6nc(c(-c7ccc(S(=O)(=O)[O-])cc7)c7ccc4[nH]7)C=C6)C=C5)cc3)nsc2n1
REMARK SMILES IDX 15 1 14 2 13 3 11 4 12 5 9 6 10 7 8 8 7 9 1 10 2 11 3 12
REMARK SMILES IDX 82 13 4 14 81 15 5 16 6 17 80 18 79 19 16 20 17 21 18 22
REMARK SMILES IDX 19 23 20 24 78 25 21 26 77 27 22 28 23 29 24 30 71 31 25 32
REMARK SMILES IDX 76 33 70 34 72 35 26 36 75 37 69 38 68 39 27 41 57 42 38 43
REMARK SMILES IDX 56 44 39 45 42 46 55 47 73 48 40 49 41 50 54 52 74 53 43 54
REMARK SMILES IDX 28 55 29 56 37 57 30 58 36 59 31 60 32 61 33 62 34 63 35 64
REMARK SMILES IDX 58 65 59 66 67 67 60 68 66 69 61 70 62 71 63 72 64 73 65 74
REMARK SMILES IDX 44 75 45 76 53 77 46 78 52 79 47 80 48 81 49 82 50 83 51 84
REMARK H PARENT 72 40 42 51
REMARK Flexibility Score: inf
ROOT
ATOM      1  C   UNL A   1      44.957  22.611  23.910  1.00  0.00     0.275 C 
ENDROOT
BRANCH   1   2
ATOM      2  C   UNL A   1      44.819  21.300  24.662  1.00  0.00     0.274 C 
BRANCH   2   3
ATOM      3  O   UNL A   1      43.439  21.125  25.038  1.00  0.00    -0.459 OA
BRANCH   3   4
ATOM      4  C   UNL A   1      42.979  19.919  25.449  1.00  0.00     0.347 C 
ATOM      5  O   UNL A   1      43.391  18.847  25.019  1.00  0.00    -0.248 OA
BRANCH   4   6
ATOM      6  C   UNL A   1      41.869  20.048  26.534  1.00  0.00     0.281 C 
ATOM      7  C   UNL A   1      42.089  19.063  27.689  1.00  0.00     0.066 C 
BRANCH   6   8
ATOM      8  O   UNL A   1      40.472  20.091  26.420  1.00  0.00    -0.462 OA
BRANCH   8   9
ATOM      9  C   UNL A   1      39.794  21.254  26.373  1.00  0.00     0.236 A 
ATOM     10  C   UNL A   1      35.360  24.192  24.415  1.00  0.00     0.067 C 
ATOM     11  C   UNL A   1      36.445  23.291  24.920  1.00  0.00     0.039 A 
ATOM     12  C   UNL A   1      36.384  21.931  24.665  1.00  0.00     0.027 A 
ATOM     13  N   UNL A   1      37.404  23.861  25.655  1.00  0.00    -0.240 NA
ATOM     14  C   UNL A   1      37.374  21.051  25.151  1.00  0.00    -0.034 A 
ATOM     15  C   UNL A   1      38.377  23.023  26.059  1.00  0.00     0.147 A 
ATOM     16  C   UNL A   1      37.148  19.605  24.782  1.00  0.00     0.045 C 
ATOM     17  C   UNL A   1      38.488  21.643  25.839  1.00  0.00     0.078 A 
ATOM     18  S   UNL A   1      39.682  23.604  26.977  1.00  0.00    -0.012 S 
ATOM     19  N   UNL A   1      40.458  22.164  27.084  1.00  0.00    -0.153 NA
ENDBRANCH   8   9
ENDBRANCH   6   8
ENDBRANCH   4   6
ENDBRANCH   3   4
ENDBRANCH   2   3
ENDBRANCH   1   2
BRANCH   1  20
ATOM     20  O   UNL A   1      43.886  23.450  24.318  1.00  0.00    -0.458 OA
BRANCH  20  21
ATOM     21  C   UNL A   1      44.260  24.604  24.920  1.00  0.00     0.338 C 
ATOM     22  O   UNL A   1      45.306  25.206  24.793  1.00  0.00    -0.246 OA
BRANCH  21  23
ATOM     23  C   UNL A   1      43.199  25.012  25.836  1.00  0.00     0.060 A 
ATOM     24  C   UNL A   1      42.339  26.029  25.402  1.00  0.00     0.016 A 
ATOM     25  C   UNL A   1      43.346  24.660  27.177  1.00  0.00     0.016 A 
ATOM     26  C   UNL A   1      41.830  26.887  26.348  1.00  0.00     0.010 A 
ATOM     27  C   UNL A   1      42.909  25.555  28.103  1.00  0.00     0.010 A 
ATOM     28  C   UNL A   1      42.237  26.699  27.667  1.00  0.00    -0.014 A 
BRANCH  28  29
ATOM     29  C   UNL A   1      42.087  27.777  28.613  1.00  0.00     0.031 A 
ATOM     30  C   UNL A   1      43.165  28.782  28.559  1.00  0.00     0.074 A 
ATOM     31  C   UNL A   1      40.912  27.939  29.248  1.00  0.00     0.049 A 
ATOM     32  N   UNL A   1      44.104  28.995  29.419  1.00  0.00    -0.248 NA
ATOM     33  C   UNL A   1      43.345  29.495  27.280  1.00  0.00     0.031 C 
ATOM     34  C   UNL A   1      39.656  27.208  29.030  1.00  0.00     0.029 A 
ATOM     35  N   UNL A   1      40.550  28.917  30.109  1.00  0.00    -0.354 N 
ATOM     36  C   UNL A   1      44.879  29.996  28.849  1.00  0.00     0.074 A 
ATOM     37  C   UNL A   1      44.556  30.014  27.449  1.00  0.00     0.031 C 
ATOM     38  C   UNL A   1      38.635  27.931  29.545  1.00  0.00     0.029 A 
ATOM     39  C   UNL A   1      39.180  29.102  30.214  1.00  0.00     0.049 A 
ATOM     40  H   UNL A   1      41.203  29.452  30.616  1.00  0.00     0.167 HD
ATOM     41  C   UNL A   1      45.491  30.967  29.579  1.00  0.00     0.031 A 
ATOM     42  C   UNL A   1      38.573  30.216  30.697  1.00  0.00     0.031 A 
ATOM     43  C   UNL A   1      45.463  30.677  30.987  1.00  0.00     0.049 A 
ATOM     44  C   UNL A   1      39.611  30.988  31.440  1.00  0.00     0.074 A 
ATOM     45  C   UNL A   1      45.977  29.668  31.774  1.00  0.00     0.029 A 
ATOM     46  N   UNL A   1      44.463  31.272  31.723  1.00  0.00    -0.354 N 
ATOM     47  N   UNL A   1      40.202  30.559  32.521  1.00  0.00    -0.248 NA
ATOM     48  C   UNL A   1      40.321  32.043  30.731  1.00  0.00     0.031 C 
ATOM     49  C   UNL A   1      44.982  29.423  32.763  1.00  0.00     0.029 A 
ATOM     50  C   UNL A   1      43.932  30.324  32.565  1.00  0.00     0.049 A 
ATOM     51  H   UNL A   1      44.177  32.212  31.658  1.00  0.00     0.167 HD
ATOM     52  C   UNL A   1      41.523  30.981  32.409  1.00  0.00     0.074 A 
ATOM     53  C   UNL A   1      41.507  31.980  31.344  1.00  0.00     0.031 C 
ATOM     54  C   UNL A   1      42.542  30.277  32.986  1.00  0.00     0.031 A 
BRANCH  41  55
ATOM     55  C   UNL A   1      45.774  32.342  29.030  1.00  0.00    -0.014 A 
ATOM     56  C   UNL A   1      44.757  33.310  29.035  1.00  0.00     0.010 A 
ATOM     57  C   UNL A   1      46.955  32.661  28.322  1.00  0.00     0.010 A 
ATOM     58  C   UNL A   1      44.915  34.527  28.357  1.00  0.00     0.020 A 
ATOM     59  C   UNL A   1      47.149  33.889  27.696  1.00  0.00     0.020 A 
ATOM     60  C   UNL A   1      46.112  34.806  27.690  1.00  0.00     0.054 A 
BRANCH  60  61
ATOM     61  S   UNL A   1      46.280  36.339  26.747  1.00  0.00     0.124 S 
ATOM     62  O   UNL A   1      47.150  37.129  27.613  1.00  0.00    -0.237 OA
ATOM     63  O   UNL A   1      46.878  35.872  25.499  1.00  0.00    -0.237 OA
ATOM     64  O   UNL A   1      44.906  36.822  26.631  1.00  0.00    -0.744 OA
ENDBRANCH  60  61
ENDBRANCH  41  55
BRANCH  42  65
ATOM     65  C   UNL A   1      37.318  30.840  30.198  1.00  0.00    -0.014 A 
ATOM     66  C   UNL A   1      36.330  31.275  31.101  1.00  0.00     0.010 A 
ATOM     67  C   UNL A   1      37.210  31.267  28.858  1.00  0.00     0.010 A 
ATOM     68  C   UNL A   1      35.325  32.171  30.697  1.00  0.00     0.020 A 
ATOM     69  C   UNL A   1      36.204  32.148  28.445  1.00  0.00     0.020 A 
ATOM     70  C   UNL A   1      35.286  32.622  29.376  1.00  0.00     0.054 A 
BRANCH  70  71
ATOM     71  S   UNL A   1      34.121  33.939  28.914  1.00  0.00     0.124 S 
ATOM     72  O   UNL A   1      33.266  33.271  27.939  1.00  0.00    -0.237 OA
ATOM     73  O   UNL A   1      33.492  34.263  30.191  1.00  0.00    -0.237 OA
ATOM     74  O   UNL A   1      34.984  34.986  28.370  1.00  0.00    -0.744 OA
ENDBRANCH  70  71
ENDBRANCH  42  65
BRANCH  54  75
ATOM     75  C   UNL A   1      42.180  29.180  33.969  1.00  0.00    -0.014 A 
ATOM     76  C   UNL A   1      41.972  27.837  33.593  1.00  0.00     0.010 A 
ATOM     77  C   UNL A   1      42.205  29.490  35.339  1.00  0.00     0.010 A 
ATOM     78  C   UNL A   1      41.774  26.839  34.559  1.00  0.00     0.020 A 
ATOM     79  C   UNL A   1      42.028  28.497  36.308  1.00  0.00     0.020 A 
ATOM     80  C   UNL A   1      41.806  27.177  35.915  1.00  0.00     0.054 A 
BRANCH  80  81
ATOM     81  S   UNL A   1      41.600  25.874  37.163  1.00  0.00     0.124 S 
ATOM     82  O   UNL A   1      41.789  24.654  36.383  1.00  0.00    -0.237 OA
ATOM     83  O   UNL A   1      42.657  26.177  38.124  1.00  0.00    -0.237 OA
ATOM     84  O   UNL A   1      40.241  26.083  37.662  1.00  0.00    -0.744 OA
ENDBRANCH  80  81
ENDBRANCH  54  75
ENDBRANCH  28  29
ENDBRANCH  21  23
ENDBRANCH  20  21
ENDBRANCH   1  20
TORSDOF 16
ENDMDL
MODEL 2
REMARK VINA RESULT:     -10.9      2.463      3.919
REMARK SMILES Cc1cc(C)c2c(O[C@@H](C)C(=O)OCCOC(=O)c3ccc(-c4c5nc(c(-c6ccc(S(=O)(=O)[O-])cc6)c6ccc([nH]6)c(-c6ccc(S(=O)(=O)[O-])cc6)c6nc(c(-c7ccc(S(=O)(=O)[O-])cc7)c7ccc4[nH]7)C=C6)C=C5)cc3)nsc2n1
REMARK SMILES IDX 15 1 14 2 13 3 11 4 12 5 9 6 10 7 8 8 7 9 1 10 2 11 3 12
REMARK SMILES IDX 82 13 4 14 81 15 5 16 6 17 80 18 79 19 16 20 17 21 18 22
REMARK SMILES IDX 19 23 20 24 78 25 21 26 77 27 22 28 23 29 24 30 71 31 25 32
REMARK SMILES IDX 76 33 70 34 72 35 26 36 75 37 69 38 68 39 27 41 57 42 38 43
REMARK SMILES IDX 56 44 39 45 42 46 55 47 73 48 40 49 41 50 54 52 74 53 43 54
REMARK SMILES IDX 28 55 29 56 37 57 30 58 36 59 31 60 32 61 33 62 34 63 35 64
REMARK SMILES IDX 58 65 59 66 67 67 60 68 66 69 61 70 62 71 63 72 64 73 65 74
REMARK SMILES IDX 44 75 45 76 53 77 46 78 52 79 47 80 48 81 49 82 50 83 51 84
REMARK H PARENT 72 40 42 51
REMARK Flexibility Score: inf
ROOT
ATOM      1  C   UNL A   1      38.574  20.981  25.595  1.00  0.00     0.275 C 
ENDROOT
BRANCH   1   2
ATOM      2  C   UNL A   1      37.261  21.187  24.863  1.00  0.00     0.274 C 
BRANCH   2   3
ATOM      3  O   UNL A   1      36.982  22.600  24.803  1.00  0.00    -0.459 OA
BRANCH   3   4
ATOM      4  C   UNL A   1      36.333  23.134  23.741  1.00  0.00     0.347 C 
ATOM      5  O   UNL A   1      36.651  22.935  22.573  1.00  0.00    -0.248 OA
BRANCH   4   6
ATOM      6  C   UNL A   1      35.131  24.027  24.170  1.00  0.00     0.281 C 
ATOM      7  C   UNL A   1      35.301  24.558  25.598  1.00  0.00     0.066 C 
BRANCH   6   8
ATOM      8  O   UNL A   1      33.748  23.815  24.075  1.00  0.00    -0.462 OA
BRANCH   8   9
ATOM      9  C   UNL A   1      33.228  22.605  23.790  1.00  0.00     0.236 A 
ATOM     10  C   UNL A   1      32.535  17.172  25.249  1.00  0.00     0.067 C 
ATOM     11  C   UNL A   1      32.730  18.639  25.012  1.00  0.00     0.039 A 
ATOM     12  C   UNL A   1      33.295  19.426  26.002  1.00  0.00     0.027 A 
ATOM     13  N   UNL A   1      32.283  19.123  23.850  1.00  0.00    -0.240 NA
ATOM     14  C   UNL A   1      33.466  20.815  25.822  1.00  0.00    -0.034 A 
ATOM     15  C   UNL A   1      32.509  20.437  23.663  1.00  0.00     0.147 A 
ATOM     16  C   UNL A   1      34.093  21.517  27.002  1.00  0.00     0.045 C 
ATOM     17  C   UNL A   1      33.112  21.353  24.537  1.00  0.00     0.078 A 
ATOM     18  S   UNL A   1      32.026  21.193  22.222  1.00  0.00    -0.012 S 
ATOM     19  N   UNL A   1      32.602  22.676  22.616  1.00  0.00    -0.153 NA
ENDBRANCH   8   9
ENDBRANCH   6   8
ENDBRANCH   4   6
ENDBRANCH   3   4
ENDBRANCH   2   3
ENDBRANCH   1   2
BRANCH   1  20
ATOM     20  O   UNL A   1      38.924  22.219  26.199  1.00  0.00    -0.458 OA
BRANCH  20  21
ATOM     21  C   UNL A   1      40.014  22.178  27.000  1.00  0.00     0.338 C 
ATOM     22  O   UNL A   1      40.351  21.290  27.756  1.00  0.00    -0.246 OA
BRANCH  21  23
ATOM     23  C   UNL A   1      40.733  23.441  26.867  1.00  0.00     0.060 A 
ATOM     24  C   UNL A   1      41.945  23.560  27.560  1.00  0.00     0.016 A 
ATOM     25  C   UNL A   1      40.011  24.539  26.403  1.00  0.00     0.016 A 
ATOM     26  C   UNL A   1      42.294  24.802  28.036  1.00  0.00     0.010 A 
ATOM     27  C   UNL A   1      40.314  25.751  26.942  1.00  0.00     0.010 A 
ATOM     28  C   UNL A   1      41.396  25.844  27.819  1.00  0.00    -0.014 A 
BRANCH  28  29
ATOM     29  C   UNL A   1      41.490  27.036  28.625  1.00  0.00     0.031 A 
ATOM     30  C   UNL A   1      42.636  27.902  28.291  1.00  0.00     0.074 A 
ATOM     31  C   UNL A   1      40.443  27.401  29.388  1.00  0.00     0.049 A 
ATOM     32  N   UNL A   1      43.709  28.110  28.979  1.00  0.00    -0.248 NA
ATOM     33  C   UNL A   1      42.687  28.435  26.916  1.00  0.00     0.031 C 
ATOM     34  C   UNL A   1      39.106  26.794  29.442  1.00  0.00     0.029 A 
ATOM     35  N   UNL A   1      40.306  28.508  30.153  1.00  0.00    -0.354 N 
ATOM     36  C   UNL A   1      44.479  28.945  28.180  1.00  0.00     0.074 A 
ATOM     37  C   UNL A   1      43.953  28.833  26.847  1.00  0.00     0.031 C 
ATOM     38  C   UNL A   1      38.245  27.680  29.992  1.00  0.00     0.029 A 
ATOM     39  C   UNL A   1      38.990  28.855  30.419  1.00  0.00     0.049 A 
ATOM     40  H   UNL A   1      41.074  29.024  30.491  1.00  0.00     0.167 HD
ATOM     41  C   UNL A   1      45.281  29.922  28.685  1.00  0.00     0.031 A 
ATOM     42  C   UNL A   1      38.569  30.079  30.828  1.00  0.00     0.031 A 
ATOM     43  C   UNL A   1      45.437  29.805  30.109  1.00  0.00     0.049 A 
ATOM     44  C   UNL A   1      39.773  30.813  31.313  1.00  0.00     0.074 A 
ATOM     45  C   UNL A   1      45.968  28.844  30.945  1.00  0.00     0.029 A 
ATOM     46  N   UNL A   1      44.618  30.589  30.889  1.00  0.00    -0.354 N 
ATOM     47  N   UNL A   1      40.477  30.452  32.350  1.00  0.00    -0.248 NA
ATOM     48  C   UNL A   1      40.464  31.692  30.379  1.00  0.00     0.031 C 
ATOM     49  C   UNL A   1      45.113  28.830  32.085  1.00  0.00     0.029 A 
ATOM     50  C   UNL A   1      44.133  29.812  31.914  1.00  0.00     0.049 A 
ATOM     51  H   UNL A   1      44.414  31.540  30.740  1.00  0.00     0.167 HD
ATOM     52  C   UNL A   1      41.799  30.708  32.003  1.00  0.00     0.074 A 
ATOM     53  C   UNL A   1      41.717  31.570  30.827  1.00  0.00     0.031 C 
ATOM     54  C   UNL A   1      42.824  29.969  32.524  1.00  0.00     0.031 A 
BRANCH  41  55
ATOM     55  C   UNL A   1      45.604  31.183  27.925  1.00  0.00    -0.014 A 
ATOM     56  C   UNL A   1      46.860  31.317  27.314  1.00  0.00     0.010 A 
ATOM     57  C   UNL A   1      44.782  32.333  27.956  1.00  0.00     0.010 A 
ATOM     58  C   UNL A   1      47.272  32.544  26.773  1.00  0.00     0.020 A 
ATOM     59  C   UNL A   1      45.154  33.540  27.369  1.00  0.00     0.020 A 
ATOM     60  C   UNL A   1      46.414  33.647  26.807  1.00  0.00     0.054 A 
BRANCH  60  61
ATOM     61  S   UNL A   1      46.981  35.247  26.185  1.00  0.00     0.124 S 
ATOM     62  O   UNL A   1      45.730  35.991  26.089  1.00  0.00    -0.237 OA
ATOM     63  O   UNL A   1      47.901  35.680  27.235  1.00  0.00    -0.237 OA
ATOM     64  O   UNL A   1      47.613  34.915  24.910  1.00  0.00    -0.744 OA
ENDBRANCH  60  61
ENDBRANCH  41  55
BRANCH  42  65
ATOM     65  C   UNL A   1      37.316  30.774  30.427  1.00  0.00    -0.014 A 
ATOM     66  C   UNL A   1      36.584  31.524  31.367  1.00  0.00     0.010 A 
ATOM     67  C   UNL A   1      36.989  30.940  29.065  1.00  0.00     0.010 A 
ATOM     68  C   UNL A   1      35.625  32.464  30.954  1.00  0.00     0.020 A 
ATOM     69  C   UNL A   1      36.025  31.863  28.646  1.00  0.00     0.020 A 
ATOM     70  C   UNL A   1      35.371  32.646  29.592  1.00  0.00     0.054 A 
BRANCH  70  71
ATOM     71  S   UNL A   1      34.291  34.006  29.057  1.00  0.00     0.124 S 
ATOM     72  O   UNL A   1      33.561  34.325  30.279  1.00  0.00    -0.237 OA
ATOM     73  O   UNL A   1      35.252  35.012  28.612  1.00  0.00    -0.237 OA
ATOM     74  O   UNL A   1      33.488  33.409  27.991  1.00  0.00    -0.744 OA
ENDBRANCH  70  71
ENDBRANCH  42  65
BRANCH  54  75
ATOM     75  C   UNL A   1      42.513  29.043  33.684  1.00  0.00    -0.014 A 
ATOM     76  C   UNL A   1      41.925  27.771  33.527  1.00  0.00     0.010 A 
ATOM     77  C   UNL A   1      42.975  29.408  34.960  1.00  0.00     0.010 A 
ATOM     78  C   UNL A   1      41.785  26.899  34.618  1.00  0.00     0.020 A 
ATOM     79  C   UNL A   1      42.856  28.538  36.048  1.00  0.00     0.020 A 
ATOM     80  C   UNL A   1      42.255  27.290  35.875  1.00  0.00     0.054 A 
BRANCH  80  81
ATOM     81  S   UNL A   1      42.118  26.141  37.274  1.00  0.00     0.124 S 
ATOM     82  O   UNL A   1      43.114  26.658  38.209  1.00  0.00    -0.237 OA
ATOM     83  O   UNL A   1      40.726  26.298  37.687  1.00  0.00    -0.237 OA
ATOM     84  O   UNL A   1      42.439  24.840  36.688  1.00  0.00    -0.744 OA
ENDBRANCH  80  81
ENDBRANCH  54  75
ENDBRANCH  28  29
ENDBRANCH  21  23
ENDBRANCH  20  21
ENDBRANCH   1  20
TORSDOF 16
ENDMDL
MODEL 3
REMARK VINA RESULT:     -10.7      2.838      4.518
REMARK SMILES Cc1cc(C)c2c(O[C@@H](C)C(=O)OCCOC(=O)c3ccc(-c4c5nc(c(-c6ccc(S(=O)(=O)[O-])cc6)c6ccc([nH]6)c(-c6ccc(S(=O)(=O)[O-])cc6)c6nc(c(-c7ccc(S(=O)(=O)[O-])cc7)c7ccc4[nH]7)C=C6)C=C5)cc3)nsc2n1
REMARK SMILES IDX 15 1 14 2 13 3 11 4 12 5 9 6 10 7 8 8 7 9 1 10 2 11 3 12
REMARK SMILES IDX 82 13 4 14 81 15 5 16 6 17 80 18 79 19 16 20 17 21 18 22
REMARK SMILES IDX 19 23 20 24 78 25 21 26 77 27 22 28 23 29 24 30 71 31 25 32
REMARK SMILES IDX 76 33 70 34 72 35 26 36 75 37 69 38 68 39 27 41 57 42 38 43
REMARK SMILES IDX 56 44 39 45 42 46 55 47 73 48 40 49 41 50 54 52 74 53 43 54
REMARK SMILES IDX 28 55 29 56 37 57 30 58 36 59 31 60 32 61 33 62 34 63 35 64
REMARK SMILES IDX 58 65 59 66 67 67 60 68 66 69 61 70 62 71 63 72 64 73 65 74
REMARK SMILES IDX 44 75 45 76 53 77 46 78 52 79 47 80 48 81 49 82 50 83 51 84
REMARK H PARENT 72 40 42 51
REMARK Flexibility Score: inf
ROOT
ATOM      1  C   UNL A   1      38.024  21.989  25.623  1.00  0.00     0.275 C 
ENDROOT
BRANCH   1   2
ATOM      2  C   UNL A   1      36.617  22.549  25.719  1.00  0.00     0.274 C 
BRANCH   2   3
ATOM      3  O   UNL A   1      35.898  22.201  24.519  1.00  0.00    -0.459 OA
BRANCH   3   4
ATOM      4  C   UNL A   1      34.544  22.227  24.489  1.00  0.00     0.347 C 
ATOM      5  O   UNL A   1      33.848  21.263  24.187  1.00  0.00    -0.248 OA
BRANCH   4   6
ATOM      6  C   UNL A   1      33.970  23.619  24.887  1.00  0.00     0.281 C 
ATOM      7  C   UNL A   1      32.441  23.592  24.992  1.00  0.00     0.066 C 
BRANCH   6   8
ATOM      8  O   UNL A   1      34.228  24.900  24.377  1.00  0.00    -0.462 OA
BRANCH   8   9
ATOM      9  C   UNL A   1      33.392  25.506  23.512  1.00  0.00     0.236 A 
ATOM     10  C   UNL A   1      28.993  28.977  22.663  1.00  0.00     0.067 C 
ATOM     11  C   UNL A   1      30.184  28.139  23.015  1.00  0.00     0.039 A 
ATOM     12  C   UNL A   1      30.658  28.129  24.316  1.00  0.00     0.027 A 
ATOM     13  N   UNL A   1      30.769  27.477  22.012  1.00  0.00    -0.240 NA
ATOM     14  C   UNL A   1      31.794  27.374  24.674  1.00  0.00    -0.034 A 
ATOM     15  C   UNL A   1      31.813  26.710  22.376  1.00  0.00     0.147 A 
ATOM     16  C   UNL A   1      32.172  27.480  26.131  1.00  0.00     0.045 C 
ATOM     17  C   UNL A   1      32.376  26.550  23.650  1.00  0.00     0.078 A 
ATOM     18  S   UNL A   1      32.641  25.784  21.219  1.00  0.00    -0.012 S 
ATOM     19  N   UNL A   1      33.696  25.109  22.277  1.00  0.00    -0.153 NA
ENDBRANCH   8   9
ENDBRANCH   6   8
ENDBRANCH   4   6
ENDBRANCH   3   4
ENDBRANCH   2   3
ENDBRANCH   1   2
BRANCH   1  20
ATOM     20  O   UNL A   1      38.879  22.861  26.350  1.00  0.00    -0.458 OA
BRANCH  20  21
ATOM     21  C   UNL A   1      40.121  22.379  26.588  1.00  0.00     0.338 C 
ATOM     22  O   UNL A   1      40.457  21.220  26.726  1.00  0.00    -0.246 OA
BRANCH  21  23
ATOM     23  C   UNL A   1      41.037  23.507  26.723  1.00  0.00     0.060 A 
ATOM     24  C   UNL A   1      41.961  23.454  27.775  1.00  0.00     0.016 A 
ATOM     25  C   UNL A   1      40.690  24.690  26.074  1.00  0.00     0.016 A 
ATOM     26  C   UNL A   1      42.331  24.640  28.365  1.00  0.00     0.010 A 
ATOM     27  C   UNL A   1      40.993  25.855  26.707  1.00  0.00     0.010 A 
ATOM     28  C   UNL A   1      41.732  25.804  27.890  1.00  0.00    -0.014 A 
BRANCH  28  29
ATOM     29  C   UNL A   1      41.749  26.991  28.709  1.00  0.00     0.031 A 
ATOM     30  C   UNL A   1      42.893  27.886  28.450  1.00  0.00     0.074 A 
ATOM     31  C   UNL A   1      40.651  27.325  29.410  1.00  0.00     0.049 A 
ATOM     32  N   UNL A   1      43.918  28.113  29.203  1.00  0.00    -0.248 NA
ATOM     33  C   UNL A   1      43.014  28.431  27.085  1.00  0.00     0.031 C 
ATOM     34  C   UNL A   1      39.328  26.687  29.380  1.00  0.00     0.029 A 
ATOM     35  N   UNL A   1      40.442  28.423  30.173  1.00  0.00    -0.354 N 
ATOM     36  C   UNL A   1      44.714  28.972  28.457  1.00  0.00     0.074 A 
ATOM     37  C   UNL A   1      44.272  28.859  27.094  1.00  0.00     0.031 C 
ATOM     38  C   UNL A   1      38.415  27.549  29.882  1.00  0.00     0.029 A 
ATOM     39  C   UNL A   1      39.105  28.737  30.362  1.00  0.00     0.049 A 
ATOM     40  H   UNL A   1      41.176  28.953  30.559  1.00  0.00     0.167 HD
ATOM     41  C   UNL A   1      45.461  29.963  29.015  1.00  0.00     0.031 A 
ATOM     42  C   UNL A   1      38.631  29.947  30.753  1.00  0.00     0.031 A 
ATOM     43  C   UNL A   1      45.535  29.837  30.446  1.00  0.00     0.049 A 
ATOM     44  C   UNL A   1      39.786  30.705  31.315  1.00  0.00     0.074 A 
ATOM     45  C   UNL A   1      46.037  28.883  31.306  1.00  0.00     0.029 A 
ATOM     46  N   UNL A   1      44.652  30.596  31.181  1.00  0.00    -0.354 N 
ATOM     47  N   UNL A   1      40.435  30.352  32.390  1.00  0.00    -0.248 NA
ATOM     48  C   UNL A   1      40.511  31.607  30.430  1.00  0.00     0.031 C 
ATOM     49  C   UNL A   1      45.116  28.839  32.392  1.00  0.00     0.029 A 
ATOM     50  C   UNL A   1      44.125  29.800  32.169  1.00  0.00     0.049 A 
ATOM     51  H   UNL A   1      44.435  31.544  31.026  1.00  0.00     0.167 HD
ATOM     52  C   UNL A   1      41.770  30.642  32.124  1.00  0.00     0.074 A 
ATOM     53  C   UNL A   1      41.738  31.511  30.951  1.00  0.00     0.031 C 
ATOM     54  C   UNL A   1      42.779  29.921  32.701  1.00  0.00     0.031 A 
BRANCH  41  55
ATOM     55  C   UNL A   1      45.800  31.237  28.285  1.00  0.00    -0.014 A 
ATOM     56  C   UNL A   1      44.819  32.230  28.139  1.00  0.00     0.010 A 
ATOM     57  C   UNL A   1      47.000  31.412  27.558  1.00  0.00     0.010 A 
ATOM     58  C   UNL A   1      45.029  33.334  27.300  1.00  0.00     0.020 A 
ATOM     59  C   UNL A   1      47.245  32.533  26.770  1.00  0.00     0.020 A 
ATOM     60  C   UNL A   1      46.242  33.475  26.620  1.00  0.00     0.054 A 
BRANCH  60  61
ATOM     61  S   UNL A   1      46.476  34.855  25.476  1.00  0.00     0.124 S 
ATOM     62  O   UNL A   1      45.509  34.542  24.429  1.00  0.00    -0.237 OA
ATOM     63  O   UNL A   1      46.158  36.010  26.312  1.00  0.00    -0.237 OA
ATOM     64  O   UNL A   1      47.880  34.743  25.085  1.00  0.00    -0.744 OA
ENDBRANCH  60  61
ENDBRANCH  41  55
BRANCH  42  65
ATOM     65  C   UNL A   1      37.389  30.617  30.283  1.00  0.00    -0.014 A 
ATOM     66  C   UNL A   1      36.452  31.114  31.208  1.00  0.00     0.010 A 
ATOM     67  C   UNL A   1      37.255  31.023  28.938  1.00  0.00     0.010 A 
ATOM     68  C   UNL A   1      35.475  32.046  30.819  1.00  0.00     0.020 A 
ATOM     69  C   UNL A   1      36.276  31.939  28.540  1.00  0.00     0.020 A 
ATOM     70  C   UNL A   1      35.411  32.473  29.490  1.00  0.00     0.054 A 
BRANCH  70  71
ATOM     71  S   UNL A   1      34.291  33.831  29.039  1.00  0.00     0.124 S 
ATOM     72  O   UNL A   1      35.212  34.837  28.522  1.00  0.00    -0.237 OA
ATOM     73  O   UNL A   1      33.419  33.203  28.050  1.00  0.00    -0.237 OA
ATOM     74  O   UNL A   1      33.640  34.175  30.302  1.00  0.00    -0.744 OA
ENDBRANCH  70  71
ENDBRANCH  42  65
BRANCH  54  75
ATOM     75  C   UNL A   1      42.420  28.979  33.834  1.00  0.00    -0.014 A 
ATOM     76  C   UNL A   1      41.764  27.746  33.641  1.00  0.00     0.010 A 
ATOM     77  C   UNL A   1      42.905  29.279  35.118  1.00  0.00     0.010 A 
ATOM     78  C   UNL A   1      41.579  26.851  34.706  1.00  0.00     0.020 A 
ATOM     79  C   UNL A   1      42.741  28.385  36.180  1.00  0.00     0.020 A 
ATOM     80  C   UNL A   1      42.073  27.177  35.972  1.00  0.00     0.054 A 
BRANCH  80  81
ATOM     81  S   UNL A   1      41.877  25.995  37.336  1.00  0.00     0.124 S 
ATOM     82  O   UNL A   1      42.860  26.467  38.308  1.00  0.00    -0.237 OA
ATOM     83  O   UNL A   1      40.478  26.171  37.719  1.00  0.00    -0.237 OA
ATOM     84  O   UNL A   1      42.185  24.704  36.724  1.00  0.00    -0.744 OA
ENDBRANCH  80  81
ENDBRANCH  54  75
ENDBRANCH  28  29
ENDBRANCH  21  23
ENDBRANCH  20  21
ENDBRANCH   1  20
TORSDOF 16
ENDMDL
