MODEL 1
REMARK VINA RESULT:     -10.5      0.000      0.000
REMARK SMILES NS(=O)(=O)c1ccc(/N=C/c2ccc(O)c(C(=O)OCCOC(=O)c3ccc(-c4c5nc(c(-c6ccc(S(=O)(=O)[O-])cc6)c6ccc([nH]6)c(-c6ccc(S(=O)(=O)[O-])cc6)c6nc(c(-c7ccc(S(=O)(=O)[O-])cc7)c7ccc4[nH]7)C=C6)C=C5)cc3)c2)cc1
REMARK SMILES IDX 20 1 19 2 17 3 18 4 16 5 11 6 12 7 85 8 13 9 14 10 10 11
REMARK SMILES IDX 9 12 8 13 5 14 6 15 87 16 7 17 86 18 2 19 3 20 4 21 1 22
REMARK SMILES IDX 15 25 21 27 22 28 23 29 24 30 25 31 26 32 84 33 27 34 83 35
REMARK SMILES IDX 28 36 29 37 30 38 77 39 31 40 82 41 76 42 78 43 32 44 81 45
REMARK SMILES IDX 75 46 74 47 33 49 63 50 44 51 62 52 45 53 48 54 61 55 79 56
REMARK SMILES IDX 46 57 47 58 60 60 80 61 49 62 34 63 35 64 43 65 36 66 42 67
REMARK SMILES IDX 37 68 38 69 39 70 40 71 41 72 64 73 65 74 73 75 66 76 72 77
REMARK SMILES IDX 67 78 68 79 69 80 70 81 71 82 50 83 51 84 59 85 52 86 58 87
REMARK SMILES IDX 53 88 54 89 55 90 56 91 57 92
REMARK H PARENT 1 23 1 24 15 26 78 48 48 59
REMARK Flexibility Score: inf
ROOT
ATOM      1  C   UNL A   1      41.134  19.754  26.595  1.00  0.00     0.275 C 
ENDROOT
BRANCH   1   2
ATOM      2  O   UNL A   1      41.994  19.352  25.509  1.00  0.00    -0.458 OA
BRANCH   2   3
ATOM      3  C   UNL A   1      43.201  18.848  25.859  1.00  0.00     0.342 C 
ATOM      4  O   UNL A   1      43.413  17.752  26.360  1.00  0.00    -0.246 OA
BRANCH   3   5
ATOM      5  C   UNL A   1      44.312  19.743  25.456  1.00  0.00     0.102 A 
ATOM      6  C   UNL A   1      45.222  21.922  24.919  1.00  0.00    -0.006 A 
ATOM      7  C   UNL A   1      46.423  21.334  24.506  1.00  0.00     0.013 A 
ATOM      8  C   UNL A   1      44.153  21.132  25.365  1.00  0.00     0.029 A 
ATOM      9  C   UNL A   1      46.592  19.958  24.628  1.00  0.00     0.048 A 
ATOM     10  C   UNL A   1      45.558  19.175  25.138  1.00  0.00     0.130 A 
BRANCH   6  11
ATOM     11  C   UNL A   1      45.167  23.396  24.971  1.00  0.00     0.119 C 
ATOM     12  N   UNL A   1      44.667  24.020  25.988  1.00  0.00    -0.256 NA
BRANCH  12  13
ATOM     13  C   UNL A   1      44.772  25.418  26.064  1.00  0.00     0.063 A 
ATOM     14  C   UNL A   1      45.116  28.188  26.358  1.00  0.00     0.082 A 
ATOM     15  C   UNL A   1      46.066  27.314  26.886  1.00  0.00     0.024 A 
ATOM     16  C   UNL A   1      43.999  27.696  25.678  1.00  0.00     0.024 A 
ATOM     17  C   UNL A   1      45.886  25.937  26.737  1.00  0.00     0.030 A 
ATOM     18  C   UNL A   1      43.828  26.314  25.543  1.00  0.00     0.030 A 
BRANCH  14  19
ATOM     19  S   UNL A   1      45.308  29.927  26.595  1.00  0.00     0.238 S 
ATOM     20  O   UNL A   1      46.007  30.494  25.461  1.00  0.00    -0.207 OA
ATOM     21  O   UNL A   1      45.708  30.174  27.957  1.00  0.00    -0.207 OA
BRANCH  19  22
ATOM     22  N   UNL A   1      43.732  30.496  26.458  1.00  0.00    -0.225 NA
ATOM     23  H   UNL A   1      43.616  31.324  27.044  1.00  0.00     0.137 HD
ATOM     24  H   UNL A   1      43.081  29.772  26.760  1.00  0.00     0.137 HD
ENDBRANCH  19  22
ENDBRANCH  14  19
ENDBRANCH  12  13
ENDBRANCH   6  11
BRANCH  10  25
ATOM     25  O   UNL A   1      45.838  17.843  25.271  1.00  0.00    -0.507 OA
ATOM     26  H   UNL A   1      46.114  17.501  26.100  1.00  0.00     0.293 HD
ENDBRANCH  10  25
ENDBRANCH   3   5
ENDBRANCH   2   3
ENDBRANCH   1   2
BRANCH   1  27
ATOM     27  C   UNL A   1      39.987  20.642  26.105  1.00  0.00     0.275 C 
BRANCH  27  28
ATOM     28  O   UNL A   1      40.267  22.036  26.334  1.00  0.00    -0.458 OA
BRANCH  28  29
ATOM     29  C   UNL A   1      39.228  22.874  26.099  1.00  0.00     0.338 C 
ATOM     30  O   UNL A   1      38.198  22.611  25.499  1.00  0.00    -0.246 OA
BRANCH  29  31
ATOM     31  C   UNL A   1      39.423  24.130  26.844  1.00  0.00     0.060 A 
ATOM     32  C   UNL A   1      40.189  25.116  26.220  1.00  0.00     0.016 A 
ATOM     33  C   UNL A   1      38.921  24.340  28.131  1.00  0.00     0.016 A 
ATOM     34  C   UNL A   1      40.434  26.329  26.854  1.00  0.00     0.010 A 
ATOM     35  C   UNL A   1      39.200  25.547  28.788  1.00  0.00     0.010 A 
ATOM     36  C   UNL A   1      39.964  26.545  28.154  1.00  0.00    -0.014 A 
BRANCH  36  37
ATOM     37  C   UNL A   1      40.403  27.765  28.873  1.00  0.00     0.031 A 
ATOM     38  C   UNL A   1      41.797  27.826  29.428  1.00  0.00     0.074 A 
ATOM     39  C   UNL A   1      39.595  28.837  28.966  1.00  0.00     0.049 A 
ATOM     40  N   UNL A   1      42.391  28.798  30.069  1.00  0.00    -0.248 NA
ATOM     41  C   UNL A   1      42.634  26.633  29.226  1.00  0.00     0.031 C 
ATOM     42  C   UNL A   1      38.245  28.928  28.410  1.00  0.00     0.029 A 
ATOM     43  N   UNL A   1      39.799  30.057  29.559  1.00  0.00    -0.354 N 
ATOM     44  C   UNL A   1      43.668  28.333  30.359  1.00  0.00     0.074 A 
ATOM     45  C   UNL A   1      43.753  26.984  29.840  1.00  0.00     0.031 C 
ATOM     46  C   UNL A   1      37.740  30.142  28.692  1.00  0.00     0.029 A 
ATOM     47  C   UNL A   1      38.716  30.898  29.475  1.00  0.00     0.049 A 
ATOM     48  H   UNL A   1      40.643  30.307  30.001  1.00  0.00     0.167 HD
ATOM     49  C   UNL A   1      44.678  28.969  31.000  1.00  0.00     0.031 A 
ATOM     50  C   UNL A   1      38.525  32.132  29.986  1.00  0.00     0.031 A 
ATOM     51  C   UNL A   1      44.586  30.302  31.534  1.00  0.00     0.049 A 
ATOM     52  C   UNL A   1      39.635  32.795  30.756  1.00  0.00     0.074 A 
ATOM     53  C   UNL A   1      45.555  31.031  32.200  1.00  0.00     0.029 A 
ATOM     54  N   UNL A   1      43.455  31.103  31.471  1.00  0.00    -0.354 N 
ATOM     55  N   UNL A   1      40.841  32.345  31.018  1.00  0.00    -0.248 NA
ATOM     56  C   UNL A   1      39.365  34.137  31.291  1.00  0.00     0.031 C 
ATOM     57  C   UNL A   1      44.992  32.252  32.591  1.00  0.00     0.029 A 
ATOM     58  C   UNL A   1      43.694  32.310  32.111  1.00  0.00     0.049 A 
ATOM     59  H   UNL A   1      42.609  30.853  31.037  1.00  0.00     0.167 HD
ATOM     60  C   UNL A   1      41.479  33.358  31.727  1.00  0.00     0.074 A 
ATOM     61  C   UNL A   1      40.530  34.448  31.841  1.00  0.00     0.031 C 
ATOM     62  C   UNL A   1      42.739  33.385  32.230  1.00  0.00     0.031 A 
BRANCH  49  63
ATOM     63  C   UNL A   1      45.947  28.188  31.213  1.00  0.00    -0.014 A 
ATOM     64  C   UNL A   1      46.882  28.005  30.177  1.00  0.00     0.010 A 
ATOM     65  C   UNL A   1      46.199  27.611  32.471  1.00  0.00     0.010 A 
ATOM     66  C   UNL A   1      48.012  27.208  30.378  1.00  0.00     0.020 A 
ATOM     67  C   UNL A   1      47.342  26.837  32.685  1.00  0.00     0.020 A 
ATOM     68  C   UNL A   1      48.228  26.619  31.627  1.00  0.00     0.054 A 
BRANCH  68  69
ATOM     69  S   UNL A   1      49.685  25.564  31.856  1.00  0.00     0.124 S 
ATOM     70  O   UNL A   1      49.975  25.152  30.485  1.00  0.00    -0.237 OA
ATOM     71  O   UNL A   1      50.654  26.478  32.454  1.00  0.00    -0.237 OA
ATOM     72  O   UNL A   1      49.209  24.502  32.738  1.00  0.00    -0.744 OA
ENDBRANCH  68  69
ENDBRANCH  49  63
BRANCH  50  73
ATOM     73  C   UNL A   1      37.210  32.806  29.800  1.00  0.00    -0.014 A 
ATOM     74  C   UNL A   1      36.223  32.756  30.798  1.00  0.00     0.010 A 
ATOM     75  C   UNL A   1      36.956  33.533  28.620  1.00  0.00     0.010 A 
ATOM     76  C   UNL A   1      35.006  33.421  30.621  1.00  0.00     0.020 A 
ATOM     77  C   UNL A   1      35.751  34.217  28.452  1.00  0.00     0.020 A 
ATOM     78  C   UNL A   1      34.779  34.153  29.451  1.00  0.00     0.054 A 
BRANCH  78  79
ATOM     79  S   UNL A   1      33.225  35.074  29.279  1.00  0.00     0.124 S 
ATOM     80  O   UNL A   1      32.509  34.279  28.287  1.00  0.00    -0.237 OA
ATOM     81  O   UNL A   1      32.681  35.033  30.635  1.00  0.00    -0.237 OA
ATOM     82  O   UNL A   1      33.659  36.395  28.831  1.00  0.00    -0.744 OA
ENDBRANCH  78  79
ENDBRANCH  50  73
BRANCH  62  83
ATOM     83  C   UNL A   1      43.185  34.645  32.924  1.00  0.00    -0.014 A 
ATOM     84  C   UNL A   1      43.607  35.773  32.199  1.00  0.00     0.010 A 
ATOM     85  C   UNL A   1      43.129  34.717  34.329  1.00  0.00     0.010 A 
ATOM     86  C   UNL A   1      43.998  36.938  32.867  1.00  0.00     0.020 A 
ATOM     87  C   UNL A   1      43.492  35.889  35.000  1.00  0.00     0.020 A 
ATOM     88  C   UNL A   1      43.940  36.988  34.264  1.00  0.00     0.054 A 
BRANCH  88  89
ATOM     89  S   UNL A   1      44.418  38.521  35.108  1.00  0.00     0.124 S 
ATOM     90  O   UNL A   1      43.782  38.360  36.413  1.00  0.00    -0.237 OA
ATOM     91  O   UNL A   1      45.877  38.448  35.107  1.00  0.00    -0.237 OA
ATOM     92  O   UNL A   1      43.852  39.571  34.264  1.00  0.00    -0.744 OA
ENDBRANCH  88  89
ENDBRANCH  62  83
ENDBRANCH  36  37
ENDBRANCH  29  31
ENDBRANCH  28  29
ENDBRANCH  27  28
ENDBRANCH   1  27
TORSDOF 19
ENDMDL
MODEL 2
REMARK VINA RESULT:     -10.2      0.612      8.153
REMARK SMILES NS(=O)(=O)c1ccc(/N=C/c2ccc(O)c(C(=O)OCCOC(=O)c3ccc(-c4c5nc(c(-c6ccc(S(=O)(=O)[O-])cc6)c6ccc([nH]6)c(-c6ccc(S(=O)(=O)[O-])cc6)c6nc(c(-c7ccc(S(=O)(=O)[O-])cc7)c7ccc4[nH]7)C=C6)C=C5)cc3)c2)cc1
REMARK SMILES IDX 20 1 19 2 17 3 18 4 16 5 11 6 12 7 85 8 13 9 14 10 10 11
REMARK SMILES IDX 9 12 8 13 5 14 6 15 87 16 7 17 86 18 2 19 3 20 4 21 1 22
REMARK SMILES IDX 15 25 21 27 22 28 23 29 24 30 25 31 26 32 84 33 27 34 83 35
REMARK SMILES IDX 28 36 29 37 30 38 77 39 31 40 82 41 76 42 78 43 32 44 81 45
REMARK SMILES IDX 75 46 74 47 33 49 63 50 44 51 62 52 45 53 48 54 61 55 79 56
REMARK SMILES IDX 46 57 47 58 60 60 80 61 49 62 34 63 35 64 43 65 36 66 42 67
REMARK SMILES IDX 37 68 38 69 39 70 40 71 41 72 64 73 65 74 73 75 66 76 72 77
REMARK SMILES IDX 67 78 68 79 69 80 70 81 71 82 50 83 51 84 59 85 52 86 58 87
REMARK SMILES IDX 53 88 54 89 55 90 56 91 57 92
REMARK H PARENT 1 23 1 24 15 26 78 48 48 59
REMARK Flexibility Score: inf
ROOT
ATOM      1  C   UNL A   1      40.888  19.913  26.487  1.00  0.00     0.275 C 
ENDROOT
BRANCH   1   2
ATOM      2  O   UNL A   1      41.774  19.717  25.365  1.00  0.00    -0.458 OA
BRANCH   2   3
ATOM      3  C   UNL A   1      42.959  19.122  25.636  1.00  0.00     0.342 C 
ATOM      4  O   UNL A   1      43.124  17.963  25.994  1.00  0.00    -0.246 OA
BRANCH   3   5
ATOM      5  C   UNL A   1      44.107  20.011  25.338  1.00  0.00     0.102 A 
ATOM      6  C   UNL A   1      45.098  22.197  25.016  1.00  0.00    -0.006 A 
ATOM      7  C   UNL A   1      46.288  21.608  24.577  1.00  0.00     0.013 A 
ATOM      8  C   UNL A   1      43.994  21.407  25.368  1.00  0.00     0.029 A 
ATOM      9  C   UNL A   1      46.411  20.221  24.579  1.00  0.00     0.048 A 
ATOM     10  C   UNL A   1      45.341  19.432  24.996  1.00  0.00     0.130 A 
BRANCH   6  11
ATOM     11  C   UNL A   1      45.088  23.662  25.199  1.00  0.00     0.119 C 
ATOM     12  N   UNL A   1      44.707  24.203  26.310  1.00  0.00    -0.256 NA
BRANCH  12  13
ATOM     13  C   UNL A   1      44.857  25.587  26.494  1.00  0.00     0.063 A 
ATOM     14  C   UNL A   1      45.015  28.380  26.724  1.00  0.00     0.082 A 
ATOM     15  C   UNL A   1      43.907  27.800  26.107  1.00  0.00     0.024 A 
ATOM     16  C   UNL A   1      46.043  27.582  27.233  1.00  0.00     0.024 A 
ATOM     17  C   UNL A   1      43.837  26.409  25.995  1.00  0.00     0.030 A 
ATOM     18  C   UNL A   1      45.963  26.191  27.107  1.00  0.00     0.030 A 
BRANCH  14  19
ATOM     19  S   UNL A   1      45.136  30.139  26.815  1.00  0.00     0.238 S 
ATOM     20  O   UNL A   1      45.725  30.516  28.084  1.00  0.00    -0.207 OA
ATOM     21  O   UNL A   1      43.914  30.720  26.323  1.00  0.00    -0.207 OA
BRANCH  19  22
ATOM     22  N   UNL A   1      46.318  30.489  25.672  1.00  0.00    -0.225 NA
ATOM     23  H   UNL A   1      46.840  31.316  25.963  1.00  0.00     0.137 HD
ATOM     24  H   UNL A   1      45.876  30.666  24.770  1.00  0.00     0.137 HD
ENDBRANCH  19  22
ENDBRANCH  14  19
ENDBRANCH  12  13
ENDBRANCH   6  11
BRANCH  10  25
ATOM     25  O   UNL A   1      45.575  18.084  25.015  1.00  0.00    -0.507 OA
ATOM     26  H   UNL A   1      46.425  17.752  24.797  1.00  0.00     0.293 HD
ENDBRANCH  10  25
ENDBRANCH   3   5
ENDBRANCH   2   3
ENDBRANCH   1   2
BRANCH   1  27
ATOM     27  C   UNL A   1      39.704  20.812  26.118  1.00  0.00     0.275 C 
BRANCH  27  28
ATOM     28  O   UNL A   1      40.072  22.204  26.149  1.00  0.00    -0.458 OA
BRANCH  28  29
ATOM     29  C   UNL A   1      39.033  23.071  26.090  1.00  0.00     0.338 C 
ATOM     30  O   UNL A   1      37.932  22.861  25.607  1.00  0.00    -0.246 OA
BRANCH  29  31
ATOM     31  C   UNL A   1      39.347  24.279  26.874  1.00  0.00     0.060 A 
ATOM     32  C   UNL A   1      40.133  25.246  26.246  1.00  0.00     0.016 A 
ATOM     33  C   UNL A   1      38.935  24.459  28.197  1.00  0.00     0.016 A 
ATOM     34  C   UNL A   1      40.488  26.413  26.914  1.00  0.00     0.010 A 
ATOM     35  C   UNL A   1      39.325  25.617  28.885  1.00  0.00     0.010 A 
ATOM     36  C   UNL A   1      40.110  26.596  28.248  1.00  0.00    -0.014 A 
BRANCH  36  37
ATOM     37  C   UNL A   1      40.662  27.755  28.990  1.00  0.00     0.031 A 
ATOM     38  C   UNL A   1      39.801  28.967  29.201  1.00  0.00     0.074 A 
ATOM     39  C   UNL A   1      41.891  27.700  29.536  1.00  0.00     0.049 A 
ATOM     40  N   UNL A   1      40.074  30.077  29.836  1.00  0.00    -0.248 NA
ATOM     41  C   UNL A   1      38.448  28.916  28.624  1.00  0.00     0.031 C 
ATOM     42  C   UNL A   1      42.799  26.556  29.461  1.00  0.00     0.029 A 
ATOM     43  N   UNL A   1      42.582  28.632  30.267  1.00  0.00    -0.354 N 
ATOM     44  C   UNL A   1      38.934  30.864  29.726  1.00  0.00     0.074 A 
ATOM     45  C   UNL A   1      37.974  30.109  28.947  1.00  0.00     0.031 C 
ATOM     46  C   UNL A   1      43.931  26.856  30.119  1.00  0.00     0.029 A 
ATOM     47  C   UNL A   1      43.842  28.223  30.632  1.00  0.00     0.049 A 
ATOM     48  H   UNL A   1      42.210  29.512  30.509  1.00  0.00     0.167 HD
ATOM     49  C   UNL A   1      38.705  32.101  30.226  1.00  0.00     0.031 A 
ATOM     50  C   UNL A   1      44.819  28.879  31.290  1.00  0.00     0.031 A 
ATOM     51  C   UNL A   1      39.667  32.859  30.984  1.00  0.00     0.049 A 
ATOM     52  C   UNL A   1      44.571  30.281  31.779  1.00  0.00     0.074 A 
ATOM     53  C   UNL A   1      39.528  34.122  31.532  1.00  0.00     0.029 A 
ATOM     54  N   UNL A   1      40.949  32.428  31.291  1.00  0.00    -0.354 N 
ATOM     55  N   UNL A   1      43.485  31.011  31.672  1.00  0.00    -0.248 NA
ATOM     56  C   UNL A   1      45.676  30.945  32.484  1.00  0.00     0.031 C 
ATOM     57  C   UNL A   1      40.746  34.478  32.123  1.00  0.00     0.029 A 
ATOM     58  C   UNL A   1      41.623  33.412  31.998  1.00  0.00     0.049 A 
ATOM     59  H   UNL A   1      41.326  31.553  31.043  1.00  0.00     0.167 HD
ATOM     60  C   UNL A   1      43.768  32.211  32.319  1.00  0.00     0.074 A 
ATOM     61  C   UNL A   1      45.123  32.102  32.823  1.00  0.00     0.031 C 
ATOM     62  C   UNL A   1      42.975  33.299  32.486  1.00  0.00     0.031 A 
BRANCH  49  63
ATOM     63  C   UNL A   1      37.377  32.732  29.904  1.00  0.00    -0.014 A 
ATOM     64  C   UNL A   1      37.210  33.564  28.781  1.00  0.00     0.010 A 
ATOM     65  C   UNL A   1      36.280  32.500  30.753  1.00  0.00     0.010 A 
ATOM     66  C   UNL A   1      35.988  34.202  28.551  1.00  0.00     0.020 A 
ATOM     67  C   UNL A   1      35.048  33.113  30.510  1.00  0.00     0.020 A 
ATOM     68  C   UNL A   1      34.919  33.982  29.425  1.00  0.00     0.054 A 
BRANCH  68  69
ATOM     69  S   UNL A   1      33.352  34.843  29.123  1.00  0.00     0.124 S 
ATOM     70  O   UNL A   1      32.683  33.933  28.196  1.00  0.00    -0.237 OA
ATOM     71  O   UNL A   1      32.764  34.922  30.457  1.00  0.00    -0.237 OA
ATOM     72  O   UNL A   1      33.764  36.122  28.550  1.00  0.00    -0.744 OA
ENDBRANCH  68  69
ENDBRANCH  49  63
BRANCH  50  73
ATOM     73  C   UNL A   1      46.135  28.214  31.500  1.00  0.00    -0.014 A 
ATOM     74  C   UNL A   1      46.381  27.443  32.649  1.00  0.00     0.010 A 
ATOM     75  C   UNL A   1      47.143  28.329  30.524  1.00  0.00     0.010 A 
ATOM     76  C   UNL A   1      47.611  26.800  32.817  1.00  0.00     0.020 A 
ATOM     77  C   UNL A   1      48.363  27.668  30.678  1.00  0.00     0.020 A 
ATOM     78  C   UNL A   1      48.592  26.910  31.827  1.00  0.00     0.054 A 
BRANCH  78  79
ATOM     79  S   UNL A   1      50.150  26.000  32.029  1.00  0.00     0.124 S 
ATOM     80  O   UNL A   1      50.100  25.061  30.914  1.00  0.00    -0.237 OA
ATOM     81  O   UNL A   1      51.151  27.059  31.920  1.00  0.00    -0.237 OA
ATOM     82  O   UNL A   1      50.027  25.405  33.358  1.00  0.00    -0.744 OA
ENDBRANCH  78  79
ENDBRANCH  50  73
BRANCH  62  83
ATOM     83  C   UNL A   1      43.535  34.453  33.275  1.00  0.00    -0.014 A 
ATOM     84  C   UNL A   1      44.220  35.508  32.648  1.00  0.00     0.010 A 
ATOM     85  C   UNL A   1      43.324  34.507  34.666  1.00  0.00     0.010 A 
ATOM     86  C   UNL A   1      44.715  36.578  33.401  1.00  0.00     0.020 A 
ATOM     87  C   UNL A   1      43.792  35.589  35.419  1.00  0.00     0.020 A 
ATOM     88  C   UNL A   1      44.499  36.611  34.782  1.00  0.00     0.054 A 
BRANCH  88  89
ATOM     89  S   UNL A   1      45.118  38.026  35.734  1.00  0.00     0.124 S 
ATOM     90  O   UNL A   1      44.308  39.122  35.209  1.00  0.00    -0.237 OA
ATOM     91  O   UNL A   1      44.831  37.637  37.113  1.00  0.00    -0.237 OA
ATOM     92  O   UNL A   1      46.537  38.080  35.392  1.00  0.00    -0.744 OA
ENDBRANCH  88  89
ENDBRANCH  62  83
ENDBRANCH  36  37
ENDBRANCH  29  31
ENDBRANCH  28  29
ENDBRANCH  27  28
ENDBRANCH   1  27
TORSDOF 19
ENDMDL
MODEL 3
REMARK VINA RESULT:     -10.2      3.079     11.159
REMARK SMILES NS(=O)(=O)c1ccc(/N=C/c2ccc(O)c(C(=O)OCCOC(=O)c3ccc(-c4c5nc(c(-c6ccc(S(=O)(=O)[O-])cc6)c6ccc([nH]6)c(-c6ccc(S(=O)(=O)[O-])cc6)c6nc(c(-c7ccc(S(=O)(=O)[O-])cc7)c7ccc4[nH]7)C=C6)C=C5)cc3)c2)cc1
REMARK SMILES IDX 20 1 19 2 17 3 18 4 16 5 11 6 12 7 85 8 13 9 14 10 10 11
REMARK SMILES IDX 9 12 8 13 5 14 6 15 87 16 7 17 86 18 2 19 3 20 4 21 1 22
REMARK SMILES IDX 15 25 21 27 22 28 23 29 24 30 25 31 26 32 84 33 27 34 83 35
REMARK SMILES IDX 28 36 29 37 30 38 77 39 31 40 82 41 76 42 78 43 32 44 81 45
REMARK SMILES IDX 75 46 74 47 33 49 63 50 44 51 62 52 45 53 48 54 61 55 79 56
REMARK SMILES IDX 46 57 47 58 60 60 80 61 49 62 34 63 35 64 43 65 36 66 42 67
REMARK SMILES IDX 37 68 38 69 39 70 40 71 41 72 64 73 65 74 73 75 66 76 72 77
REMARK SMILES IDX 67 78 68 79 69 80 70 81 71 82 50 83 51 84 59 85 52 86 58 87
REMARK SMILES IDX 53 88 54 89 55 90 56 91 57 92
REMARK H PARENT 1 23 1 24 15 26 78 48 48 59
REMARK Flexibility Score: inf
ROOT
ATOM      1  C   UNL A   1      33.782  34.052  28.138  1.00  0.00     0.275 C 
ENDROOT
BRANCH   1   2
ATOM      2  O   UNL A   1      32.873  34.421  29.195  1.00  0.00    -0.458 OA
BRANCH   2   3
ATOM      3  C   UNL A   1      33.011  35.673  29.691  1.00  0.00     0.342 C 
ATOM      4  O   UNL A   1      32.580  36.704  29.192  1.00  0.00    -0.246 OA
BRANCH   3   5
ATOM      5  C   UNL A   1      33.668  35.672  31.021  1.00  0.00     0.102 A 
ATOM      6  C   UNL A   1      34.970  34.616  32.767  1.00  0.00    -0.006 A 
ATOM      7  C   UNL A   1      34.717  35.690  33.626  1.00  0.00     0.013 A 
ATOM      8  C   UNL A   1      34.425  34.585  31.476  1.00  0.00     0.029 A 
ATOM      9  C   UNL A   1      33.993  36.785  33.162  1.00  0.00     0.048 A 
ATOM     10  C   UNL A   1      33.508  36.792  31.855  1.00  0.00     0.130 A 
BRANCH   6  11
ATOM     11  C   UNL A   1      35.916  33.581  33.230  1.00  0.00     0.119 C 
ATOM     12  N   UNL A   1      36.861  33.137  32.466  1.00  0.00    -0.256 NA
BRANCH  12  13
ATOM     13  C   UNL A   1      37.829  32.267  32.995  1.00  0.00     0.063 A 
ATOM     14  C   UNL A   1      39.628  30.382  34.037  1.00  0.00     0.082 A 
ATOM     15  C   UNL A   1      38.484  29.948  33.369  1.00  0.00     0.024 A 
ATOM     16  C   UNL A   1      39.888  31.747  34.186  1.00  0.00     0.024 A 
ATOM     17  C   UNL A   1      37.592  30.893  32.854  1.00  0.00     0.030 A 
ATOM     18  C   UNL A   1      38.983  32.682  33.673  1.00  0.00     0.030 A 
BRANCH  14  19
ATOM     19  S   UNL A   1      40.728  29.193  34.741  1.00  0.00     0.238 S 
ATOM     20  O   UNL A   1      40.667  27.968  33.972  1.00  0.00    -0.207 OA
ATOM     21  O   UNL A   1      40.591  29.219  36.175  1.00  0.00    -0.207 OA
BRANCH  19  22
ATOM     22  N   UNL A   1      42.242  29.841  34.402  1.00  0.00    -0.225 NA
ATOM     23  H   UNL A   1      42.144  30.597  33.724  1.00  0.00     0.137 HD
ATOM     24  H   UNL A   1      42.843  29.114  34.016  1.00  0.00     0.137 HD
ENDBRANCH  19  22
ENDBRANCH  14  19
ENDBRANCH  12  13
ENDBRANCH   6  11
BRANCH  10  25
ATOM     25  O   UNL A   1      32.857  37.933  31.474  1.00  0.00    -0.507 OA
ATOM     26  H   UNL A   1      31.932  37.917  31.322  1.00  0.00     0.293 HD
ENDBRANCH  10  25
ENDBRANCH   3   5
ENDBRANCH   2   3
ENDBRANCH   1   2
BRANCH   1  27
ATOM     27  C   UNL A   1      33.521  32.626  27.644  1.00  0.00     0.275 C 
BRANCH  27  28
ATOM     28  O   UNL A   1      34.084  31.649  28.540  1.00  0.00    -0.458 OA
BRANCH  28  29
ATOM     29  C   UNL A   1      34.305  30.430  27.990  1.00  0.00     0.338 C 
ATOM     30  O   UNL A   1      33.536  29.795  27.288  1.00  0.00    -0.246 OA
BRANCH  29  31
ATOM     31  C   UNL A   1      35.709  30.036  28.202  1.00  0.00     0.060 A 
ATOM     32  C   UNL A   1      36.057  29.623  29.489  1.00  0.00     0.016 A 
ATOM     33  C   UNL A   1      36.681  30.105  27.200  1.00  0.00     0.016 A 
ATOM     34  C   UNL A   1      37.362  29.244  29.783  1.00  0.00     0.010 A 
ATOM     35  C   UNL A   1      38.006  29.760  27.505  1.00  0.00     0.010 A 
ATOM     36  C   UNL A   1      38.353  29.334  28.801  1.00  0.00    -0.014 A 
BRANCH  36  37
ATOM     37  C   UNL A   1      39.764  29.108  29.194  1.00  0.00     0.031 A 
ATOM     38  C   UNL A   1      40.417  27.799  28.854  1.00  0.00     0.074 A 
ATOM     39  C   UNL A   1      40.481  30.085  29.779  1.00  0.00     0.049 A 
ATOM     40  N   UNL A   1      41.642  27.400  29.083  1.00  0.00    -0.248 NA
ATOM     41  C   UNL A   1      39.579  26.811  28.157  1.00  0.00     0.031 C 
ATOM     42  C   UNL A   1      39.983  31.423  30.099  1.00  0.00     0.029 A 
ATOM     43  N   UNL A   1      41.786  30.100  30.202  1.00  0.00    -0.354 N 
ATOM     44  C   UNL A   1      41.720  26.111  28.570  1.00  0.00     0.074 A 
ATOM     45  C   UNL A   1      40.412  25.790  28.036  1.00  0.00     0.031 C 
ATOM     46  C   UNL A   1      40.973  32.128  30.673  1.00  0.00     0.029 A 
ATOM     47  C   UNL A   1      42.161  31.284  30.790  1.00  0.00     0.049 A 
ATOM     48  H   UNL A   1      42.397  29.335  30.094  1.00  0.00     0.167 HD
ATOM     49  C   UNL A   1      42.781  25.270  28.547  1.00  0.00     0.031 A 
ATOM     50  C   UNL A   1      43.323  31.642  31.372  1.00  0.00     0.031 A 
ATOM     51  C   UNL A   1      44.074  25.581  29.095  1.00  0.00     0.049 A 
ATOM     52  C   UNL A   1      44.470  30.668  31.398  1.00  0.00     0.074 A 
ATOM     53  C   UNL A   1      45.211  24.794  29.120  1.00  0.00     0.029 A 
ATOM     54  N   UNL A   1      44.399  26.774  29.725  1.00  0.00    -0.354 N 
ATOM     55  N   UNL A   1      44.531  29.453  30.904  1.00  0.00    -0.248 NA
ATOM     56  C   UNL A   1      45.709  31.115  32.050  1.00  0.00     0.031 C 
ATOM     57  C   UNL A   1      46.209  25.488  29.815  1.00  0.00     0.029 A 
ATOM     58  C   UNL A   1      45.713  26.733  30.167  1.00  0.00     0.049 A 
ATOM     59  H   UNL A   1      43.788  27.536  29.842  1.00  0.00     0.167 HD
ATOM     60  C   UNL A   1      45.822  29.001  31.164  1.00  0.00     0.074 A 
ATOM     61  C   UNL A   1      46.509  30.078  31.849  1.00  0.00     0.031 C 
ATOM     62  C   UNL A   1      46.386  27.806  30.857  1.00  0.00     0.031 A 
BRANCH  49  63
ATOM     63  C   UNL A   1      42.552  23.902  27.960  1.00  0.00    -0.014 A 
ATOM     64  C   UNL A   1      42.281  22.787  28.775  1.00  0.00     0.010 A 
ATOM     65  C   UNL A   1      42.630  23.728  26.566  1.00  0.00     0.010 A 
ATOM     66  C   UNL A   1      42.155  21.514  28.212  1.00  0.00     0.020 A 
ATOM     67  C   UNL A   1      42.475  22.462  25.996  1.00  0.00     0.020 A 
ATOM     68  C   UNL A   1      42.265  21.359  26.826  1.00  0.00     0.054 A 
BRANCH  68  69
ATOM     69  S   UNL A   1      42.127  19.694  26.120  1.00  0.00     0.124 S 
ATOM     70  O   UNL A   1      40.720  19.650  25.732  1.00  0.00    -0.237 OA
ATOM     71  O   UNL A   1      43.082  19.732  25.016  1.00  0.00    -0.237 OA
ATOM     72  O   UNL A   1      42.495  18.817  27.228  1.00  0.00    -0.744 OA
ENDBRANCH  68  69
ENDBRANCH  49  63
BRANCH  50  73
ATOM     73  C   UNL A   1      43.444  32.987  32.001  1.00  0.00    -0.014 A 
ATOM     74  C   UNL A   1      43.178  33.173  33.368  1.00  0.00     0.010 A 
ATOM     75  C   UNL A   1      43.859  34.088  31.228  1.00  0.00     0.010 A 
ATOM     76  C   UNL A   1      43.325  34.436  33.950  1.00  0.00     0.020 A 
ATOM     77  C   UNL A   1      44.032  35.344  31.812  1.00  0.00     0.020 A 
ATOM     78  C   UNL A   1      43.758  35.513  33.170  1.00  0.00     0.054 A 
BRANCH  78  79
ATOM     79  S   UNL A   1      44.021  37.124  33.964  1.00  0.00     0.124 S 
ATOM     80  O   UNL A   1      44.495  36.736  35.289  1.00  0.00    -0.237 OA
ATOM     81  O   UNL A   1      45.015  37.747  33.094  1.00  0.00    -0.237 OA
ATOM     82  O   UNL A   1      42.698  37.743  33.926  1.00  0.00    -0.744 OA
ENDBRANCH  78  79
ENDBRANCH  50  73
BRANCH  62  83
ATOM     83  C   UNL A   1      47.832  27.603  31.228  1.00  0.00    -0.014 A 
ATOM     84  C   UNL A   1      48.202  27.019  32.451  1.00  0.00     0.010 A 
ATOM     85  C   UNL A   1      48.837  27.958  30.308  1.00  0.00     0.010 A 
ATOM     86  C   UNL A   1      49.552  26.825  32.764  1.00  0.00     0.020 A 
ATOM     87  C   UNL A   1      50.186  27.741  30.605  1.00  0.00     0.020 A 
ATOM     88  C   UNL A   1      50.535  27.189  31.839  1.00  0.00     0.054 A 
BRANCH  88  89
ATOM     89  S   UNL A   1      52.278  26.895  32.250  1.00  0.00     0.124 S 
ATOM     90  O   UNL A   1      52.854  28.229  32.102  1.00  0.00    -0.237 OA
ATOM     91  O   UNL A   1      52.205  26.390  33.619  1.00  0.00    -0.237 OA
ATOM     92  O   UNL A   1      52.708  25.917  31.254  1.00  0.00    -0.744 OA
ENDBRANCH  88  89
ENDBRANCH  62  83
ENDBRANCH  36  37
ENDBRANCH  29  31
ENDBRANCH  28  29
ENDBRANCH  27  28
ENDBRANCH   1  27
TORSDOF 19
ENDMDL
