MODEL 1
REMARK VINA RESULT:     -11.0      0.000      0.000
REMARK SMILES CC(=O)c1c[nH]c(C(=O)N[C@H]2C=C[C@H](C(=O)OCCOC(=O)c3ccc(-c4c5nc(c(-c6ccc(S(=O)(=O)[O-])cc6)c6ccc([nH]6)c(-c6ccc(S(=O)(=O)[O-])cc6)c6nc(c(-c7ccc(S(=O)(=O)[O-])cc7)c7ccc4[nH]7)C=C6)C=C5)cc3)C2)c1
REMARK SMILES IDX 18 1 17 2 15 3 16 4 14 5 11 6 12 7 83 8 13 9 10 10 8 11 9 12
REMARK SMILES IDX 7 14 4 15 5 16 84 17 6 18 2 20 1 21 3 22 19 23 20 24 21 25
REMARK SMILES IDX 22 26 23 27 24 28 82 29 25 30 81 31 26 32 27 33 28 34 75 35
REMARK SMILES IDX 29 36 80 37 74 38 76 39 30 40 79 41 73 42 72 43 31 45 61 46
REMARK SMILES IDX 42 47 60 48 43 49 46 50 59 51 77 52 44 53 45 54 58 56 78 57
REMARK SMILES IDX 47 58 32 59 33 60 41 61 34 62 40 63 35 64 36 65 37 66 38 67
REMARK SMILES IDX 39 68 62 69 63 70 71 71 64 72 70 73 65 74 66 75 67 76 68 77
REMARK SMILES IDX 69 78 48 79 49 80 57 81 50 82 56 83 51 84 52 85 53 86 54 87
REMARK SMILES IDX 55 88
REMARK H PARENT 10 13 6 19 76 44 46 55
REMARK Flexibility Score: inf
ROOT
ATOM      1  C   UNL A   1      33.232  29.789  26.201  1.00  0.00     0.274 C 
ENDROOT
BRANCH   1   2
ATOM      2  O   UNL A   1      33.694  28.563  25.616  1.00  0.00    -0.462 OA
BRANCH   2   3
ATOM      3  C   UNL A   1      32.743  27.608  25.403  1.00  0.00     0.312 C 
ATOM      4  O   UNL A   1      31.533  27.778  25.523  1.00  0.00    -0.252 OA
BRANCH   3   5
ATOM      5  C   UNL A   1      33.392  26.304  24.972  1.00  0.00     0.124 C 
ATOM      6  C   UNL A   1      31.869  24.551  24.225  1.00  0.00     0.106 C 
ATOM      7  C   UNL A   1      32.377  24.272  25.597  1.00  0.00    -0.006 C 
ATOM      8  C   UNL A   1      32.721  25.714  23.712  1.00  0.00     0.048 C 
ATOM      9  C   UNL A   1      33.195  25.246  26.017  1.00  0.00    -0.014 C 
BRANCH   6  10
ATOM     10  N   UNL A   1      31.815  23.370  23.383  1.00  0.00    -0.345 N 
ATOM     11  C   UNL A   1      32.597  22.275  23.139  1.00  0.00     0.268 C 
ATOM     12  O   UNL A   1      32.147  21.465  22.324  1.00  0.00    -0.268 OA
ATOM     13  H   UNL A   1      30.993  23.353  22.841  1.00  0.00     0.164 HD
BRANCH  11  14
ATOM     14  C   UNL A   1      33.846  22.005  23.815  1.00  0.00     0.105 A 
ATOM     15  C   UNL A   1      35.911  21.993  24.803  1.00  0.00     0.035 A 
ATOM     16  C   UNL A   1      35.203  20.911  25.278  1.00  0.00     0.094 A 
ATOM     17  C   UNL A   1      35.087  22.603  23.827  1.00  0.00     0.045 A 
ATOM     18  N   UNL A   1      33.971  20.918  24.666  1.00  0.00    -0.356 N 
ATOM     19  H   UNL A   1      33.271  20.242  24.815  1.00  0.00     0.166 HD
BRANCH  15  20
ATOM     20  C   UNL A   1      37.224  22.480  25.197  1.00  0.00     0.161 C 
ATOM     21  C   UNL A   1      37.366  23.927  25.569  1.00  0.00     0.093 C 
ATOM     22  O   UNL A   1      38.178  21.707  25.294  1.00  0.00    -0.294 OA
ENDBRANCH  15  20
ENDBRANCH  11  14
ENDBRANCH   6  10
ENDBRANCH   3   5
ENDBRANCH   2   3
ENDBRANCH   1   2
BRANCH   1  23
ATOM     23  C   UNL A   1      34.224  30.336  27.226  1.00  0.00     0.275 C 
BRANCH  23  24
ATOM     24  O   UNL A   1      35.483  29.651  27.256  1.00  0.00    -0.458 OA
BRANCH  24  25
ATOM     25  C   UNL A   1      36.448  30.325  27.921  1.00  0.00     0.338 C 
ATOM     26  O   UNL A   1      36.485  31.522  28.154  1.00  0.00    -0.246 OA
BRANCH  25  27
ATOM     27  C   UNL A   1      37.612  29.482  28.189  1.00  0.00     0.060 A 
ATOM     28  C   UNL A   1      37.575  28.698  29.347  1.00  0.00     0.016 A 
ATOM     29  C   UNL A   1      38.799  29.688  27.475  1.00  0.00     0.016 A 
ATOM     30  C   UNL A   1      38.752  28.168  29.836  1.00  0.00     0.010 A 
ATOM     31  C   UNL A   1      39.984  29.179  27.981  1.00  0.00     0.010 A 
ATOM     32  C   UNL A   1      39.953  28.432  29.165  1.00  0.00    -0.014 A 
BRANCH  32  33
ATOM     33  C   UNL A   1      41.150  27.703  29.613  1.00  0.00     0.031 A 
ATOM     34  C   UNL A   1      41.341  26.432  28.772  1.00  0.00     0.074 A 
ATOM     35  C   UNL A   1      41.816  28.203  30.700  1.00  0.00     0.049 A 
ATOM     36  N   UNL A   1      41.931  25.325  29.086  1.00  0.00    -0.248 NA
ATOM     37  C   UNL A   1      40.714  26.332  27.419  1.00  0.00     0.031 C 
ATOM     38  C   UNL A   1      41.486  29.474  31.390  1.00  0.00     0.029 A 
ATOM     39  N   UNL A   1      42.890  27.765  31.448  1.00  0.00    -0.354 N 
ATOM     40  C   UNL A   1      41.922  24.496  27.944  1.00  0.00     0.074 A 
ATOM     41  C   UNL A   1      41.058  25.117  26.991  1.00  0.00     0.031 C 
ATOM     42  C   UNL A   1      42.279  29.662  32.471  1.00  0.00     0.029 A 
ATOM     43  C   UNL A   1      43.220  28.563  32.580  1.00  0.00     0.049 A 
ATOM     44  H   UNL A   1      43.396  26.953  31.215  1.00  0.00     0.167 HD
ATOM     45  C   UNL A   1      42.750  23.423  27.803  1.00  0.00     0.031 A 
ATOM     46  C   UNL A   1      44.167  28.343  33.546  1.00  0.00     0.031 A 
ATOM     47  C   UNL A   1      43.518  23.249  28.987  1.00  0.00     0.049 A 
ATOM     48  C   UNL A   1      44.950  27.196  33.072  1.00  0.00     0.074 A 
ATOM     49  C   UNL A   1      43.178  22.852  30.253  1.00  0.00     0.029 A 
ATOM     50  N   UNL A   1      44.727  23.907  29.019  1.00  0.00    -0.354 N 
ATOM     51  N   UNL A   1      45.820  27.243  32.111  1.00  0.00    -0.248 NA
ATOM     52  C   UNL A   1      44.755  25.884  33.704  1.00  0.00     0.031 C 
ATOM     53  C   UNL A   1      43.939  23.713  31.069  1.00  0.00     0.029 A 
ATOM     54  C   UNL A   1      44.863  24.413  30.284  1.00  0.00     0.049 A 
ATOM     55  H   UNL A   1      45.368  23.995  28.277  1.00  0.00     0.167 HD
ATOM     56  C   UNL A   1      45.931  25.925  31.764  1.00  0.00     0.074 A 
ATOM     57  C   UNL A   1      45.569  25.159  32.940  1.00  0.00     0.031 C 
ATOM     58  C   UNL A   1      45.703  25.572  30.472  1.00  0.00     0.031 A 
BRANCH  45  59
ATOM     59  C   UNL A   1      43.165  22.639  26.592  1.00  0.00    -0.014 A 
ATOM     60  C   UNL A   1      42.643  21.325  26.478  1.00  0.00     0.010 A 
ATOM     61  C   UNL A   1      44.265  22.976  25.793  1.00  0.00     0.010 A 
ATOM     62  C   UNL A   1      43.281  20.347  25.717  1.00  0.00     0.020 A 
ATOM     63  C   UNL A   1      44.887  22.006  24.989  1.00  0.00     0.020 A 
ATOM     64  C   UNL A   1      44.425  20.688  25.003  1.00  0.00     0.054 A 
BRANCH  64  65
ATOM     65  S   UNL A   1      45.334  19.363  24.167  1.00  0.00     0.124 S 
ATOM     66  O   UNL A   1      46.719  19.799  24.319  1.00  0.00    -0.237 OA
ATOM     67  O   UNL A   1      44.959  18.185  24.945  1.00  0.00    -0.237 OA
ATOM     68  O   UNL A   1      44.808  19.394  22.805  1.00  0.00    -0.744 OA
ENDBRANCH  64  65
ENDBRANCH  45  59
BRANCH  46  69
ATOM     69  C   UNL A   1      44.602  28.862  34.902  1.00  0.00    -0.014 A 
ATOM     70  C   UNL A   1      43.776  29.193  35.981  1.00  0.00     0.010 A 
ATOM     71  C   UNL A   1      46.004  28.874  35.178  1.00  0.00     0.010 A 
ATOM     72  C   UNL A   1      44.319  29.369  37.283  1.00  0.00     0.020 A 
ATOM     73  C   UNL A   1      46.545  28.985  36.460  1.00  0.00     0.020 A 
ATOM     74  C   UNL A   1      45.690  29.205  37.521  1.00  0.00     0.054 A 
BRANCH  74  75
ATOM     75  S   UNL A   1      46.357  29.123  39.209  1.00  0.00     0.124 S 
ATOM     76  O   UNL A   1      47.315  30.223  39.224  1.00  0.00    -0.237 OA
ATOM     77  O   UNL A   1      45.167  29.306  40.036  1.00  0.00    -0.237 OA
ATOM     78  O   UNL A   1      46.943  27.784  39.280  1.00  0.00    -0.744 OA
ENDBRANCH  74  75
ENDBRANCH  46  69
BRANCH  58  79
ATOM     79  C   UNL A   1      45.979  26.665  29.440  1.00  0.00    -0.014 A 
ATOM     80  C   UNL A   1      44.921  27.157  28.652  1.00  0.00     0.010 A 
ATOM     81  C   UNL A   1      47.271  27.146  29.144  1.00  0.00     0.010 A 
ATOM     82  C   UNL A   1      45.136  28.073  27.609  1.00  0.00     0.020 A 
ATOM     83  C   UNL A   1      47.501  28.066  28.101  1.00  0.00     0.020 A 
ATOM     84  C   UNL A   1      46.427  28.524  27.338  1.00  0.00     0.054 A 
BRANCH  84  85
ATOM     85  S   UNL A   1      46.669  29.704  25.975  1.00  0.00     0.124 S 
ATOM     86  O   UNL A   1      45.583  30.660  26.173  1.00  0.00    -0.237 OA
ATOM     87  O   UNL A   1      48.010  30.222  26.237  1.00  0.00    -0.237 OA
ATOM     88  O   UNL A   1      46.549  28.881  24.771  1.00  0.00    -0.744 OA
ENDBRANCH  84  85
ENDBRANCH  58  79
ENDBRANCH  32  33
ENDBRANCH  25  27
ENDBRANCH  24  25
ENDBRANCH  23  24
ENDBRANCH   1  23
TORSDOF 17
ENDMDL
MODEL 2
REMARK VINA RESULT:     -10.9      3.405      6.476
REMARK SMILES CC(=O)c1c[nH]c(C(=O)N[C@H]2C=C[C@H](C(=O)OCCOC(=O)c3ccc(-c4c5nc(c(-c6ccc(S(=O)(=O)[O-])cc6)c6ccc([nH]6)c(-c6ccc(S(=O)(=O)[O-])cc6)c6nc(c(-c7ccc(S(=O)(=O)[O-])cc7)c7ccc4[nH]7)C=C6)C=C5)cc3)C2)c1
REMARK SMILES IDX 18 1 17 2 15 3 16 4 14 5 11 6 12 7 83 8 13 9 10 10 8 11 9 12
REMARK SMILES IDX 7 14 4 15 5 16 84 17 6 18 2 20 1 21 3 22 19 23 20 24 21 25
REMARK SMILES IDX 22 26 23 27 24 28 82 29 25 30 81 31 26 32 27 33 28 34 75 35
REMARK SMILES IDX 29 36 80 37 74 38 76 39 30 40 79 41 73 42 72 43 31 45 61 46
REMARK SMILES IDX 42 47 60 48 43 49 46 50 59 51 77 52 44 53 45 54 58 56 78 57
REMARK SMILES IDX 47 58 32 59 33 60 41 61 34 62 40 63 35 64 36 65 37 66 38 67
REMARK SMILES IDX 39 68 62 69 63 70 71 71 64 72 70 73 65 74 66 75 67 76 68 77
REMARK SMILES IDX 69 78 48 79 49 80 57 81 50 82 56 83 51 84 52 85 53 86 54 87
REMARK SMILES IDX 55 88
REMARK H PARENT 10 13 6 19 76 44 46 55
REMARK Flexibility Score: inf
ROOT
ATOM      1  C   UNL A   1      33.300  30.912  27.480  1.00  0.00     0.274 C 
ENDROOT
BRANCH   1   2
ATOM      2  O   UNL A   1      33.748  31.922  28.395  1.00  0.00    -0.462 OA
BRANCH   2   3
ATOM      3  C   UNL A   1      33.348  33.197  28.119  1.00  0.00     0.312 C 
ATOM      4  O   UNL A   1      32.359  33.499  27.457  1.00  0.00    -0.252 OA
BRANCH   3   5
ATOM      5  C   UNL A   1      34.289  34.198  28.769  1.00  0.00     0.124 C 
ATOM      6  C   UNL A   1      33.233  35.928  30.125  1.00  0.00     0.106 C 
ATOM      7  C   UNL A   1      33.672  36.471  28.809  1.00  0.00    -0.006 C 
ATOM      8  C   UNL A   1      33.863  34.536  30.214  1.00  0.00     0.048 C 
ATOM      9  C   UNL A   1      34.230  35.516  28.055  1.00  0.00    -0.014 C 
BRANCH   6  10
ATOM     10  N   UNL A   1      33.497  36.828  31.233  1.00  0.00    -0.345 N 
ATOM     11  C   UNL A   1      34.101  36.760  32.459  1.00  0.00     0.268 C 
ATOM     12  O   UNL A   1      34.125  37.812  33.104  1.00  0.00    -0.268 OA
ATOM     13  H   UNL A   1      33.147  37.730  31.055  1.00  0.00     0.164 HD
BRANCH  11  14
ATOM     14  C   UNL A   1      34.743  35.574  32.981  1.00  0.00     0.105 A 
ATOM     15  C   UNL A   1      36.120  33.939  33.799  1.00  0.00     0.035 A 
ATOM     16  C   UNL A   1      34.822  33.602  34.113  1.00  0.00     0.094 A 
ATOM     17  C   UNL A   1      36.042  35.116  33.017  1.00  0.00     0.045 A 
ATOM     18  N   UNL A   1      34.002  34.582  33.603  1.00  0.00    -0.356 N 
ATOM     19  H   UNL A   1      33.020  34.579  33.672  1.00  0.00     0.166 HD
BRANCH  15  20
ATOM     20  C   UNL A   1      37.360  33.283  34.183  1.00  0.00     0.161 C 
ATOM     21  C   UNL A   1      38.254  33.970  35.175  1.00  0.00     0.093 C 
ATOM     22  O   UNL A   1      37.634  32.160  33.761  1.00  0.00    -0.294 OA
ENDBRANCH  15  20
ENDBRANCH  11  14
ENDBRANCH   6  10
ENDBRANCH   3   5
ENDBRANCH   2   3
ENDBRANCH   1   2
BRANCH   1  23
ATOM     23  C   UNL A   1      34.460  30.065  26.960  1.00  0.00     0.275 C 
BRANCH  23  24
ATOM     24  O   UNL A   1      35.359  29.604  27.978  1.00  0.00    -0.458 OA
BRANCH  24  25
ATOM     25  C   UNL A   1      36.492  30.335  28.068  1.00  0.00     0.338 C 
ATOM     26  O   UNL A   1      36.628  31.519  27.808  1.00  0.00    -0.246 OA
BRANCH  25  27
ATOM     27  C   UNL A   1      37.660  29.496  28.332  1.00  0.00     0.060 A 
ATOM     28  C   UNL A   1      37.680  28.803  29.548  1.00  0.00     0.016 A 
ATOM     29  C   UNL A   1      38.805  29.627  27.539  1.00  0.00     0.016 A 
ATOM     30  C   UNL A   1      38.877  28.293  30.009  1.00  0.00     0.010 A 
ATOM     31  C   UNL A   1      40.011  29.138  28.013  1.00  0.00     0.010 A 
ATOM     32  C   UNL A   1      40.041  28.485  29.251  1.00  0.00    -0.014 A 
BRANCH  32  33
ATOM     33  C   UNL A   1      41.253  27.772  29.685  1.00  0.00     0.031 A 
ATOM     34  C   UNL A   1      41.450  26.503  28.843  1.00  0.00     0.074 A 
ATOM     35  C   UNL A   1      41.925  28.282  30.763  1.00  0.00     0.049 A 
ATOM     36  N   UNL A   1      42.059  25.404  29.151  1.00  0.00    -0.248 NA
ATOM     37  C   UNL A   1      40.808  26.394  27.498  1.00  0.00     0.031 C 
ATOM     38  C   UNL A   1      41.586  29.549  31.457  1.00  0.00     0.029 A 
ATOM     39  N   UNL A   1      43.014  27.859  31.499  1.00  0.00    -0.354 N 
ATOM     40  C   UNL A   1      42.047  24.575  28.009  1.00  0.00     0.074 A 
ATOM     41  C   UNL A   1      41.164  25.183  27.066  1.00  0.00     0.031 C 
ATOM     42  C   UNL A   1      42.390  29.749  32.528  1.00  0.00     0.029 A 
ATOM     43  C   UNL A   1      43.346  28.663  32.627  1.00  0.00     0.049 A 
ATOM     44  H   UNL A   1      43.528  27.054  31.260  1.00  0.00     0.167 HD
ATOM     45  C   UNL A   1      42.888  23.513  27.859  1.00  0.00     0.031 A 
ATOM     46  C   UNL A   1      44.308  28.456  33.581  1.00  0.00     0.031 A 
ATOM     47  C   UNL A   1      43.673  23.350  29.034  1.00  0.00     0.049 A 
ATOM     48  C   UNL A   1      45.101  27.319  33.098  1.00  0.00     0.074 A 
ATOM     49  C   UNL A   1      43.354  22.950  30.304  1.00  0.00     0.029 A 
ATOM     50  N   UNL A   1      44.873  24.024  29.050  1.00  0.00    -0.354 N 
ATOM     51  N   UNL A   1      45.958  27.378  32.127  1.00  0.00    -0.248 NA
ATOM     52  C   UNL A   1      44.931  26.006  33.734  1.00  0.00     0.031 C 
ATOM     53  C   UNL A   1      44.112  23.821  31.110  1.00  0.00     0.029 A 
ATOM     54  C   UNL A   1      45.018  24.534  30.313  1.00  0.00     0.049 A 
ATOM     55  H   UNL A   1      45.503  24.120  28.300  1.00  0.00     0.167 HD
ATOM     56  C   UNL A   1      46.083  26.060  31.779  1.00  0.00     0.074 A 
ATOM     57  C   UNL A   1      45.746  25.291  32.960  1.00  0.00     0.031 C 
ATOM     58  C   UNL A   1      45.844  25.703  30.490  1.00  0.00     0.031 A 
BRANCH  45  59
ATOM     59  C   UNL A   1      43.299  22.734  26.644  1.00  0.00    -0.014 A 
ATOM     60  C   UNL A   1      42.629  21.503  26.423  1.00  0.00     0.010 A 
ATOM     61  C   UNL A   1      44.493  22.960  25.947  1.00  0.00     0.010 A 
ATOM     62  C   UNL A   1      43.200  20.484  25.662  1.00  0.00     0.020 A 
ATOM     63  C   UNL A   1      45.053  21.953  25.143  1.00  0.00     0.020 A 
ATOM     64  C   UNL A   1      44.431  20.706  25.055  1.00  0.00     0.054 A 
BRANCH  64  65
ATOM     65  S   UNL A   1      45.233  19.311  24.221  1.00  0.00     0.124 S 
ATOM     66  O   UNL A   1      46.638  19.706  24.250  1.00  0.00    -0.237 OA
ATOM     67  O   UNL A   1      44.881  18.185  25.084  1.00  0.00    -0.237 OA
ATOM     68  O   UNL A   1      44.608  19.295  22.902  1.00  0.00    -0.744 OA
ENDBRANCH  64  65
ENDBRANCH  45  59
BRANCH  46  69
ATOM     69  C   UNL A   1      44.753  28.982  34.931  1.00  0.00    -0.014 A 
ATOM     70  C   UNL A   1      43.951  29.588  35.904  1.00  0.00     0.010 A 
ATOM     71  C   UNL A   1      46.095  28.700  35.334  1.00  0.00     0.010 A 
ATOM     72  C   UNL A   1      44.423  29.752  37.234  1.00  0.00     0.020 A 
ATOM     73  C   UNL A   1      46.551  28.799  36.648  1.00  0.00     0.020 A 
ATOM     74  C   UNL A   1      45.696  29.302  37.608  1.00  0.00     0.054 A 
BRANCH  74  75
ATOM     75  S   UNL A   1      46.201  29.222  39.352  1.00  0.00     0.124 S 
ATOM     76  O   UNL A   1      46.668  27.846  39.483  1.00  0.00    -0.237 OA
ATOM     77  O   UNL A   1      47.233  30.253  39.437  1.00  0.00    -0.237 OA
ATOM     78  O   UNL A   1      44.971  29.536  40.079  1.00  0.00    -0.744 OA
ENDBRANCH  74  75
ENDBRANCH  46  69
BRANCH  58  79
ATOM     79  C   UNL A   1      46.093  26.799  29.455  1.00  0.00    -0.014 A 
ATOM     80  C   UNL A   1      45.005  27.545  28.960  1.00  0.00     0.010 A 
ATOM     81  C   UNL A   1      47.352  27.044  28.869  1.00  0.00     0.010 A 
ATOM     82  C   UNL A   1      45.157  28.480  27.923  1.00  0.00     0.020 A 
ATOM     83  C   UNL A   1      47.519  27.981  27.829  1.00  0.00     0.020 A 
ATOM     84  C   UNL A   1      46.415  28.694  27.361  1.00  0.00     0.054 A 
BRANCH  84  85
ATOM     85  S   UNL A   1      46.573  29.908  26.014  1.00  0.00     0.124 S 
ATOM     86  O   UNL A   1      46.652  29.066  24.824  1.00  0.00    -0.237 OA
ATOM     87  O   UNL A   1      45.345  30.688  26.145  1.00  0.00    -0.237 OA
ATOM     88  O   UNL A   1      47.803  30.632  26.335  1.00  0.00    -0.744 OA
ENDBRANCH  84  85
ENDBRANCH  58  79
ENDBRANCH  32  33
ENDBRANCH  25  27
ENDBRANCH  24  25
ENDBRANCH  23  24
ENDBRANCH   1  23
TORSDOF 17
ENDMDL
MODEL 3
REMARK VINA RESULT:     -10.9      4.913      7.146
REMARK SMILES CC(=O)c1c[nH]c(C(=O)N[C@H]2C=C[C@H](C(=O)OCCOC(=O)c3ccc(-c4c5nc(c(-c6ccc(S(=O)(=O)[O-])cc6)c6ccc([nH]6)c(-c6ccc(S(=O)(=O)[O-])cc6)c6nc(c(-c7ccc(S(=O)(=O)[O-])cc7)c7ccc4[nH]7)C=C6)C=C5)cc3)C2)c1
REMARK SMILES IDX 18 1 17 2 15 3 16 4 14 5 11 6 12 7 83 8 13 9 10 10 8 11 9 12
REMARK SMILES IDX 7 14 4 15 5 16 84 17 6 18 2 20 1 21 3 22 19 23 20 24 21 25
REMARK SMILES IDX 22 26 23 27 24 28 82 29 25 30 81 31 26 32 27 33 28 34 75 35
REMARK SMILES IDX 29 36 80 37 74 38 76 39 30 40 79 41 73 42 72 43 31 45 61 46
REMARK SMILES IDX 42 47 60 48 43 49 46 50 59 51 77 52 44 53 45 54 58 56 78 57
REMARK SMILES IDX 47 58 32 59 33 60 41 61 34 62 40 63 35 64 36 65 37 66 38 67
REMARK SMILES IDX 39 68 62 69 63 70 71 71 64 72 70 73 65 74 66 75 67 76 68 77
REMARK SMILES IDX 69 78 48 79 49 80 57 81 50 82 56 83 51 84 52 85 53 86 54 87
REMARK SMILES IDX 55 88
REMARK H PARENT 10 13 6 19 76 44 46 55
REMARK Flexibility Score: inf
ROOT
ATOM      1  C   UNL A   1      32.334  31.196  27.187  1.00  0.00     0.274 C 
ENDROOT
BRANCH   1   2
ATOM      2  O   UNL A   1      33.370  30.632  26.369  1.00  0.00    -0.462 OA
BRANCH   2   3
ATOM      3  C   UNL A   1      34.167  29.704  26.972  1.00  0.00     0.312 C 
ATOM      4  O   UNL A   1      34.819  29.891  27.996  1.00  0.00    -0.252 OA
BRANCH   3   5
ATOM      5  C   UNL A   1      34.116  28.390  26.210  1.00  0.00     0.124 C 
ATOM      6  C   UNL A   1      32.249  28.128  24.662  1.00  0.00     0.106 C 
ATOM      7  C   UNL A   1      32.031  27.337  25.906  1.00  0.00    -0.006 C 
ATOM      8  C   UNL A   1      33.705  28.594  24.735  1.00  0.00     0.048 C 
ATOM      9  C   UNL A   1      33.044  27.499  26.766  1.00  0.00    -0.014 C 
BRANCH   6  10
ATOM     10  N   UNL A   1      31.858  27.420  23.457  1.00  0.00    -0.345 N 
ATOM     11  C   UNL A   1      30.903  27.543  22.485  1.00  0.00     0.268 C 
ATOM     12  O   UNL A   1      30.940  26.698  21.586  1.00  0.00    -0.268 OA
ATOM     13  H   UNL A   1      32.437  26.640  23.295  1.00  0.00     0.164 HD
BRANCH  11  14
ATOM     14  C   UNL A   1      29.934  28.615  22.433  1.00  0.00     0.105 A 
ATOM     15  C   UNL A   1      28.691  30.508  22.098  1.00  0.00     0.035 A 
ATOM     16  C   UNL A   1      27.844  29.510  22.526  1.00  0.00     0.094 A 
ATOM     17  C   UNL A   1      29.995  29.959  22.138  1.00  0.00     0.045 A 
ATOM     18  N   UNL A   1      28.603  28.382  22.740  1.00  0.00    -0.356 N 
ATOM     19  H   UNL A   1      28.247  27.524  23.066  1.00  0.00     0.166 HD
BRANCH  15  20
ATOM     20  C   UNL A   1      28.375  31.857  21.655  1.00  0.00     0.161 C 
ATOM     21  C   UNL A   1      28.742  33.006  22.549  1.00  0.00     0.093 C 
ATOM     22  O   UNL A   1      27.886  32.055  20.543  1.00  0.00    -0.294 OA
ENDBRANCH  15  20
ENDBRANCH  11  14
ENDBRANCH   6  10
ENDBRANCH   3   5
ENDBRANCH   2   3
ENDBRANCH   1   2
BRANCH   1  23
ATOM     23  C   UNL A   1      32.175  32.696  26.943  1.00  0.00     0.275 C 
BRANCH  23  24
ATOM     24  O   UNL A   1      33.360  33.465  27.186  1.00  0.00    -0.458 OA
BRANCH  24  25
ATOM     25  C   UNL A   1      33.318  34.173  28.337  1.00  0.00     0.338 C 
ATOM     26  O   UNL A   1      32.561  35.088  28.613  1.00  0.00    -0.246 OA
BRANCH  25  27
ATOM     27  C   UNL A   1      34.452  33.862  29.207  1.00  0.00     0.060 A 
ATOM     28  C   UNL A   1      35.715  34.279  28.773  1.00  0.00     0.016 A 
ATOM     29  C   UNL A   1      34.295  32.947  30.254  1.00  0.00     0.016 A 
ATOM     30  C   UNL A   1      36.839  33.721  29.350  1.00  0.00     0.010 A 
ATOM     31  C   UNL A   1      35.422  32.367  30.814  1.00  0.00     0.010 A 
ATOM     32  C   UNL A   1      36.686  32.750  30.349  1.00  0.00    -0.014 A 
BRANCH  32  33
ATOM     33  C   UNL A   1      37.900  32.317  31.059  1.00  0.00     0.031 A 
ATOM     34  C   UNL A   1      38.446  31.025  30.433  1.00  0.00     0.074 A 
ATOM     35  C   UNL A   1      38.279  33.048  32.153  1.00  0.00     0.049 A 
ATOM     36  N   UNL A   1      39.159  30.092  30.976  1.00  0.00    -0.248 NA
ATOM     37  C   UNL A   1      38.079  30.664  29.030  1.00  0.00     0.031 C 
ATOM     38  C   UNL A   1      37.623  34.297  32.611  1.00  0.00     0.029 A 
ATOM     39  N   UNL A   1      39.273  32.907  33.100  1.00  0.00    -0.354 N 
ATOM     40  C   UNL A   1      39.484  29.161  29.966  1.00  0.00     0.074 A 
ATOM     41  C   UNL A   1      38.696  29.500  28.823  1.00  0.00     0.031 C 
ATOM     42  C   UNL A   1      38.180  34.748  33.760  1.00  0.00     0.029 A 
ATOM     43  C   UNL A   1      39.266  33.869  34.150  1.00  0.00     0.049 A 
ATOM     44  H   UNL A   1      39.944  32.188  33.054  1.00  0.00     0.167 HD
ATOM     45  C   UNL A   1      40.498  28.259  30.092  1.00  0.00     0.031 A 
ATOM     46  C   UNL A   1      40.063  33.939  35.263  1.00  0.00     0.031 A 
ATOM     47  C   UNL A   1      41.077  28.363  31.386  1.00  0.00     0.049 A 
ATOM     48  C   UNL A   1      41.101  32.920  35.065  1.00  0.00     0.074 A 
ATOM     49  C   UNL A   1      40.605  28.044  32.632  1.00  0.00     0.029 A 
ATOM     50  N   UNL A   1      42.130  29.240  31.502  1.00  0.00    -0.354 N 
ATOM     51  N   UNL A   1      42.097  33.033  34.242  1.00  0.00    -0.248 NA
ATOM     52  C   UNL A   1      41.035  31.670  35.834  1.00  0.00     0.031 C 
ATOM     53  C   UNL A   1      41.058  29.116  33.425  1.00  0.00     0.029 A 
ATOM     54  C   UNL A   1      41.964  29.895  32.694  1.00  0.00     0.049 A 
ATOM     55  H   UNL A   1      42.860  29.371  30.856  1.00  0.00     0.167 HD
ATOM     56  C   UNL A   1      42.492  31.731  34.095  1.00  0.00     0.074 A 
ATOM     57  C   UNL A   1      42.078  31.039  35.299  1.00  0.00     0.031 C 
ATOM     58  C   UNL A   1      42.547  31.206  32.843  1.00  0.00     0.031 A 
BRANCH  45  59
ATOM     59  C   UNL A   1      41.238  27.446  29.069  1.00  0.00    -0.014 A 
ATOM     60  C   UNL A   1      40.602  26.261  28.620  1.00  0.00     0.010 A 
ATOM     61  C   UNL A   1      42.608  27.589  28.813  1.00  0.00     0.010 A 
ATOM     62  C   UNL A   1      41.327  25.201  28.077  1.00  0.00     0.020 A 
ATOM     63  C   UNL A   1      43.337  26.542  28.225  1.00  0.00     0.020 A 
ATOM     64  C   UNL A   1      42.701  25.337  27.916  1.00  0.00     0.054 A 
BRANCH  64  65
ATOM     65  S   UNL A   1      43.643  23.887  27.375  1.00  0.00     0.124 S 
ATOM     66  O   UNL A   1      43.625  24.036  25.923  1.00  0.00    -0.237 OA
ATOM     67  O   UNL A   1      44.942  24.101  28.010  1.00  0.00    -0.237 OA
ATOM     68  O   UNL A   1      42.876  22.763  27.905  1.00  0.00    -0.744 OA
ENDBRANCH  64  65
ENDBRANCH  45  59
BRANCH  46  69
ATOM     69  C   UNL A   1      40.170  34.672  36.585  1.00  0.00    -0.014 A 
ATOM     70  C   UNL A   1      40.933  35.812  36.856  1.00  0.00     0.010 A 
ATOM     71  C   UNL A   1      39.289  34.263  37.633  1.00  0.00     0.010 A 
ATOM     72  C   UNL A   1      40.708  36.574  38.034  1.00  0.00     0.020 A 
ATOM     73  C   UNL A   1      39.014  35.031  38.765  1.00  0.00     0.020 A 
ATOM     74  C   UNL A   1      39.711  36.209  38.948  1.00  0.00     0.054 A 
BRANCH  74  75
ATOM     75  S   UNL A   1      39.201  37.322  40.291  1.00  0.00     0.124 S 
ATOM     76  O   UNL A   1      40.478  37.732  40.864  1.00  0.00    -0.237 OA
ATOM     77  O   UNL A   1      38.459  38.363  39.584  1.00  0.00    -0.237 OA
ATOM     78  O   UNL A   1      38.379  36.468  41.149  1.00  0.00    -0.744 OA
ENDBRANCH  74  75
ENDBRANCH  46  69
BRANCH  58  79
ATOM     79  C   UNL A   1      42.796  32.217  31.724  1.00  0.00    -0.014 A 
ATOM     80  C   UNL A   1      41.700  32.834  31.090  1.00  0.00     0.010 A 
ATOM     81  C   UNL A   1      44.075  32.496  31.201  1.00  0.00     0.010 A 
ATOM     82  C   UNL A   1      41.864  33.678  29.980  1.00  0.00     0.020 A 
ATOM     83  C   UNL A   1      44.254  33.342  30.087  1.00  0.00     0.020 A 
ATOM     84  C   UNL A   1      43.142  33.929  29.482  1.00  0.00     0.054 A 
BRANCH  84  85
ATOM     85  S   UNL A   1      43.316  35.020  28.037  1.00  0.00     0.124 S 
ATOM     86  O   UNL A   1      43.974  34.162  27.056  1.00  0.00    -0.237 OA
ATOM     87  O   UNL A   1      41.929  35.365  27.732  1.00  0.00    -0.237 OA
ATOM     88  O   UNL A   1      44.135  36.128  28.529  1.00  0.00    -0.744 OA
ENDBRANCH  84  85
ENDBRANCH  58  79
ENDBRANCH  32  33
ENDBRANCH  25  27
ENDBRANCH  24  25
ENDBRANCH  23  24
ENDBRANCH   1  23
TORSDOF 17
ENDMDL
