MODEL 1
REMARK VINA RESULT:     -11.7      0.000      0.000
REMARK SMILES CC(C)[C@H](NC(=O)CCC1=c2ccccc2=NC1)C(=O)OCCOC(=O)c1ccc(-c2c3nc(c(-c4ccc(S(=O)(=O)[O-])cc4)c4ccc([nH]4)c(-c4ccc(S(=O)(=O)[O-])cc4)c4nc(c(-c5ccc(S(=O)(=O)[O-])cc5)c5ccc2[nH]5)C=C4)C=C3)cc1
REMARK SMILES IDX 22 1 21 2 19 3 20 4 4 5 2 6 1 7 3 8 5 9 6 10 7 12 8 13 9 14
REMARK SMILES IDX 10 15 11 16 18 17 12 18 16 19 17 20 13 21 15 22 14 23 23 24
REMARK SMILES IDX 24 25 25 26 26 27 27 28 28 29 86 30 29 31 85 32 30 33 31 34
REMARK SMILES IDX 32 35 79 36 33 37 84 38 78 39 80 40 34 41 83 42 77 43 76 44
REMARK SMILES IDX 35 46 65 47 46 48 64 49 47 50 50 51 63 52 81 53 48 54 49 55
REMARK SMILES IDX 62 57 82 58 51 59 36 60 37 61 45 62 38 63 44 64 39 65 40 66
REMARK SMILES IDX 41 67 42 68 43 69 66 70 67 71 75 72 68 73 74 74 69 75 70 76
REMARK SMILES IDX 71 77 72 78 73 79 52 80 53 81 61 82 54 83 60 84 55 85 56 86
REMARK SMILES IDX 57 87 58 88 59 89
REMARK H PARENT 5 11 80 45 50 56
REMARK Flexibility Score: inf
ROOT
ATOM      1  C   UNL A   1      31.965  30.360  26.366  1.00  0.00     0.274 C 
ENDROOT
BRANCH   1   2
ATOM      2  O   UNL A   1      32.346  28.964  26.491  1.00  0.00    -0.461 OA
BRANCH   2   3
ATOM      3  C   UNL A   1      32.821  28.185  25.348  1.00  0.00     0.329 C 
ATOM      4  O   UNL A   1      34.015  27.896  25.624  1.00  0.00    -0.250 OA
BRANCH   3   5
ATOM      5  C   UNL A   1      31.683  27.894  23.487  1.00  0.00     0.194 C 
BRANCH   5   6
ATOM      6  C   UNL A   1      29.923  27.699  23.141  1.00  0.00     0.017 C 
ATOM      7  C   UNL A   1      29.114  26.648  23.913  1.00  0.00     0.010 C 
ATOM      8  C   UNL A   1      29.082  28.970  22.863  1.00  0.00     0.010 C 
ENDBRANCH   5   6
BRANCH   5   9
ATOM      9  N   UNL A   1      32.127  27.135  22.025  1.00  0.00    -0.343 N 
ATOM     10  C   UNL A   1      32.910  26.068  21.675  1.00  0.00     0.221 C 
ATOM     11  H   UNL A   1      31.722  27.571  21.241  1.00  0.00     0.164 HD
ATOM     12  O   UNL A   1      33.025  25.865  20.458  1.00  0.00    -0.275 OA
BRANCH  10  13
ATOM     13  C   UNL A   1      33.500  25.030  22.651  1.00  0.00     0.104 C 
BRANCH  13  14
ATOM     14  C   UNL A   1      33.739  23.598  22.187  1.00  0.00     0.043 C 
BRANCH  14  15
ATOM     15  C   UNL A   1      34.341  22.662  23.198  1.00  0.00    -0.039 C 
ATOM     16  C   UNL A   1      33.650  22.090  24.193  1.00  0.00     0.001 A 
ATOM     17  C   UNL A   1      35.846  22.814  23.526  1.00  0.00     0.174 C 
ATOM     18  C   UNL A   1      31.874  22.080  24.718  1.00  0.00     0.010 A 
ATOM     19  C   UNL A   1      34.958  22.525  25.535  1.00  0.00     0.065 A 
ATOM     20  N   UNL A   1      36.112  22.788  25.020  1.00  0.00    -0.280 NA
ATOM     21  C   UNL A   1      31.408  22.518  26.177  1.00  0.00     0.001 A 
ATOM     22  C   UNL A   1      34.214  22.753  27.327  1.00  0.00     0.028 A 
ATOM     23  C   UNL A   1      32.655  22.778  27.557  1.00  0.00     0.002 A 
ENDBRANCH  14  15
ENDBRANCH  13  14
ENDBRANCH  10  13
ENDBRANCH   5   9
ENDBRANCH   3   5
ENDBRANCH   2   3
ENDBRANCH   1   2
BRANCH   1  24
ATOM     24  C   UNL A   1      32.911  31.261  27.157  1.00  0.00     0.275 C 
BRANCH  24  25
ATOM     25  O   UNL A   1      33.960  30.471  27.729  1.00  0.00    -0.458 OA
BRANCH  25  26
ATOM     26  C   UNL A   1      34.794  31.158  28.538  1.00  0.00     0.338 C 
ATOM     27  O   UNL A   1      34.528  32.085  29.283  1.00  0.00    -0.246 OA
BRANCH  26  28
ATOM     28  C   UNL A   1      36.068  30.441  28.567  1.00  0.00     0.060 A 
ATOM     29  C   UNL A   1      36.906  30.335  27.477  1.00  0.00     0.016 A 
ATOM     30  C   UNL A   1      36.464  29.949  29.802  1.00  0.00     0.016 A 
ATOM     31  C   UNL A   1      38.149  29.728  27.664  1.00  0.00     0.010 A 
ATOM     32  C   UNL A   1      37.739  29.474  30.030  1.00  0.00     0.010 A 
ATOM     33  C   UNL A   1      38.597  29.340  28.954  1.00  0.00    -0.014 A 
BRANCH  33  34
ATOM     34  C   UNL A   1      39.997  28.915  29.165  1.00  0.00     0.031 A 
ATOM     35  C   UNL A   1      40.484  27.545  28.796  1.00  0.00     0.074 A 
ATOM     36  C   UNL A   1      40.832  29.836  29.684  1.00  0.00     0.049 A 
ATOM     37  N   UNL A   1      41.718  27.160  28.598  1.00  0.00    -0.248 NA
ATOM     38  C   UNL A   1      39.496  26.459  28.661  1.00  0.00     0.031 C 
ATOM     39  C   UNL A   1      40.404  31.126  30.235  1.00  0.00     0.029 A 
ATOM     40  N   UNL A   1      42.198  29.880  29.751  1.00  0.00    -0.354 N 
ATOM     41  C   UNL A   1      41.648  25.809  28.278  1.00  0.00     0.074 A 
ATOM     42  C   UNL A   1      40.268  25.411  28.404  1.00  0.00     0.031 C 
ATOM     43  C   UNL A   1      41.480  31.896  30.426  1.00  0.00     0.029 A 
ATOM     44  C   UNL A   1      42.671  31.134  30.070  1.00  0.00     0.049 A 
ATOM     45  H   UNL A   1      42.778  29.101  29.589  1.00  0.00     0.167 HD
ATOM     46  C   UNL A   1      42.650  24.999  27.868  1.00  0.00     0.031 A 
ATOM     47  C   UNL A   1      43.920  31.634  30.019  1.00  0.00     0.031 A 
ATOM     48  C   UNL A   1      44.015  25.448  27.755  1.00  0.00     0.049 A 
ATOM     49  C   UNL A   1      45.007  30.743  29.495  1.00  0.00     0.074 A 
ATOM     50  C   UNL A   1      45.110  24.754  27.278  1.00  0.00     0.029 A 
ATOM     51  N   UNL A   1      44.468  26.708  28.125  1.00  0.00    -0.354 N 
ATOM     52  N   UNL A   1      44.911  29.516  29.034  1.00  0.00    -0.248 NA
ATOM     53  C   UNL A   1      46.362  31.300  29.465  1.00  0.00     0.031 C 
ATOM     54  C   UNL A   1      46.238  25.559  27.445  1.00  0.00     0.029 A 
ATOM     55  C   UNL A   1      45.836  26.794  27.933  1.00  0.00     0.049 A 
ATOM     56  H   UNL A   1      43.900  27.433  28.472  1.00  0.00     0.167 HD
ATOM     57  C   UNL A   1      46.199  29.148  28.669  1.00  0.00     0.074 A 
ATOM     58  C   UNL A   1      47.040  30.307  28.904  1.00  0.00     0.031 C 
ATOM     59  C   UNL A   1      46.651  27.956  28.206  1.00  0.00     0.031 A 
BRANCH  46  60
ATOM     60  C   UNL A   1      42.326  23.581  27.458  1.00  0.00    -0.014 A 
ATOM     61  C   UNL A   1      42.520  22.521  28.364  1.00  0.00     0.010 A 
ATOM     62  C   UNL A   1      41.981  23.276  26.127  1.00  0.00     0.010 A 
ATOM     63  C   UNL A   1      42.437  21.192  27.937  1.00  0.00     0.020 A 
ATOM     64  C   UNL A   1      41.861  21.948  25.703  1.00  0.00     0.020 A 
ATOM     65  C   UNL A   1      42.125  20.915  26.604  1.00  0.00     0.054 A 
BRANCH  65  66
ATOM     66  S   UNL A   1      42.115  19.186  26.049  1.00  0.00     0.124 S 
ATOM     67  O   UNL A   1      42.999  19.230  24.888  1.00  0.00    -0.237 OA
ATOM     68  O   UNL A   1      42.636  18.476  27.214  1.00  0.00    -0.237 OA
ATOM     69  O   UNL A   1      40.707  18.929  25.751  1.00  0.00    -0.744 OA
ENDBRANCH  65  66
ENDBRANCH  46  60
BRANCH  47  70
ATOM     70  C   UNL A   1      44.144  33.062  30.383  1.00  0.00    -0.014 A 
ATOM     71  C   UNL A   1      44.437  33.410  31.716  1.00  0.00     0.010 A 
ATOM     72  C   UNL A   1      43.938  34.089  29.445  1.00  0.00     0.010 A 
ATOM     73  C   UNL A   1      44.440  34.746  32.122  1.00  0.00     0.020 A 
ATOM     74  C   UNL A   1      43.987  35.433  29.838  1.00  0.00     0.020 A 
ATOM     75  C   UNL A   1      44.201  35.749  31.181  1.00  0.00     0.054 A 
BRANCH  75  76
ATOM     76  S   UNL A   1      44.139  37.469  31.752  1.00  0.00     0.124 S 
ATOM     77  O   UNL A   1      43.617  38.157  30.575  1.00  0.00    -0.237 OA
ATOM     78  O   UNL A   1      43.228  37.392  32.891  1.00  0.00    -0.237 OA
ATOM     79  O   UNL A   1      45.528  37.771  32.088  1.00  0.00    -0.744 OA
ENDBRANCH  75  76
ENDBRANCH  47  70
BRANCH  59  80
ATOM     80  C   UNL A   1      48.136  27.823  27.978  1.00  0.00    -0.014 A 
ATOM     81  C   UNL A   1      48.704  28.214  26.751  1.00  0.00     0.010 A 
ATOM     82  C   UNL A   1      48.954  27.216  28.949  1.00  0.00     0.010 A 
ATOM     83  C   UNL A   1      50.054  27.973  26.489  1.00  0.00     0.020 A 
ATOM     84  C   UNL A   1      50.314  27.018  28.708  1.00  0.00     0.020 A 
ATOM     85  C   UNL A   1      50.849  27.374  27.468  1.00  0.00     0.054 A 
BRANCH  85  86
ATOM     86  S   UNL A   1      52.596  27.064  27.105  1.00  0.00     0.124 S 
ATOM     87  O   UNL A   1      52.913  28.144  26.175  1.00  0.00    -0.237 OA
ATOM     88  O   UNL A   1      53.219  27.163  28.422  1.00  0.00    -0.237 OA
ATOM     89  O   UNL A   1      52.594  25.722  26.524  1.00  0.00    -0.744 OA
ENDBRANCH  85  86
ENDBRANCH  59  80
ENDBRANCH  33  34
ENDBRANCH  26  28
ENDBRANCH  25  26
ENDBRANCH  24  25
ENDBRANCH   1  24
TORSDOF 19
ENDMDL
MODEL 2
REMARK VINA RESULT:     -11.6      1.604      2.368
REMARK SMILES CC(C)[C@H](NC(=O)CCC1=c2ccccc2=NC1)C(=O)OCCOC(=O)c1ccc(-c2c3nc(c(-c4ccc(S(=O)(=O)[O-])cc4)c4ccc([nH]4)c(-c4ccc(S(=O)(=O)[O-])cc4)c4nc(c(-c5ccc(S(=O)(=O)[O-])cc5)c5ccc2[nH]5)C=C4)C=C3)cc1
REMARK SMILES IDX 22 1 21 2 19 3 20 4 4 5 2 6 1 7 3 8 5 9 6 10 7 12 8 13 9 14
REMARK SMILES IDX 10 15 11 16 18 17 12 18 16 19 17 20 13 21 15 22 14 23 23 24
REMARK SMILES IDX 24 25 25 26 26 27 27 28 28 29 86 30 29 31 85 32 30 33 31 34
REMARK SMILES IDX 32 35 79 36 33 37 84 38 78 39 80 40 34 41 83 42 77 43 76 44
REMARK SMILES IDX 35 46 65 47 46 48 64 49 47 50 50 51 63 52 81 53 48 54 49 55
REMARK SMILES IDX 62 57 82 58 51 59 36 60 37 61 45 62 38 63 44 64 39 65 40 66
REMARK SMILES IDX 41 67 42 68 43 69 66 70 67 71 75 72 68 73 74 74 69 75 70 76
REMARK SMILES IDX 71 77 72 78 73 79 52 80 53 81 61 82 54 83 60 84 55 85 56 86
REMARK SMILES IDX 57 87 58 88 59 89
REMARK H PARENT 5 11 80 45 50 56
REMARK Flexibility Score: inf
ROOT
ATOM      1  C   UNL A   1      31.884  29.454  26.636  1.00  0.00     0.274 C 
ENDROOT
BRANCH   1   2
ATOM      2  O   UNL A   1      32.113  29.878  25.266  1.00  0.00    -0.461 OA
BRANCH   2   3
ATOM      3  C   UNL A   1      32.571  28.949  24.234  1.00  0.00     0.329 C 
ATOM      4  O   UNL A   1      33.562  29.516  23.703  1.00  0.00    -0.250 OA
BRANCH   3   5
ATOM      5  C   UNL A   1      31.499  27.118  23.649  1.00  0.00     0.194 C 
BRANCH   5   6
ATOM      6  C   UNL A   1      30.099  26.233  24.363  1.00  0.00     0.017 C 
ATOM      7  C   UNL A   1      30.145  25.812  25.839  1.00  0.00     0.010 C 
ATOM      8  C   UNL A   1      28.669  26.651  23.937  1.00  0.00     0.010 C 
ENDBRANCH   5   6
BRANCH   5   9
ATOM      9  N   UNL A   1      32.049  25.728  22.826  1.00  0.00    -0.343 N 
ATOM     10  C   UNL A   1      33.204  24.992  22.813  1.00  0.00     0.221 C 
ATOM     11  H   UNL A   1      31.371  25.367  22.211  1.00  0.00     0.164 HD
ATOM     12  O   UNL A   1      33.228  24.051  22.007  1.00  0.00    -0.275 OA
BRANCH  10  13
ATOM     13  C   UNL A   1      34.369  25.133  23.812  1.00  0.00     0.104 C 
BRANCH  13  14
ATOM     14  C   UNL A   1      34.087  25.191  25.309  1.00  0.00     0.043 C 
BRANCH  14  15
ATOM     15  C   UNL A   1      34.135  23.882  26.047  1.00  0.00    -0.039 C 
ATOM     16  C   UNL A   1      35.270  23.241  26.359  1.00  0.00     0.001 A 
ATOM     17  C   UNL A   1      32.924  22.927  25.918  1.00  0.00     0.174 C 
ATOM     18  C   UNL A   1      37.075  23.599  26.156  1.00  0.00     0.010 A 
ATOM     19  C   UNL A   1      34.637  21.536  25.732  1.00  0.00     0.065 A 
ATOM     20  N   UNL A   1      33.350  21.496  25.648  1.00  0.00    -0.280 NA
ATOM     21  C   UNL A   1      38.066  22.608  25.398  1.00  0.00     0.001 A 
ATOM     22  C   UNL A   1      36.052  20.349  25.092  1.00  0.00     0.028 A 
ATOM     23  C   UNL A   1      37.531  20.869  24.930  1.00  0.00     0.002 A 
ENDBRANCH  14  15
ENDBRANCH  13  14
ENDBRANCH  10  13
ENDBRANCH   5   9
ENDBRANCH   3   5
ENDBRANCH   2   3
ENDBRANCH   1   2
BRANCH   1  24
ATOM     24  C   UNL A   1      33.197  29.366  27.412  1.00  0.00     0.275 C 
BRANCH  24  25
ATOM     25  O   UNL A   1      34.070  30.424  26.999  1.00  0.00    -0.458 OA
BRANCH  25  26
ATOM     26  C   UNL A   1      34.737  31.018  28.010  1.00  0.00     0.338 C 
ATOM     27  O   UNL A   1      34.346  31.897  28.757  1.00  0.00    -0.246 OA
BRANCH  26  28
ATOM     28  C   UNL A   1      35.964  30.255  28.236  1.00  0.00     0.060 A 
ATOM     29  C   UNL A   1      37.005  30.204  27.332  1.00  0.00     0.016 A 
ATOM     30  C   UNL A   1      36.089  29.653  29.479  1.00  0.00     0.016 A 
ATOM     31  C   UNL A   1      38.172  29.539  27.716  1.00  0.00     0.010 A 
ATOM     32  C   UNL A   1      37.281  29.116  29.919  1.00  0.00     0.010 A 
ATOM     33  C   UNL A   1      38.338  29.035  29.032  1.00  0.00    -0.014 A 
BRANCH  33  34
ATOM     34  C   UNL A   1      39.656  28.543  29.486  1.00  0.00     0.031 A 
ATOM     35  C   UNL A   1      40.218  27.226  29.041  1.00  0.00     0.074 A 
ATOM     36  C   UNL A   1      40.350  29.357  30.305  1.00  0.00     0.049 A 
ATOM     37  N   UNL A   1      41.466  26.837  29.068  1.00  0.00    -0.248 NA
ATOM     38  C   UNL A   1      39.290  26.200  28.533  1.00  0.00     0.031 C 
ATOM     39  C   UNL A   1      39.805  30.568  30.928  1.00  0.00     0.029 A 
ATOM     40  N   UNL A   1      41.666  29.351  30.681  1.00  0.00    -0.354 N 
ATOM     41  C   UNL A   1      41.475  25.548  28.548  1.00  0.00     0.074 A 
ATOM     42  C   UNL A   1      40.103  25.177  28.306  1.00  0.00     0.031 C 
ATOM     43  C   UNL A   1      40.808  31.271  31.464  1.00  0.00     0.029 A 
ATOM     44  C   UNL A   1      42.051  30.533  31.275  1.00  0.00     0.049 A 
ATOM     45  H   UNL A   1      42.270  28.587  30.541  1.00  0.00     0.167 HD
ATOM     46  C   UNL A   1      42.547  24.775  28.259  1.00  0.00     0.031 A 
ATOM     47  C   UNL A   1      43.278  30.999  31.576  1.00  0.00     0.031 A 
ATOM     48  C   UNL A   1      43.900  25.196  28.519  1.00  0.00     0.049 A 
ATOM     49  C   UNL A   1      44.458  30.159  31.184  1.00  0.00     0.074 A 
ATOM     50  C   UNL A   1      45.077  24.545  28.202  1.00  0.00     0.029 A 
ATOM     51  N   UNL A   1      44.254  26.377  29.159  1.00  0.00    -0.354 N 
ATOM     52  N   UNL A   1      44.472  29.014  30.541  1.00  0.00    -0.248 NA
ATOM     53  C   UNL A   1      45.783  30.675  31.538  1.00  0.00     0.031 C 
ATOM     54  C   UNL A   1      46.135  25.285  28.731  1.00  0.00     0.029 A 
ATOM     55  C   UNL A   1      45.631  26.450  29.291  1.00  0.00     0.049 A 
ATOM     56  H   UNL A   1      43.621  27.062  29.472  1.00  0.00     0.167 HD
ATOM     57  C   UNL A   1      45.810  28.663  30.421  1.00  0.00     0.074 A 
ATOM     58  C   UNL A   1      46.574  29.752  31.003  1.00  0.00     0.031 C 
ATOM     59  C   UNL A   1      46.359  27.536  29.903  1.00  0.00     0.031 A 
BRANCH  46  60
ATOM     60  C   UNL A   1      42.328  23.440  27.586  1.00  0.00    -0.014 A 
ATOM     61  C   UNL A   1      41.791  22.361  28.315  1.00  0.00     0.010 A 
ATOM     62  C   UNL A   1      42.799  23.205  26.280  1.00  0.00     0.010 A 
ATOM     63  C   UNL A   1      41.787  21.069  27.779  1.00  0.00     0.020 A 
ATOM     64  C   UNL A   1      42.762  21.921  25.725  1.00  0.00     0.020 A 
ATOM     65  C   UNL A   1      42.288  20.855  26.493  1.00  0.00     0.054 A 
BRANCH  65  66
ATOM     66  S   UNL A   1      42.360  19.158  25.853  1.00  0.00     0.124 S 
ATOM     67  O   UNL A   1      43.002  18.441  26.951  1.00  0.00    -0.237 OA
ATOM     68  O   UNL A   1      40.951  18.843  25.632  1.00  0.00    -0.237 OA
ATOM     69  O   UNL A   1      43.161  19.282  24.637  1.00  0.00    -0.744 OA
ENDBRANCH  65  66
ENDBRANCH  46  60
BRANCH  47  70
ATOM     70  C   UNL A   1      43.409  32.353  32.184  1.00  0.00    -0.014 A 
ATOM     71  C   UNL A   1      43.297  32.512  33.579  1.00  0.00     0.010 A 
ATOM     72  C   UNL A   1      43.513  33.501  31.378  1.00  0.00     0.010 A 
ATOM     73  C   UNL A   1      43.204  33.783  34.148  1.00  0.00     0.020 A 
ATOM     74  C   UNL A   1      43.467  34.779  31.950  1.00  0.00     0.020 A 
ATOM     75  C   UNL A   1      43.276  34.909  33.327  1.00  0.00     0.054 A 
BRANCH  75  76
ATOM     76  S   UNL A   1      43.078  36.545  34.087  1.00  0.00     0.124 S 
ATOM     77  O   UNL A   1      43.218  37.430  32.934  1.00  0.00    -0.237 OA
ATOM     78  O   UNL A   1      41.738  36.467  34.661  1.00  0.00    -0.237 OA
ATOM     79  O   UNL A   1      44.167  36.606  35.058  1.00  0.00    -0.744 OA
ENDBRANCH  75  76
ENDBRANCH  47  70
BRANCH  59  80
ATOM     80  C   UNL A   1      47.858  27.394  29.996  1.00  0.00    -0.014 A 
ATOM     81  C   UNL A   1      48.455  26.928  31.182  1.00  0.00     0.010 A 
ATOM     82  C   UNL A   1      48.680  27.820  28.936  1.00  0.00     0.010 A 
ATOM     83  C   UNL A   1      49.844  26.920  31.317  1.00  0.00     0.020 A 
ATOM     84  C   UNL A   1      50.070  27.767  29.050  1.00  0.00     0.020 A 
ATOM     85  C   UNL A   1      50.643  27.341  30.251  1.00  0.00     0.054 A 
BRANCH  85  86
ATOM     86  S   UNL A   1      52.443  27.328  30.450  1.00  0.00     0.124 S 
ATOM     87  O   UNL A   1      52.597  26.841  31.817  1.00  0.00    -0.237 OA
ATOM     88  O   UNL A   1      52.873  26.407  29.400  1.00  0.00    -0.237 OA
ATOM     89  O   UNL A   1      52.822  28.723  30.239  1.00  0.00    -0.744 OA
ENDBRANCH  85  86
ENDBRANCH  59  80
ENDBRANCH  33  34
ENDBRANCH  26  28
ENDBRANCH  25  26
ENDBRANCH  24  25
ENDBRANCH   1  24
TORSDOF 19
ENDMDL
MODEL 3
REMARK VINA RESULT:     -11.6      1.308      2.262
REMARK SMILES CC(C)[C@H](NC(=O)CCC1=c2ccccc2=NC1)C(=O)OCCOC(=O)c1ccc(-c2c3nc(c(-c4ccc(S(=O)(=O)[O-])cc4)c4ccc([nH]4)c(-c4ccc(S(=O)(=O)[O-])cc4)c4nc(c(-c5ccc(S(=O)(=O)[O-])cc5)c5ccc2[nH]5)C=C4)C=C3)cc1
REMARK SMILES IDX 22 1 21 2 19 3 20 4 4 5 2 6 1 7 3 8 5 9 6 10 7 12 8 13 9 14
REMARK SMILES IDX 10 15 11 16 18 17 12 18 16 19 17 20 13 21 15 22 14 23 23 24
REMARK SMILES IDX 24 25 25 26 26 27 27 28 28 29 86 30 29 31 85 32 30 33 31 34
REMARK SMILES IDX 32 35 79 36 33 37 84 38 78 39 80 40 34 41 83 42 77 43 76 44
REMARK SMILES IDX 35 46 65 47 46 48 64 49 47 50 50 51 63 52 81 53 48 54 49 55
REMARK SMILES IDX 62 57 82 58 51 59 36 60 37 61 45 62 38 63 44 64 39 65 40 66
REMARK SMILES IDX 41 67 42 68 43 69 66 70 67 71 75 72 68 73 74 74 69 75 70 76
REMARK SMILES IDX 71 77 72 78 73 79 52 80 53 81 61 82 54 83 60 84 55 85 56 86
REMARK SMILES IDX 57 87 58 88 59 89
REMARK H PARENT 5 11 80 45 50 56
REMARK Flexibility Score: inf
ROOT
ATOM      1  C   UNL A   1      32.488  30.003  26.732  1.00  0.00     0.274 C 
ENDROOT
BRANCH   1   2
ATOM      2  O   UNL A   1      32.031  28.762  26.132  1.00  0.00    -0.461 OA
BRANCH   2   3
ATOM      3  C   UNL A   1      31.294  27.757  26.898  1.00  0.00     0.329 C 
ATOM      4  O   UNL A   1      31.423  28.106  28.102  1.00  0.00    -0.250 OA
BRANCH   3   5
ATOM      5  C   UNL A   1      30.431  25.926  26.034  1.00  0.00     0.194 C 
BRANCH   5   6
ATOM      6  C   UNL A   1      29.640  25.569  24.452  1.00  0.00     0.017 C 
ATOM      7  C   UNL A   1      28.868  26.680  23.726  1.00  0.00     0.010 C 
ATOM      8  C   UNL A   1      30.379  24.645  23.452  1.00  0.00     0.010 C 
ENDBRANCH   5   6
BRANCH   5   9
ATOM      9  N   UNL A   1      29.686  24.590  26.789  1.00  0.00    -0.343 N 
ATOM     10  C   UNL A   1      29.984  23.262  26.942  1.00  0.00     0.221 C 
ATOM     11  H   UNL A   1      28.836  24.832  27.221  1.00  0.00     0.164 HD
ATOM     12  O   UNL A   1      29.128  22.588  27.532  1.00  0.00    -0.275 OA
BRANCH  10  13
ATOM     13  C   UNL A   1      31.333  22.600  26.600  1.00  0.00     0.104 C 
BRANCH  13  14
ATOM     14  C   UNL A   1      32.503  22.707  27.572  1.00  0.00     0.043 C 
BRANCH  14  15
ATOM     15  C   UNL A   1      33.878  22.674  26.965  1.00  0.00    -0.039 C 
ATOM     16  C   UNL A   1      34.392  23.663  26.221  1.00  0.00     0.001 A 
ATOM     17  C   UNL A   1      34.496  21.294  26.635  1.00  0.00     0.174 C 
ATOM     18  C   UNL A   1      33.816  25.344  25.700  1.00  0.00     0.010 A 
ATOM     19  C   UNL A   1      35.017  22.481  24.838  1.00  0.00     0.065 A 
ATOM     20  N   UNL A   1      35.117  21.263  25.250  1.00  0.00    -0.280 NA
ATOM     21  C   UNL A   1      33.723  25.782  24.171  1.00  0.00     0.001 A 
ATOM     22  C   UNL A   1      35.091  23.300  23.066  1.00  0.00     0.028 A 
ATOM     23  C   UNL A   1      34.483  24.732  22.811  1.00  0.00     0.002 A 
ENDBRANCH  14  15
ENDBRANCH  13  14
ENDBRANCH  10  13
ENDBRANCH   5   9
ENDBRANCH   3   5
ENDBRANCH   2   3
ENDBRANCH   1   2
BRANCH   1  24
ATOM     24  C   UNL A   1      33.900  29.855  27.296  1.00  0.00     0.275 C 
BRANCH  24  25
ATOM     25  O   UNL A   1      34.495  31.150  27.445  1.00  0.00    -0.458 OA
BRANCH  25  26
ATOM     26  C   UNL A   1      35.061  31.364  28.651  1.00  0.00     0.338 C 
ATOM     27  O   UNL A   1      34.575  31.908  29.626  1.00  0.00    -0.246 OA
BRANCH  26  28
ATOM     28  C   UNL A   1      36.311  30.605  28.691  1.00  0.00     0.060 A 
ATOM     29  C   UNL A   1      37.099  30.379  27.582  1.00  0.00     0.016 A 
ATOM     30  C   UNL A   1      36.740  30.200  29.946  1.00  0.00     0.016 A 
ATOM     31  C   UNL A   1      38.328  29.744  27.772  1.00  0.00     0.010 A 
ATOM     32  C   UNL A   1      38.006  29.699  30.164  1.00  0.00     0.010 A 
ATOM     33  C   UNL A   1      38.815  29.446  29.072  1.00  0.00    -0.014 A 
BRANCH  33  34
ATOM     34  C   UNL A   1      40.207  28.987  29.264  1.00  0.00     0.031 A 
ATOM     35  C   UNL A   1      40.664  27.617  28.858  1.00  0.00     0.074 A 
ATOM     36  C   UNL A   1      41.063  29.877  29.801  1.00  0.00     0.049 A 
ATOM     37  N   UNL A   1      41.889  27.213  28.643  1.00  0.00    -0.248 NA
ATOM     38  C   UNL A   1      39.654  26.556  28.701  1.00  0.00     0.031 C 
ATOM     39  C   UNL A   1      40.663  31.162  30.388  1.00  0.00     0.029 A 
ATOM     40  N   UNL A   1      42.430  29.893  29.862  1.00  0.00    -0.354 N 
ATOM     41  C   UNL A   1      41.790  25.873  28.289  1.00  0.00     0.074 A 
ATOM     42  C   UNL A   1      40.403  25.499  28.413  1.00  0.00     0.031 C 
ATOM     43  C   UNL A   1      41.756  31.905  30.593  1.00  0.00     0.029 A 
ATOM     44  C   UNL A   1      42.930  31.129  30.210  1.00  0.00     0.049 A 
ATOM     45  H   UNL A   1      42.993  29.107  29.677  1.00  0.00     0.167 HD
ATOM     46  C   UNL A   1      42.774  25.053  27.853  1.00  0.00     0.031 A 
ATOM     47  C   UNL A   1      44.188  31.605  30.165  1.00  0.00     0.031 A 
ATOM     48  C   UNL A   1      44.147  25.478  27.744  1.00  0.00     0.049 A 
ATOM     49  C   UNL A   1      45.254  30.705  29.613  1.00  0.00     0.074 A 
ATOM     50  C   UNL A   1      45.226  24.774  27.244  1.00  0.00     0.029 A 
ATOM     51  N   UNL A   1      44.627  26.718  28.143  1.00  0.00    -0.354 N 
ATOM     52  N   UNL A   1      45.131  29.493  29.122  1.00  0.00    -0.248 NA
ATOM     53  C   UNL A   1      46.620  31.236  29.590  1.00  0.00     0.031 C 
ATOM     54  C   UNL A   1      46.370  25.552  27.425  1.00  0.00     0.029 A 
ATOM     55  C   UNL A   1      45.996  26.782  27.947  1.00  0.00     0.049 A 
ATOM     56  H   UNL A   1      44.076  27.446  28.512  1.00  0.00     0.167 HD
ATOM     57  C   UNL A   1      46.409  29.108  28.740  1.00  0.00     0.074 A 
ATOM     58  C   UNL A   1      47.275  30.244  29.000  1.00  0.00     0.031 C 
ATOM     59  C   UNL A   1      46.835  27.920  28.244  1.00  0.00     0.031 A 
BRANCH  46  60
ATOM     60  C   UNL A   1      42.419  23.653  27.409  1.00  0.00    -0.014 A 
ATOM     61  C   UNL A   1      42.344  22.610  28.352  1.00  0.00     0.010 A 
ATOM     62  C   UNL A   1      42.317  23.335  26.041  1.00  0.00     0.010 A 
ATOM     63  C   UNL A   1      42.236  21.279  27.937  1.00  0.00     0.020 A 
ATOM     64  C   UNL A   1      42.171  22.007  25.622  1.00  0.00     0.020 A 
ATOM     65  C   UNL A   1      42.167  20.985  26.573  1.00  0.00     0.054 A 
BRANCH  65  66
ATOM     66  S   UNL A   1      42.122  19.247  26.054  1.00  0.00     0.124 S 
ATOM     67  O   UNL A   1      40.703  19.044  25.777  1.00  0.00    -0.237 OA
ATOM     68  O   UNL A   1      43.001  19.241  24.887  1.00  0.00    -0.237 OA
ATOM     69  O   UNL A   1      42.639  18.527  27.216  1.00  0.00    -0.744 OA
ENDBRANCH  65  66
ENDBRANCH  46  60
BRANCH  47  70
ATOM     70  C   UNL A   1      44.442  33.018  30.564  1.00  0.00    -0.014 A 
ATOM     71  C   UNL A   1      44.710  33.331  31.912  1.00  0.00     0.010 A 
ATOM     72  C   UNL A   1      44.291  34.069  29.643  1.00  0.00     0.010 A 
ATOM     73  C   UNL A   1      44.740  34.658  32.344  1.00  0.00     0.020 A 
ATOM     74  C   UNL A   1      44.367  35.402  30.065  1.00  0.00     0.020 A 
ATOM     75  C   UNL A   1      44.554  35.686  31.419  1.00  0.00     0.054 A 
BRANCH  75  76
ATOM     76  S   UNL A   1      44.526  37.396  32.023  1.00  0.00     0.124 S 
ATOM     77  O   UNL A   1      44.356  38.149  30.784  1.00  0.00    -0.237 OA
ATOM     78  O   UNL A   1      43.374  37.394  32.921  1.00  0.00    -0.237 OA
ATOM     79  O   UNL A   1      45.823  37.551  32.677  1.00  0.00    -0.744 OA
ENDBRANCH  75  76
ENDBRANCH  47  70
BRANCH  59  80
ATOM     80  C   UNL A   1      48.316  27.764  28.005  1.00  0.00    -0.014 A 
ATOM     81  C   UNL A   1      48.858  28.001  26.728  1.00  0.00     0.010 A 
ATOM     82  C   UNL A   1      49.156  27.283  29.027  1.00  0.00     0.010 A 
ATOM     83  C   UNL A   1      50.204  27.732  26.471  1.00  0.00     0.020 A 
ATOM     84  C   UNL A   1      50.512  27.059  28.786  1.00  0.00     0.020 A 
ATOM     85  C   UNL A   1      51.021  27.261  27.501  1.00  0.00     0.054 A 
BRANCH  85  86
ATOM     86  S   UNL A   1      52.762  26.912  27.144  1.00  0.00     0.124 S 
ATOM     87  O   UNL A   1      53.365  26.963  28.472  1.00  0.00    -0.237 OA
ATOM     88  O   UNL A   1      52.702  25.588  26.529  1.00  0.00    -0.237 OA
ATOM     89  O   UNL A   1      53.151  27.993  26.240  1.00  0.00    -0.744 OA
ENDBRANCH  85  86
ENDBRANCH  59  80
ENDBRANCH  33  34
ENDBRANCH  26  28
ENDBRANCH  25  26
ENDBRANCH  24  25
ENDBRANCH   1  24
TORSDOF 19
ENDMDL
