MODEL 1
REMARK VINA RESULT:     -11.7      0.000      0.000
REMARK SMILES CC(C)NC(=O)c1cccc(NC(=O)[C@@H]2[C@H](C(=O)OCCOC(=O)c3ccc(-c4c5nc(c(-c6ccc(S(=O)(=O)[O-])cc6)c6ccc([nH]6)c(-c6ccc(S(=O)(=O)[O-])cc6)c6nc(c(-c7ccc(S(=O)(=O)[O-])cc7)c7ccc4[nH]7)C=C6)C=C5)cc3)C2(C)C)c1
REMARK SMILES IDX 20 1 19 2 17 3 18 4 16 5 15 6 85 7 86 8 87 9 13 10 12 11
REMARK SMILES IDX 14 13 11 14 7 15 8 16 88 17 9 18 10 19 5 20 4 21 6 23 2 24
REMARK SMILES IDX 1 25 3 26 21 27 22 28 23 29 24 30 25 31 26 32 84 33 27 34
REMARK SMILES IDX 83 35 28 36 29 37 30 38 77 39 31 40 82 41 76 42 78 43 32 44
REMARK SMILES IDX 81 45 75 46 74 47 33 49 63 50 44 51 62 52 45 53 48 54 61 55
REMARK SMILES IDX 79 56 46 57 47 58 60 60 80 61 49 62 34 63 35 64 43 65 36 66
REMARK SMILES IDX 42 67 37 68 38 69 39 70 40 71 41 72 64 73 65 74 73 75 66 76
REMARK SMILES IDX 72 77 67 78 68 79 69 80 70 81 71 82 50 83 51 84 59 85 52 86
REMARK SMILES IDX 58 87 53 88 54 89 55 90 56 91 57 92
REMARK H PARENT 12 12 4 22 78 48 48 59
REMARK Flexibility Score: inf
ROOT
ATOM      1  C   UNL A   1      31.789  28.567  26.139  1.00  0.00     0.274 C 
ENDROOT
BRANCH   1   2
ATOM      2  O   UNL A   1      31.617  27.211  26.598  1.00  0.00    -0.462 OA
BRANCH   2   3
ATOM      3  C   UNL A   1      31.273  26.307  25.639  1.00  0.00     0.310 C 
ATOM      4  O   UNL A   1      30.121  26.091  25.283  1.00  0.00    -0.252 OA
BRANCH   3   5
ATOM      5  C   UNL A   1      32.444  25.502  25.221  1.00  0.00     0.118 C 
ATOM      6  C   UNL A   1      32.834  24.197  25.871  1.00  0.00     0.100 C 
ATOM      7  C   UNL A   1      32.483  24.236  24.372  1.00  0.00    -0.009 C 
ATOM      8  C   UNL A   1      33.595  24.087  23.363  1.00  0.00     0.013 C 
ATOM      9  C   UNL A   1      31.211  23.607  23.884  1.00  0.00     0.013 C 
BRANCH   6  10
ATOM     10  C   UNL A   1      32.036  23.306  26.764  1.00  0.00     0.228 C 
ATOM     11  N   UNL A   1      32.373  21.976  26.877  1.00  0.00    -0.326 N 
ATOM     12  H   UNL A   1      31.948  21.522  27.640  1.00  0.00     0.169 HD
ATOM     13  O   UNL A   1      31.071  23.708  27.407  1.00  0.00    -0.274 OA
BRANCH  11  14
ATOM     14  C   UNL A   1      33.206  21.140  26.113  1.00  0.00     0.041 A 
ATOM     15  C   UNL A   1      33.375  19.287  24.562  1.00  0.00     0.041 A 
ATOM     16  C   UNL A   1      34.758  19.458  24.469  1.00  0.00     0.014 A 
ATOM     17  C   UNL A   1      32.606  20.089  25.417  1.00  0.00     0.040 A 
ATOM     18  C   UNL A   1      35.360  20.495  25.158  1.00  0.00     0.003 A 
ATOM     19  C   UNL A   1      34.576  21.342  25.941  1.00  0.00     0.026 A 
BRANCH  15  20
ATOM     20  C   UNL A   1      32.769  18.251  23.709  1.00  0.00     0.251 C 
ATOM     21  N   UNL A   1      32.745  16.947  24.129  1.00  0.00    -0.350 N 
ATOM     22  H   UNL A   1      32.335  16.315  23.495  1.00  0.00     0.164 HD
ATOM     23  O   UNL A   1      32.232  18.578  22.655  1.00  0.00    -0.269 OA
BRANCH  21  24
ATOM     24  C   UNL A   1      33.231  16.342  25.371  1.00  0.00     0.076 C 
ATOM     25  C   UNL A   1      32.328  15.187  25.790  1.00  0.00     0.030 C 
ATOM     26  C   UNL A   1      34.669  15.882  25.170  1.00  0.00     0.030 C 
ENDBRANCH  21  24
ENDBRANCH  15  20
ENDBRANCH  11  14
ENDBRANCH   6  10
ENDBRANCH   3   5
ENDBRANCH   2   3
ENDBRANCH   1   2
BRANCH   1  27
ATOM     27  C   UNL A   1      33.268  28.885  25.945  1.00  0.00     0.275 C 
BRANCH  27  28
ATOM     28  O   UNL A   1      33.964  28.817  27.202  1.00  0.00    -0.458 OA
BRANCH  28  29
ATOM     29  C   UNL A   1      34.303  30.013  27.737  1.00  0.00     0.338 C 
ATOM     30  O   UNL A   1      33.571  30.977  27.904  1.00  0.00    -0.246 OA
BRANCH  29  31
ATOM     31  C   UNL A   1      35.711  30.019  28.176  1.00  0.00     0.060 A 
ATOM     32  C   UNL A   1      36.705  30.278  27.243  1.00  0.00     0.016 A 
ATOM     33  C   UNL A   1      36.052  29.489  29.421  1.00  0.00     0.016 A 
ATOM     34  C   UNL A   1      37.994  29.810  27.482  1.00  0.00     0.010 A 
ATOM     35  C   UNL A   1      37.396  29.223  29.726  1.00  0.00     0.010 A 
ATOM     36  C   UNL A   1      38.392  29.339  28.743  1.00  0.00    -0.014 A 
BRANCH  36  37
ATOM     37  C   UNL A   1      39.833  29.015  29.017  1.00  0.00     0.031 A 
ATOM     38  C   UNL A   1      40.793  30.052  29.564  1.00  0.00     0.074 A 
ATOM     39  C   UNL A   1      40.302  27.771  28.764  1.00  0.00     0.049 A 
ATOM     40  N   UNL A   1      42.104  30.025  29.599  1.00  0.00    -0.248 NA
ATOM     41  C   UNL A   1      40.216  31.281  30.134  1.00  0.00     0.031 C 
ATOM     42  C   UNL A   1      39.502  26.637  28.285  1.00  0.00     0.029 A 
ATOM     43  N   UNL A   1      41.566  27.239  28.877  1.00  0.00    -0.354 N 
ATOM     44  C   UNL A   1      42.508  31.253  30.122  1.00  0.00     0.074 A 
ATOM     45  C   UNL A   1      41.300  32.000  30.400  1.00  0.00     0.031 C 
ATOM     46  C   UNL A   1      40.263  25.540  28.230  1.00  0.00     0.029 A 
ATOM     47  C   UNL A   1      41.641  25.925  28.474  1.00  0.00     0.049 A 
ATOM     48  H   UNL A   1      42.339  27.748  29.212  1.00  0.00     0.167 HD
ATOM     49  C   UNL A   1      43.767  31.712  30.334  1.00  0.00     0.031 A 
ATOM     50  C   UNL A   1      42.690  25.123  28.212  1.00  0.00     0.031 A 
ATOM     51  C   UNL A   1      44.959  30.936  30.085  1.00  0.00     0.049 A 
ATOM     52  C   UNL A   1      44.069  25.680  28.354  1.00  0.00     0.074 A 
ATOM     53  C   UNL A   1      46.283  31.303  30.270  1.00  0.00     0.029 A 
ATOM     54  N   UNL A   1      44.975  29.633  29.606  1.00  0.00    -0.354 N 
ATOM     55  N   UNL A   1      44.432  26.867  28.772  1.00  0.00    -0.248 NA
ATOM     56  C   UNL A   1      45.178  24.803  27.961  1.00  0.00     0.031 C 
ATOM     57  C   UNL A   1      47.096  30.248  29.843  1.00  0.00     0.029 A 
ATOM     58  C   UNL A   1      46.282  29.196  29.459  1.00  0.00     0.049 A 
ATOM     59  H   UNL A   1      44.175  29.097  29.402  1.00  0.00     0.167 HD
ATOM     60  C   UNL A   1      45.818  26.883  28.693  1.00  0.00     0.074 A 
ATOM     61  C   UNL A   1      46.225  25.573  28.220  1.00  0.00     0.031 C 
ATOM     62  C   UNL A   1      46.672  27.894  28.977  1.00  0.00     0.031 A 
BRANCH  49  63
ATOM     63  C   UNL A   1      43.944  33.140  30.805  1.00  0.00    -0.014 A 
ATOM     64  C   UNL A   1      44.007  34.220  29.908  1.00  0.00     0.010 A 
ATOM     65  C   UNL A   1      43.978  33.408  32.188  1.00  0.00     0.010 A 
ATOM     66  C   UNL A   1      44.142  35.532  30.382  1.00  0.00     0.020 A 
ATOM     67  C   UNL A   1      44.081  34.719  32.668  1.00  0.00     0.020 A 
ATOM     68  C   UNL A   1      44.181  35.772  31.760  1.00  0.00     0.054 A 
BRANCH  68  69
ATOM     69  S   UNL A   1      44.341  37.484  32.345  1.00  0.00     0.124 S 
ATOM     70  O   UNL A   1      43.977  38.245  31.153  1.00  0.00    -0.237 OA
ATOM     71  O   UNL A   1      43.379  37.539  33.443  1.00  0.00    -0.237 OA
ATOM     72  O   UNL A   1      45.743  37.587  32.744  1.00  0.00    -0.744 OA
ENDBRANCH  68  69
ENDBRANCH  49  63
BRANCH  50  73
ATOM     73  C   UNL A   1      42.449  23.755  27.670  1.00  0.00    -0.014 A 
ATOM     74  C   UNL A   1      42.610  23.484  26.303  1.00  0.00     0.010 A 
ATOM     75  C   UNL A   1      42.117  22.697  28.543  1.00  0.00     0.010 A 
ATOM     76  C   UNL A   1      42.453  22.181  25.819  1.00  0.00     0.020 A 
ATOM     77  C   UNL A   1      42.002  21.388  28.070  1.00  0.00     0.020 A 
ATOM     78  C   UNL A   1      42.162  21.141  26.707  1.00  0.00     0.054 A 
BRANCH  78  79
ATOM     79  S   UNL A   1      42.044  19.449  26.066  1.00  0.00     0.124 S 
ATOM     80  O   UNL A   1      42.625  18.672  27.157  1.00  0.00    -0.237 OA
ATOM     81  O   UNL A   1      40.606  19.287  25.869  1.00  0.00    -0.237 OA
ATOM     82  O   UNL A   1      42.833  19.491  24.837  1.00  0.00    -0.744 OA
ENDBRANCH  78  79
ENDBRANCH  50  73
BRANCH  62  83
ATOM     83  C   UNL A   1      48.139  27.610  28.806  1.00  0.00    -0.014 A 
ATOM     84  C   UNL A   1      48.779  27.822  27.573  1.00  0.00     0.010 A 
ATOM     85  C   UNL A   1      48.890  27.152  29.903  1.00  0.00     0.010 A 
ATOM     86  C   UNL A   1      50.143  27.557  27.433  1.00  0.00     0.020 A 
ATOM     87  C   UNL A   1      50.260  26.915  29.776  1.00  0.00     0.020 A 
ATOM     88  C   UNL A   1      50.875  27.108  28.537  1.00  0.00     0.054 A 
BRANCH  88  89
ATOM     89  S   UNL A   1      52.654  26.821  28.340  1.00  0.00     0.124 S 
ATOM     90  O   UNL A   1      52.690  25.892  27.214  1.00  0.00    -0.237 OA
ATOM     91  O   UNL A   1      53.165  28.162  28.066  1.00  0.00    -0.237 OA
ATOM     92  O   UNL A   1      53.058  26.257  29.626  1.00  0.00    -0.744 OA
ENDBRANCH  88  89
ENDBRANCH  62  83
ENDBRANCH  36  37
ENDBRANCH  29  31
ENDBRANCH  28  29
ENDBRANCH  27  28
ENDBRANCH   1  27
TORSDOF 18
ENDMDL
MODEL 2
REMARK VINA RESULT:     -11.1      1.883      2.733
REMARK SMILES CC(C)NC(=O)c1cccc(NC(=O)[C@@H]2[C@H](C(=O)OCCOC(=O)c3ccc(-c4c5nc(c(-c6ccc(S(=O)(=O)[O-])cc6)c6ccc([nH]6)c(-c6ccc(S(=O)(=O)[O-])cc6)c6nc(c(-c7ccc(S(=O)(=O)[O-])cc7)c7ccc4[nH]7)C=C6)C=C5)cc3)C2(C)C)c1
REMARK SMILES IDX 20 1 19 2 17 3 18 4 16 5 15 6 85 7 86 8 87 9 13 10 12 11
REMARK SMILES IDX 14 13 11 14 7 15 8 16 88 17 9 18 10 19 5 20 4 21 6 23 2 24
REMARK SMILES IDX 1 25 3 26 21 27 22 28 23 29 24 30 25 31 26 32 84 33 27 34
REMARK SMILES IDX 83 35 28 36 29 37 30 38 77 39 31 40 82 41 76 42 78 43 32 44
REMARK SMILES IDX 81 45 75 46 74 47 33 49 63 50 44 51 62 52 45 53 48 54 61 55
REMARK SMILES IDX 79 56 46 57 47 58 60 60 80 61 49 62 34 63 35 64 43 65 36 66
REMARK SMILES IDX 42 67 37 68 38 69 39 70 40 71 41 72 64 73 65 74 73 75 66 76
REMARK SMILES IDX 72 77 67 78 68 79 69 80 70 81 71 82 50 83 51 84 59 85 52 86
REMARK SMILES IDX 58 87 53 88 54 89 55 90 56 91 57 92
REMARK H PARENT 12 12 4 22 78 48 48 59
REMARK Flexibility Score: inf
ROOT
ATOM      1  C   UNL A   1      31.809  30.221  26.850  1.00  0.00     0.274 C 
ENDROOT
BRANCH   1   2
ATOM      2  O   UNL A   1      32.033  28.921  26.268  1.00  0.00    -0.462 OA
BRANCH   2   3
ATOM      3  C   UNL A   1      31.370  28.678  25.104  1.00  0.00     0.310 C 
ATOM      4  O   UNL A   1      31.000  29.553  24.331  1.00  0.00    -0.252 OA
BRANCH   3   5
ATOM      5  C   UNL A   1      31.002  27.248  24.989  1.00  0.00     0.118 C 
ATOM      6  C   UNL A   1      31.654  26.294  24.019  1.00  0.00     0.100 C 
ATOM      7  C   UNL A   1      31.731  26.024  25.532  1.00  0.00    -0.009 C 
ATOM      8  C   UNL A   1      30.907  24.900  26.111  1.00  0.00     0.013 C 
ATOM      9  C   UNL A   1      33.039  26.175  26.255  1.00  0.00     0.013 C 
BRANCH   6  10
ATOM     10  C   UNL A   1      32.931  26.440  23.258  1.00  0.00     0.228 C 
ATOM     11  N   UNL A   1      33.632  25.316  22.883  1.00  0.00    -0.326 N 
ATOM     12  H   UNL A   1      34.326  25.489  22.206  1.00  0.00     0.169 HD
ATOM     13  O   UNL A   1      33.397  27.533  22.953  1.00  0.00    -0.274 OA
BRANCH  11  14
ATOM     14  C   UNL A   1      33.551  23.970  23.280  1.00  0.00     0.041 A 
ATOM     15  C   UNL A   1      34.124  22.284  24.922  1.00  0.00     0.041 A 
ATOM     16  C   UNL A   1      33.385  21.323  24.231  1.00  0.00     0.014 A 
ATOM     17  C   UNL A   1      34.252  23.589  24.426  1.00  0.00     0.040 A 
ATOM     18  C   UNL A   1      32.692  21.691  23.092  1.00  0.00     0.003 A 
ATOM     19  C   UNL A   1      32.753  23.013  22.652  1.00  0.00     0.026 A 
BRANCH  15  20
ATOM     20  C   UNL A   1      34.737  21.871  26.195  1.00  0.00     0.251 C 
ATOM     21  N   UNL A   1      36.092  21.980  26.371  1.00  0.00    -0.350 N 
ATOM     22  H   UNL A   1      36.423  21.670  27.244  1.00  0.00     0.164 HD
ATOM     23  O   UNL A   1      34.017  21.490  27.114  1.00  0.00    -0.269 OA
BRANCH  21  24
ATOM     24  C   UNL A   1      37.126  22.487  25.467  1.00  0.00     0.076 C 
ATOM     25  C   UNL A   1      37.659  23.826  25.964  1.00  0.00     0.030 C 
ATOM     26  C   UNL A   1      38.238  21.452  25.353  1.00  0.00     0.030 C 
ENDBRANCH  21  24
ENDBRANCH  15  20
ENDBRANCH  11  14
ENDBRANCH   6  10
ENDBRANCH   3   5
ENDBRANCH   2   3
ENDBRANCH   1   2
BRANCH   1  27
ATOM     27  C   UNL A   1      33.130  30.956  27.049  1.00  0.00     0.275 C 
BRANCH  27  28
ATOM     28  O   UNL A   1      34.110  30.077  27.630  1.00  0.00    -0.458 OA
BRANCH  28  29
ATOM     29  C   UNL A   1      34.947  30.658  28.520  1.00  0.00     0.338 C 
ATOM     30  O   UNL A   1      34.691  31.588  29.269  1.00  0.00    -0.246 OA
BRANCH  29  31
ATOM     31  C   UNL A   1      36.257  29.979  28.540  1.00  0.00     0.060 A 
ATOM     32  C   UNL A   1      36.753  29.513  29.749  1.00  0.00     0.016 A 
ATOM     33  C   UNL A   1      37.101  30.067  27.433  1.00  0.00     0.016 A 
ATOM     34  C   UNL A   1      38.127  29.342  29.894  1.00  0.00     0.010 A 
ATOM     35  C   UNL A   1      38.447  29.683  27.546  1.00  0.00     0.010 A 
ATOM     36  C   UNL A   1      38.998  29.352  28.794  1.00  0.00    -0.014 A 
BRANCH  36  37
ATOM     37  C   UNL A   1      40.444  28.983  28.962  1.00  0.00     0.031 A 
ATOM     38  C   UNL A   1      41.479  29.996  29.411  1.00  0.00     0.074 A 
ATOM     39  C   UNL A   1      40.850  27.719  28.700  1.00  0.00     0.049 A 
ATOM     40  N   UNL A   1      42.787  29.923  29.345  1.00  0.00    -0.248 NA
ATOM     41  C   UNL A   1      40.989  31.254  29.998  1.00  0.00     0.031 C 
ATOM     42  C   UNL A   1      39.978  26.605  28.308  1.00  0.00     0.029 A 
ATOM     43  N   UNL A   1      42.100  27.145  28.726  1.00  0.00    -0.354 N 
ATOM     44  C   UNL A   1      43.271  31.146  29.809  1.00  0.00     0.074 A 
ATOM     45  C   UNL A   1      42.114  31.940  30.165  1.00  0.00     0.031 C 
ATOM     46  C   UNL A   1      40.694  25.481  28.218  1.00  0.00     0.029 A 
ATOM     47  C   UNL A   1      42.099  25.822  28.346  1.00  0.00     0.049 A 
ATOM     48  H   UNL A   1      42.914  27.633  28.990  1.00  0.00     0.167 HD
ATOM     49  C   UNL A   1      44.557  31.565  29.914  1.00  0.00     0.031 A 
ATOM     50  C   UNL A   1      43.097  24.979  28.021  1.00  0.00     0.031 A 
ATOM     51  C   UNL A   1      45.700  30.743  29.590  1.00  0.00     0.049 A 
ATOM     52  C   UNL A   1      44.501  25.490  28.044  1.00  0.00     0.074 A 
ATOM     53  C   UNL A   1      47.045  31.066  29.664  1.00  0.00     0.029 A 
ATOM     54  N   UNL A   1      45.634  29.431  29.138  1.00  0.00    -0.354 N 
ATOM     55  N   UNL A   1      44.936  26.671  28.407  1.00  0.00    -0.248 NA
ATOM     56  C   UNL A   1      45.546  24.567  27.585  1.00  0.00     0.031 C 
ATOM     57  C   UNL A   1      47.786  29.976  29.198  1.00  0.00     0.029 A 
ATOM     58  C   UNL A   1      46.910  28.946  28.900  1.00  0.00     0.049 A 
ATOM     59  H   UNL A   1      44.803  28.920  29.008  1.00  0.00     0.167 HD
ATOM     60  C   UNL A   1      46.310  26.637  28.222  1.00  0.00     0.074 A 
ATOM     61  C   UNL A   1      46.635  25.305  27.746  1.00  0.00     0.031 C 
ATOM     62  C   UNL A   1      47.218  27.622  28.417  1.00  0.00     0.031 A 
BRANCH  49  63
ATOM     63  C   UNL A   1      44.818  32.994  30.340  1.00  0.00    -0.014 A 
ATOM     64  C   UNL A   1      44.848  34.054  29.417  1.00  0.00     0.010 A 
ATOM     65  C   UNL A   1      44.969  33.286  31.710  1.00  0.00     0.010 A 
ATOM     66  C   UNL A   1      45.063  35.369  29.852  1.00  0.00     0.020 A 
ATOM     67  C   UNL A   1      45.153  34.601  32.153  1.00  0.00     0.020 A 
ATOM     68  C   UNL A   1      45.217  35.633  31.217  1.00  0.00     0.054 A 
BRANCH  68  69
ATOM     69  S   UNL A   1      45.479  37.348  31.752  1.00  0.00     0.124 S 
ATOM     70  O   UNL A   1      44.832  38.101  30.680  1.00  0.00    -0.237 OA
ATOM     71  O   UNL A   1      44.802  37.389  33.045  1.00  0.00    -0.237 OA
ATOM     72  O   UNL A   1      46.934  37.478  31.810  1.00  0.00    -0.744 OA
ENDBRANCH  68  69
ENDBRANCH  49  63
BRANCH  50  73
ATOM     73  C   UNL A   1      42.769  23.611  27.529  1.00  0.00    -0.014 A 
ATOM     74  C   UNL A   1      42.673  23.345  26.154  1.00  0.00     0.010 A 
ATOM     75  C   UNL A   1      42.614  22.548  28.444  1.00  0.00     0.010 A 
ATOM     76  C   UNL A   1      42.438  22.042  25.704  1.00  0.00     0.020 A 
ATOM     77  C   UNL A   1      42.422  21.240  27.996  1.00  0.00     0.020 A 
ATOM     78  C   UNL A   1      42.325  20.997  26.626  1.00  0.00     0.054 A 
BRANCH  78  79
ATOM     79  S   UNL A   1      42.102  19.306  26.012  1.00  0.00     0.124 S 
ATOM     80  O   UNL A   1      42.919  19.313  24.803  1.00  0.00    -0.237 OA
ATOM     81  O   UNL A   1      42.613  18.499  27.117  1.00  0.00    -0.237 OA
ATOM     82  O   UNL A   1      40.660  19.207  25.793  1.00  0.00    -0.744 OA
ENDBRANCH  78  79
ENDBRANCH  50  73
BRANCH  62  83
ATOM     83  C   UNL A   1      48.656  27.284  28.139  1.00  0.00    -0.014 A 
ATOM     84  C   UNL A   1      49.144  27.219  26.822  1.00  0.00     0.010 A 
ATOM     85  C   UNL A   1      49.536  27.056  29.212  1.00  0.00     0.010 A 
ATOM     86  C   UNL A   1      50.484  26.907  26.583  1.00  0.00     0.020 A 
ATOM     87  C   UNL A   1      50.883  26.774  28.978  1.00  0.00     0.020 A 
ATOM     88  C   UNL A   1      51.346  26.690  27.663  1.00  0.00     0.054 A 
BRANCH  88  89
ATOM     89  S   UNL A   1      53.091  26.337  27.324  1.00  0.00     0.124 S 
ATOM     90  O   UNL A   1      53.624  26.120  28.667  1.00  0.00    -0.237 OA
ATOM     91  O   UNL A   1      53.017  25.150  26.477  1.00  0.00    -0.237 OA
ATOM     92  O   UNL A   1      53.565  27.546  26.653  1.00  0.00    -0.744 OA
ENDBRANCH  88  89
ENDBRANCH  62  83
ENDBRANCH  36  37
ENDBRANCH  29  31
ENDBRANCH  28  29
ENDBRANCH  27  28
ENDBRANCH   1  27
TORSDOF 18
ENDMDL
MODEL 3
REMARK VINA RESULT:     -11.0      2.143      3.104
REMARK SMILES CC(C)NC(=O)c1cccc(NC(=O)[C@@H]2[C@H](C(=O)OCCOC(=O)c3ccc(-c4c5nc(c(-c6ccc(S(=O)(=O)[O-])cc6)c6ccc([nH]6)c(-c6ccc(S(=O)(=O)[O-])cc6)c6nc(c(-c7ccc(S(=O)(=O)[O-])cc7)c7ccc4[nH]7)C=C6)C=C5)cc3)C2(C)C)c1
REMARK SMILES IDX 20 1 19 2 17 3 18 4 16 5 15 6 85 7 86 8 87 9 13 10 12 11
REMARK SMILES IDX 14 13 11 14 7 15 8 16 88 17 9 18 10 19 5 20 4 21 6 23 2 24
REMARK SMILES IDX 1 25 3 26 21 27 22 28 23 29 24 30 25 31 26 32 84 33 27 34
REMARK SMILES IDX 83 35 28 36 29 37 30 38 77 39 31 40 82 41 76 42 78 43 32 44
REMARK SMILES IDX 81 45 75 46 74 47 33 49 63 50 44 51 62 52 45 53 48 54 61 55
REMARK SMILES IDX 79 56 46 57 47 58 60 60 80 61 49 62 34 63 35 64 43 65 36 66
REMARK SMILES IDX 42 67 37 68 38 69 39 70 40 71 41 72 64 73 65 74 73 75 66 76
REMARK SMILES IDX 72 77 67 78 68 79 69 80 70 81 71 82 50 83 51 84 59 85 52 86
REMARK SMILES IDX 58 87 53 88 54 89 55 90 56 91 57 92
REMARK H PARENT 12 12 4 22 78 48 48 59
REMARK Flexibility Score: inf
ROOT
ATOM      1  C   UNL A   1      34.069  29.286  27.054  1.00  0.00     0.274 C 
ENDROOT
BRANCH   1   2
ATOM      2  O   UNL A   1      33.061  28.742  27.931  1.00  0.00    -0.462 OA
BRANCH   2   3
ATOM      3  C   UNL A   1      32.156  27.914  27.340  1.00  0.00     0.310 C 
ATOM      4  O   UNL A   1      30.977  27.843  27.667  1.00  0.00    -0.252 OA
BRANCH   3   5
ATOM      5  C   UNL A   1      32.817  26.995  26.386  1.00  0.00     0.118 C 
ATOM      6  C   UNL A   1      32.235  25.667  25.967  1.00  0.00     0.100 C 
ATOM      7  C   UNL A   1      32.507  26.755  24.913  1.00  0.00    -0.009 C 
ATOM      8  C   UNL A   1      33.663  26.570  23.961  1.00  0.00     0.013 C 
ATOM      9  C   UNL A   1      31.359  27.462  24.252  1.00  0.00     0.013 C 
BRANCH   6  10
ATOM     10  C   UNL A   1      30.841  25.154  26.115  1.00  0.00     0.228 C 
ATOM     11  N   UNL A   1      30.521  23.904  25.632  1.00  0.00    -0.326 N 
ATOM     12  H   UNL A   1      29.660  23.560  25.963  1.00  0.00     0.169 HD
ATOM     13  O   UNL A   1      29.949  25.807  26.646  1.00  0.00    -0.274 OA
BRANCH  11  14
ATOM     14  C   UNL A   1      31.184  23.026  24.757  1.00  0.00     0.041 A 
ATOM     15  C   UNL A   1      32.425  20.965  24.479  1.00  0.00     0.041 A 
ATOM     16  C   UNL A   1      32.463  21.144  23.095  1.00  0.00     0.014 A 
ATOM     17  C   UNL A   1      31.834  21.924  25.314  1.00  0.00     0.040 A 
ATOM     18  C   UNL A   1      31.824  22.236  22.536  1.00  0.00     0.003 A 
ATOM     19  C   UNL A   1      31.164  23.142  23.367  1.00  0.00     0.026 A 
BRANCH  15  20
ATOM     20  C   UNL A   1      33.008  19.722  25.011  1.00  0.00     0.251 C 
ATOM     21  N   UNL A   1      34.359  19.636  25.223  1.00  0.00    -0.350 N 
ATOM     22  H   UNL A   1      34.670  18.768  25.566  1.00  0.00     0.164 HD
ATOM     23  O   UNL A   1      32.267  18.793  25.320  1.00  0.00    -0.269 OA
BRANCH  21  24
ATOM     24  C   UNL A   1      35.415  20.631  25.023  1.00  0.00     0.076 C 
ATOM     25  C   UNL A   1      35.427  21.634  26.170  1.00  0.00     0.030 C 
ATOM     26  C   UNL A   1      36.754  19.915  24.893  1.00  0.00     0.030 C 
ENDBRANCH  21  24
ENDBRANCH  15  20
ENDBRANCH  11  14
ENDBRANCH   6  10
ENDBRANCH   3   5
ENDBRANCH   2   3
ENDBRANCH   1   2
BRANCH   1  27
ATOM     27  C   UNL A   1      34.373  30.734  27.418  1.00  0.00     0.275 C 
BRANCH  27  28
ATOM     28  O   UNL A   1      35.790  30.921  27.589  1.00  0.00    -0.458 OA
BRANCH  28  29
ATOM     29  C   UNL A   1      36.279  30.536  28.790  1.00  0.00     0.338 C 
ATOM     30  O   UNL A   1      35.758  30.701  29.882  1.00  0.00    -0.246 OA
BRANCH  29  31
ATOM     31  C   UNL A   1      37.550  29.802  28.637  1.00  0.00     0.060 A 
ATOM     32  C   UNL A   1      38.202  29.344  29.773  1.00  0.00     0.016 A 
ATOM     33  C   UNL A   1      38.223  29.829  27.415  1.00  0.00     0.016 A 
ATOM     34  C   UNL A   1      39.574  29.119  29.718  1.00  0.00     0.010 A 
ATOM     35  C   UNL A   1      39.554  29.390  27.339  1.00  0.00     0.010 A 
ATOM     36  C   UNL A   1      40.272  29.065  28.502  1.00  0.00    -0.014 A 
BRANCH  36  37
ATOM     37  C   UNL A   1      41.711  28.639  28.465  1.00  0.00     0.031 A 
ATOM     38  C   UNL A   1      42.841  29.623  28.696  1.00  0.00     0.074 A 
ATOM     39  C   UNL A   1      42.023  27.347  28.211  1.00  0.00     0.049 A 
ATOM     40  N   UNL A   1      44.119  29.488  28.434  1.00  0.00    -0.248 NA
ATOM     41  C   UNL A   1      42.497  30.928  29.284  1.00  0.00     0.031 C 
ATOM     42  C   UNL A   1      41.059  26.257  28.017  1.00  0.00     0.029 A 
ATOM     43  N   UNL A   1      43.240  26.718  28.075  1.00  0.00    -0.354 N 
ATOM     44  C   UNL A   1      44.716  30.707  28.753  1.00  0.00     0.074 A 
ATOM     45  C   UNL A   1      43.659  31.569  29.239  1.00  0.00     0.031 C 
ATOM     46  C   UNL A   1      41.710  25.098  27.878  1.00  0.00     0.029 A 
ATOM     47  C   UNL A   1      43.130  25.381  27.771  1.00  0.00     0.049 A 
ATOM     48  H   UNL A   1      44.103  27.180  28.185  1.00  0.00     0.167 HD
ATOM     49  C   UNL A   1      46.018  31.072  28.637  1.00  0.00     0.031 A 
ATOM     50  C   UNL A   1      44.032  24.479  27.341  1.00  0.00     0.031 A 
ATOM     51  C   UNL A   1      47.064  30.184  28.185  1.00  0.00     0.049 A 
ATOM     52  C   UNL A   1      45.441  24.926  27.121  1.00  0.00     0.074 A 
ATOM     53  C   UNL A   1      48.415  30.449  28.035  1.00  0.00     0.029 A 
ATOM     54  N   UNL A   1      46.879  28.857  27.819  1.00  0.00    -0.354 N 
ATOM     55  N   UNL A   1      45.971  26.101  27.351  1.00  0.00    -0.248 NA
ATOM     56  C   UNL A   1      46.366  23.936  26.557  1.00  0.00     0.031 C 
ATOM     57  C   UNL A   1      49.034  29.305  27.519  1.00  0.00     0.029 A 
ATOM     58  C   UNL A   1      48.083  28.304  27.414  1.00  0.00     0.049 A 
ATOM     59  H   UNL A   1      46.019  28.380  27.845  1.00  0.00     0.167 HD
ATOM     60  C   UNL A   1      47.298  25.996  26.958  1.00  0.00     0.074 A 
ATOM     61  C   UNL A   1      47.494  24.630  26.510  1.00  0.00     0.031 C 
ATOM     62  C   UNL A   1      48.262  26.947  26.960  1.00  0.00     0.031 A 
BRANCH  49  63
ATOM     63  C   UNL A   1      46.395  32.505  28.942  1.00  0.00    -0.014 A 
ATOM     64  C   UNL A   1      46.870  32.901  30.204  1.00  0.00     0.010 A 
ATOM     65  C   UNL A   1      46.335  33.466  27.912  1.00  0.00     0.010 A 
ATOM     66  C   UNL A   1      47.238  34.233  30.441  1.00  0.00     0.020 A 
ATOM     67  C   UNL A   1      46.730  34.789  28.134  1.00  0.00     0.020 A 
ATOM     68  C   UNL A   1      47.163  35.169  29.404  1.00  0.00     0.054 A 
BRANCH  68  69
ATOM     69  S   UNL A   1      47.660  36.883  29.737  1.00  0.00     0.124 S 
ATOM     70  O   UNL A   1      48.715  37.089  28.747  1.00  0.00    -0.237 OA
ATOM     71  O   UNL A   1      46.425  37.627  29.502  1.00  0.00    -0.237 OA
ATOM     72  O   UNL A   1      48.111  36.852  31.127  1.00  0.00    -0.744 OA
ENDBRANCH  68  69
ENDBRANCH  49  63
BRANCH  50  73
ATOM     73  C   UNL A   1      43.580  23.106  26.978  1.00  0.00    -0.014 A 
ATOM     74  C   UNL A   1      43.956  22.524  25.758  1.00  0.00     0.010 A 
ATOM     75  C   UNL A   1      42.817  22.347  27.892  1.00  0.00     0.010 A 
ATOM     76  C   UNL A   1      43.586  21.207  25.462  1.00  0.00     0.020 A 
ATOM     77  C   UNL A   1      42.484  21.020  27.618  1.00  0.00     0.020 A 
ATOM     78  C   UNL A   1      42.863  20.461  26.398  1.00  0.00     0.054 A 
BRANCH  78  79
ATOM     79  S   UNL A   1      42.467  18.732  26.023  1.00  0.00     0.124 S 
ATOM     80  O   UNL A   1      43.353  18.458  24.895  1.00  0.00    -0.237 OA
ATOM     81  O   UNL A   1      42.804  18.054  27.272  1.00  0.00    -0.237 OA
ATOM     82  O   UNL A   1      41.041  18.766  25.706  1.00  0.00    -0.744 OA
ENDBRANCH  78  79
ENDBRANCH  50  73
BRANCH  62  83
ATOM     83  C   UNL A   1      49.626  26.531  26.483  1.00  0.00    -0.014 A 
ATOM     84  C   UNL A   1      50.533  25.895  27.349  1.00  0.00     0.010 A 
ATOM     85  C   UNL A   1      49.992  26.754  25.144  1.00  0.00     0.010 A 
ATOM     86  C   UNL A   1      51.794  25.512  26.889  1.00  0.00     0.020 A 
ATOM     87  C   UNL A   1      51.241  26.345  24.673  1.00  0.00     0.020 A 
ATOM     88  C   UNL A   1      52.138  25.736  25.552  1.00  0.00     0.054 A 
BRANCH  88  89
ATOM     89  S   UNL A   1      53.763  25.183  24.969  1.00  0.00     0.124 S 
ATOM     90  O   UNL A   1      53.870  25.857  23.678  1.00  0.00    -0.237 OA
ATOM     91  O   UNL A   1      54.660  25.675  26.012  1.00  0.00    -0.237 OA
ATOM     92  O   UNL A   1      53.631  23.729  24.904  1.00  0.00    -0.744 OA
ENDBRANCH  88  89
ENDBRANCH  62  83
ENDBRANCH  36  37
ENDBRANCH  29  31
ENDBRANCH  28  29
ENDBRANCH  27  28
ENDBRANCH   1  27
TORSDOF 18
ENDMDL
