MODEL 1
REMARK VINA RESULT:     -12.8      0.000      0.000
REMARK SMILES Cc1c(CC(=O)OCCOC(=O)c2ccc(-c3c4nc(c(-c5ccc(S(=O)(=O)[O-])cc5)c5ccc([nH]5)c(-c5ccc(S(=O)(=O)[O-])cc5)c5nc(c(-c6ccc(S(=O)(=O)[O-])cc6)c6ccc3[nH]6)C=C5)C=C4)cc2)c2cc(O)ccc2n1C(=O)c1ccc(Cl)cc1
REMARK SMILES IDX 8 1 7 2 5 3 6 4 4 5 3 6 1 7 2 8 80 9 73 10 79 11 74 12 78 13
REMARK SMILES IDX 75 14 77 15 81 16 82 17 83 18 84 19 89 20 85 21 88 22 86 23
REMARK SMILES IDX 87 24 76 25 9 27 10 28 11 29 12 30 13 31 14 32 72 33 15 34
REMARK SMILES IDX 71 35 16 36 17 37 18 38 65 39 19 40 70 41 64 42 66 43 20 44
REMARK SMILES IDX 69 45 63 46 62 47 21 49 51 50 32 51 50 52 33 53 36 54 49 55
REMARK SMILES IDX 67 56 34 57 35 58 48 60 68 61 37 62 22 63 23 64 31 65 24 66
REMARK SMILES IDX 30 67 25 68 26 69 27 70 28 71 29 72 52 73 53 74 61 75 54 76
REMARK SMILES IDX 60 77 55 78 56 79 57 80 58 81 59 82 38 83 39 84 47 85 40 86
REMARK SMILES IDX 46 87 41 88 42 89 43 90 44 91 45 92
REMARK H PARENT 76 26 66 48 36 59
REMARK Flexibility Score: inf
ROOT
ATOM      1  C   UNL A   1      37.455  20.992  24.633  1.00  0.00     0.274 C 
ENDROOT
BRANCH   1   2
ATOM      2  O   UNL A   1      36.966  22.352  24.626  1.00  0.00    -0.462 OA
BRANCH   2   3
ATOM      3  C   UNL A   1      36.200  22.700  23.563  1.00  0.00     0.310 C 
ATOM      4  O   UNL A   1      36.645  23.169  22.520  1.00  0.00    -0.252 OA
BRANCH   3   5
ATOM      5  C   UNL A   1      34.721  22.469  23.737  1.00  0.00     0.160 C 
BRANCH   5   6
ATOM      6  C   UNL A   1      33.793  23.627  23.969  1.00  0.00    -0.008 A 
ATOM      7  C   UNL A   1      34.034  23.693  26.543  1.00  0.00     0.065 C 
ATOM      8  C   UNL A   1      33.533  24.177  25.217  1.00  0.00     0.028 A 
ATOM      9  N   UNL A   1      32.759  25.328  25.058  1.00  0.00    -0.280 N 
ATOM     10  C   UNL A   1      33.200  24.494  22.997  1.00  0.00     0.008 A 
ATOM     11  C   UNL A   1      32.625  25.571  23.679  1.00  0.00     0.057 A 
ATOM     12  C   UNL A   1      33.147  24.505  21.585  1.00  0.00     0.056 A 
ATOM     13  C   UNL A   1      32.081  26.661  22.952  1.00  0.00     0.031 A 
ATOM     14  C   UNL A   1      32.594  25.576  20.885  1.00  0.00     0.116 A 
ATOM     15  C   UNL A   1      32.061  26.650  21.558  1.00  0.00     0.048 A 
BRANCH   9  16
ATOM     16  C   UNL A   1      32.238  26.136  26.105  1.00  0.00     0.262 C 
ATOM     17  O   UNL A   1      31.397  25.677  26.873  1.00  0.00    -0.268 OA
BRANCH  16  18
ATOM     18  C   UNL A   1      32.664  27.518  26.359  1.00  0.00     0.040 A 
ATOM     19  C   UNL A   1      34.026  27.832  26.431  1.00  0.00     0.015 A 
ATOM     20  C   UNL A   1      31.679  28.463  26.657  1.00  0.00     0.015 A 
ATOM     21  C   UNL A   1      34.404  29.095  26.887  1.00  0.00     0.021 A 
ATOM     22  C   UNL A   1      32.065  29.723  27.110  1.00  0.00     0.021 A 
ATOM     23  C   UNL A   1      33.423  30.026  27.241  1.00  0.00     0.041 A 
ATOM     24  Cl  UNL A   1      33.894  31.549  27.887  1.00  0.00    -0.084 Cl
ENDBRANCH  16  18
ENDBRANCH   9  16
BRANCH  14  25
ATOM     25  O   UNL A   1      32.615  25.539  19.523  1.00  0.00    -0.508 OA
ATOM     26  H   UNL A   1      31.924  25.112  19.057  1.00  0.00     0.293 HD
ENDBRANCH  14  25
ENDBRANCH   5   6
ENDBRANCH   3   5
ENDBRANCH   2   3
ENDBRANCH   1   2
BRANCH   1  27
ATOM     27  C   UNL A   1      38.684  20.872  25.539  1.00  0.00     0.275 C 
BRANCH  27  28
ATOM     28  O   UNL A   1      38.894  22.132  26.193  1.00  0.00    -0.458 OA
BRANCH  28  29
ATOM     29  C   UNL A   1      40.166  22.464  26.514  1.00  0.00     0.338 C 
ATOM     30  O   UNL A   1      41.192  22.014  26.030  1.00  0.00    -0.246 OA
BRANCH  29  31
ATOM     31  C   UNL A   1      40.054  23.717  27.286  1.00  0.00     0.060 A 
ATOM     32  C   UNL A   1      39.021  24.618  27.021  1.00  0.00     0.016 A 
ATOM     33  C   UNL A   1      41.148  24.100  28.063  1.00  0.00     0.016 A 
ATOM     34  C   UNL A   1      39.176  25.950  27.386  1.00  0.00     0.010 A 
ATOM     35  C   UNL A   1      41.325  25.438  28.373  1.00  0.00     0.010 A 
ATOM     36  C   UNL A   1      40.372  26.374  27.978  1.00  0.00    -0.014 A 
BRANCH  36  37
ATOM     37  C   UNL A   1      40.484  27.738  28.474  1.00  0.00     0.031 A 
ATOM     38  C   UNL A   1      41.689  28.401  27.940  1.00  0.00     0.074 A 
ATOM     39  C   UNL A   1      39.635  28.442  29.245  1.00  0.00     0.049 A 
ATOM     40  N   UNL A   1      42.846  28.433  28.507  1.00  0.00    -0.248 NA
ATOM     41  C   UNL A   1      41.672  28.888  26.554  1.00  0.00     0.031 C 
ATOM     42  C   UNL A   1      38.256  28.147  29.628  1.00  0.00     0.029 A 
ATOM     43  N   UNL A   1      39.864  29.661  29.819  1.00  0.00    -0.354 N 
ATOM     44  C   UNL A   1      43.663  29.127  27.632  1.00  0.00     0.074 A 
ATOM     45  C   UNL A   1      42.962  29.174  26.375  1.00  0.00     0.031 C 
ATOM     46  C   UNL A   1      37.711  29.244  30.217  1.00  0.00     0.029 A 
ATOM     47  C   UNL A   1      38.753  30.242  30.411  1.00  0.00     0.049 A 
ATOM     48  H   UNL A   1      40.748  30.094  29.812  1.00  0.00     0.167 HD
ATOM     49  C   UNL A   1      44.735  29.829  28.085  1.00  0.00     0.031 A 
ATOM     50  C   UNL A   1      38.719  31.451  31.025  1.00  0.00     0.031 A 
ATOM     51  C   UNL A   1      44.980  29.566  29.480  1.00  0.00     0.049 A 
ATOM     52  C   UNL A   1      40.094  31.756  31.487  1.00  0.00     0.074 A 
ATOM     53  C   UNL A   1      45.442  28.497  30.216  1.00  0.00     0.029 A 
ATOM     54  N   UNL A   1      44.321  30.406  30.346  1.00  0.00    -0.354 N 
ATOM     55  N   UNL A   1      40.702  31.085  32.423  1.00  0.00    -0.248 NA
ATOM     56  C   UNL A   1      40.941  32.655  30.713  1.00  0.00     0.031 C 
ATOM     57  C   UNL A   1      44.809  28.598  31.488  1.00  0.00     0.029 A 
ATOM     58  C   UNL A   1      44.009  29.742  31.506  1.00  0.00     0.049 A 
ATOM     59  H   UNL A   1      44.104  31.348  30.161  1.00  0.00     0.167 HD
ATOM     60  C   UNL A   1      42.040  31.147  32.081  1.00  0.00     0.074 A 
ATOM     61  C   UNL A   1      42.140  32.255  31.142  1.00  0.00     0.031 C 
ATOM     62  C   UNL A   1      42.885  30.112  32.352  1.00  0.00     0.031 A 
BRANCH  49  63
ATOM     63  C   UNL A   1      45.302  31.043  27.398  1.00  0.00    -0.014 A 
ATOM     64  C   UNL A   1      44.596  32.252  27.242  1.00  0.00     0.010 A 
ATOM     65  C   UNL A   1      46.678  31.064  27.095  1.00  0.00     0.010 A 
ATOM     66  C   UNL A   1      45.210  33.415  26.780  1.00  0.00     0.020 A 
ATOM     67  C   UNL A   1      47.317  32.238  26.674  1.00  0.00     0.020 A 
ATOM     68  C   UNL A   1      46.572  33.404  26.509  1.00  0.00     0.054 A 
BRANCH  68  69
ATOM     69  S   UNL A   1      47.348  34.957  26.010  1.00  0.00     0.124 S 
ATOM     70  O   UNL A   1      48.307  34.502  25.006  1.00  0.00    -0.237 OA
ATOM     71  O   UNL A   1      46.214  35.722  25.497  1.00  0.00    -0.237 OA
ATOM     72  O   UNL A   1      47.932  35.463  27.250  1.00  0.00    -0.744 OA
ENDBRANCH  68  69
ENDBRANCH  49  63
BRANCH  50  73
ATOM     73  C   UNL A   1      37.664  32.491  31.061  1.00  0.00    -0.014 A 
ATOM     74  C   UNL A   1      37.705  33.484  32.057  1.00  0.00     0.010 A 
ATOM     75  C   UNL A   1      36.446  32.284  30.379  1.00  0.00     0.010 A 
ATOM     76  C   UNL A   1      36.542  34.162  32.444  1.00  0.00     0.020 A 
ATOM     77  C   UNL A   1      35.277  32.960  30.765  1.00  0.00     0.020 A 
ATOM     78  C   UNL A   1      35.326  33.860  31.829  1.00  0.00     0.054 A 
BRANCH  78  79
ATOM     79  S   UNL A   1      33.804  34.573  32.520  1.00  0.00     0.124 S 
ATOM     80  O   UNL A   1      33.084  34.974  31.315  1.00  0.00    -0.237 OA
ATOM     81  O   UNL A   1      33.229  33.446  33.249  1.00  0.00    -0.237 OA
ATOM     82  O   UNL A   1      34.282  35.673  33.356  1.00  0.00    -0.744 OA
ENDBRANCH  78  79
ENDBRANCH  50  73
BRANCH  62  83
ATOM     83  C   UNL A   1      42.525  29.169  33.477  1.00  0.00    -0.014 A 
ATOM     84  C   UNL A   1      43.142  29.400  34.721  1.00  0.00     0.010 A 
ATOM     85  C   UNL A   1      41.714  28.027  33.335  1.00  0.00     0.010 A 
ATOM     86  C   UNL A   1      42.994  28.505  35.779  1.00  0.00     0.020 A 
ATOM     87  C   UNL A   1      41.534  27.136  34.407  1.00  0.00     0.020 A 
ATOM     88  C   UNL A   1      42.199  27.370  35.615  1.00  0.00     0.054 A 
BRANCH  88  89
ATOM     89  S   UNL A   1      42.065  26.214  37.004  1.00  0.00     0.124 S 
ATOM     90  O   UNL A   1      40.665  26.367  37.399  1.00  0.00    -0.237 OA
ATOM     91  O   UNL A   1      42.400  24.931  36.393  1.00  0.00    -0.237 OA
ATOM     92  O   UNL A   1      43.039  26.708  37.974  1.00  0.00    -0.744 OA
ENDBRANCH  88  89
ENDBRANCH  62  83
ENDBRANCH  36  37
ENDBRANCH  29  31
ENDBRANCH  28  29
ENDBRANCH  27  28
ENDBRANCH   1  27
TORSDOF 18
ENDMDL
MODEL 2
REMARK VINA RESULT:     -12.1      2.929      9.613
REMARK SMILES Cc1c(CC(=O)OCCOC(=O)c2ccc(-c3c4nc(c(-c5ccc(S(=O)(=O)[O-])cc5)c5ccc([nH]5)c(-c5ccc(S(=O)(=O)[O-])cc5)c5nc(c(-c6ccc(S(=O)(=O)[O-])cc6)c6ccc3[nH]6)C=C5)C=C4)cc2)c2cc(O)ccc2n1C(=O)c1ccc(Cl)cc1
REMARK SMILES IDX 8 1 7 2 5 3 6 4 4 5 3 6 1 7 2 8 80 9 73 10 79 11 74 12 78 13
REMARK SMILES IDX 75 14 77 15 81 16 82 17 83 18 84 19 89 20 85 21 88 22 86 23
REMARK SMILES IDX 87 24 76 25 9 27 10 28 11 29 12 30 13 31 14 32 72 33 15 34
REMARK SMILES IDX 71 35 16 36 17 37 18 38 65 39 19 40 70 41 64 42 66 43 20 44
REMARK SMILES IDX 69 45 63 46 62 47 21 49 51 50 32 51 50 52 33 53 36 54 49 55
REMARK SMILES IDX 67 56 34 57 35 58 48 60 68 61 37 62 22 63 23 64 31 65 24 66
REMARK SMILES IDX 30 67 25 68 26 69 27 70 28 71 29 72 52 73 53 74 61 75 54 76
REMARK SMILES IDX 60 77 55 78 56 79 57 80 58 81 59 82 38 83 39 84 47 85 40 86
REMARK SMILES IDX 46 87 41 88 42 89 43 90 44 91 45 92
REMARK H PARENT 76 26 66 48 36 59
REMARK Flexibility Score: inf
ROOT
ATOM      1  C   UNL A   1      33.174  30.246  26.754  1.00  0.00     0.274 C 
ENDROOT
BRANCH   1   2
ATOM      2  O   UNL A   1      31.819  29.808  27.003  1.00  0.00    -0.462 OA
BRANCH   2   3
ATOM      3  C   UNL A   1      31.617  28.468  26.974  1.00  0.00     0.310 C 
ATOM      4  O   UNL A   1      31.798  27.725  27.935  1.00  0.00    -0.252 OA
BRANCH   3   5
ATOM      5  C   UNL A   1      31.137  27.921  25.655  1.00  0.00     0.160 C 
BRANCH   5   6
ATOM      6  C   UNL A   1      31.640  26.597  25.153  1.00  0.00    -0.008 A 
ATOM      7  C   UNL A   1      33.600  27.536  23.750  1.00  0.00     0.065 C 
ATOM      8  C   UNL A   1      32.756  26.448  24.340  1.00  0.00     0.028 A 
ATOM      9  N   UNL A   1      33.035  25.088  24.192  1.00  0.00    -0.280 N 
ATOM     10  C   UNL A   1      31.241  25.285  25.562  1.00  0.00     0.008 A 
ATOM     11  C   UNL A   1      32.150  24.373  25.017  1.00  0.00     0.057 A 
ATOM     12  C   UNL A   1      30.224  24.780  26.403  1.00  0.00     0.056 A 
ATOM     13  C   UNL A   1      32.075  23.001  25.373  1.00  0.00     0.031 A 
ATOM     14  C   UNL A   1      30.154  23.427  26.731  1.00  0.00     0.116 A 
ATOM     15  C   UNL A   1      31.070  22.537  26.220  1.00  0.00     0.048 A 
BRANCH   9  16
ATOM     16  C   UNL A   1      34.063  24.529  23.385  1.00  0.00     0.262 C 
ATOM     17  O   UNL A   1      33.954  24.535  22.161  1.00  0.00    -0.268 OA
BRANCH  16  18
ATOM     18  C   UNL A   1      35.299  23.947  23.924  1.00  0.00     0.040 A 
ATOM     19  C   UNL A   1      35.970  22.943  23.217  1.00  0.00     0.015 A 
ATOM     20  C   UNL A   1      35.696  24.327  25.209  1.00  0.00     0.015 A 
ATOM     21  C   UNL A   1      37.009  22.256  23.844  1.00  0.00     0.021 A 
ATOM     22  C   UNL A   1      36.736  23.636  25.827  1.00  0.00     0.021 A 
ATOM     23  C   UNL A   1      37.374  22.594  25.150  1.00  0.00     0.041 A 
ATOM     24  Cl  UNL A   1      38.595  21.684  25.951  1.00  0.00    -0.084 Cl
ENDBRANCH  16  18
ENDBRANCH   9  16
BRANCH  14  25
ATOM     25  O   UNL A   1      29.172  23.017  27.581  1.00  0.00    -0.508 OA
ATOM     26  H   UNL A   1      28.570  22.351  27.314  1.00  0.00     0.293 HD
ENDBRANCH  14  25
ENDBRANCH   5   6
ENDBRANCH   3   5
ENDBRANCH   2   3
ENDBRANCH   1   2
BRANCH   1  27
ATOM     27  C   UNL A   1      33.493  31.489  27.589  1.00  0.00     0.275 C 
BRANCH  27  28
ATOM     28  O   UNL A   1      34.914  31.690  27.584  1.00  0.00    -0.458 OA
BRANCH  28  29
ATOM     29  C   UNL A   1      35.468  32.256  28.682  1.00  0.00     0.338 C 
ATOM     30  O   UNL A   1      34.982  33.121  29.393  1.00  0.00    -0.246 OA
BRANCH  29  31
ATOM     31  C   UNL A   1      36.591  31.370  29.047  1.00  0.00     0.060 A 
ATOM     32  C   UNL A   1      37.780  31.907  29.543  1.00  0.00     0.016 A 
ATOM     33  C   UNL A   1      36.537  30.044  28.615  1.00  0.00     0.016 A 
ATOM     34  C   UNL A   1      38.952  31.167  29.438  1.00  0.00     0.010 A 
ATOM     35  C   UNL A   1      37.715  29.333  28.458  1.00  0.00     0.010 A 
ATOM     36  C   UNL A   1      38.930  29.917  28.808  1.00  0.00    -0.014 A 
BRANCH  36  37
ATOM     37  C   UNL A   1      40.128  29.090  28.812  1.00  0.00     0.031 A 
ATOM     38  C   UNL A   1      40.565  28.791  30.189  1.00  0.00     0.074 A 
ATOM     39  C   UNL A   1      40.791  28.538  27.779  1.00  0.00     0.049 A 
ATOM     40  N   UNL A   1      41.415  29.474  30.875  1.00  0.00    -0.248 NA
ATOM     41  C   UNL A   1      39.836  27.771  30.956  1.00  0.00     0.031 C 
ATOM     42  C   UNL A   1      40.396  28.405  26.379  1.00  0.00     0.029 A 
ATOM     43  N   UNL A   1      42.003  27.907  27.822  1.00  0.00    -0.354 N 
ATOM     44  C   UNL A   1      41.482  28.844  32.106  1.00  0.00     0.074 A 
ATOM     45  C   UNL A   1      40.341  27.967  32.173  1.00  0.00     0.031 C 
ATOM     46  C   UNL A   1      41.266  27.576  25.744  1.00  0.00     0.029 A 
ATOM     47  C   UNL A   1      42.369  27.271  26.646  1.00  0.00     0.049 A 
ATOM     48  H   UNL A   1      42.572  27.904  28.626  1.00  0.00     0.167 HD
ATOM     49  C   UNL A   1      42.610  28.906  32.862  1.00  0.00     0.031 A 
ATOM     50  C   UNL A   1      43.508  26.564  26.445  1.00  0.00     0.031 A 
ATOM     51  C   UNL A   1      43.558  29.840  32.311  1.00  0.00     0.049 A 
ATOM     52  C   UNL A   1      44.521  27.066  27.404  1.00  0.00     0.074 A 
ATOM     53  C   UNL A   1      43.635  31.210  32.187  1.00  0.00     0.029 A 
ATOM     54  N   UNL A   1      44.438  29.297  31.405  1.00  0.00    -0.354 N 
ATOM     55  N   UNL A   1      45.029  28.264  27.349  1.00  0.00    -0.248 NA
ATOM     56  C   UNL A   1      44.791  26.330  28.632  1.00  0.00     0.031 C 
ATOM     57  C   UNL A   1      44.388  31.453  31.003  1.00  0.00     0.029 A 
ATOM     58  C   UNL A   1      44.779  30.229  30.457  1.00  0.00     0.049 A 
ATOM     59  H   UNL A   1      44.775  28.372  31.433  1.00  0.00     0.167 HD
ATOM     60  C   UNL A   1      45.303  28.586  28.665  1.00  0.00     0.074 A 
ATOM     61  C   UNL A   1      45.305  27.314  29.373  1.00  0.00     0.031 C 
ATOM     62  C   UNL A   1      45.201  29.870  29.111  1.00  0.00     0.031 A 
BRANCH  49  63
ATOM     63  C   UNL A   1      43.026  27.846  33.847  1.00  0.00    -0.014 A 
ATOM     64  C   UNL A   1      43.961  26.834  33.554  1.00  0.00     0.010 A 
ATOM     65  C   UNL A   1      42.647  27.993  35.195  1.00  0.00     0.010 A 
ATOM     66  C   UNL A   1      44.472  25.989  34.538  1.00  0.00     0.020 A 
ATOM     67  C   UNL A   1      43.187  27.181  36.201  1.00  0.00     0.020 A 
ATOM     68  C   UNL A   1      44.090  26.175  35.860  1.00  0.00     0.054 A 
BRANCH  68  69
ATOM     69  S   UNL A   1      44.853  25.126  37.118  1.00  0.00     0.124 S 
ATOM     70  O   UNL A   1      46.263  25.483  36.988  1.00  0.00    -0.237 OA
ATOM     71  O   UNL A   1      44.198  25.579  38.341  1.00  0.00    -0.237 OA
ATOM     72  O   UNL A   1      44.507  23.772  36.690  1.00  0.00    -0.744 OA
ENDBRANCH  68  69
ENDBRANCH  49  63
BRANCH  50  73
ATOM     73  C   UNL A   1      43.759  25.332  25.661  1.00  0.00    -0.014 A 
ATOM     74  C   UNL A   1      42.753  24.353  25.568  1.00  0.00     0.010 A 
ATOM     75  C   UNL A   1      45.081  24.957  25.341  1.00  0.00     0.010 A 
ATOM     76  C   UNL A   1      43.072  23.018  25.285  1.00  0.00     0.020 A 
ATOM     77  C   UNL A   1      45.407  23.621  25.059  1.00  0.00     0.020 A 
ATOM     78  C   UNL A   1      44.403  22.652  25.081  1.00  0.00     0.054 A 
BRANCH  78  79
ATOM     79  S   UNL A   1      44.808  20.885  24.962  1.00  0.00     0.124 S 
ATOM     80  O   UNL A   1      46.161  20.847  25.509  1.00  0.00    -0.237 OA
ATOM     81  O   UNL A   1      43.778  20.268  25.794  1.00  0.00    -0.237 OA
ATOM     82  O   UNL A   1      44.704  20.598  23.532  1.00  0.00    -0.744 OA
ENDBRANCH  78  79
ENDBRANCH  50  73
BRANCH  62  83
ATOM     83  C   UNL A   1      45.336  30.991  28.107  1.00  0.00    -0.014 A 
ATOM     84  C   UNL A   1      46.639  31.456  27.846  1.00  0.00     0.010 A 
ATOM     85  C   UNL A   1      44.254  31.665  27.509  1.00  0.00     0.010 A 
ATOM     86  C   UNL A   1      46.861  32.580  27.051  1.00  0.00     0.020 A 
ATOM     87  C   UNL A   1      44.471  32.780  26.682  1.00  0.00     0.020 A 
ATOM     88  C   UNL A   1      45.774  33.244  26.480  1.00  0.00     0.054 A 
BRANCH  88  89
ATOM     89  S   UNL A   1      46.106  34.723  25.486  1.00  0.00     0.124 S 
ATOM     90  O   UNL A   1      47.546  34.624  25.257  1.00  0.00    -0.237 OA
ATOM     91  O   UNL A   1      45.274  34.512  24.304  1.00  0.00    -0.237 OA
ATOM     92  O   UNL A   1      45.689  35.830  26.343  1.00  0.00    -0.744 OA
ENDBRANCH  88  89
ENDBRANCH  62  83
ENDBRANCH  36  37
ENDBRANCH  29  31
ENDBRANCH  28  29
ENDBRANCH  27  28
ENDBRANCH   1  27
TORSDOF 18
ENDMDL
MODEL 3
REMARK VINA RESULT:     -12.1      1.864      2.898
REMARK SMILES Cc1c(CC(=O)OCCOC(=O)c2ccc(-c3c4nc(c(-c5ccc(S(=O)(=O)[O-])cc5)c5ccc([nH]5)c(-c5ccc(S(=O)(=O)[O-])cc5)c5nc(c(-c6ccc(S(=O)(=O)[O-])cc6)c6ccc3[nH]6)C=C5)C=C4)cc2)c2cc(O)ccc2n1C(=O)c1ccc(Cl)cc1
REMARK SMILES IDX 8 1 7 2 5 3 6 4 4 5 3 6 1 7 2 8 80 9 73 10 79 11 74 12 78 13
REMARK SMILES IDX 75 14 77 15 81 16 82 17 83 18 84 19 89 20 85 21 88 22 86 23
REMARK SMILES IDX 87 24 76 25 9 27 10 28 11 29 12 30 13 31 14 32 72 33 15 34
REMARK SMILES IDX 71 35 16 36 17 37 18 38 65 39 19 40 70 41 64 42 66 43 20 44
REMARK SMILES IDX 69 45 63 46 62 47 21 49 51 50 32 51 50 52 33 53 36 54 49 55
REMARK SMILES IDX 67 56 34 57 35 58 48 60 68 61 37 62 22 63 23 64 31 65 24 66
REMARK SMILES IDX 30 67 25 68 26 69 27 70 28 71 29 72 52 73 53 74 61 75 54 76
REMARK SMILES IDX 60 77 55 78 56 79 57 80 58 81 59 82 38 83 39 84 47 85 40 86
REMARK SMILES IDX 46 87 41 88 42 89 43 90 44 91 45 92
REMARK H PARENT 76 26 66 48 36 59
REMARK Flexibility Score: inf
ROOT
ATOM      1  C   UNL A   1      36.390  22.262  24.992  1.00  0.00     0.274 C 
ENDROOT
BRANCH   1   2
ATOM      2  O   UNL A   1      36.254  23.697  25.097  1.00  0.00    -0.462 OA
BRANCH   2   3
ATOM      3  C   UNL A   1      34.987  24.164  25.212  1.00  0.00     0.310 C 
ATOM      4  O   UNL A   1      34.208  23.826  26.099  1.00  0.00    -0.252 OA
BRANCH   3   5
ATOM      5  C   UNL A   1      34.573  25.159  24.159  1.00  0.00     0.160 C 
BRANCH   5   6
ATOM      6  C   UNL A   1      33.401  26.069  24.392  1.00  0.00    -0.008 A 
ATOM      7  C   UNL A   1      31.748  24.833  22.833  1.00  0.00     0.065 C 
ATOM      8  C   UNL A   1      32.148  25.885  23.824  1.00  0.00     0.028 A 
ATOM      9  N   UNL A   1      31.256  26.810  24.370  1.00  0.00    -0.280 N 
ATOM     10  C   UNL A   1      33.272  27.116  25.360  1.00  0.00     0.008 A 
ATOM     11  C   UNL A   1      31.932  27.515  25.382  1.00  0.00     0.057 A 
ATOM     12  C   UNL A   1      34.157  27.728  26.276  1.00  0.00     0.056 A 
ATOM     13  C   UNL A   1      31.487  28.450  26.352  1.00  0.00     0.031 A 
ATOM     14  C   UNL A   1      33.707  28.657  27.213  1.00  0.00     0.116 A 
ATOM     15  C   UNL A   1      32.382  29.022  27.255  1.00  0.00     0.048 A 
BRANCH   9  16
ATOM     16  C   UNL A   1      29.894  26.977  23.999  1.00  0.00     0.262 C 
ATOM     17  O   UNL A   1      29.043  26.204  24.431  1.00  0.00    -0.268 OA
BRANCH  16  18
ATOM     18  C   UNL A   1      29.412  28.056  23.129  1.00  0.00     0.040 A 
ATOM     19  C   UNL A   1      30.319  28.814  22.380  1.00  0.00     0.015 A 
ATOM     20  C   UNL A   1      28.054  28.381  23.181  1.00  0.00     0.015 A 
ATOM     21  C   UNL A   1      29.865  29.965  21.735  1.00  0.00     0.021 A 
ATOM     22  C   UNL A   1      27.609  29.532  22.533  1.00  0.00     0.021 A 
ATOM     23  C   UNL A   1      28.518  30.327  21.830  1.00  0.00     0.041 A 
ATOM     24  Cl  UNL A   1      27.982  31.794  21.110  1.00  0.00    -0.084 Cl
ENDBRANCH  16  18
ENDBRANCH   9  16
BRANCH  14  25
ATOM     25  O   UNL A   1      34.609  29.176  28.093  1.00  0.00    -0.508 OA
ATOM     26  H   UNL A   1      34.964  28.636  28.771  1.00  0.00     0.293 HD
ENDBRANCH  14  25
ENDBRANCH   5   6
ENDBRANCH   3   5
ENDBRANCH   2   3
ENDBRANCH   1   2
BRANCH   1  27
ATOM     27  C   UNL A   1      37.862  21.856  25.115  1.00  0.00     0.275 C 
BRANCH  27  28
ATOM     28  O   UNL A   1      38.314  22.173  26.439  1.00  0.00    -0.458 OA
BRANCH  28  29
ATOM     29  C   UNL A   1      39.639  22.392  26.610  1.00  0.00     0.338 C 
ATOM     30  O   UNL A   1      40.556  21.912  25.965  1.00  0.00    -0.246 OA
BRANCH  29  31
ATOM     31  C   UNL A   1      39.723  23.585  27.474  1.00  0.00     0.060 A 
ATOM     32  C   UNL A   1      38.687  24.521  27.488  1.00  0.00     0.016 A 
ATOM     33  C   UNL A   1      40.964  23.892  28.037  1.00  0.00     0.016 A 
ATOM     34  C   UNL A   1      38.954  25.819  27.906  1.00  0.00     0.010 A 
ATOM     35  C   UNL A   1      41.241  25.200  28.397  1.00  0.00     0.010 A 
ATOM     36  C   UNL A   1      40.257  26.178  28.270  1.00  0.00    -0.014 A 
BRANCH  36  37
ATOM     37  C   UNL A   1      40.510  27.499  28.826  1.00  0.00     0.031 A 
ATOM     38  C   UNL A   1      41.643  28.155  28.147  1.00  0.00     0.074 A 
ATOM     39  C   UNL A   1      39.829  28.177  29.768  1.00  0.00     0.049 A 
ATOM     40  N   UNL A   1      42.876  28.107  28.519  1.00  0.00    -0.248 NA
ATOM     41  C   UNL A   1      41.427  28.738  26.815  1.00  0.00     0.031 C 
ATOM     42  C   UNL A   1      38.517  27.905  30.350  1.00  0.00     0.029 A 
ATOM     43  N   UNL A   1      40.202  29.345  30.373  1.00  0.00    -0.354 N 
ATOM     44  C   UNL A   1      43.573  28.832  27.568  1.00  0.00     0.074 A 
ATOM     45  C   UNL A   1      42.683  28.990  26.447  1.00  0.00     0.031 C 
ATOM     46  C   UNL A   1      38.123  28.976  31.089  1.00  0.00     0.029 A 
ATOM     47  C   UNL A   1      39.227  29.922  31.173  1.00  0.00     0.049 A 
ATOM     48  H   UNL A   1      41.093  29.746  30.250  1.00  0.00     0.167 HD
ATOM     49  C   UNL A   1      44.735  29.463  27.884  1.00  0.00     0.031 A 
ATOM     50  C   UNL A   1      39.347  31.085  31.859  1.00  0.00     0.031 A 
ATOM     51  C   UNL A   1      45.188  29.094  29.201  1.00  0.00     0.049 A 
ATOM     52  C   UNL A   1      40.791  31.309  32.110  1.00  0.00     0.074 A 
ATOM     53  C   UNL A   1      45.712  27.961  29.784  1.00  0.00     0.029 A 
ATOM     54  N   UNL A   1      44.715  29.894  30.214  1.00  0.00    -0.354 N 
ATOM     55  N   UNL A   1      41.510  30.553  32.890  1.00  0.00    -0.248 NA
ATOM     56  C   UNL A   1      41.544  32.230  31.267  1.00  0.00     0.031 C 
ATOM     57  C   UNL A   1      45.296  27.995  31.145  1.00  0.00     0.029 A 
ATOM     58  C   UNL A   1      44.563  29.162  31.365  1.00  0.00     0.049 A 
ATOM     59  H   UNL A   1      44.514  30.854  30.127  1.00  0.00     0.167 HD
ATOM     60  C   UNL A   1      42.777  30.592  32.340  1.00  0.00     0.074 A 
ATOM     61  C   UNL A   1      42.776  31.759  31.469  1.00  0.00     0.031 C 
ATOM     62  C   UNL A   1      43.606  29.512  32.405  1.00  0.00     0.031 A 
BRANCH  49  63
ATOM     63  C   UNL A   1      45.240  30.701  27.192  1.00  0.00    -0.014 A 
ATOM     64  C   UNL A   1      44.403  31.746  26.756  1.00  0.00     0.010 A 
ATOM     65  C   UNL A   1      46.627  30.945  27.177  1.00  0.00     0.010 A 
ATOM     66  C   UNL A   1      44.912  32.960  26.298  1.00  0.00     0.020 A 
ATOM     67  C   UNL A   1      47.150  32.177  26.762  1.00  0.00     0.020 A 
ATOM     68  C   UNL A   1      46.284  33.174  26.314  1.00  0.00     0.054 A 
BRANCH  68  69
ATOM     69  S   UNL A   1      46.895  34.797  25.808  1.00  0.00     0.124 S 
ATOM     70  O   UNL A   1      46.244  34.969  24.511  1.00  0.00    -0.237 OA
ATOM     71  O   UNL A   1      46.405  35.662  26.878  1.00  0.00    -0.237 OA
ATOM     72  O   UNL A   1      48.344  34.620  25.764  1.00  0.00    -0.744 OA
ENDBRANCH  68  69
ENDBRANCH  49  63
BRANCH  50  73
ATOM     73  C   UNL A   1      38.361  32.156  32.133  1.00  0.00    -0.014 A 
ATOM     74  C   UNL A   1      37.420  31.984  33.165  1.00  0.00     0.010 A 
ATOM     75  C   UNL A   1      38.104  33.144  31.158  1.00  0.00     0.010 A 
ATOM     76  C   UNL A   1      36.208  32.687  33.157  1.00  0.00     0.020 A 
ATOM     77  C   UNL A   1      36.890  33.849  31.145  1.00  0.00     0.020 A 
ATOM     78  C   UNL A   1      35.930  33.579  32.119  1.00  0.00     0.054 A 
BRANCH  78  79
ATOM     79  S   UNL A   1      34.259  34.283  32.006  1.00  0.00     0.124 S 
ATOM     80  O   UNL A   1      33.871  33.922  30.646  1.00  0.00    -0.237 OA
ATOM     81  O   UNL A   1      33.547  33.581  33.070  1.00  0.00    -0.237 OA
ATOM     82  O   UNL A   1      34.466  35.712  32.237  1.00  0.00    -0.744 OA
ENDBRANCH  78  79
ENDBRANCH  50  73
BRANCH  62  83
ATOM     83  C   UNL A   1      43.388  28.506  33.511  1.00  0.00    -0.014 A 
ATOM     84  C   UNL A   1      42.257  27.675  33.400  1.00  0.00     0.010 A 
ATOM     85  C   UNL A   1      44.167  28.422  34.681  1.00  0.00     0.010 A 
ATOM     86  C   UNL A   1      41.884  26.819  34.435  1.00  0.00     0.020 A 
ATOM     87  C   UNL A   1      43.816  27.538  35.715  1.00  0.00     0.020 A 
ATOM     88  C   UNL A   1      42.660  26.761  35.593  1.00  0.00     0.054 A 
BRANCH  88  89
ATOM     89  S   UNL A   1      42.117  25.662  36.929  1.00  0.00     0.124 S 
ATOM     90  O   UNL A   1      42.701  24.382  36.531  1.00  0.00    -0.237 OA
ATOM     91  O   UNL A   1      42.711  26.273  38.115  1.00  0.00    -0.237 OA
ATOM     92  O   UNL A   1      40.659  25.722  36.869  1.00  0.00    -0.744 OA
ENDBRANCH  88  89
ENDBRANCH  62  83
ENDBRANCH  36  37
ENDBRANCH  29  31
ENDBRANCH  28  29
ENDBRANCH  27  28
ENDBRANCH   1  27
TORSDOF 18
ENDMDL
