MODEL 1
REMARK VINA RESULT:     -11.6      0.000      0.000
REMARK SMILES CN1C(=O)/C(=C\c2ccc(-c3ccccc3C(=O)OCCOC(=O)c3ccc(-c4c5nc(c(-c6ccc(S(=O)(=O)[O-])cc6)c6ccc([nH]6)c(-c6ccc(S(=O)(=O)[O-])cc6)c6nc(c(-c7ccc(S(=O)(=O)[O-])cc7)c7ccc4[nH]7)C=C6)C=C5)cc3)o2)C(=O)[NH+]=C1S
REMARK SMILES IDX 20 1 19 2 17 3 18 4 16 5 11 6 12 7 13 8 15 9 14 10 10 11
REMARK SMILES IDX 7 12 8 13 85 14 9 15 6 16 1 17 2 18 3 19 89 20 4 21 5 22
REMARK SMILES IDX 88 23 86 24 87 26 90 27 21 29 22 30 23 31 24 32 25 33 26 34
REMARK SMILES IDX 84 35 27 36 83 37 28 38 29 39 30 40 77 41 31 42 82 43 76 44
REMARK SMILES IDX 78 45 32 46 81 47 75 48 74 49 33 51 63 52 44 53 62 54 45 55
REMARK SMILES IDX 48 56 61 57 79 58 46 59 47 60 60 62 80 63 49 64 34 65 35 66
REMARK SMILES IDX 43 67 36 68 42 69 37 70 38 71 39 72 40 73 41 74 64 75 65 76
REMARK SMILES IDX 73 77 66 78 72 79 67 80 68 81 69 82 70 83 71 84 50 85 51 86
REMARK SMILES IDX 59 87 52 88 58 89 53 90 54 91 55 92 56 93 57 94
REMARK H PARENT 88 25 90 28 78 50 48 61
REMARK Flexibility Score: inf
ROOT
ATOM      1  C   UNL A   1      33.610  30.048  27.603  1.00  0.00     0.275 C 
ENDROOT
BRANCH   1   2
ATOM      2  O   UNL A   1      33.449  28.714  27.078  1.00  0.00    -0.458 OA
BRANCH   2   3
ATOM      3  C   UNL A   1      32.196  28.197  27.046  1.00  0.00     0.338 C 
ATOM      4  O   UNL A   1      31.503  27.930  28.014  1.00  0.00    -0.246 OA
BRANCH   3   5
ATOM      5  C   UNL A   1      31.719  28.028  25.646  1.00  0.00     0.071 A 
ATOM      6  C   UNL A   1      31.706  26.782  24.997  1.00  0.00     0.032 A 
ATOM      7  C   UNL A   1      31.228  26.713  23.675  1.00  0.00     0.013 A 
ATOM      8  C   UNL A   1      30.785  27.858  23.008  1.00  0.00     0.001 A 
ATOM      9  C   UNL A   1      31.228  29.164  24.981  1.00  0.00     0.016 A 
ATOM     10  C   UNL A   1      30.790  29.085  23.659  1.00  0.00     0.001 A 
BRANCH   6  11
ATOM     11  C   UNL A   1      32.127  25.564  25.664  1.00  0.00     0.135 A 
ATOM     12  C   UNL A   1      33.646  24.051  26.182  1.00  0.00     0.128 A 
ATOM     13  C   UNL A   1      32.519  23.791  26.951  1.00  0.00     0.051 A 
ATOM     14  O   UNL A   1      33.411  25.174  25.437  1.00  0.00    -0.457 OA
ATOM     15  C   UNL A   1      31.522  24.701  26.550  1.00  0.00     0.051 A 
BRANCH  12  16
ATOM     16  C   UNL A   1      34.827  23.280  26.068  1.00  0.00     0.071 C 
ATOM     17  C   UNL A   1      32.340  19.603  24.136  1.00  0.00     0.301 C 
ATOM     18  N   UNL A   1      33.599  20.192  24.586  1.00  0.00    -0.189 N 
ATOM     19  C   UNL A   1      33.624  21.559  24.730  1.00  0.00     0.349 C 
ATOM     20  C   UNL A   1      34.763  19.482  24.732  1.00  0.00     0.318 C 
ATOM     21  O   UNL A   1      32.749  22.282  24.261  1.00  0.00    -0.240 OA
ATOM     22  C   UNL A   1      34.812  22.088  25.441  1.00  0.00     0.157 C 
ATOM     23  N   UNL A   1      35.889  19.952  25.129  1.00  0.00    -0.200 N 
ATOM     24  C   UNL A   1      36.028  21.254  25.519  1.00  0.00     0.347 C 
ATOM     25  H   UNL A   1      36.674  19.357  25.154  1.00  0.00     0.316 HD
ATOM     26  O   UNL A   1      37.081  21.694  25.953  1.00  0.00    -0.241 OA
BRANCH  20  27
ATOM     27  S   UNL A   1      34.753  17.782  24.325  1.00  0.00    -0.055 SA
ATOM     28  H   UNL A   1      34.155  17.081  25.324  1.00  0.00     0.116 HD
ENDBRANCH  20  27
ENDBRANCH  12  16
ENDBRANCH   6  11
ENDBRANCH   3   5
ENDBRANCH   2   3
ENDBRANCH   1   2
BRANCH   1  29
ATOM     29  C   UNL A   1      35.088  30.421  27.683  1.00  0.00     0.275 C 
BRANCH  29  30
ATOM     30  O   UNL A   1      35.861  29.261  28.026  1.00  0.00    -0.458 OA
BRANCH  30  31
ATOM     31  C   UNL A   1      36.774  29.482  28.998  1.00  0.00     0.338 C 
ATOM     32  O   UNL A   1      36.575  29.871  30.136  1.00  0.00    -0.246 OA
BRANCH  31  33
ATOM     33  C   UNL A   1      38.091  29.034  28.544  1.00  0.00     0.060 A 
ATOM     34  C   UNL A   1      38.908  28.422  29.485  1.00  0.00     0.016 A 
ATOM     35  C   UNL A   1      38.589  29.382  27.294  1.00  0.00     0.016 A 
ATOM     36  C   UNL A   1      40.264  28.269  29.241  1.00  0.00     0.010 A 
ATOM     37  C   UNL A   1      39.934  29.124  27.007  1.00  0.00     0.010 A 
ATOM     38  C   UNL A   1      40.800  28.616  27.994  1.00  0.00    -0.014 A 
BRANCH  38  39
ATOM     39  C   UNL A   1      42.268  28.489  27.761  1.00  0.00     0.031 A 
ATOM     40  C   UNL A   1      43.192  29.634  28.091  1.00  0.00     0.074 A 
ATOM     41  C   UNL A   1      42.778  27.333  27.287  1.00  0.00     0.049 A 
ATOM     42  N   UNL A   1      44.474  29.755  27.855  1.00  0.00    -0.248 NA
ATOM     43  C   UNL A   1      42.597  30.807  28.755  1.00  0.00     0.031 C 
ATOM     44  C   UNL A   1      42.002  26.131  26.963  1.00  0.00     0.029 A 
ATOM     45  N   UNL A   1      44.072  26.971  27.007  1.00  0.00    -0.354 N 
ATOM     46  C   UNL A   1      44.824  31.033  28.281  1.00  0.00     0.074 A 
ATOM     47  C   UNL A   1      43.615  31.656  28.776  1.00  0.00     0.031 C 
ATOM     48  C   UNL A   1      42.836  25.154  26.585  1.00  0.00     0.029 A 
ATOM     49  C   UNL A   1      44.193  25.684  26.535  1.00  0.00     0.049 A 
ATOM     50  H   UNL A   1      44.839  27.574  27.131  1.00  0.00     0.167 HD
ATOM     51  C   UNL A   1      46.038  31.632  28.261  1.00  0.00     0.031 A 
ATOM     52  C   UNL A   1      45.264  25.010  26.072  1.00  0.00     0.031 A 
ATOM     53  C   UNL A   1      47.243  30.989  27.798  1.00  0.00     0.049 A 
ATOM     54  C   UNL A   1      46.594  25.704  26.032  1.00  0.00     0.074 A 
ATOM     55  C   UNL A   1      48.529  31.499  27.760  1.00  0.00     0.029 A 
ATOM     56  N   UNL A   1      47.313  29.696  27.302  1.00  0.00    -0.354 N 
ATOM     57  N   UNL A   1      46.898  26.923  26.411  1.00  0.00    -0.248 NA
ATOM     58  C   UNL A   1      47.725  24.935  25.498  1.00  0.00     0.031 C 
ATOM     59  C   UNL A   1      49.364  30.537  27.182  1.00  0.00     0.029 A 
ATOM     60  C   UNL A   1      48.615  29.398  26.934  1.00  0.00     0.049 A 
ATOM     61  H   UNL A   1      46.549  29.080  27.222  1.00  0.00     0.167 HD
ATOM     62  C   UNL A   1      48.263  27.059  26.187  1.00  0.00     0.074 A 
ATOM     63  C   UNL A   1      48.725  25.791  25.656  1.00  0.00     0.031 C 
ATOM     64  C   UNL A   1      49.061  28.133  26.404  1.00  0.00     0.031 A 
BRANCH  51  65
ATOM     65  C   UNL A   1      46.122  33.073  28.704  1.00  0.00    -0.014 A 
ATOM     66  C   UNL A   1      45.964  34.140  27.800  1.00  0.00     0.010 A 
ATOM     67  C   UNL A   1      46.330  33.363  30.066  1.00  0.00     0.010 A 
ATOM     68  C   UNL A   1      46.060  35.464  28.242  1.00  0.00     0.020 A 
ATOM     69  C   UNL A   1      46.393  34.684  30.517  1.00  0.00     0.020 A 
ATOM     70  C   UNL A   1      46.276  35.727  29.599  1.00  0.00     0.054 A 
BRANCH  70  71
ATOM     71  S   UNL A   1      46.379  37.454  30.147  1.00  0.00     0.124 S 
ATOM     72  O   UNL A   1      47.012  38.098  28.998  1.00  0.00    -0.237 OA
ATOM     73  O   UNL A   1      44.979  37.803  30.369  1.00  0.00    -0.237 OA
ATOM     74  O   UNL A   1      47.202  37.388  31.353  1.00  0.00    -0.744 OA
ENDBRANCH  70  71
ENDBRANCH  51  65
BRANCH  52  75
ATOM     75  C   UNL A   1      45.100  23.616  25.574  1.00  0.00    -0.014 A 
ATOM     76  C   UNL A   1      44.734  23.364  24.240  1.00  0.00     0.010 A 
ATOM     77  C   UNL A   1      45.345  22.526  26.430  1.00  0.00     0.010 A 
ATOM     78  C   UNL A   1      44.609  22.051  23.776  1.00  0.00     0.020 A 
ATOM     79  C   UNL A   1      45.258  21.213  25.961  1.00  0.00     0.020 A 
ATOM     80  C   UNL A   1      44.879  20.984  24.638  1.00  0.00     0.054 A 
BRANCH  80  81
ATOM     81  S   UNL A   1      44.773  19.291  23.996  1.00  0.00     0.124 S 
ATOM     82  O   UNL A   1      43.693  18.727  24.801  1.00  0.00    -0.237 OA
ATOM     83  O   UNL A   1      44.464  19.508  22.585  1.00  0.00    -0.237 OA
ATOM     84  O   UNL A   1      46.102  18.741  24.257  1.00  0.00    -0.744 OA
ENDBRANCH  80  81
ENDBRANCH  52  75
BRANCH  64  85
ATOM     85  C   UNL A   1      50.531  27.967  26.122  1.00  0.00    -0.014 A 
ATOM     86  C   UNL A   1      51.100  28.373  24.901  1.00  0.00     0.010 A 
ATOM     87  C   UNL A   1      51.361  27.418  27.116  1.00  0.00     0.010 A 
ATOM     88  C   UNL A   1      52.465  28.188  24.665  1.00  0.00     0.020 A 
ATOM     89  C   UNL A   1      52.732  27.265  26.896  1.00  0.00     0.020 A 
ATOM     90  C   UNL A   1      53.272  27.634  25.663  1.00  0.00     0.054 A 
BRANCH  90  91
ATOM     91  S   UNL A   1      55.044  27.426  25.340  1.00  0.00     0.124 S 
ATOM     92  O   UNL A   1      55.425  28.757  24.875  1.00  0.00    -0.237 OA
ATOM     93  O   UNL A   1      55.565  27.045  26.651  1.00  0.00    -0.237 OA
ATOM     94  O   UNL A   1      55.092  26.376  24.326  1.00  0.00    -0.744 OA
ENDBRANCH  90  91
ENDBRANCH  64  85
ENDBRANCH  38  39
ENDBRANCH  31  33
ENDBRANCH  30  31
ENDBRANCH  29  30
ENDBRANCH   1  29
TORSDOF 17
ENDMDL
MODEL 2
REMARK VINA RESULT:     -11.4      3.135      4.029
REMARK SMILES CN1C(=O)/C(=C\c2ccc(-c3ccccc3C(=O)OCCOC(=O)c3ccc(-c4c5nc(c(-c6ccc(S(=O)(=O)[O-])cc6)c6ccc([nH]6)c(-c6ccc(S(=O)(=O)[O-])cc6)c6nc(c(-c7ccc(S(=O)(=O)[O-])cc7)c7ccc4[nH]7)C=C6)C=C5)cc3)o2)C(=O)[NH+]=C1S
REMARK SMILES IDX 20 1 19 2 17 3 18 4 16 5 11 6 12 7 13 8 15 9 14 10 10 11
REMARK SMILES IDX 7 12 8 13 85 14 9 15 6 16 1 17 2 18 3 19 89 20 4 21 5 22
REMARK SMILES IDX 88 23 86 24 87 26 90 27 21 29 22 30 23 31 24 32 25 33 26 34
REMARK SMILES IDX 84 35 27 36 83 37 28 38 29 39 30 40 77 41 31 42 82 43 76 44
REMARK SMILES IDX 78 45 32 46 81 47 75 48 74 49 33 51 63 52 44 53 62 54 45 55
REMARK SMILES IDX 48 56 61 57 79 58 46 59 47 60 60 62 80 63 49 64 34 65 35 66
REMARK SMILES IDX 43 67 36 68 42 69 37 70 38 71 39 72 40 73 41 74 64 75 65 76
REMARK SMILES IDX 73 77 66 78 72 79 67 80 68 81 69 82 70 83 71 84 50 85 51 86
REMARK SMILES IDX 59 87 52 88 58 89 53 90 54 91 55 92 56 93 57 94
REMARK H PARENT 88 25 90 28 78 50 48 61
REMARK Flexibility Score: inf
ROOT
ATOM      1  C   UNL A   1      32.192  28.639  25.651  1.00  0.00     0.275 C 
ENDROOT
BRANCH   1   2
ATOM      2  O   UNL A   1      33.048  27.971  24.702  1.00  0.00    -0.458 OA
BRANCH   2   3
ATOM      3  C   UNL A   1      32.571  27.785  23.446  1.00  0.00     0.338 C 
ATOM      4  O   UNL A   1      33.230  27.482  22.464  1.00  0.00    -0.246 OA
BRANCH   3   5
ATOM      5  C   UNL A   1      31.093  27.951  23.401  1.00  0.00     0.071 A 
ATOM      6  C   UNL A   1      30.205  26.876  23.574  1.00  0.00     0.032 A 
ATOM      7  C   UNL A   1      28.821  27.126  23.526  1.00  0.00     0.013 A 
ATOM      8  C   UNL A   1      28.329  28.415  23.301  1.00  0.00     0.001 A 
ATOM      9  C   UNL A   1      30.586  29.249  23.221  1.00  0.00     0.016 A 
ATOM     10  C   UNL A   1      29.212  29.476  23.141  1.00  0.00     0.001 A 
BRANCH   6  11
ATOM     11  C   UNL A   1      30.674  25.528  23.842  1.00  0.00     0.135 A 
ATOM     12  C   UNL A   1      31.600  24.011  25.148  1.00  0.00     0.128 A 
ATOM     13  C   UNL A   1      31.109  23.354  24.028  1.00  0.00     0.051 A 
ATOM     14  O   UNL A   1      31.277  25.337  25.046  1.00  0.00    -0.457 OA
ATOM     15  C   UNL A   1      30.602  24.336  23.156  1.00  0.00     0.051 A 
BRANCH  12  16
ATOM     16  C   UNL A   1      32.386  23.484  26.200  1.00  0.00     0.071 C 
ATOM     17  C   UNL A   1      36.214  23.100  23.262  1.00  0.00     0.301 C 
ATOM     18  N   UNL A   1      35.596  22.942  24.576  1.00  0.00    -0.189 N 
ATOM     19  C   UNL A   1      34.441  23.651  24.805  1.00  0.00     0.349 C 
ATOM     20  C   UNL A   1      36.172  22.249  25.610  1.00  0.00     0.318 C 
ATOM     21  O   UNL A   1      34.081  24.568  24.072  1.00  0.00    -0.240 OA
ATOM     22  C   UNL A   1      33.702  23.260  26.029  1.00  0.00     0.157 C 
ATOM     23  N   UNL A   1      35.668  22.077  26.777  1.00  0.00    -0.200 N 
ATOM     24  C   UNL A   1      34.422  22.539  27.097  1.00  0.00     0.347 C 
ATOM     25  H   UNL A   1      36.192  21.597  27.460  1.00  0.00     0.316 HD
ATOM     26  O   UNL A   1      33.911  22.329  28.186  1.00  0.00    -0.241 OA
BRANCH  20  27
ATOM     27  S   UNL A   1      37.751  21.544  25.357  1.00  0.00    -0.055 SA
ATOM     28  H   UNL A   1      37.929  21.297  24.031  1.00  0.00     0.116 HD
ENDBRANCH  20  27
ENDBRANCH  12  16
ENDBRANCH   6  11
ENDBRANCH   3   5
ENDBRANCH   2   3
ENDBRANCH   1   2
BRANCH   1  29
ATOM     29  C   UNL A   1      32.667  28.382  27.079  1.00  0.00     0.275 C 
BRANCH  29  30
ATOM     30  O   UNL A   1      34.081  28.616  27.166  1.00  0.00    -0.458 OA
BRANCH  30  31
ATOM     31  C   UNL A   1      34.403  29.859  27.587  1.00  0.00     0.338 C 
ATOM     32  O   UNL A   1      33.676  30.835  27.662  1.00  0.00    -0.246 OA
BRANCH  31  33
ATOM     33  C   UNL A   1      35.769  29.860  28.114  1.00  0.00     0.060 A 
ATOM     34  C   UNL A   1      36.793  30.111  27.211  1.00  0.00     0.016 A 
ATOM     35  C   UNL A   1      36.053  29.429  29.405  1.00  0.00     0.016 A 
ATOM     36  C   UNL A   1      38.106  29.811  27.541  1.00  0.00     0.010 A 
ATOM     37  C   UNL A   1      37.389  29.232  29.773  1.00  0.00     0.010 A 
ATOM     38  C   UNL A   1      38.426  29.368  28.830  1.00  0.00    -0.014 A 
BRANCH  38  39
ATOM     39  C   UNL A   1      39.835  29.005  29.156  1.00  0.00     0.031 A 
ATOM     40  C   UNL A   1      40.725  29.984  29.879  1.00  0.00     0.074 A 
ATOM     41  C   UNL A   1      40.307  27.782  28.837  1.00  0.00     0.049 A 
ATOM     42  N   UNL A   1      42.004  29.895  30.149  1.00  0.00    -0.248 NA
ATOM     43  C   UNL A   1      40.106  31.237  30.343  1.00  0.00     0.031 C 
ATOM     44  C   UNL A   1      39.541  26.722  28.172  1.00  0.00     0.029 A 
ATOM     45  N   UNL A   1      41.541  27.213  29.041  1.00  0.00    -0.354 N 
ATOM     46  C   UNL A   1      42.353  31.099  30.754  1.00  0.00     0.074 A 
ATOM     47  C   UNL A   1      41.155  31.909  30.797  1.00  0.00     0.031 C 
ATOM     48  C   UNL A   1      40.300  25.622  28.074  1.00  0.00     0.029 A 
ATOM     49  C   UNL A   1      41.637  25.924  28.570  1.00  0.00     0.049 A 
ATOM     50  H   UNL A   1      42.284  27.683  29.481  1.00  0.00     0.167 HD
ATOM     51  C   UNL A   1      43.559  31.492  31.228  1.00  0.00     0.031 A 
ATOM     52  C   UNL A   1      42.689  25.086  28.500  1.00  0.00     0.031 A 
ATOM     53  C   UNL A   1      44.738  30.662  31.211  1.00  0.00     0.049 A 
ATOM     54  C   UNL A   1      44.022  25.554  29.005  1.00  0.00     0.074 A 
ATOM     55  C   UNL A   1      46.003  30.956  31.690  1.00  0.00     0.029 A 
ATOM     56  N   UNL A   1      44.796  29.375  30.698  1.00  0.00    -0.354 N 
ATOM     57  N   UNL A   1      44.339  26.707  29.546  1.00  0.00    -0.248 NA
ATOM     58  C   UNL A   1      45.142  24.611  28.888  1.00  0.00     0.031 C 
ATOM     59  C   UNL A   1      46.840  29.871  31.409  1.00  0.00     0.029 A 
ATOM     60  C   UNL A   1      46.079  28.869  30.827  1.00  0.00     0.049 A 
ATOM     61  H   UNL A   1      44.036  28.891  30.299  1.00  0.00     0.167 HD
ATOM     62  C   UNL A   1      45.690  26.619  29.859  1.00  0.00     0.074 A 
ATOM     63  C   UNL A   1      46.123  25.293  29.462  1.00  0.00     0.031 C 
ATOM     64  C   UNL A   1      46.497  27.549  30.426  1.00  0.00     0.031 A 
BRANCH  51  65
ATOM     65  C   UNL A   1      43.684  32.900  31.759  1.00  0.00    -0.014 A 
ATOM     66  C   UNL A   1      43.348  33.228  33.085  1.00  0.00     0.010 A 
ATOM     67  C   UNL A   1      44.182  33.912  30.916  1.00  0.00     0.010 A 
ATOM     68  C   UNL A   1      43.463  34.546  33.541  1.00  0.00     0.020 A 
ATOM     69  C   UNL A   1      44.331  35.222  31.377  1.00  0.00     0.020 A 
ATOM     70  C   UNL A   1      43.953  35.535  32.682  1.00  0.00     0.054 A 
BRANCH  70  71
ATOM     71  S   UNL A   1      44.108  37.233  33.305  1.00  0.00     0.124 S 
ATOM     72  O   UNL A   1      43.139  37.242  34.399  1.00  0.00    -0.237 OA
ATOM     73  O   UNL A   1      45.510  37.298  33.708  1.00  0.00    -0.237 OA
ATOM     74  O   UNL A   1      43.754  38.060  32.154  1.00  0.00    -0.744 OA
ENDBRANCH  70  71
ENDBRANCH  51  65
BRANCH  52  75
ATOM     75  C   UNL A   1      42.519  23.737  27.892  1.00  0.00    -0.014 A 
ATOM     76  C   UNL A   1      42.727  23.534  26.516  1.00  0.00     0.010 A 
ATOM     77  C   UNL A   1      42.180  22.634  28.699  1.00  0.00     0.010 A 
ATOM     78  C   UNL A   1      42.592  22.258  25.960  1.00  0.00     0.020 A 
ATOM     79  C   UNL A   1      42.079  21.352  28.154  1.00  0.00     0.020 A 
ATOM     80  C   UNL A   1      42.275  21.174  26.784  1.00  0.00     0.054 A 
BRANCH  80  81
ATOM     81  S   UNL A   1      42.167  19.519  26.051  1.00  0.00     0.124 S 
ATOM     82  O   UNL A   1      43.077  19.627  24.916  1.00  0.00    -0.237 OA
ATOM     83  O   UNL A   1      42.616  18.660  27.145  1.00  0.00    -0.237 OA
ATOM     84  O   UNL A   1      40.751  19.388  25.709  1.00  0.00    -0.744 OA
ENDBRANCH  80  81
ENDBRANCH  52  75
BRANCH  64  85
ATOM     85  C   UNL A   1      47.922  27.146  30.706  1.00  0.00    -0.014 A 
ATOM     86  C   UNL A   1      48.943  27.337  29.758  1.00  0.00     0.010 A 
ATOM     87  C   UNL A   1      48.243  26.592  31.958  1.00  0.00     0.010 A 
ATOM     88  C   UNL A   1      50.251  26.935  30.043  1.00  0.00     0.020 A 
ATOM     89  C   UNL A   1      49.555  26.222  32.259  1.00  0.00     0.020 A 
ATOM     90  C   UNL A   1      50.549  26.379  31.291  1.00  0.00     0.054 A 
BRANCH  90  91
ATOM     91  S   UNL A   1      52.258  25.888  31.645  1.00  0.00     0.124 S 
ATOM     92  O   UNL A   1      52.920  26.157  30.371  1.00  0.00    -0.237 OA
ATOM     93  O   UNL A   1      52.625  26.777  32.744  1.00  0.00    -0.237 OA
ATOM     94  O   UNL A   1      52.147  24.476  32.002  1.00  0.00    -0.744 OA
ENDBRANCH  90  91
ENDBRANCH  64  85
ENDBRANCH  38  39
ENDBRANCH  31  33
ENDBRANCH  30  31
ENDBRANCH  29  30
ENDBRANCH   1  29
TORSDOF 17
ENDMDL
MODEL 3
REMARK VINA RESULT:     -11.3      5.318      9.904
REMARK SMILES CN1C(=O)/C(=C\c2ccc(-c3ccccc3C(=O)OCCOC(=O)c3ccc(-c4c5nc(c(-c6ccc(S(=O)(=O)[O-])cc6)c6ccc([nH]6)c(-c6ccc(S(=O)(=O)[O-])cc6)c6nc(c(-c7ccc(S(=O)(=O)[O-])cc7)c7ccc4[nH]7)C=C6)C=C5)cc3)o2)C(=O)[NH+]=C1S
REMARK SMILES IDX 20 1 19 2 17 3 18 4 16 5 11 6 12 7 13 8 15 9 14 10 10 11
REMARK SMILES IDX 7 12 8 13 85 14 9 15 6 16 1 17 2 18 3 19 89 20 4 21 5 22
REMARK SMILES IDX 88 23 86 24 87 26 90 27 21 29 22 30 23 31 24 32 25 33 26 34
REMARK SMILES IDX 84 35 27 36 83 37 28 38 29 39 30 40 77 41 31 42 82 43 76 44
REMARK SMILES IDX 78 45 32 46 81 47 75 48 74 49 33 51 63 52 44 53 62 54 45 55
REMARK SMILES IDX 48 56 61 57 79 58 46 59 47 60 60 62 80 63 49 64 34 65 35 66
REMARK SMILES IDX 43 67 36 68 42 69 37 70 38 71 39 72 40 73 41 74 64 75 65 76
REMARK SMILES IDX 73 77 66 78 72 79 67 80 68 81 69 82 70 83 71 84 50 85 51 86
REMARK SMILES IDX 59 87 52 88 58 89 53 90 54 91 55 92 56 93 57 94
REMARK H PARENT 88 25 90 28 78 50 48 61
REMARK Flexibility Score: inf
ROOT
ATOM      1  C   UNL A   1      33.886  28.676  25.841  1.00  0.00     0.275 C 
ENDROOT
BRANCH   1   2
ATOM      2  O   UNL A   1      32.904  27.623  25.921  1.00  0.00    -0.458 OA
BRANCH   2   3
ATOM      3  C   UNL A   1      32.713  26.855  24.820  1.00  0.00     0.338 C 
ATOM      4  O   UNL A   1      33.504  26.047  24.360  1.00  0.00    -0.246 OA
BRANCH   3   5
ATOM      5  C   UNL A   1      31.362  27.077  24.236  1.00  0.00     0.071 A 
ATOM      6  C   UNL A   1      30.295  26.185  24.435  1.00  0.00     0.032 A 
ATOM      7  C   UNL A   1      29.048  26.481  23.854  1.00  0.00     0.013 A 
ATOM      8  C   UNL A   1      28.867  27.631  23.082  1.00  0.00     0.001 A 
ATOM      9  C   UNL A   1      31.155  28.254  23.496  1.00  0.00     0.016 A 
ATOM     10  C   UNL A   1      29.923  28.515  22.897  1.00  0.00     0.001 A 
BRANCH   6  11
ATOM     11  C   UNL A   1      30.432  24.996  25.256  1.00  0.00     0.135 A 
ATOM     12  C   UNL A   1      31.247  22.986  25.656  1.00  0.00     0.128 A 
ATOM     13  C   UNL A   1      30.599  23.410  26.809  1.00  0.00     0.051 A 
ATOM     14  O   UNL A   1      31.184  23.992  24.731  1.00  0.00    -0.457 OA
ATOM     15  C   UNL A   1      30.001  24.652  26.519  1.00  0.00     0.051 A 
BRANCH  12  16
ATOM     16  C   UNL A   1      31.813  21.718  25.384  1.00  0.00     0.071 C 
ATOM     17  C   UNL A   1      36.280  23.501  25.935  1.00  0.00     0.301 C 
ATOM     18  N   UNL A   1      35.380  22.384  25.657  1.00  0.00    -0.189 N 
ATOM     19  C   UNL A   1      34.070  22.537  26.044  1.00  0.00     0.349 C 
ATOM     20  C   UNL A   1      35.797  21.172  25.169  1.00  0.00     0.318 C 
ATOM     21  O   UNL A   1      33.715  23.426  26.814  1.00  0.00    -0.240 OA
ATOM     22  C   UNL A   1      33.139  21.517  25.508  1.00  0.00     0.157 C 
ATOM     23  N   UNL A   1      35.046  20.167  24.904  1.00  0.00    -0.200 N 
ATOM     24  C   UNL A   1      33.686  20.231  25.032  1.00  0.00     0.347 C 
ATOM     25  H   UNL A   1      35.460  19.327  24.599  1.00  0.00     0.316 HD
ATOM     26  O   UNL A   1      32.960  19.298  24.726  1.00  0.00    -0.241 OA
BRANCH  20  27
ATOM     27  S   UNL A   1      37.507  20.933  24.896  1.00  0.00    -0.055 SA
ATOM     28  H   UNL A   1      38.187  21.174  26.049  1.00  0.00     0.116 HD
ENDBRANCH  20  27
ENDBRANCH  12  16
ENDBRANCH   6  11
ENDBRANCH   3   5
ENDBRANCH   2   3
ENDBRANCH   1   2
BRANCH   1  29
ATOM     29  C   UNL A   1      33.251  30.030  26.148  1.00  0.00     0.275 C 
BRANCH  29  30
ATOM     30  O   UNL A   1      33.350  30.302  27.554  1.00  0.00    -0.458 OA
BRANCH  30  31
ATOM     31  C   UNL A   1      34.097  31.389  27.848  1.00  0.00     0.338 C 
ATOM     32  O   UNL A   1      33.727  32.547  27.940  1.00  0.00    -0.246 OA
BRANCH  31  33
ATOM     33  C   UNL A   1      35.452  30.970  28.209  1.00  0.00     0.060 A 
ATOM     34  C   UNL A   1      35.582  29.756  28.870  1.00  0.00     0.016 A 
ATOM     35  C   UNL A   1      36.537  31.830  28.088  1.00  0.00     0.016 A 
ATOM     36  C   UNL A   1      36.759  29.442  29.531  1.00  0.00     0.010 A 
ATOM     37  C   UNL A   1      37.759  31.460  28.661  1.00  0.00     0.010 A 
ATOM     38  C   UNL A   1      37.870  30.289  29.436  1.00  0.00    -0.014 A 
BRANCH  38  39
ATOM     39  C   UNL A   1      39.115  29.962  30.190  1.00  0.00     0.031 A 
ATOM     40  C   UNL A   1      40.061  28.907  29.674  1.00  0.00     0.074 A 
ATOM     41  C   UNL A   1      39.416  30.636  31.319  1.00  0.00     0.049 A 
ATOM     42  N   UNL A   1      41.129  28.407  30.243  1.00  0.00    -0.248 NA
ATOM     43  C   UNL A   1      39.761  28.322  28.356  1.00  0.00     0.031 C 
ATOM     44  C   UNL A   1      38.608  31.710  31.909  1.00  0.00     0.029 A 
ATOM     45  N   UNL A   1      40.490  30.532  32.168  1.00  0.00    -0.354 N 
ATOM     46  C   UNL A   1      41.588  27.410  29.387  1.00  0.00     0.074 A 
ATOM     47  C   UNL A   1      40.674  27.365  28.266  1.00  0.00     0.031 C 
ATOM     48  C   UNL A   1      39.240  32.198  32.984  1.00  0.00     0.029 A 
ATOM     49  C   UNL A   1      40.441  31.409  33.226  1.00  0.00     0.049 A 
ATOM     50  H   UNL A   1      41.224  29.891  32.032  1.00  0.00     0.167 HD
ATOM     51  C   UNL A   1      42.670  26.607  29.522  1.00  0.00     0.031 A 
ATOM     52  C   UNL A   1      41.244  31.544  34.300  1.00  0.00     0.031 A 
ATOM     53  C   UNL A   1      43.595  26.684  30.626  1.00  0.00     0.049 A 
ATOM     54  C   UNL A   1      42.421  30.623  34.443  1.00  0.00     0.074 A 
ATOM     55  C   UNL A   1      44.737  25.934  30.845  1.00  0.00     0.029 A 
ATOM     56  N   UNL A   1      43.489  27.568  31.689  1.00  0.00    -0.354 N 
ATOM     57  N   UNL A   1      42.821  29.667  33.639  1.00  0.00    -0.248 NA
ATOM     58  C   UNL A   1      43.252  30.796  35.641  1.00  0.00     0.031 C 
ATOM     59  C   UNL A   1      45.287  26.320  32.072  1.00  0.00     0.029 A 
ATOM     60  C   UNL A   1      44.532  27.367  32.579  1.00  0.00     0.049 A 
ATOM     61  H   UNL A   1      42.777  28.239  31.798  1.00  0.00     0.167 HD
ATOM     62  C   UNL A   1      43.968  29.141  34.219  1.00  0.00     0.074 A 
ATOM     63  C   UNL A   1      44.205  29.898  35.433  1.00  0.00     0.031 C 
ATOM     64  C   UNL A   1      44.755  28.125  33.785  1.00  0.00     0.031 A 
BRANCH  51  65
ATOM     65  C   UNL A   1      42.890  25.536  28.480  1.00  0.00    -0.014 A 
ATOM     66  C   UNL A   1      43.525  25.810  27.255  1.00  0.00     0.010 A 
ATOM     67  C   UNL A   1      42.479  24.217  28.751  1.00  0.00     0.010 A 
ATOM     68  C   UNL A   1      43.701  24.797  26.305  1.00  0.00     0.020 A 
ATOM     69  C   UNL A   1      42.684  23.196  27.820  1.00  0.00     0.020 A 
ATOM     70  C   UNL A   1      43.276  23.496  26.594  1.00  0.00     0.054 A 
BRANCH  70  71
ATOM     71  S   UNL A   1      43.532  22.199  25.351  1.00  0.00     0.124 S 
ATOM     72  O   UNL A   1      44.764  21.569  25.823  1.00  0.00    -0.237 OA
ATOM     73  O   UNL A   1      42.325  21.389  25.482  1.00  0.00    -0.237 OA
ATOM     74  O   UNL A   1      43.653  22.936  24.097  1.00  0.00    -0.744 OA
ENDBRANCH  70  71
ENDBRANCH  51  65
BRANCH  52  75
ATOM     75  C   UNL A   1      40.928  32.567  35.335  1.00  0.00    -0.014 A 
ATOM     76  C   UNL A   1      40.113  32.252  36.436  1.00  0.00     0.010 A 
ATOM     77  C   UNL A   1      41.474  33.862  35.240  1.00  0.00     0.010 A 
ATOM     78  C   UNL A   1      39.845  33.213  37.417  1.00  0.00     0.020 A 
ATOM     79  C   UNL A   1      41.238  34.813  36.235  1.00  0.00     0.020 A 
ATOM     80  C   UNL A   1      40.416  34.486  37.313  1.00  0.00     0.054 A 
BRANCH  80  81
ATOM     81  S   UNL A   1      40.105  35.695  38.629  1.00  0.00     0.124 S 
ATOM     82  O   UNL A   1      39.040  35.050  39.391  1.00  0.00    -0.237 OA
ATOM     83  O   UNL A   1      41.402  35.775  39.295  1.00  0.00    -0.237 OA
ATOM     84  O   UNL A   1      39.712  36.900  37.900  1.00  0.00    -0.744 OA
ENDBRANCH  80  81
ENDBRANCH  52  75
BRANCH  64  85
ATOM     85  C   UNL A   1      45.984  27.811  34.598  1.00  0.00    -0.014 A 
ATOM     86  C   UNL A   1      45.960  26.859  35.634  1.00  0.00     0.010 A 
ATOM     87  C   UNL A   1      47.192  28.463  34.295  1.00  0.00     0.010 A 
ATOM     88  C   UNL A   1      47.113  26.604  36.381  1.00  0.00     0.020 A 
ATOM     89  C   UNL A   1      48.354  28.184  35.017  1.00  0.00     0.020 A 
ATOM     90  C   UNL A   1      48.302  27.269  36.069  1.00  0.00     0.054 A 
BRANCH  90  91
ATOM     91  S   UNL A   1      49.790  26.902  37.038  1.00  0.00     0.124 S 
ATOM     92  O   UNL A   1      49.823  25.442  37.002  1.00  0.00    -0.237 OA
ATOM     93  O   UNL A   1      50.841  27.574  36.277  1.00  0.00    -0.237 OA
ATOM     94  O   UNL A   1      49.505  27.485  38.347  1.00  0.00    -0.744 OA
ENDBRANCH  90  91
ENDBRANCH  64  85
ENDBRANCH  38  39
ENDBRANCH  31  33
ENDBRANCH  30  31
ENDBRANCH  29  30
ENDBRANCH   1  29
TORSDOF 17
ENDMDL
