MODEL 1
REMARK VINA RESULT:      -9.3      0.000      0.000
REMARK SMILES C#CC[N@@H+](CC(=O)Nc1c(Cl)cccc1Cl)CC(=O)OCCOC(=O)c1ccc(-c2c3nc(c(-c4ccc(S(=O)(=O)[O-])cc4)c4ccc([nH]4)c(-c4ccc(S(=O)(=O)[O-])cc4)c4nc(c(-c5ccc(S(=O)(=O)[O-])cc5)c5ccc2[nH]5)C=C4)C=C3)cc1
REMARK SMILES IDX 21 1 20 2 18 3 19 4 17 5 4 6 3 8 2 9 1 10 5 11 6 12 7 13
REMARK SMILES IDX 8 14 9 16 10 17 15 18 11 19 12 20 14 21 16 22 13 23 22 24
REMARK SMILES IDX 23 25 24 26 25 27 26 28 27 29 85 30 28 31 84 32 29 33 30 34
REMARK SMILES IDX 31 35 78 36 32 37 83 38 77 39 79 40 33 41 82 42 76 43 75 44
REMARK SMILES IDX 34 46 64 47 45 48 63 49 46 50 49 51 62 52 80 53 47 54 48 55
REMARK SMILES IDX 61 57 81 58 50 59 35 60 36 61 44 62 37 63 43 64 38 65 39 66
REMARK SMILES IDX 40 67 41 68 42 69 65 70 66 71 74 72 67 73 73 74 68 75 69 76
REMARK SMILES IDX 70 77 71 78 72 79 51 80 52 81 60 82 53 83 59 84 54 85 55 86
REMARK SMILES IDX 56 87 57 88 58 89
REMARK H PARENT 4 7 8 15 79 45 49 56
REMARK Flexibility Score: inf
ROOT
ATOM      1  C   UNL A   1      32.280  29.730  25.531  1.00  0.00     0.274 C 
ENDROOT
BRANCH   1   2
ATOM      2  O   UNL A   1      31.039  29.172  25.046  1.00  0.00    -0.458 OA
BRANCH   2   3
ATOM      3  C   UNL A   1      31.041  28.638  23.806  1.00  0.00     0.361 C 
ATOM      4  O   UNL A   1      31.338  29.275  22.799  1.00  0.00    -0.245 OA
BRANCH   3   5
ATOM      5  C   UNL A   1      30.472  27.229  23.714  1.00  0.00     0.387 C 
BRANCH   5   6
ATOM      6  N   UNL A   1      31.327  26.043  23.773  1.00  0.00    -0.308 N 
ATOM      7  H   UNL A   1      30.589  25.485  24.202  1.00  0.00     0.349 HD
BRANCH   6   8
ATOM      8  C   UNL A   1      31.660  25.328  22.574  1.00  0.00     0.354 C 
BRANCH   8   9
ATOM      9  C   UNL A   1      32.590  24.152  22.322  1.00  0.00    -0.047 C 
ATOM     10  C   UNL A   1      33.387  23.144  22.105  1.00  0.00     0.010 C 
ENDBRANCH   8   9
ENDBRANCH   6   8
BRANCH   6  11
ATOM     11  C   UNL A   1      32.493  26.059  24.716  1.00  0.00     0.365 C 
BRANCH  11  12
ATOM     12  C   UNL A   1      32.286  25.502  26.166  1.00  0.00     0.279 C 
ATOM     13  O   UNL A   1      31.574  26.119  26.971  1.00  0.00    -0.268 OA
ATOM     14  N   UNL A   1      32.905  24.359  26.623  1.00  0.00    -0.319 N 
ATOM     15  H   UNL A   1      33.117  24.371  27.584  1.00  0.00     0.170 HD
BRANCH  14  16
ATOM     16  C   UNL A   1      33.292  23.166  25.958  1.00  0.00     0.079 A 
ATOM     17  C   UNL A   1      32.305  22.209  25.630  1.00  0.00     0.066 A 
ATOM     18  C   UNL A   1      34.611  22.886  25.564  1.00  0.00     0.066 A 
ATOM     19  Cl  UNL A   1      30.613  22.522  25.781  1.00  0.00    -0.082 Cl
ATOM     20  C   UNL A   1      32.651  20.945  25.142  1.00  0.00     0.023 A 
ATOM     21  C   UNL A   1      34.947  21.633  25.032  1.00  0.00     0.023 A 
ATOM     22  Cl  UNL A   1      35.841  24.104  25.502  1.00  0.00    -0.082 Cl
ATOM     23  C   UNL A   1      33.978  20.648  24.866  1.00  0.00     0.003 A 
ENDBRANCH  14  16
ENDBRANCH  11  12
ENDBRANCH   6  11
ENDBRANCH   5   6
ENDBRANCH   3   5
ENDBRANCH   2   3
ENDBRANCH   1   2
BRANCH   1  24
ATOM     24  C   UNL A   1      32.383  29.701  27.057  1.00  0.00     0.275 C 
BRANCH  24  25
ATOM     25  O   UNL A   1      33.686  29.264  27.488  1.00  0.00    -0.458 OA
BRANCH  25  26
ATOM     26  C   UNL A   1      34.445  30.263  27.984  1.00  0.00     0.338 C 
ATOM     27  O   UNL A   1      34.051  31.383  28.279  1.00  0.00    -0.246 OA
BRANCH  26  28
ATOM     28  C   UNL A   1      35.833  29.843  28.191  1.00  0.00     0.060 A 
ATOM     29  C   UNL A   1      36.233  29.435  29.462  1.00  0.00     0.016 A 
ATOM     30  C   UNL A   1      36.774  30.012  27.174  1.00  0.00     0.016 A 
ATOM     31  C   UNL A   1      37.584  29.228  29.729  1.00  0.00     0.010 A 
ATOM     32  C   UNL A   1      38.126  29.753  27.432  1.00  0.00     0.010 A 
ATOM     33  C   UNL A   1      38.544  29.372  28.717  1.00  0.00    -0.014 A 
BRANCH  33  34
ATOM     34  C   UNL A   1      39.965  29.046  29.001  1.00  0.00     0.031 A 
ATOM     35  C   UNL A   1      40.562  27.712  28.643  1.00  0.00     0.074 A 
ATOM     36  C   UNL A   1      40.729  29.986  29.591  1.00  0.00     0.049 A 
ATOM     37  N   UNL A   1      41.756  27.250  28.915  1.00  0.00    -0.248 NA
ATOM     38  C   UNL A   1      39.718  26.779  27.879  1.00  0.00     0.031 C 
ATOM     39  C   UNL A   1      40.280  31.334  29.950  1.00  0.00     0.029 A 
ATOM     40  N   UNL A   1      42.040  29.956  29.991  1.00  0.00    -0.354 N 
ATOM     41  C   UNL A   1      41.805  25.967  28.381  1.00  0.00     0.074 A 
ATOM     42  C   UNL A   1      40.516  25.724  27.765  1.00  0.00     0.031 C 
ATOM     43  C   UNL A   1      41.302  32.008  30.494  1.00  0.00     0.029 A 
ATOM     44  C   UNL A   1      42.452  31.118  30.596  1.00  0.00     0.049 A 
ATOM     45  H   UNL A   1      42.629  29.178  29.858  1.00  0.00     0.167 HD
ATOM     46  C   UNL A   1      42.825  25.075  28.413  1.00  0.00     0.031 A 
ATOM     47  C   UNL A   1      43.606  31.430  31.214  1.00  0.00     0.031 A 
ATOM     48  C   UNL A   1      44.105  25.323  29.031  1.00  0.00     0.049 A 
ATOM     49  C   UNL A   1      44.688  30.399  31.306  1.00  0.00     0.074 A 
ATOM     50  C   UNL A   1      45.204  24.482  29.101  1.00  0.00     0.029 A 
ATOM     51  N   UNL A   1      44.456  26.490  29.692  1.00  0.00    -0.354 N 
ATOM     52  N   UNL A   1      44.702  29.181  30.821  1.00  0.00    -0.248 NA
ATOM     53  C   UNL A   1      45.899  30.778  32.042  1.00  0.00     0.031 C 
ATOM     54  C   UNL A   1      46.203  25.125  29.844  1.00  0.00     0.029 A 
ATOM     55  C   UNL A   1      45.743  26.383  30.196  1.00  0.00     0.049 A 
ATOM     56  H   UNL A   1      43.877  27.280  29.788  1.00  0.00     0.167 HD
ATOM     57  C   UNL A   1      45.927  28.646  31.191  1.00  0.00     0.074 A 
ATOM     58  C   UNL A   1      46.633  29.678  31.924  1.00  0.00     0.031 C 
ATOM     59  C   UNL A   1      46.422  27.407  30.945  1.00  0.00     0.031 A 
BRANCH  46  60
ATOM     60  C   UNL A   1      42.595  23.719  27.800  1.00  0.00    -0.014 A 
ATOM     61  C   UNL A   1      42.889  23.467  26.450  1.00  0.00     0.010 A 
ATOM     62  C   UNL A   1      42.150  22.659  28.613  1.00  0.00     0.010 A 
ATOM     63  C   UNL A   1      42.718  22.185  25.916  1.00  0.00     0.020 A 
ATOM     64  C   UNL A   1      41.993  21.374  28.088  1.00  0.00     0.020 A 
ATOM     65  C   UNL A   1      42.265  21.147  26.737  1.00  0.00     0.054 A 
BRANCH  65  66
ATOM     66  S   UNL A   1      42.076  19.486  26.030  1.00  0.00     0.124 S 
ATOM     67  O   UNL A   1      40.640  19.435  25.769  1.00  0.00    -0.237 OA
ATOM     68  O   UNL A   1      42.926  19.541  24.843  1.00  0.00    -0.237 OA
ATOM     69  O   UNL A   1      42.549  18.601  27.092  1.00  0.00    -0.744 OA
ENDBRANCH  65  66
ENDBRANCH  46  60
BRANCH  47  70
ATOM     70  C   UNL A   1      43.751  32.767  31.840  1.00  0.00    -0.014 A 
ATOM     71  C   UNL A   1      44.188  33.867  31.085  1.00  0.00     0.010 A 
ATOM     72  C   UNL A   1      43.376  32.958  33.184  1.00  0.00     0.010 A 
ATOM     73  C   UNL A   1      44.239  35.139  31.661  1.00  0.00     0.020 A 
ATOM     74  C   UNL A   1      43.402  34.231  33.754  1.00  0.00     0.020 A 
ATOM     75  C   UNL A   1      43.838  35.314  32.990  1.00  0.00     0.054 A 
BRANCH  75  76
ATOM     76  S   UNL A   1      43.814  36.987  33.693  1.00  0.00     0.124 S 
ATOM     77  O   UNL A   1      44.017  37.815  32.509  1.00  0.00    -0.237 OA
ATOM     78  O   UNL A   1      42.486  37.062  34.297  1.00  0.00    -0.237 OA
ATOM     79  O   UNL A   1      44.921  36.969  34.646  1.00  0.00    -0.744 OA
ENDBRANCH  75  76
ENDBRANCH  47  70
BRANCH  59  80
ATOM     80  C   UNL A   1      47.798  27.114  31.473  1.00  0.00    -0.014 A 
ATOM     81  C   UNL A   1      47.974  26.512  32.731  1.00  0.00     0.010 A 
ATOM     82  C   UNL A   1      48.926  27.436  30.698  1.00  0.00     0.010 A 
ATOM     83  C   UNL A   1      49.259  26.271  33.223  1.00  0.00     0.020 A 
ATOM     84  C   UNL A   1      50.211  27.179  31.179  1.00  0.00     0.020 A 
ATOM     85  C   UNL A   1      50.371  26.615  32.446  1.00  0.00     0.054 A 
BRANCH  85  86
ATOM     86  S   UNL A   1      52.031  26.281  33.094  1.00  0.00     0.124 S 
ATOM     87  O   UNL A   1      52.193  24.861  32.797  1.00  0.00    -0.237 OA
ATOM     88  O   UNL A   1      52.874  27.187  32.315  1.00  0.00    -0.237 OA
ATOM     89  O   UNL A   1      51.920  26.614  34.514  1.00  0.00    -0.744 OA
ENDBRANCH  85  86
ENDBRANCH  59  80
ENDBRANCH  33  34
ENDBRANCH  26  28
ENDBRANCH  25  26
ENDBRANCH  24  25
ENDBRANCH   1  24
TORSDOF 20
ENDMDL
MODEL 2
REMARK VINA RESULT:      -9.0      3.126      3.923
REMARK SMILES C#CC[N@@H+](CC(=O)Nc1c(Cl)cccc1Cl)CC(=O)OCCOC(=O)c1ccc(-c2c3nc(c(-c4ccc(S(=O)(=O)[O-])cc4)c4ccc([nH]4)c(-c4ccc(S(=O)(=O)[O-])cc4)c4nc(c(-c5ccc(S(=O)(=O)[O-])cc5)c5ccc2[nH]5)C=C4)C=C3)cc1
REMARK SMILES IDX 21 1 20 2 18 3 19 4 17 5 4 6 3 8 2 9 1 10 5 11 6 12 7 13
REMARK SMILES IDX 8 14 9 16 10 17 15 18 11 19 12 20 14 21 16 22 13 23 22 24
REMARK SMILES IDX 23 25 24 26 25 27 26 28 27 29 85 30 28 31 84 32 29 33 30 34
REMARK SMILES IDX 31 35 78 36 32 37 83 38 77 39 79 40 33 41 82 42 76 43 75 44
REMARK SMILES IDX 34 46 64 47 45 48 63 49 46 50 49 51 62 52 80 53 47 54 48 55
REMARK SMILES IDX 61 57 81 58 50 59 35 60 36 61 44 62 37 63 43 64 38 65 39 66
REMARK SMILES IDX 40 67 41 68 42 69 65 70 66 71 74 72 67 73 73 74 68 75 69 76
REMARK SMILES IDX 70 77 71 78 72 79 51 80 52 81 60 82 53 83 59 84 54 85 55 86
REMARK SMILES IDX 56 87 57 88 58 89
REMARK H PARENT 4 7 8 15 79 45 49 56
REMARK Flexibility Score: inf
ROOT
ATOM      1  C   UNL A   1      31.831  29.281  25.924  1.00  0.00     0.274 C 
ENDROOT
BRANCH   1   2
ATOM      2  O   UNL A   1      31.816  29.611  24.517  1.00  0.00    -0.458 OA
BRANCH   2   3
ATOM      3  C   UNL A   1      31.528  28.618  23.650  1.00  0.00     0.361 C 
ATOM      4  O   UNL A   1      31.529  28.767  22.431  1.00  0.00    -0.245 OA
BRANCH   3   5
ATOM      5  C   UNL A   1      31.021  27.333  24.290  1.00  0.00     0.387 C 
BRANCH   5   6
ATOM      6  N   UNL A   1      31.832  26.117  24.335  1.00  0.00    -0.308 N 
ATOM      7  H   UNL A   1      32.701  26.647  24.256  1.00  0.00     0.349 HD
BRANCH   6   8
ATOM      8  C   UNL A   1      31.976  25.385  25.561  1.00  0.00     0.354 C 
BRANCH   8   9
ATOM      9  C   UNL A   1      31.253  24.162  26.101  1.00  0.00    -0.047 C 
ATOM     10  C   UNL A   1      30.632  23.113  26.564  1.00  0.00     0.010 C 
ENDBRANCH   8   9
ENDBRANCH   6   8
BRANCH   6  11
ATOM     11  C   UNL A   1      31.763  25.177  23.167  1.00  0.00     0.365 C 
BRANCH  11  12
ATOM     12  C   UNL A   1      33.099  24.772  22.456  1.00  0.00     0.279 C 
ATOM     13  O   UNL A   1      33.681  25.584  21.724  1.00  0.00    -0.268 OA
ATOM     14  N   UNL A   1      33.654  23.516  22.568  1.00  0.00    -0.319 N 
ATOM     15  H   UNL A   1      34.142  23.218  21.767  1.00  0.00     0.170 HD
BRANCH  14  16
ATOM     16  C   UNL A   1      33.648  22.573  23.628  1.00  0.00     0.079 A 
ATOM     17  C   UNL A   1      32.788  21.453  23.548  1.00  0.00     0.066 A 
ATOM     18  C   UNL A   1      34.481  22.659  24.755  1.00  0.00     0.066 A 
ATOM     19  Cl  UNL A   1      31.916  21.044  22.114  1.00  0.00    -0.082 Cl
ATOM     20  C   UNL A   1      32.609  20.595  24.637  1.00  0.00     0.023 A 
ATOM     21  C   UNL A   1      34.330  21.768  25.826  1.00  0.00     0.023 A 
ATOM     22  Cl  UNL A   1      35.864  23.703  24.809  1.00  0.00    -0.082 Cl
ATOM     23  C   UNL A   1      33.363  20.768  25.788  1.00  0.00     0.003 A 
ENDBRANCH  14  16
ENDBRANCH  11  12
ENDBRANCH   6  11
ENDBRANCH   5   6
ENDBRANCH   3   5
ENDBRANCH   2   3
ENDBRANCH   1   2
BRANCH   1  24
ATOM     24  C   UNL A   1      32.403  30.406  26.788  1.00  0.00     0.275 C 
BRANCH  24  25
ATOM     25  O   UNL A   1      33.819  30.244  26.992  1.00  0.00    -0.458 OA
BRANCH  25  26
ATOM     26  C   UNL A   1      34.392  31.304  27.600  1.00  0.00     0.338 C 
ATOM     27  O   UNL A   1      33.916  32.427  27.682  1.00  0.00    -0.246 OA
BRANCH  26  28
ATOM     28  C   UNL A   1      35.671  30.950  28.221  1.00  0.00     0.060 A 
ATOM     29  C   UNL A   1      35.792  29.720  28.866  1.00  0.00     0.016 A 
ATOM     30  C   UNL A   1      36.691  31.898  28.312  1.00  0.00     0.016 A 
ATOM     31  C   UNL A   1      36.921  29.449  29.634  1.00  0.00     0.010 A 
ATOM     32  C   UNL A   1      37.849  31.602  29.042  1.00  0.00     0.010 A 
ATOM     33  C   UNL A   1      37.968  30.380  29.722  1.00  0.00    -0.014 A 
BRANCH  33  34
ATOM     34  C   UNL A   1      39.205  30.025  30.463  1.00  0.00     0.031 A 
ATOM     35  C   UNL A   1      40.169  28.990  29.951  1.00  0.00     0.074 A 
ATOM     36  C   UNL A   1      39.460  30.664  31.622  1.00  0.00     0.049 A 
ATOM     37  N   UNL A   1      41.238  28.507  30.533  1.00  0.00    -0.248 NA
ATOM     38  C   UNL A   1      39.907  28.426  28.617  1.00  0.00     0.031 C 
ATOM     39  C   UNL A   1      38.625  31.719  32.204  1.00  0.00     0.029 A 
ATOM     40  N   UNL A   1      40.490  30.525  32.515  1.00  0.00    -0.354 N 
ATOM     41  C   UNL A   1      41.765  27.568  29.654  1.00  0.00     0.074 A 
ATOM     42  C   UNL A   1      40.898  27.550  28.494  1.00  0.00     0.031 C 
ATOM     43  C   UNL A   1      39.187  32.146  33.342  1.00  0.00     0.029 A 
ATOM     44  C   UNL A   1      40.374  31.344  33.611  1.00  0.00     0.049 A 
ATOM     45  H   UNL A   1      41.239  29.899  32.385  1.00  0.00     0.167 HD
ATOM     46  C   UNL A   1      42.864  26.788  29.808  1.00  0.00     0.031 A 
ATOM     47  C   UNL A   1      41.106  31.418  34.739  1.00  0.00     0.031 A 
ATOM     48  C   UNL A   1      43.722  26.809  30.968  1.00  0.00     0.049 A 
ATOM     49  C   UNL A   1      42.266  30.490  34.919  1.00  0.00     0.074 A 
ATOM     50  C   UNL A   1      44.865  26.064  31.206  1.00  0.00     0.029 A 
ATOM     51  N   UNL A   1      43.529  27.607  32.085  1.00  0.00    -0.354 N 
ATOM     52  N   UNL A   1      42.730  29.588  34.089  1.00  0.00    -0.248 NA
ATOM     53  C   UNL A   1      42.989  30.577  36.193  1.00  0.00     0.031 C 
ATOM     54  C   UNL A   1      45.337  26.378  32.487  1.00  0.00     0.029 A 
ATOM     55  C   UNL A   1      44.514  27.353  33.027  1.00  0.00     0.049 A 
ATOM     56  H   UNL A   1      42.800  28.259  32.193  1.00  0.00     0.167 HD
ATOM     57  C   UNL A   1      43.805  28.999  34.739  1.00  0.00     0.074 A 
ATOM     58  C   UNL A   1      43.933  29.660  36.023  1.00  0.00     0.031 C 
ATOM     59  C   UNL A   1      44.613  27.999  34.309  1.00  0.00     0.031 A 
BRANCH  46  60
ATOM     60  C   UNL A   1      43.188  25.804  28.716  1.00  0.00    -0.014 A 
ATOM     61  C   UNL A   1      42.641  24.510  28.711  1.00  0.00     0.010 A 
ATOM     62  C   UNL A   1      43.993  26.211  27.635  1.00  0.00     0.010 A 
ATOM     63  C   UNL A   1      42.914  23.630  27.657  1.00  0.00     0.020 A 
ATOM     64  C   UNL A   1      44.255  25.341  26.573  1.00  0.00     0.020 A 
ATOM     65  C   UNL A   1      43.724  24.050  26.597  1.00  0.00     0.054 A 
BRANCH  65  66
ATOM     66  S   UNL A   1      44.043  22.902  25.228  1.00  0.00     0.124 S 
ATOM     67  O   UNL A   1      42.701  22.404  24.938  1.00  0.00    -0.237 OA
ATOM     68  O   UNL A   1      44.623  23.769  24.206  1.00  0.00    -0.237 OA
ATOM     69  O   UNL A   1      44.961  21.922  25.803  1.00  0.00    -0.744 OA
ENDBRANCH  65  66
ENDBRANCH  46  60
BRANCH  47  70
ATOM     70  C   UNL A   1      40.704  32.376  35.798  1.00  0.00    -0.014 A 
ATOM     71  C   UNL A   1      39.680  32.054  36.702  1.00  0.00     0.010 A 
ATOM     72  C   UNL A   1      41.405  33.588  35.953  1.00  0.00     0.010 A 
ATOM     73  C   UNL A   1      39.368  32.925  37.750  1.00  0.00     0.020 A 
ATOM     74  C   UNL A   1      41.112  34.447  37.012  1.00  0.00     0.020 A 
ATOM     75  C   UNL A   1      40.091  34.113  37.902  1.00  0.00     0.054 A 
BRANCH  75  76
ATOM     76  S   UNL A   1      39.743  35.184  39.325  1.00  0.00     0.124 S 
ATOM     77  O   UNL A   1      41.076  35.389  39.882  1.00  0.00    -0.237 OA
ATOM     78  O   UNL A   1      39.130  36.355  38.702  1.00  0.00    -0.237 OA
ATOM     79  O   UNL A   1      38.836  34.378  40.140  1.00  0.00    -0.744 OA
ENDBRANCH  75  76
ENDBRANCH  47  70
BRANCH  59  80
ATOM     80  C   UNL A   1      45.711  27.571  35.242  1.00  0.00    -0.014 A 
ATOM     81  C   UNL A   1      46.967  28.202  35.215  1.00  0.00     0.010 A 
ATOM     82  C   UNL A   1      45.480  26.533  36.162  1.00  0.00     0.010 A 
ATOM     83  C   UNL A   1      47.989  27.775  36.067  1.00  0.00     0.020 A 
ATOM     84  C   UNL A   1      46.493  26.117  37.029  1.00  0.00     0.020 A 
ATOM     85  C   UNL A   1      47.747  26.728  36.963  1.00  0.00     0.054 A 
BRANCH  85  86
ATOM     86  S   UNL A   1      49.080  26.198  38.073  1.00  0.00     0.124 S 
ATOM     87  O   UNL A   1      49.961  25.472  37.163  1.00  0.00    -0.237 OA
ATOM     88  O   UNL A   1      49.605  27.464  38.580  1.00  0.00    -0.237 OA
ATOM     89  O   UNL A   1      48.393  25.375  39.067  1.00  0.00    -0.744 OA
ENDBRANCH  85  86
ENDBRANCH  59  80
ENDBRANCH  33  34
ENDBRANCH  26  28
ENDBRANCH  25  26
ENDBRANCH  24  25
ENDBRANCH   1  24
TORSDOF 20
ENDMDL
MODEL 3
REMARK VINA RESULT:      -8.9      2.541      3.228
REMARK SMILES C#CC[N@@H+](CC(=O)Nc1c(Cl)cccc1Cl)CC(=O)OCCOC(=O)c1ccc(-c2c3nc(c(-c4ccc(S(=O)(=O)[O-])cc4)c4ccc([nH]4)c(-c4ccc(S(=O)(=O)[O-])cc4)c4nc(c(-c5ccc(S(=O)(=O)[O-])cc5)c5ccc2[nH]5)C=C4)C=C3)cc1
REMARK SMILES IDX 21 1 20 2 18 3 19 4 17 5 4 6 3 8 2 9 1 10 5 11 6 12 7 13
REMARK SMILES IDX 8 14 9 16 10 17 15 18 11 19 12 20 14 21 16 22 13 23 22 24
REMARK SMILES IDX 23 25 24 26 25 27 26 28 27 29 85 30 28 31 84 32 29 33 30 34
REMARK SMILES IDX 31 35 78 36 32 37 83 38 77 39 79 40 33 41 82 42 76 43 75 44
REMARK SMILES IDX 34 46 64 47 45 48 63 49 46 50 49 51 62 52 80 53 47 54 48 55
REMARK SMILES IDX 61 57 81 58 50 59 35 60 36 61 44 62 37 63 43 64 38 65 39 66
REMARK SMILES IDX 40 67 41 68 42 69 65 70 66 71 74 72 67 73 73 74 68 75 69 76
REMARK SMILES IDX 70 77 71 78 72 79 51 80 52 81 60 82 53 83 59 84 54 85 55 86
REMARK SMILES IDX 56 87 57 88 58 89
REMARK H PARENT 4 7 8 15 79 45 49 56
REMARK Flexibility Score: inf
ROOT
ATOM      1  C   UNL A   1      32.442  29.372  24.916  1.00  0.00     0.274 C 
ENDROOT
BRANCH   1   2
ATOM      2  O   UNL A   1      32.198  28.276  24.007  1.00  0.00    -0.458 OA
BRANCH   2   3
ATOM      3  C   UNL A   1      33.274  27.669  23.463  1.00  0.00     0.361 C 
ATOM      4  O   UNL A   1      34.059  28.238  22.709  1.00  0.00    -0.245 OA
BRANCH   3   5
ATOM      5  C   UNL A   1      33.352  26.167  23.702  1.00  0.00     0.387 C 
BRANCH   5   6
ATOM      6  N   UNL A   1      32.743  25.536  24.873  1.00  0.00    -0.308 N 
ATOM      7  H   UNL A   1      32.437  26.435  25.246  1.00  0.00     0.349 HD
BRANCH   6   8
ATOM      8  C   UNL A   1      31.533  24.777  24.741  1.00  0.00     0.354 C 
BRANCH   8   9
ATOM      9  C   UNL A   1      30.952  23.645  25.573  1.00  0.00    -0.047 C 
ATOM     10  C   UNL A   1      30.454  22.673  26.286  1.00  0.00     0.010 C 
ENDBRANCH   8   9
ENDBRANCH   6   8
BRANCH   6  11
ATOM     11  C   UNL A   1      33.651  24.906  25.889  1.00  0.00     0.365 C 
BRANCH  11  12
ATOM     12  C   UNL A   1      34.941  24.176  25.383  1.00  0.00     0.279 C 
ATOM     13  O   UNL A   1      36.059  24.637  25.650  1.00  0.00    -0.268 OA
ATOM     14  N   UNL A   1      34.900  23.043  24.599  1.00  0.00    -0.319 N 
ATOM     15  H   UNL A   1      35.647  22.965  23.962  1.00  0.00     0.170 HD
BRANCH  14  16
ATOM     16  C   UNL A   1      33.974  21.969  24.541  1.00  0.00     0.079 A 
ATOM     17  C   UNL A   1      33.805  21.144  25.676  1.00  0.00     0.066 A 
ATOM     18  C   UNL A   1      33.173  21.689  23.422  1.00  0.00     0.066 A 
ATOM     19  Cl  UNL A   1      34.492  21.520  27.216  1.00  0.00    -0.082 Cl
ATOM     20  C   UNL A   1      33.048  19.971  25.616  1.00  0.00     0.023 A 
ATOM     21  C   UNL A   1      32.377  20.535  23.383  1.00  0.00     0.023 A 
ATOM     22  Cl  UNL A   1      32.942  22.827  22.136  1.00  0.00    -0.082 Cl
ATOM     23  C   UNL A   1      32.352  19.652  24.458  1.00  0.00     0.003 A 
ENDBRANCH  14  16
ENDBRANCH  11  12
ENDBRANCH   6  11
ENDBRANCH   5   6
ENDBRANCH   3   5
ENDBRANCH   2   3
ENDBRANCH   1   2
BRANCH   1  24
ATOM     24  C   UNL A   1      33.011  28.910  26.258  1.00  0.00     0.275 C 
BRANCH  24  25
ATOM     25  O   UNL A   1      34.368  29.358  26.437  1.00  0.00    -0.458 OA
BRANCH  25  26
ATOM     26  C   UNL A   1      34.503  30.259  27.432  1.00  0.00     0.338 C 
ATOM     27  O   UNL A   1      33.672  31.095  27.759  1.00  0.00    -0.246 OA
BRANCH  26  28
ATOM     28  C   UNL A   1      35.772  30.097  28.146  1.00  0.00     0.060 A 
ATOM     29  C   UNL A   1      36.962  30.390  27.482  1.00  0.00     0.016 A 
ATOM     30  C   UNL A   1      35.796  29.499  29.406  1.00  0.00     0.016 A 
ATOM     31  C   UNL A   1      38.181  30.053  28.064  1.00  0.00     0.010 A 
ATOM     32  C   UNL A   1      37.024  29.209  30.012  1.00  0.00     0.010 A 
ATOM     33  C   UNL A   1      38.228  29.470  29.340  1.00  0.00    -0.014 A 
BRANCH  33  34
ATOM     34  C   UNL A   1      39.543  29.215  29.982  1.00  0.00     0.031 A 
ATOM     35  C   UNL A   1      40.489  28.165  29.467  1.00  0.00     0.074 A 
ATOM     36  C   UNL A   1      39.885  29.959  31.052  1.00  0.00     0.049 A 
ATOM     37  N   UNL A   1      41.625  27.764  29.979  1.00  0.00    -0.248 NA
ATOM     38  C   UNL A   1      40.121  27.481  28.217  1.00  0.00     0.031 C 
ATOM     39  C   UNL A   1      39.073  31.038  31.623  1.00  0.00     0.029 A 
ATOM     40  N   UNL A   1      41.000  29.926  31.848  1.00  0.00    -0.354 N 
ATOM     41  C   UNL A   1      42.099  26.766  29.135  1.00  0.00     0.074 A 
ATOM     42  C   UNL A   1      41.125  26.624  28.071  1.00  0.00     0.031 C 
ATOM     43  C   UNL A   1      39.726  31.578  32.660  1.00  0.00     0.029 A 
ATOM     44  C   UNL A   1      40.961  30.835  32.878  1.00  0.00     0.049 A 
ATOM     45  H   UNL A   1      41.755  29.312  31.698  1.00  0.00     0.167 HD
ATOM     46  C   UNL A   1      43.234  26.033  29.245  1.00  0.00     0.031 A 
ATOM     47  C   UNL A   1      41.794  31.027  33.917  1.00  0.00     0.031 A 
ATOM     48  C   UNL A   1      44.198  26.178  30.308  1.00  0.00     0.049 A 
ATOM     49  C   UNL A   1      42.999  30.149  34.060  1.00  0.00     0.074 A 
ATOM     50  C   UNL A   1      45.384  25.487  30.495  1.00  0.00     0.029 A 
ATOM     51  N   UNL A   1      44.085  27.065  31.368  1.00  0.00    -0.354 N 
ATOM     52  N   UNL A   1      43.413  29.191  33.267  1.00  0.00    -0.248 NA
ATOM     53  C   UNL A   1      43.837  30.367  35.244  1.00  0.00     0.031 C 
ATOM     54  C   UNL A   1      45.966  25.925  31.692  1.00  0.00     0.029 A 
ATOM     55  C   UNL A   1      45.164  26.921  32.226  1.00  0.00     0.049 A 
ATOM     56  H   UNL A   1      43.347  27.704  31.492  1.00  0.00     0.167 HD
ATOM     57  C   UNL A   1      44.565  28.691  33.855  1.00  0.00     0.074 A 
ATOM     58  C   UNL A   1      44.792  29.464  35.060  1.00  0.00     0.031 C 
ATOM     59  C   UNL A   1      45.363  27.679  33.434  1.00  0.00     0.031 A 
BRANCH  46  60
ATOM     60  C   UNL A   1      43.487  24.966  28.213  1.00  0.00    -0.014 A 
ATOM     61  C   UNL A   1      44.271  25.220  27.076  1.00  0.00     0.010 A 
ATOM     62  C   UNL A   1      42.992  23.665  28.428  1.00  0.00     0.010 A 
ATOM     63  C   UNL A   1      44.537  24.198  26.157  1.00  0.00     0.020 A 
ATOM     64  C   UNL A   1      43.269  22.638  27.521  1.00  0.00     0.020 A 
ATOM     65  C   UNL A   1      44.028  22.914  26.383  1.00  0.00     0.054 A 
BRANCH  65  66
ATOM     66  S   UNL A   1      44.408  21.598  25.192  1.00  0.00     0.124 S 
ATOM     67  O   UNL A   1      44.276  22.300  23.918  1.00  0.00    -0.237 OA
ATOM     68  O   UNL A   1      45.769  21.213  25.557  1.00  0.00    -0.237 OA
ATOM     69  O   UNL A   1      43.387  20.587  25.455  1.00  0.00    -0.744 OA
ENDBRANCH  65  66
ENDBRANCH  46  60
BRANCH  47  70
ATOM     70  C   UNL A   1      41.463  32.062  34.927  1.00  0.00    -0.014 A 
ATOM     71  C   UNL A   1      41.782  33.410  34.700  1.00  0.00     0.010 A 
ATOM     72  C   UNL A   1      40.753  31.708  36.090  1.00  0.00     0.010 A 
ATOM     73  C   UNL A   1      41.389  34.390  35.616  1.00  0.00     0.020 A 
ATOM     74  C   UNL A   1      40.338  32.686  36.994  1.00  0.00     0.020 A 
ATOM     75  C   UNL A   1      40.662  34.021  36.754  1.00  0.00     0.054 A 
BRANCH  75  76
ATOM     76  S   UNL A   1      40.072  35.314  37.882  1.00  0.00     0.124 S 
ATOM     77  O   UNL A   1      41.176  35.414  38.832  1.00  0.00    -0.237 OA
ATOM     78  O   UNL A   1      39.896  36.461  36.994  1.00  0.00    -0.237 OA
ATOM     79  O   UNL A   1      38.831  34.756  38.415  1.00  0.00    -0.744 OA
ENDBRANCH  75  76
ENDBRANCH  47  70
BRANCH  59  80
ATOM     80  C   UNL A   1      46.559  27.363  34.287  1.00  0.00    -0.014 A 
ATOM     81  C   UNL A   1      47.785  28.022  34.081  1.00  0.00     0.010 A 
ATOM     82  C   UNL A   1      46.454  26.406  35.310  1.00  0.00     0.010 A 
ATOM     83  C   UNL A   1      48.898  27.699  34.861  1.00  0.00     0.020 A 
ATOM     84  C   UNL A   1      47.560  26.094  36.105  1.00  0.00     0.020 A 
ATOM     85  C   UNL A   1      48.779  26.729  35.863  1.00  0.00     0.054 A 
BRANCH  85  86
ATOM     86  S   UNL A   1      50.231  26.334  36.877  1.00  0.00     0.124 S 
ATOM     87  O   UNL A   1      51.259  26.119  35.863  1.00  0.00    -0.237 OA
ATOM     88  O   UNL A   1      50.394  27.535  37.694  1.00  0.00    -0.237 OA
ATOM     89  O   UNL A   1      49.820  25.140  37.614  1.00  0.00    -0.744 OA
ENDBRANCH  85  86
ENDBRANCH  59  80
ENDBRANCH  33  34
ENDBRANCH  26  28
ENDBRANCH  25  26
ENDBRANCH  24  25
ENDBRANCH   1  24
TORSDOF 20
ENDMDL
