MODEL 1
REMARK VINA RESULT:     -13.0      0.000      0.000
REMARK SMILES O=C(CCN1C(=O)[C@@H]2[C@@H](C1=O)[C@H]1c3ccccc3[C@]2(Br)c2ccccc21)OCCOC(=O)c1ccc(-c2c3nc(c(-c4ccc(S(=O)(=O)[O-])cc4)c4ccc([nH]4)c(-c4ccc(S(=O)(=O)[O-])cc4)c4nc(c(-c5ccc(S(=O)(=O)[O-])cc5)c5ccc2[nH]5)C=C4)C=C3)cc1
REMARK SMILES IDX 29 1 28 2 27 3 2 4 1 5 3 6 4 7 5 8 6 9 10 10 7 11 8 12 9 13
REMARK SMILES IDX 11 14 19 15 12 16 21 17 20 18 18 19 26 20 13 21 22 22 17 23
REMARK SMILES IDX 25 24 14 25 23 26 16 27 24 28 15 29 30 30 31 31 32 32 33 33
REMARK SMILES IDX 34 34 92 35 35 36 91 37 36 38 37 39 38 40 85 41 39 42 90 43
REMARK SMILES IDX 84 44 86 45 40 46 89 47 83 48 82 49 41 51 71 52 52 53 70 54
REMARK SMILES IDX 53 55 56 56 69 57 87 58 54 59 55 60 68 62 88 63 57 64 42 65
REMARK SMILES IDX 43 66 51 67 44 68 50 69 45 70 46 71 47 72 48 73 49 74 72 75
REMARK SMILES IDX 73 76 81 77 74 78 80 79 75 80 76 81 77 82 78 83 79 84 58 85
REMARK SMILES IDX 59 86 67 87 60 88 66 89 61 90 62 91 63 92 64 93 65 94
REMARK H PARENT 86 50 56 61
REMARK Flexibility Score: inf
ROOT
ATOM      1  C   UNL A   1      37.830  21.422  25.509  1.00  0.00     0.275 C 
ENDROOT
BRANCH   1   2
ATOM      2  C   UNL A   1      36.972  21.470  24.247  1.00  0.00     0.274 C 
BRANCH   2   3
ATOM      3  O   UNL A   1      35.612  21.875  24.475  1.00  0.00    -0.462 OA
BRANCH   3   4
ATOM      4  C   UNL A   1      34.901  22.563  23.542  1.00  0.00     0.307 C 
ATOM      5  O   UNL A   1      35.443  23.431  22.862  1.00  0.00    -0.252 OA
BRANCH   4   6
ATOM      6  C   UNL A   1      33.407  22.332  23.462  1.00  0.00     0.144 C 
BRANCH   6   7
ATOM      7  C   UNL A   1      32.743  23.031  22.278  1.00  0.00     0.140 C 
BRANCH   7   8
ATOM      8  N   UNL A   1      32.226  24.346  22.625  1.00  0.00    -0.281 N 
ATOM      9  C   UNL A   1      32.748  25.558  22.146  1.00  0.00     0.235 C 
ATOM     10  C   UNL A   1      31.224  24.545  23.566  1.00  0.00     0.234 C 
ATOM     11  O   UNL A   1      33.570  25.723  21.268  1.00  0.00    -0.274 OA
ATOM     12  C   UNL A   1      32.266  26.560  23.156  1.00  0.00     0.118 C 
ATOM     13  C   UNL A   1      30.866  25.979  23.400  1.00  0.00     0.105 C 
ATOM     14  O   UNL A   1      30.710  23.749  24.324  1.00  0.00    -0.274 OA
ATOM     15  C   UNL A   1      32.219  28.092  23.298  1.00  0.00     0.088 C 
ATOM     16  C   UNL A   1      30.122  26.854  24.404  1.00  0.00     0.063 C 
ATOM     17  C   UNL A   1      32.180  28.190  24.870  1.00  0.00    -0.022 A 
ATOM     18  Br  UNL A   1      33.774  28.913  22.524  1.00  0.00    -0.074 Br
ATOM     19  C   UNL A   1      30.866  28.654  22.833  1.00  0.00    -0.022 A 
ATOM     20  C   UNL A   1      31.094  27.434  25.433  1.00  0.00    -0.035 A 
ATOM     21  C   UNL A   1      29.743  28.032  23.480  1.00  0.00    -0.035 A 
ATOM     22  C   UNL A   1      33.097  28.803  25.721  1.00  0.00     0.006 A 
ATOM     23  C   UNL A   1      30.635  29.687  21.931  1.00  0.00     0.006 A 
ATOM     24  C   UNL A   1      30.970  27.269  26.807  1.00  0.00     0.005 A 
ATOM     25  C   UNL A   1      28.439  28.430  23.218  1.00  0.00     0.005 A 
ATOM     26  C   UNL A   1      32.952  28.643  27.104  1.00  0.00     0.000 A 
ATOM     27  C   UNL A   1      29.319  30.083  21.671  1.00  0.00     0.000 A 
ATOM     28  C   UNL A   1      31.910  27.874  27.639  1.00  0.00     0.000 A 
ATOM     29  C   UNL A   1      28.234  29.463  22.307  1.00  0.00     0.000 A 
ENDBRANCH   7   8
ENDBRANCH   6   7
ENDBRANCH   4   6
ENDBRANCH   3   4
ENDBRANCH   2   3
ENDBRANCH   1   2
BRANCH   1  30
ATOM     30  O   UNL A   1      38.208  22.749  25.891  1.00  0.00    -0.458 OA
BRANCH  30  31
ATOM     31  C   UNL A   1      39.480  22.846  26.353  1.00  0.00     0.338 C 
ATOM     32  O   UNL A   1      40.385  22.052  26.156  1.00  0.00    -0.246 OA
BRANCH  31  33
ATOM     33  C   UNL A   1      39.677  24.178  26.961  1.00  0.00     0.060 A 
ATOM     34  C   UNL A   1      39.271  24.467  28.268  1.00  0.00     0.016 A 
ATOM     35  C   UNL A   1      40.277  25.167  26.172  1.00  0.00     0.016 A 
ATOM     36  C   UNL A   1      39.512  25.736  28.796  1.00  0.00     0.010 A 
ATOM     37  C   UNL A   1      40.525  26.431  26.705  1.00  0.00     0.010 A 
ATOM     38  C   UNL A   1      40.171  26.715  28.030  1.00  0.00    -0.014 A 
BRANCH  38  39
ATOM     39  C   UNL A   1      40.654  27.959  28.676  1.00  0.00     0.031 A 
ATOM     40  C   UNL A   1      42.073  28.120  29.126  1.00  0.00     0.074 A 
ATOM     41  C   UNL A   1      39.761  28.951  28.867  1.00  0.00     0.049 A 
ATOM     42  N   UNL A   1      42.653  29.186  29.615  1.00  0.00    -0.248 NA
ATOM     43  C   UNL A   1      42.956  26.948  29.021  1.00  0.00     0.031 C 
ATOM     44  C   UNL A   1      38.347  28.883  28.492  1.00  0.00     0.029 A 
ATOM     45  N   UNL A   1      39.907  30.206  29.400  1.00  0.00    -0.354 N 
ATOM     46  C   UNL A   1      43.972  28.826  29.856  1.00  0.00     0.074 A 
ATOM     47  C   UNL A   1      44.099  27.429  29.499  1.00  0.00     0.031 C 
ATOM     48  C   UNL A   1      37.765  30.060  28.766  1.00  0.00     0.029 A 
ATOM     49  C   UNL A   1      38.753  30.953  29.364  1.00  0.00     0.049 A 
ATOM     50  H   UNL A   1      40.755  30.539  29.773  1.00  0.00     0.167 HD
ATOM     51  C   UNL A   1      44.982  29.602  30.317  1.00  0.00     0.031 A 
ATOM     52  C   UNL A   1      38.513  32.222  29.751  1.00  0.00     0.031 A 
ATOM     53  C   UNL A   1      44.833  30.987  30.687  1.00  0.00     0.049 A 
ATOM     54  C   UNL A   1      39.645  33.045  30.296  1.00  0.00     0.074 A 
ATOM     55  C   UNL A   1      45.813  31.863  31.122  1.00  0.00     0.029 A 
ATOM     56  N   UNL A   1      43.641  31.697  30.679  1.00  0.00    -0.354 N 
ATOM     57  N   UNL A   1      40.905  32.713  30.438  1.00  0.00    -0.248 NA
ATOM     58  C   UNL A   1      39.330  34.417  30.717  1.00  0.00     0.031 C 
ATOM     59  C   UNL A   1      45.205  33.078  31.443  1.00  0.00     0.029 A 
ATOM     60  C   UNL A   1      43.857  32.988  31.134  1.00  0.00     0.049 A 
ATOM     61  H   UNL A   1      42.771  31.336  30.391  1.00  0.00     0.167 HD
ATOM     62  C   UNL A   1      41.540  33.844  30.938  1.00  0.00     0.074 A 
ATOM     63  C   UNL A   1      40.528  34.872  31.066  1.00  0.00     0.031 C 
ATOM     64  C   UNL A   1      42.847  34.009  31.257  1.00  0.00     0.031 A 
BRANCH  51  65
ATOM     65  C   UNL A   1      46.359  29.003  30.434  1.00  0.00    -0.014 A 
ATOM     66  C   UNL A   1      47.219  28.995  29.320  1.00  0.00     0.010 A 
ATOM     67  C   UNL A   1      46.730  28.293  31.590  1.00  0.00     0.010 A 
ATOM     68  C   UNL A   1      48.404  28.253  29.343  1.00  0.00     0.020 A 
ATOM     69  C   UNL A   1      47.926  27.568  31.625  1.00  0.00     0.020 A 
ATOM     70  C   UNL A   1      48.741  27.531  30.491  1.00  0.00     0.054 A 
BRANCH  70  71
ATOM     71  S   UNL A   1      50.251  26.524  30.482  1.00  0.00     0.124 S 
ATOM     72  O   UNL A   1      49.956  25.516  31.496  1.00  0.00    -0.237 OA
ATOM     73  O   UNL A   1      50.303  26.040  29.105  1.00  0.00    -0.237 OA
ATOM     74  O   UNL A   1      51.300  27.479  30.836  1.00  0.00    -0.744 OA
ENDBRANCH  70  71
ENDBRANCH  51  65
BRANCH  52  75
ATOM     75  C   UNL A   1      37.153  32.793  29.563  1.00  0.00    -0.014 A 
ATOM     76  C   UNL A   1      36.760  33.314  28.316  1.00  0.00     0.010 A 
ATOM     77  C   UNL A   1      36.274  32.897  30.655  1.00  0.00     0.010 A 
ATOM     78  C   UNL A   1      35.535  33.970  28.176  1.00  0.00     0.020 A 
ATOM     79  C   UNL A   1      35.034  33.527  30.511  1.00  0.00     0.020 A 
ATOM     80  C   UNL A   1      34.685  34.083  29.279  1.00  0.00     0.054 A 
BRANCH  80  81
ATOM     81  S   UNL A   1      33.117  34.973  29.085  1.00  0.00     0.124 S 
ATOM     82  O   UNL A   1      32.433  34.157  28.084  1.00  0.00    -0.237 OA
ATOM     83  O   UNL A   1      32.551  34.923  30.431  1.00  0.00    -0.237 OA
ATOM     84  O   UNL A   1      33.530  36.300  28.635  1.00  0.00    -0.744 OA
ENDBRANCH  80  81
ENDBRANCH  52  75
BRANCH  64  85
ATOM     85  C   UNL A   1      43.290  35.354  31.770  1.00  0.00    -0.014 A 
ATOM     86  C   UNL A   1      43.024  35.710  33.106  1.00  0.00     0.010 A 
ATOM     87  C   UNL A   1      43.840  36.315  30.903  1.00  0.00     0.010 A 
ATOM     88  C   UNL A   1      43.259  37.012  33.556  1.00  0.00     0.020 A 
ATOM     89  C   UNL A   1      44.106  37.611  31.357  1.00  0.00     0.020 A 
ATOM     90  C   UNL A   1      43.787  37.957  32.673  1.00  0.00     0.054 A 
BRANCH  90  91
ATOM     91  S   UNL A   1      44.046  39.654  33.261  1.00  0.00     0.124 S 
ATOM     92  O   UNL A   1      44.615  40.304  32.085  1.00  0.00    -0.237 OA
ATOM     93  O   UNL A   1      42.696  40.078  33.625  1.00  0.00    -0.237 OA
ATOM     94  O   UNL A   1      44.962  39.490  34.388  1.00  0.00    -0.744 OA
ENDBRANCH  90  91
ENDBRANCH  64  85
ENDBRANCH  38  39
ENDBRANCH  31  33
ENDBRANCH  30  31
ENDBRANCH   1  30
TORSDOF 16
ENDMDL
MODEL 2
REMARK VINA RESULT:     -12.9      2.983      9.585
REMARK SMILES O=C(CCN1C(=O)[C@@H]2[C@@H](C1=O)[C@H]1c3ccccc3[C@]2(Br)c2ccccc21)OCCOC(=O)c1ccc(-c2c3nc(c(-c4ccc(S(=O)(=O)[O-])cc4)c4ccc([nH]4)c(-c4ccc(S(=O)(=O)[O-])cc4)c4nc(c(-c5ccc(S(=O)(=O)[O-])cc5)c5ccc2[nH]5)C=C4)C=C3)cc1
REMARK SMILES IDX 29 1 28 2 27 3 2 4 1 5 3 6 4 7 5 8 6 9 10 10 7 11 8 12 9 13
REMARK SMILES IDX 11 14 19 15 12 16 21 17 20 18 18 19 26 20 13 21 22 22 17 23
REMARK SMILES IDX 25 24 14 25 23 26 16 27 24 28 15 29 30 30 31 31 32 32 33 33
REMARK SMILES IDX 34 34 92 35 35 36 91 37 36 38 37 39 38 40 85 41 39 42 90 43
REMARK SMILES IDX 84 44 86 45 40 46 89 47 83 48 82 49 41 51 71 52 52 53 70 54
REMARK SMILES IDX 53 55 56 56 69 57 87 58 54 59 55 60 68 62 88 63 57 64 42 65
REMARK SMILES IDX 43 66 51 67 44 68 50 69 45 70 46 71 47 72 48 73 49 74 72 75
REMARK SMILES IDX 73 76 81 77 74 78 80 79 75 80 76 81 77 82 78 83 79 84 58 85
REMARK SMILES IDX 59 86 67 87 60 88 66 89 61 90 62 91 63 92 64 93 65 94
REMARK H PARENT 86 50 56 61
REMARK Flexibility Score: inf
ROOT
ATOM      1  C   UNL A   1      32.562  30.299  26.688  1.00  0.00     0.275 C 
ENDROOT
BRANCH   1   2
ATOM      2  C   UNL A   1      32.858  29.682  25.322  1.00  0.00     0.274 C 
BRANCH   2   3
ATOM      3  O   UNL A   1      32.664  28.259  25.265  1.00  0.00    -0.462 OA
BRANCH   3   4
ATOM      4  C   UNL A   1      31.478  27.711  24.890  1.00  0.00     0.307 C 
ATOM      5  O   UNL A   1      30.957  28.023  23.823  1.00  0.00    -0.252 OA
BRANCH   4   6
ATOM      6  C   UNL A   1      30.752  26.822  25.879  1.00  0.00     0.144 C 
BRANCH   6   7
ATOM      7  C   UNL A   1      30.035  25.642  25.228  1.00  0.00     0.140 C 
BRANCH   7   8
ATOM      8  N   UNL A   1      30.892  24.474  25.094  1.00  0.00    -0.281 N 
ATOM      9  C   UNL A   1      31.338  23.685  26.166  1.00  0.00     0.235 C 
ATOM     10  C   UNL A   1      31.457  24.081  23.887  1.00  0.00     0.234 C 
ATOM     11  O   UNL A   1      30.973  23.723  27.324  1.00  0.00    -0.274 OA
ATOM     12  C   UNL A   1      32.549  22.997  25.604  1.00  0.00     0.118 C 
ATOM     13  C   UNL A   1      32.023  22.739  24.185  1.00  0.00     0.105 C 
ATOM     14  O   UNL A   1      31.463  24.653  22.818  1.00  0.00    -0.274 OA
ATOM     15  C   UNL A   1      33.498  21.859  26.017  1.00  0.00     0.088 C 
ATOM     16  C   UNL A   1      33.086  21.999  23.378  1.00  0.00     0.063 C 
ATOM     17  C   UNL A   1      34.772  22.293  25.198  1.00  0.00    -0.022 A 
ATOM     18  Br  UNL A   1      33.786  21.843  27.917  1.00  0.00    -0.074 Br
ATOM     19  C   UNL A   1      33.066  20.520  25.397  1.00  0.00    -0.022 A 
ATOM     20  C   UNL A   1      34.486  22.450  23.797  1.00  0.00    -0.035 A 
ATOM     21  C   UNL A   1      32.911  20.583  23.969  1.00  0.00    -0.035 A 
ATOM     22  C   UNL A   1      36.036  22.627  25.677  1.00  0.00     0.006 A 
ATOM     23  C   UNL A   1      32.870  19.303  26.041  1.00  0.00     0.006 A 
ATOM     24  C   UNL A   1      35.435  22.969  22.924  1.00  0.00     0.005 A 
ATOM     25  C   UNL A   1      32.561  19.465  23.224  1.00  0.00     0.005 A 
ATOM     26  C   UNL A   1      36.988  23.135  24.786  1.00  0.00     0.000 A 
ATOM     27  C   UNL A   1      32.517  18.181  25.286  1.00  0.00     0.000 A 
ATOM     28  C   UNL A   1      36.687  23.316  23.429  1.00  0.00     0.000 A 
ATOM     29  C   UNL A   1      32.364  18.260  23.895  1.00  0.00     0.000 A 
ENDBRANCH   7   8
ENDBRANCH   6   7
ENDBRANCH   4   6
ENDBRANCH   3   4
ENDBRANCH   2   3
ENDBRANCH   1   2
BRANCH   1  30
ATOM     30  O   UNL A   1      33.535  29.858  27.641  1.00  0.00    -0.458 OA
BRANCH  30  31
ATOM     31  C   UNL A   1      34.396  30.830  28.035  1.00  0.00     0.338 C 
ATOM     32  O   UNL A   1      34.106  31.975  28.341  1.00  0.00    -0.246 OA
BRANCH  31  33
ATOM     33  C   UNL A   1      35.733  30.238  28.250  1.00  0.00     0.060 A 
ATOM     34  C   UNL A   1      36.695  30.185  27.236  1.00  0.00     0.016 A 
ATOM     35  C   UNL A   1      36.009  29.708  29.516  1.00  0.00     0.016 A 
ATOM     36  C   UNL A   1      37.950  29.640  27.511  1.00  0.00     0.010 A 
ATOM     37  C   UNL A   1      37.267  29.173  29.790  1.00  0.00     0.010 A 
ATOM     38  C   UNL A   1      38.256  29.162  28.798  1.00  0.00    -0.014 A 
BRANCH  38  39
ATOM     39  C   UNL A   1      39.656  28.831  29.151  1.00  0.00     0.031 A 
ATOM     40  C   UNL A   1      40.530  29.781  29.911  1.00  0.00     0.074 A 
ATOM     41  C   UNL A   1      40.137  27.638  28.747  1.00  0.00     0.049 A 
ATOM     42  N   UNL A   1      41.738  29.582  30.371  1.00  0.00    -0.248 NA
ATOM     43  C   UNL A   1      39.990  31.120  30.194  1.00  0.00     0.031 C 
ATOM     44  C   UNL A   1      39.379  26.651  27.974  1.00  0.00     0.029 A 
ATOM     45  N   UNL A   1      41.359  27.045  28.939  1.00  0.00    -0.354 N 
ATOM     46  C   UNL A   1      42.099  30.758  31.016  1.00  0.00     0.074 A 
ATOM     47  C   UNL A   1      40.998  31.682  30.852  1.00  0.00     0.031 C 
ATOM     48  C   UNL A   1      40.136  25.559  27.797  1.00  0.00     0.029 A 
ATOM     49  C   UNL A   1      41.441  25.777  28.413  1.00  0.00     0.049 A 
ATOM     50  H   UNL A   1      42.104  27.484  29.409  1.00  0.00     0.167 HD
ATOM     51  C   UNL A   1      43.241  31.024  31.693  1.00  0.00     0.031 A 
ATOM     52  C   UNL A   1      42.445  24.878  28.434  1.00  0.00     0.031 A 
ATOM     53  C   UNL A   1      44.338  30.098  31.828  1.00  0.00     0.049 A 
ATOM     54  C   UNL A   1      43.715  25.219  29.160  1.00  0.00     0.074 A 
ATOM     55  C   UNL A   1      45.516  30.268  32.535  1.00  0.00     0.029 A 
ATOM     56  N   UNL A   1      44.403  28.841  31.244  1.00  0.00    -0.354 N 
ATOM     57  N   UNL A   1      44.007  26.304  29.836  1.00  0.00    -0.248 NA
ATOM     58  C   UNL A   1      44.785  24.212  29.143  1.00  0.00     0.031 C 
ATOM     59  C   UNL A   1      46.321  29.148  32.323  1.00  0.00     0.029 A 
ATOM     60  C   UNL A   1      45.615  28.242  31.548  1.00  0.00     0.049 A 
ATOM     61  H   UNL A   1      43.692  28.435  30.696  1.00  0.00     0.167 HD
ATOM     62  C   UNL A   1      45.282  26.099  30.348  1.00  0.00     0.074 A 
ATOM     63  C   UNL A   1      45.703  24.784  29.913  1.00  0.00     0.031 C 
ATOM     64  C   UNL A   1      46.029  26.931  31.114  1.00  0.00     0.031 A 
BRANCH  51  65
ATOM     65  C   UNL A   1      43.382  32.360  32.375  1.00  0.00    -0.014 A 
ATOM     66  C   UNL A   1      44.201  33.355  31.808  1.00  0.00     0.010 A 
ATOM     67  C   UNL A   1      42.849  32.563  33.660  1.00  0.00     0.010 A 
ATOM     68  C   UNL A   1      44.519  34.509  32.531  1.00  0.00     0.020 A 
ATOM     69  C   UNL A   1      43.147  33.726  34.377  1.00  0.00     0.020 A 
ATOM     70  C   UNL A   1      44.003  34.679  33.818  1.00  0.00     0.054 A 
BRANCH  70  71
ATOM     71  S   UNL A   1      44.476  36.153  34.765  1.00  0.00     0.124 S 
ATOM     72  O   UNL A   1      45.899  35.923  35.003  1.00  0.00    -0.237 OA
ATOM     73  O   UNL A   1      44.156  37.240  33.845  1.00  0.00    -0.237 OA
ATOM     74  O   UNL A   1      43.625  36.083  35.952  1.00  0.00    -0.744 OA
ENDBRANCH  70  71
ENDBRANCH  51  65
BRANCH  52  75
ATOM     75  C   UNL A   1      42.242  23.548  27.799  1.00  0.00    -0.014 A 
ATOM     76  C   UNL A   1      41.681  22.484  28.529  1.00  0.00     0.010 A 
ATOM     77  C   UNL A   1      42.690  23.318  26.487  1.00  0.00     0.010 A 
ATOM     78  C   UNL A   1      41.615  21.203  27.976  1.00  0.00     0.020 A 
ATOM     79  C   UNL A   1      42.598  22.043  25.920  1.00  0.00     0.020 A 
ATOM     80  C   UNL A   1      42.087  20.989  26.679  1.00  0.00     0.054 A 
BRANCH  80  81
ATOM     81  S   UNL A   1      42.027  19.310  25.994  1.00  0.00     0.124 S 
ATOM     82  O   UNL A   1      42.889  19.435  24.821  1.00  0.00    -0.237 OA
ATOM     83  O   UNL A   1      42.562  18.499  27.085  1.00  0.00    -0.237 OA
ATOM     84  O   UNL A   1      40.608  19.107  25.710  1.00  0.00    -0.744 OA
ENDBRANCH  80  81
ENDBRANCH  52  75
BRANCH  64  85
ATOM     85  C   UNL A   1      47.390  26.460  31.559  1.00  0.00    -0.014 A 
ATOM     86  C   UNL A   1      48.502  26.659  30.718  1.00  0.00     0.010 A 
ATOM     87  C   UNL A   1      47.546  25.701  32.731  1.00  0.00     0.010 A 
ATOM     88  C   UNL A   1      49.735  26.075  31.020  1.00  0.00     0.020 A 
ATOM     89  C   UNL A   1      48.786  25.140  33.053  1.00  0.00     0.020 A 
ATOM     90  C   UNL A   1      49.864  25.308  32.180  1.00  0.00     0.054 A 
BRANCH  90  91
ATOM     91  S   UNL A   1      51.461  24.521  32.535  1.00  0.00     0.124 S 
ATOM     92  O   UNL A   1      51.205  23.131  32.175  1.00  0.00    -0.237 OA
ATOM     93  O   UNL A   1      52.377  25.242  31.654  1.00  0.00    -0.237 OA
ATOM     94  O   UNL A   1      51.656  24.772  33.961  1.00  0.00    -0.744 OA
ENDBRANCH  90  91
ENDBRANCH  64  85
ENDBRANCH  38  39
ENDBRANCH  31  33
ENDBRANCH  30  31
ENDBRANCH   1  30
TORSDOF 16
ENDMDL
MODEL 3
REMARK VINA RESULT:     -12.8      2.899      8.707
REMARK SMILES O=C(CCN1C(=O)[C@@H]2[C@@H](C1=O)[C@H]1c3ccccc3[C@]2(Br)c2ccccc21)OCCOC(=O)c1ccc(-c2c3nc(c(-c4ccc(S(=O)(=O)[O-])cc4)c4ccc([nH]4)c(-c4ccc(S(=O)(=O)[O-])cc4)c4nc(c(-c5ccc(S(=O)(=O)[O-])cc5)c5ccc2[nH]5)C=C4)C=C3)cc1
REMARK SMILES IDX 29 1 28 2 27 3 2 4 1 5 3 6 4 7 5 8 6 9 10 10 7 11 8 12 9 13
REMARK SMILES IDX 11 14 19 15 12 16 21 17 20 18 18 19 26 20 13 21 22 22 17 23
REMARK SMILES IDX 25 24 14 25 23 26 16 27 24 28 15 29 30 30 31 31 32 32 33 33
REMARK SMILES IDX 34 34 92 35 35 36 91 37 36 38 37 39 38 40 85 41 39 42 90 43
REMARK SMILES IDX 84 44 86 45 40 46 89 47 83 48 82 49 41 51 71 52 52 53 70 54
REMARK SMILES IDX 53 55 56 56 69 57 87 58 54 59 55 60 68 62 88 63 57 64 42 65
REMARK SMILES IDX 43 66 51 67 44 68 50 69 45 70 46 71 47 72 48 73 49 74 72 75
REMARK SMILES IDX 73 76 81 77 74 78 80 79 75 80 76 81 77 82 78 83 79 84 58 85
REMARK SMILES IDX 59 86 67 87 60 88 66 89 61 90 62 91 63 92 64 93 65 94
REMARK H PARENT 86 50 56 61
REMARK Flexibility Score: inf
ROOT
ATOM      1  C   UNL A   1      32.840  30.223  27.208  1.00  0.00     0.275 C 
ENDROOT
BRANCH   1   2
ATOM      2  C   UNL A   1      32.744  28.732  26.888  1.00  0.00     0.274 C 
BRANCH   2   3
ATOM      3  O   UNL A   1      32.450  28.443  25.511  1.00  0.00    -0.462 OA
BRANCH   3   4
ATOM      4  C   UNL A   1      31.344  27.743  25.144  1.00  0.00     0.307 C 
ATOM      5  O   UNL A   1      30.780  27.982  24.080  1.00  0.00    -0.252 OA
BRANCH   4   6
ATOM      6  C   UNL A   1      30.747  26.769  26.139  1.00  0.00     0.144 C 
BRANCH   6   7
ATOM      7  C   UNL A   1      29.986  25.618  25.487  1.00  0.00     0.140 C 
BRANCH   7   8
ATOM      8  N   UNL A   1      30.833  24.462  25.235  1.00  0.00    -0.281 N 
ATOM      9  C   UNL A   1      31.304  23.589  26.226  1.00  0.00     0.235 C 
ATOM     10  C   UNL A   1      31.362  24.166  23.985  1.00  0.00     0.234 C 
ATOM     11  O   UNL A   1      30.973  23.534  27.394  1.00  0.00    -0.274 OA
ATOM     12  C   UNL A   1      32.496  22.945  25.577  1.00  0.00     0.118 C 
ATOM     13  C   UNL A   1      31.929  22.802  24.157  1.00  0.00     0.105 C 
ATOM     14  O   UNL A   1      31.341  24.822  22.965  1.00  0.00    -0.274 OA
ATOM     15  C   UNL A   1      33.450  21.773  25.870  1.00  0.00     0.088 C 
ATOM     16  C   UNL A   1      32.965  22.127  23.263  1.00  0.00     0.063 C 
ATOM     17  C   UNL A   1      34.702  22.268  25.052  1.00  0.00    -0.022 A 
ATOM     18  Br  UNL A   1      33.791  21.604  27.753  1.00  0.00    -0.074 Br
ATOM     19  C   UNL A   1      32.994  20.490  25.157  1.00  0.00    -0.022 A 
ATOM     20  C   UNL A   1      34.379  22.538  23.677  1.00  0.00    -0.035 A 
ATOM     21  C   UNL A   1      32.799  20.668  23.743  1.00  0.00    -0.035 A 
ATOM     22  C   UNL A   1      35.982  22.559  25.521  1.00  0.00     0.006 A 
ATOM     23  C   UNL A   1      32.809  19.226  25.707  1.00  0.00     0.006 A 
ATOM     24  C   UNL A   1      35.305  23.123  22.823  1.00  0.00     0.005 A 
ATOM     25  C   UNL A   1      32.422  19.615  22.922  1.00  0.00     0.005 A 
ATOM     26  C   UNL A   1      36.910  23.134  24.646  1.00  0.00     0.000 A 
ATOM     27  C   UNL A   1      32.429  18.169  24.874  1.00  0.00     0.000 A 
ATOM     28  C   UNL A   1      36.572  23.425  23.318  1.00  0.00     0.000 A 
ATOM     29  C   UNL A   1      32.238  18.360  23.498  1.00  0.00     0.000 A 
ENDBRANCH   7   8
ENDBRANCH   6   7
ENDBRANCH   4   6
ENDBRANCH   3   4
ENDBRANCH   2   3
ENDBRANCH   1   2
BRANCH   1  30
ATOM     30  O   UNL A   1      34.190  30.670  27.038  1.00  0.00    -0.458 OA
BRANCH  30  31
ATOM     31  C   UNL A   1      34.772  31.105  28.184  1.00  0.00     0.338 C 
ATOM     32  O   UNL A   1      34.256  31.809  29.036  1.00  0.00    -0.246 OA
BRANCH  31  33
ATOM     33  C   UNL A   1      36.070  30.422  28.361  1.00  0.00     0.060 A 
ATOM     34  C   UNL A   1      36.999  30.308  27.322  1.00  0.00     0.016 A 
ATOM     35  C   UNL A   1      36.342  29.866  29.617  1.00  0.00     0.016 A 
ATOM     36  C   UNL A   1      38.221  29.677  27.561  1.00  0.00     0.010 A 
ATOM     37  C   UNL A   1      37.566  29.245  29.855  1.00  0.00     0.010 A 
ATOM     38  C   UNL A   1      38.526  29.171  28.838  1.00  0.00    -0.014 A 
BRANCH  38  39
ATOM     39  C   UNL A   1      39.909  28.742  29.152  1.00  0.00     0.031 A 
ATOM     40  C   UNL A   1      40.425  27.386  28.779  1.00  0.00     0.074 A 
ATOM     41  C   UNL A   1      40.699  29.614  29.811  1.00  0.00     0.049 A 
ATOM     42  N   UNL A   1      41.639  26.917  28.905  1.00  0.00    -0.248 NA
ATOM     43  C   UNL A   1      39.468  26.435  28.194  1.00  0.00     0.031 C 
ATOM     44  C   UNL A   1      40.284  30.949  30.249  1.00  0.00     0.029 A 
ATOM     45  N   UNL A   1      42.007  29.523  30.212  1.00  0.00    -0.354 N 
ATOM     46  C   UNL A   1      41.603  25.625  28.397  1.00  0.00     0.074 A 
ATOM     47  C   UNL A   1      40.236  25.368  27.999  1.00  0.00     0.031 C 
ATOM     48  C   UNL A   1      41.330  31.568  30.816  1.00  0.00     0.029 A 
ATOM     49  C   UNL A   1      42.477  30.667  30.813  1.00  0.00     0.049 A 
ATOM     50  H   UNL A   1      42.556  28.716  30.082  1.00  0.00     0.167 HD
ATOM     51  C   UNL A   1      42.627  24.749  28.265  1.00  0.00     0.031 A 
ATOM     52  C   UNL A   1      43.699  30.970  31.295  1.00  0.00     0.031 A 
ATOM     53  C   UNL A   1      43.980  25.014  28.687  1.00  0.00     0.049 A 
ATOM     54  C   UNL A   1      44.805  29.961  31.169  1.00  0.00     0.074 A 
ATOM     55  C   UNL A   1      45.091  24.200  28.550  1.00  0.00     0.029 A 
ATOM     56  N   UNL A   1      44.408  26.166  29.331  1.00  0.00    -0.354 N 
ATOM     57  N   UNL A   1      44.772  28.776  30.610  1.00  0.00    -0.248 NA
ATOM     58  C   UNL A   1      46.114  30.333  31.723  1.00  0.00     0.031 C 
ATOM     59  C   UNL A   1      46.173  24.826  29.172  1.00  0.00     0.029 A 
ATOM     60  C   UNL A   1      45.758  26.067  29.628  1.00  0.00     0.049 A 
ATOM     61  H   UNL A   1      43.837  26.940  29.545  1.00  0.00     0.167 HD
ATOM     62  C   UNL A   1      46.063  28.272  30.717  1.00  0.00     0.074 A 
ATOM     63  C   UNL A   1      46.854  29.283  31.388  1.00  0.00     0.031 C 
ATOM     64  C   UNL A   1      46.543  27.078  30.293  1.00  0.00     0.031 A 
BRANCH  51  65
ATOM     65  C   UNL A   1      42.359  23.416  27.616  1.00  0.00    -0.014 A 
ATOM     66  C   UNL A   1      41.896  22.337  28.393  1.00  0.00     0.010 A 
ATOM     67  C   UNL A   1      42.734  23.187  26.281  1.00  0.00     0.010 A 
ATOM     68  C   UNL A   1      41.855  21.045  27.860  1.00  0.00     0.020 A 
ATOM     69  C   UNL A   1      42.671  21.900  25.737  1.00  0.00     0.020 A 
ATOM     70  C   UNL A   1      42.258  20.833  26.539  1.00  0.00     0.054 A 
BRANCH  70  71
ATOM     71  S   UNL A   1      42.256  19.141  25.883  1.00  0.00     0.124 S 
ATOM     72  O   UNL A   1      40.840  18.918  25.606  1.00  0.00    -0.237 OA
ATOM     73  O   UNL A   1      43.120  19.252  24.711  1.00  0.00    -0.237 OA
ATOM     74  O   UNL A   1      42.811  18.350  26.981  1.00  0.00    -0.744 OA
ENDBRANCH  70  71
ENDBRANCH  51  65
BRANCH  52  75
ATOM     75  C   UNL A   1      43.936  32.319  31.874  1.00  0.00    -0.014 A 
ATOM     76  C   UNL A   1      43.722  32.558  33.245  1.00  0.00     0.010 A 
ATOM     77  C   UNL A   1      44.294  33.392  31.040  1.00  0.00     0.010 A 
ATOM     78  C   UNL A   1      43.815  33.853  33.761  1.00  0.00     0.020 A 
ATOM     79  C   UNL A   1      44.417  34.684  31.559  1.00  0.00     0.020 A 
ATOM     80  C   UNL A   1      44.149  34.910  32.911  1.00  0.00     0.054 A 
BRANCH  80  81
ATOM     81  S   UNL A   1      44.227  36.589  33.594  1.00  0.00     0.124 S 
ATOM     82  O   UNL A   1      44.974  36.374  34.831  1.00  0.00    -0.237 OA
ATOM     83  O   UNL A   1      44.935  37.327  32.551  1.00  0.00    -0.237 OA
ATOM     84  O   UNL A   1      42.822  36.953  33.766  1.00  0.00    -0.744 OA
ENDBRANCH  80  81
ENDBRANCH  52  75
BRANCH  64  85
ATOM     85  C   UNL A   1      48.001  26.775  30.519  1.00  0.00    -0.014 A 
ATOM     86  C   UNL A   1      48.401  26.134  31.707  1.00  0.00     0.010 A 
ATOM     87  C   UNL A   1      48.984  27.245  29.631  1.00  0.00     0.010 A 
ATOM     88  C   UNL A   1      49.756  26.005  32.024  1.00  0.00     0.020 A 
ATOM     89  C   UNL A   1      50.342  27.091  29.929  1.00  0.00     0.020 A 
ATOM     90  C   UNL A   1      50.717  26.497  31.137  1.00  0.00     0.054 A 
BRANCH  90  91
ATOM     91  S   UNL A   1      52.471  26.360  31.584  1.00  0.00     0.124 S 
ATOM     92  O   UNL A   1      52.668  27.539  32.422  1.00  0.00    -0.237 OA
ATOM     93  O   UNL A   1      52.526  25.076  32.280  1.00  0.00    -0.237 OA
ATOM     94  O   UNL A   1      53.156  26.389  30.294  1.00  0.00    -0.744 OA
ENDBRANCH  90  91
ENDBRANCH  64  85
ENDBRANCH  38  39
ENDBRANCH  31  33
ENDBRANCH  30  31
ENDBRANCH   1  30
TORSDOF 16
ENDMDL
