MODEL 1
REMARK VINA RESULT:     -12.0      0.000      0.000
REMARK SMILES CC(C)(C)c1cc2c(cc1Cl)C=C(C(=O)OCCOC(=O)c1ccc(-c3c4nc(c(-c5ccc(S(=O)(=O)[O-])cc5)c5ccc([nH]5)c(-c5ccc(S(=O)(=O)[O-])cc5)c5nc(c(-c6ccc(S(=O)(=O)[O-])cc6)c6ccc3[nH]6)C=C5)C=C4)cc1)[C@@H](C(F)(F)F)O2
REMARK SMILES IDX 18 1 17 2 16 3 14 4 15 5 13 6 5 7 6 8 10 9 7 10 9 11 11 12
REMARK SMILES IDX 8 13 87 14 12 15 82 16 2 17 1 18 3 19 4 20 83 21 84 22 85 23
REMARK SMILES IDX 86 24 19 25 20 26 21 27 22 28 23 29 81 30 24 31 80 32 25 33
REMARK SMILES IDX 26 34 27 35 74 36 28 37 79 38 73 39 75 40 29 41 78 42 72 43
REMARK SMILES IDX 71 44 30 46 60 47 41 48 59 49 42 50 45 51 58 52 76 53 43 54
REMARK SMILES IDX 44 55 57 57 77 58 46 59 31 60 32 61 40 62 33 63 39 64 34 65
REMARK SMILES IDX 35 66 36 67 37 68 38 69 61 70 62 71 70 72 63 73 69 74 64 75
REMARK SMILES IDX 65 76 66 77 67 78 68 79 47 80 48 81 56 82 49 83 55 84 50 85
REMARK SMILES IDX 51 86 52 87 53 88 54 89
REMARK H PARENT 75 45 45 56
REMARK Flexibility Score: inf
ROOT
ATOM      1  C   UNL A   1      32.299  28.972  27.252  1.00  0.00     0.275 C 
ENDROOT
BRANCH   1   2
ATOM      2  C   UNL A   1      31.835  27.943  26.219  1.00  0.00     0.275 C 
BRANCH   2   3
ATOM      3  O   UNL A   1      32.382  26.632  26.485  1.00  0.00    -0.459 OA
BRANCH   3   4
ATOM      4  C   UNL A   1      33.078  26.083  25.463  1.00  0.00     0.338 C 
ATOM      5  O   UNL A   1      33.849  26.666  24.715  1.00  0.00    -0.246 OA
BRANCH   4   6
ATOM      6  C   UNL A   1      32.832  24.633  25.370  1.00  0.00     0.087 C 
ATOM      7  C   UNL A   1      33.525  19.662  24.642  1.00  0.00    -0.020 A 
ATOM      8  C   UNL A   1      32.399  20.537  24.658  1.00  0.00     0.053 A 
ATOM      9  C   UNL A   1      34.779  20.253  24.914  1.00  0.00     0.045 A 
ATOM     10  C   UNL A   1      32.508  21.903  24.942  1.00  0.00     0.128 A 
ATOM     11  C   UNL A   1      34.878  21.609  25.238  1.00  0.00     0.032 A 
ATOM     12  Cl  UNL A   1      36.304  19.448  24.800  1.00  0.00    -0.084 Cl
ATOM     13  C   UNL A   1      33.750  22.426  25.242  1.00  0.00     0.019 A 
ATOM     14  O   UNL A   1      31.365  22.657  24.907  1.00  0.00    -0.475 OA
ATOM     15  C   UNL A   1      33.897  23.837  25.497  1.00  0.00     0.027 C 
ATOM     16  C   UNL A   1      31.479  24.115  24.983  1.00  0.00     0.316 C 
BRANCH   7  17
ATOM     17  C   UNL A   1      33.329  18.173  24.266  1.00  0.00    -0.012 C 
ATOM     18  C   UNL A   1      32.561  18.115  22.931  1.00  0.00     0.016 C 
ATOM     19  C   UNL A   1      32.497  17.398  25.324  1.00  0.00     0.016 C 
ATOM     20  C   UNL A   1      34.646  17.369  24.137  1.00  0.00     0.016 C 
ENDBRANCH   7  17
BRANCH  16  21
ATOM     21  C   UNL A   1      31.014  24.724  23.649  1.00  0.00     0.430 C 
ATOM     22  F   UNL A   1      30.097  23.934  23.040  1.00  0.00    -0.167 F 
ATOM     23  F   UNL A   1      30.417  25.928  23.833  1.00  0.00    -0.167 F 
ATOM     24  F   UNL A   1      32.033  24.905  22.781  1.00  0.00    -0.167 F 
ENDBRANCH  16  21
ENDBRANCH   4   6
ENDBRANCH   3   4
ENDBRANCH   2   3
ENDBRANCH   1   2
BRANCH   1  25
ATOM     25  O   UNL A   1      33.734  28.982  27.360  1.00  0.00    -0.458 OA
BRANCH  25  26
ATOM     26  C   UNL A   1      34.284  30.194  27.594  1.00  0.00     0.338 C 
ATOM     27  O   UNL A   1      33.742  31.282  27.499  1.00  0.00    -0.246 OA
BRANCH  26  28
ATOM     28  C   UNL A   1      35.653  30.033  28.102  1.00  0.00     0.060 A 
ATOM     29  C   UNL A   1      35.908  29.517  29.366  1.00  0.00     0.016 A 
ATOM     30  C   UNL A   1      36.701  30.236  27.214  1.00  0.00     0.016 A 
ATOM     31  C   UNL A   1      37.229  29.217  29.724  1.00  0.00     0.010 A 
ATOM     32  C   UNL A   1      37.974  29.758  27.501  1.00  0.00     0.010 A 
ATOM     33  C   UNL A   1      38.278  29.286  28.780  1.00  0.00    -0.014 A 
BRANCH  33  34
ATOM     34  C   UNL A   1      39.680  28.897  29.127  1.00  0.00     0.031 A 
ATOM     35  C   UNL A   1      40.553  29.804  29.972  1.00  0.00     0.074 A 
ATOM     36  C   UNL A   1      40.190  27.734  28.666  1.00  0.00     0.049 A 
ATOM     37  N   UNL A   1      41.782  29.612  30.384  1.00  0.00    -0.248 NA
ATOM     38  C   UNL A   1      40.003  31.113  30.372  1.00  0.00     0.031 C 
ATOM     39  C   UNL A   1      39.499  26.807  27.765  1.00  0.00     0.029 A 
ATOM     40  N   UNL A   1      41.392  27.112  28.913  1.00  0.00    -0.354 N 
ATOM     41  C   UNL A   1      42.146  30.772  31.060  1.00  0.00     0.074 A 
ATOM     42  C   UNL A   1      41.052  31.701  30.929  1.00  0.00     0.031 C 
ATOM     43  C   UNL A   1      40.240  25.699  27.615  1.00  0.00     0.029 A 
ATOM     44  C   UNL A   1      41.486  25.853  28.360  1.00  0.00     0.049 A 
ATOM     45  H   UNL A   1      42.116  27.527  29.433  1.00  0.00     0.167 HD
ATOM     46  C   UNL A   1      43.265  31.029  31.779  1.00  0.00     0.031 A 
ATOM     47  C   UNL A   1      42.449  24.912  28.459  1.00  0.00     0.031 A 
ATOM     48  C   UNL A   1      44.322  30.075  31.973  1.00  0.00     0.049 A 
ATOM     49  C   UNL A   1      43.661  25.193  29.304  1.00  0.00     0.074 A 
ATOM     50  C   UNL A   1      45.457  30.206  32.754  1.00  0.00     0.029 A 
ATOM     51  N   UNL A   1      44.367  28.811  31.406  1.00  0.00    -0.354 N 
ATOM     52  N   UNL A   1      43.942  26.267  30.001  1.00  0.00    -0.248 NA
ATOM     53  C   UNL A   1      44.678  24.135  29.391  1.00  0.00     0.031 C 
ATOM     54  C   UNL A   1      46.214  29.043  32.614  1.00  0.00     0.029 A 
ATOM     55  C   UNL A   1      45.519  28.159  31.806  1.00  0.00     0.049 A 
ATOM     56  H   UNL A   1      43.680  28.435  30.809  1.00  0.00     0.167 HD
ATOM     57  C   UNL A   1      45.161  26.010  30.619  1.00  0.00     0.074 A 
ATOM     58  C   UNL A   1      45.552  24.670  30.235  1.00  0.00     0.031 C 
ATOM     59  C   UNL A   1      45.891  26.818  31.426  1.00  0.00     0.031 A 
BRANCH  46  60
ATOM     60  C   UNL A   1      43.387  32.364  32.474  1.00  0.00    -0.014 A 
ATOM     61  C   UNL A   1      42.755  32.577  33.713  1.00  0.00     0.010 A 
ATOM     62  C   UNL A   1      44.022  33.448  31.840  1.00  0.00     0.010 A 
ATOM     63  C   UNL A   1      42.723  33.852  34.286  1.00  0.00     0.020 A 
ATOM     64  C   UNL A   1      44.025  34.717  32.426  1.00  0.00     0.020 A 
ATOM     65  C   UNL A   1      43.351  34.916  33.632  1.00  0.00     0.054 A 
BRANCH  65  66
ATOM     66  S   UNL A   1      43.265  36.573  34.366  1.00  0.00     0.124 S 
ATOM     67  O   UNL A   1      44.338  36.528  35.354  1.00  0.00    -0.237 OA
ATOM     68  O   UNL A   1      43.499  37.444  33.217  1.00  0.00    -0.237 OA
ATOM     69  O   UNL A   1      41.911  36.635  34.916  1.00  0.00    -0.744 OA
ENDBRANCH  65  66
ENDBRANCH  46  60
BRANCH  47  70
ATOM     70  C   UNL A   1      42.245  23.590  27.799  1.00  0.00    -0.014 A 
ATOM     71  C   UNL A   1      41.567  22.550  28.462  1.00  0.00     0.010 A 
ATOM     72  C   UNL A   1      42.816  23.332  26.539  1.00  0.00     0.010 A 
ATOM     73  C   UNL A   1      41.519  21.266  27.911  1.00  0.00     0.020 A 
ATOM     74  C   UNL A   1      42.741  22.057  25.969  1.00  0.00     0.020 A 
ATOM     75  C   UNL A   1      42.123  21.024  26.674  1.00  0.00     0.054 A 
BRANCH  75  76
ATOM     76  S   UNL A   1      42.107  19.335  26.011  1.00  0.00     0.124 S 
ATOM     77  O   UNL A   1      42.971  19.465  24.841  1.00  0.00    -0.237 OA
ATOM     78  O   UNL A   1      42.656  18.552  27.114  1.00  0.00    -0.237 OA
ATOM     79  O   UNL A   1      40.695  19.093  25.721  1.00  0.00    -0.744 OA
ENDBRANCH  75  76
ENDBRANCH  47  70
BRANCH  59  80
ATOM     80  C   UNL A   1      47.198  26.304  31.966  1.00  0.00    -0.014 A 
ATOM     81  C   UNL A   1      48.354  26.360  31.164  1.00  0.00     0.010 A 
ATOM     82  C   UNL A   1      47.245  25.612  33.189  1.00  0.00     0.010 A 
ATOM     83  C   UNL A   1      49.518  25.692  31.550  1.00  0.00     0.020 A 
ATOM     84  C   UNL A   1      48.418  24.969  33.593  1.00  0.00     0.020 A 
ATOM     85  C   UNL A   1      49.537  24.987  32.756  1.00  0.00     0.054 A 
BRANCH  85  86
ATOM     86  S   UNL A   1      51.035  24.073  33.210  1.00  0.00     0.124 S 
ATOM     87  O   UNL A   1      52.060  25.111  33.141  1.00  0.00    -0.237 OA
ATOM     88  O   UNL A   1      50.720  23.588  34.552  1.00  0.00    -0.237 OA
ATOM     89  O   UNL A   1      51.128  23.036  32.185  1.00  0.00    -0.744 OA
ENDBRANCH  85  86
ENDBRANCH  59  80
ENDBRANCH  33  34
ENDBRANCH  26  28
ENDBRANCH  25  26
ENDBRANCH   1  25
TORSDOF 16
ENDMDL
MODEL 2
REMARK VINA RESULT:     -11.7      4.735      7.601
REMARK SMILES CC(C)(C)c1cc2c(cc1Cl)C=C(C(=O)OCCOC(=O)c1ccc(-c3c4nc(c(-c5ccc(S(=O)(=O)[O-])cc5)c5ccc([nH]5)c(-c5ccc(S(=O)(=O)[O-])cc5)c5nc(c(-c6ccc(S(=O)(=O)[O-])cc6)c6ccc3[nH]6)C=C5)C=C4)cc1)[C@@H](C(F)(F)F)O2
REMARK SMILES IDX 18 1 17 2 16 3 14 4 15 5 13 6 5 7 6 8 10 9 7 10 9 11 11 12
REMARK SMILES IDX 8 13 87 14 12 15 82 16 2 17 1 18 3 19 4 20 83 21 84 22 85 23
REMARK SMILES IDX 86 24 19 25 20 26 21 27 22 28 23 29 81 30 24 31 80 32 25 33
REMARK SMILES IDX 26 34 27 35 74 36 28 37 79 38 73 39 75 40 29 41 78 42 72 43
REMARK SMILES IDX 71 44 30 46 60 47 41 48 59 49 42 50 45 51 58 52 76 53 43 54
REMARK SMILES IDX 44 55 57 57 77 58 46 59 31 60 32 61 40 62 33 63 39 64 34 65
REMARK SMILES IDX 35 66 36 67 37 68 38 69 61 70 62 71 70 72 63 73 69 74 64 75
REMARK SMILES IDX 65 76 66 77 67 78 68 79 47 80 48 81 56 82 49 83 55 84 50 85
REMARK SMILES IDX 51 86 52 87 53 88 54 89
REMARK H PARENT 75 45 45 56
REMARK Flexibility Score: inf
ROOT
ATOM      1  C   UNL A   1      33.771  33.099  27.962  1.00  0.00     0.275 C 
ENDROOT
BRANCH   1   2
ATOM      2  C   UNL A   1      34.821  34.188  28.188  1.00  0.00     0.275 C 
BRANCH   2   3
ATOM      3  O   UNL A   1      34.299  35.281  28.977  1.00  0.00    -0.459 OA
BRANCH   3   4
ATOM      4  C   UNL A   1      33.746  34.924  30.158  1.00  0.00     0.338 C 
ATOM      5  O   UNL A   1      32.553  34.807  30.394  1.00  0.00    -0.246 OA
BRANCH   4   6
ATOM      6  C   UNL A   1      34.783  34.638  31.166  1.00  0.00     0.087 C 
ATOM      7  C   UNL A   1      37.867  32.161  34.339  1.00  0.00    -0.020 A 
ATOM      8  C   UNL A   1      37.380  33.497  34.235  1.00  0.00     0.053 A 
ATOM      9  C   UNL A   1      37.450  31.264  33.330  1.00  0.00     0.045 A 
ATOM     10  C   UNL A   1      36.549  33.919  33.191  1.00  0.00     0.128 A 
ATOM     11  C   UNL A   1      36.655  31.699  32.267  1.00  0.00     0.032 A 
ATOM     12  Cl  UNL A   1      37.769  29.565  33.315  1.00  0.00    -0.084 Cl
ATOM     13  C   UNL A   1      36.202  33.015  32.206  1.00  0.00     0.019 A 
ATOM     14  O   UNL A   1      36.120  35.219  33.201  1.00  0.00    -0.475 OA
ATOM     15  C   UNL A   1      35.315  33.413  31.143  1.00  0.00     0.027 C 
ATOM     16  C   UNL A   1      35.083  35.627  32.251  1.00  0.00     0.316 C 
BRANCH   7  17
ATOM     17  C   UNL A   1      38.739  31.758  35.554  1.00  0.00    -0.012 C 
ATOM     18  C   UNL A   1      39.311  33.046  36.178  1.00  0.00     0.016 C 
ATOM     19  C   UNL A   1      39.935  30.854  35.152  1.00  0.00     0.016 C 
ATOM     20  C   UNL A   1      37.986  30.952  36.640  1.00  0.00     0.016 C 
ENDBRANCH   7  17
BRANCH  16  21
ATOM     21  C   UNL A   1      33.809  35.998  33.029  1.00  0.00     0.430 C 
ATOM     22  F   UNL A   1      34.106  36.478  34.261  1.00  0.00    -0.167 F 
ATOM     23  F   UNL A   1      33.108  36.973  32.399  1.00  0.00    -0.167 F 
ATOM     24  F   UNL A   1      32.980  34.944  33.195  1.00  0.00    -0.167 F 
ENDBRANCH  16  21
ENDBRANCH   4   6
ENDBRANCH   3   4
ENDBRANCH   2   3
ENDBRANCH   1   2
BRANCH   1  25
ATOM     25  O   UNL A   1      34.117  31.894  28.670  1.00  0.00    -0.458 OA
BRANCH  25  26
ATOM     26  C   UNL A   1      34.231  30.789  27.900  1.00  0.00     0.338 C 
ATOM     27  O   UNL A   1      33.426  30.367  27.088  1.00  0.00    -0.246 OA
BRANCH  26  28
ATOM     28  C   UNL A   1      35.555  30.180  28.092  1.00  0.00     0.060 A 
ATOM     29  C   UNL A   1      36.577  30.346  27.168  1.00  0.00     0.016 A 
ATOM     30  C   UNL A   1      35.821  29.585  29.319  1.00  0.00     0.016 A 
ATOM     31  C   UNL A   1      37.865  29.898  27.490  1.00  0.00     0.010 A 
ATOM     32  C   UNL A   1      37.129  29.322  29.707  1.00  0.00     0.010 A 
ATOM     33  C   UNL A   1      38.173  29.425  28.785  1.00  0.00    -0.014 A 
BRANCH  33  34
ATOM     34  C   UNL A   1      39.560  29.013  29.167  1.00  0.00     0.031 A 
ATOM     35  C   UNL A   1      40.422  29.902  30.042  1.00  0.00     0.074 A 
ATOM     36  C   UNL A   1      40.066  27.846  28.711  1.00  0.00     0.049 A 
ATOM     37  N   UNL A   1      41.637  29.689  30.486  1.00  0.00    -0.248 NA
ATOM     38  C   UNL A   1      39.880  31.216  30.437  1.00  0.00     0.031 C 
ATOM     39  C   UNL A   1      39.387  26.937  27.784  1.00  0.00     0.029 A 
ATOM     40  N   UNL A   1      41.252  27.206  28.985  1.00  0.00    -0.354 N 
ATOM     41  C   UNL A   1      41.998  30.839  31.180  1.00  0.00     0.074 A 
ATOM     42  C   UNL A   1      40.921  31.784  31.027  1.00  0.00     0.031 C 
ATOM     43  C   UNL A   1      40.117  25.819  27.646  1.00  0.00     0.029 A 
ATOM     44  C   UNL A   1      41.343  25.950  28.426  1.00  0.00     0.049 A 
ATOM     45  H   UNL A   1      41.967  27.607  29.528  1.00  0.00     0.167 HD
ATOM     46  C   UNL A   1      43.100  31.075  31.931  1.00  0.00     0.031 A 
ATOM     47  C   UNL A   1      42.290  24.994  28.544  1.00  0.00     0.031 A 
ATOM     48  C   UNL A   1      44.139  30.104  32.148  1.00  0.00     0.049 A 
ATOM     49  C   UNL A   1      43.482  25.252  29.424  1.00  0.00     0.074 A 
ATOM     50  C   UNL A   1      45.253  30.213  32.960  1.00  0.00     0.029 A 
ATOM     51  N   UNL A   1      44.181  28.844  31.572  1.00  0.00    -0.354 N 
ATOM     52  N   UNL A   1      43.760  26.317  30.136  1.00  0.00    -0.248 NA
ATOM     53  C   UNL A   1      44.482  24.179  29.530  1.00  0.00     0.031 C 
ATOM     54  C   UNL A   1      45.998  29.041  32.832  1.00  0.00     0.029 A 
ATOM     55  C   UNL A   1      45.312  28.173  31.998  1.00  0.00     0.049 A 
ATOM     56  H   UNL A   1      43.506  28.482  30.953  1.00  0.00     0.167 HD
ATOM     57  C   UNL A   1      44.957  26.038  30.786  1.00  0.00     0.074 A 
ATOM     58  C   UNL A   1      45.339  24.695  30.402  1.00  0.00     0.031 C 
ATOM     59  C   UNL A   1      45.676  26.830  31.618  1.00  0.00     0.031 A 
BRANCH  46  60
ATOM     60  C   UNL A   1      43.222  32.403  32.640  1.00  0.00    -0.014 A 
ATOM     61  C   UNL A   1      42.519  32.633  33.836  1.00  0.00     0.010 A 
ATOM     62  C   UNL A   1      43.933  33.466  32.054  1.00  0.00     0.010 A 
ATOM     63  C   UNL A   1      42.493  33.907  34.413  1.00  0.00     0.020 A 
ATOM     64  C   UNL A   1      43.940  34.733  32.646  1.00  0.00     0.020 A 
ATOM     65  C   UNL A   1      43.197  34.951  33.807  1.00  0.00     0.054 A 
BRANCH  65  66
ATOM     66  S   UNL A   1      43.120  36.608  34.542  1.00  0.00     0.124 S 
ATOM     67  O   UNL A   1      41.873  36.552  35.299  1.00  0.00    -0.237 OA
ATOM     68  O   UNL A   1      44.342  36.661  35.340  1.00  0.00    -0.237 OA
ATOM     69  O   UNL A   1      43.107  37.497  33.382  1.00  0.00    -0.744 OA
ENDBRANCH  65  66
ENDBRANCH  46  60
BRANCH  47  70
ATOM     70  C   UNL A   1      42.086  23.680  27.868  1.00  0.00    -0.014 A 
ATOM     71  C   UNL A   1      41.320  22.669  28.477  1.00  0.00     0.010 A 
ATOM     72  C   UNL A   1      42.741  23.399  26.655  1.00  0.00     0.010 A 
ATOM     73  C   UNL A   1      41.264  21.387  27.921  1.00  0.00     0.020 A 
ATOM     74  C   UNL A   1      42.660  22.126  26.079  1.00  0.00     0.020 A 
ATOM     75  C   UNL A   1      41.950  21.119  26.734  1.00  0.00     0.054 A 
BRANCH  75  76
ATOM     76  S   UNL A   1      41.919  19.431  26.069  1.00  0.00     0.124 S 
ATOM     77  O   UNL A   1      42.425  18.656  27.198  1.00  0.00    -0.237 OA
ATOM     78  O   UNL A   1      40.507  19.236  25.754  1.00  0.00    -0.237 OA
ATOM     79  O   UNL A   1      42.809  19.502  24.912  1.00  0.00    -0.744 OA
ENDBRANCH  75  76
ENDBRANCH  47  70
BRANCH  59  80
ATOM     80  C   UNL A   1      46.961  26.292  32.190  1.00  0.00    -0.014 A 
ATOM     81  C   UNL A   1      48.152  26.399  31.447  1.00  0.00     0.010 A 
ATOM     82  C   UNL A   1      46.955  25.535  33.374  1.00  0.00     0.010 A 
ATOM     83  C   UNL A   1      49.301  25.716  31.850  1.00  0.00     0.020 A 
ATOM     84  C   UNL A   1      48.113  24.876  33.797  1.00  0.00     0.020 A 
ATOM     85  C   UNL A   1      49.269  24.946  33.015  1.00  0.00     0.054 A 
BRANCH  85  86
ATOM     86  S   UNL A   1      50.752  24.016  33.488  1.00  0.00     0.124 S 
ATOM     87  O   UNL A   1      51.744  25.077  33.638  1.00  0.00    -0.237 OA
ATOM     88  O   UNL A   1      50.338  23.361  34.727  1.00  0.00    -0.237 OA
ATOM     89  O   UNL A   1      50.967  23.115  32.358  1.00  0.00    -0.744 OA
ENDBRANCH  85  86
ENDBRANCH  59  80
ENDBRANCH  33  34
ENDBRANCH  26  28
ENDBRANCH  25  26
ENDBRANCH   1  25
TORSDOF 16
ENDMDL
MODEL 3
REMARK VINA RESULT:     -11.6      5.714      8.708
REMARK SMILES CC(C)(C)c1cc2c(cc1Cl)C=C(C(=O)OCCOC(=O)c1ccc(-c3c4nc(c(-c5ccc(S(=O)(=O)[O-])cc5)c5ccc([nH]5)c(-c5ccc(S(=O)(=O)[O-])cc5)c5nc(c(-c6ccc(S(=O)(=O)[O-])cc6)c6ccc3[nH]6)C=C5)C=C4)cc1)[C@@H](C(F)(F)F)O2
REMARK SMILES IDX 18 1 17 2 16 3 14 4 15 5 13 6 5 7 6 8 10 9 7 10 9 11 11 12
REMARK SMILES IDX 8 13 87 14 12 15 82 16 2 17 1 18 3 19 4 20 83 21 84 22 85 23
REMARK SMILES IDX 86 24 19 25 20 26 21 27 22 28 23 29 81 30 24 31 80 32 25 33
REMARK SMILES IDX 26 34 27 35 74 36 28 37 79 38 73 39 75 40 29 41 78 42 72 43
REMARK SMILES IDX 71 44 30 46 60 47 41 48 59 49 42 50 45 51 58 52 76 53 43 54
REMARK SMILES IDX 44 55 57 57 77 58 46 59 31 60 32 61 40 62 33 63 39 64 34 65
REMARK SMILES IDX 35 66 36 67 37 68 38 69 61 70 62 71 70 72 63 73 69 74 64 75
REMARK SMILES IDX 65 76 66 77 67 78 68 79 47 80 48 81 56 82 49 83 55 84 50 85
REMARK SMILES IDX 51 86 52 87 53 88 54 89
REMARK H PARENT 75 45 45 56
REMARK Flexibility Score: inf
ROOT
ATOM      1  C   UNL A   1      33.203  33.535  27.872  1.00  0.00     0.275 C 
ENDROOT
BRANCH   1   2
ATOM      2  C   UNL A   1      33.271  34.455  29.093  1.00  0.00     0.275 C 
BRANCH   2   3
ATOM      3  O   UNL A   1      34.607  34.521  29.640  1.00  0.00    -0.459 OA
BRANCH   3   4
ATOM      4  C   UNL A   1      34.821  33.745  30.727  1.00  0.00     0.338 C 
ATOM      5  O   UNL A   1      34.142  32.793  31.083  1.00  0.00    -0.246 OA
BRANCH   4   6
ATOM      6  C   UNL A   1      36.039  34.161  31.446  1.00  0.00     0.087 C 
ATOM      7  C   UNL A   1      40.888  34.595  32.866  1.00  0.00    -0.020 A 
ATOM      8  C   UNL A   1      39.625  34.836  33.483  1.00  0.00     0.053 A 
ATOM      9  C   UNL A   1      40.852  34.152  31.525  1.00  0.00     0.045 A 
ATOM     10  C   UNL A   1      38.410  34.665  32.810  1.00  0.00     0.128 A 
ATOM     11  C   UNL A   1      39.640  34.023  30.843  1.00  0.00     0.032 A 
ATOM     12  Cl  UNL A   1      42.227  33.642  30.610  1.00  0.00    -0.084 Cl
ATOM     13  C   UNL A   1      38.429  34.270  31.487  1.00  0.00     0.019 A 
ATOM     14  O   UNL A   1      37.255  34.903  33.505  1.00  0.00    -0.475 OA
ATOM     15  C   UNL A   1      37.192  34.047  30.783  1.00  0.00     0.027 C 
ATOM     16  C   UNL A   1      35.976  34.524  32.900  1.00  0.00     0.316 C 
BRANCH   7  17
ATOM     17  C   UNL A   1      42.186  34.755  33.695  1.00  0.00    -0.012 C 
ATOM     18  C   UNL A   1      43.085  35.784  32.981  1.00  0.00     0.016 C 
ATOM     19  C   UNL A   1      42.983  33.428  33.810  1.00  0.00     0.016 C 
ATOM     20  C   UNL A   1      41.957  35.203  35.159  1.00  0.00     0.016 C 
ENDBRANCH   7  17
BRANCH  16  21
ATOM     21  C   UNL A   1      35.345  33.392  33.727  1.00  0.00     0.430 C 
ATOM     22  F   UNL A   1      35.757  32.176  33.294  1.00  0.00    -0.167 F 
ATOM     23  F   UNL A   1      35.702  33.473  35.033  1.00  0.00    -0.167 F 
ATOM     24  F   UNL A   1      33.995  33.404  33.674  1.00  0.00    -0.167 F 
ENDBRANCH  16  21
ENDBRANCH   4   6
ENDBRANCH   3   4
ENDBRANCH   2   3
ENDBRANCH   1   2
BRANCH   1  25
ATOM     25  O   UNL A   1      34.468  32.887  27.644  1.00  0.00    -0.458 OA
BRANCH  25  26
ATOM     26  C   UNL A   1      34.436  31.536  27.681  1.00  0.00     0.338 C 
ATOM     27  O   UNL A   1      33.524  30.809  27.328  1.00  0.00    -0.246 OA
BRANCH  26  28
ATOM     28  C   UNL A   1      35.737  31.018  28.123  1.00  0.00     0.060 A 
ATOM     29  C   UNL A   1      36.880  31.807  28.116  1.00  0.00     0.016 A 
ATOM     30  C   UNL A   1      35.764  29.768  28.728  1.00  0.00     0.016 A 
ATOM     31  C   UNL A   1      38.047  31.318  28.717  1.00  0.00     0.010 A 
ATOM     32  C   UNL A   1      36.859  29.373  29.487  1.00  0.00     0.010 A 
ATOM     33  C   UNL A   1      38.042  30.114  29.456  1.00  0.00    -0.014 A 
BRANCH  33  34
ATOM     34  C   UNL A   1      39.262  29.617  30.166  1.00  0.00     0.031 A 
ATOM     35  C   UNL A   1      39.543  30.015  31.602  1.00  0.00     0.074 A 
ATOM     36  C   UNL A   1      40.141  28.822  29.519  1.00  0.00     0.049 A 
ATOM     37  N   UNL A   1      40.540  29.658  32.375  1.00  0.00    -0.248 NA
ATOM     38  C   UNL A   1      38.620  30.967  32.248  1.00  0.00     0.031 C 
ATOM     39  C   UNL A   1      40.050  28.436  28.108  1.00  0.00     0.029 A 
ATOM     40  N   UNL A   1      41.266  28.168  29.962  1.00  0.00    -0.354 N 
ATOM     41  C   UNL A   1      40.370  30.355  33.567  1.00  0.00     0.074 A 
ATOM     42  C   UNL A   1      39.234  31.224  33.392  1.00  0.00     0.031 C 
ATOM     43  C   UNL A   1      41.010  27.541  27.830  1.00  0.00     0.029 A 
ATOM     44  C   UNL A   1      41.824  27.328  29.022  1.00  0.00     0.049 A 
ATOM     45  H   UNL A   1      41.638  28.288  30.865  1.00  0.00     0.167 HD
ATOM     46  C   UNL A   1      41.058  30.243  34.728  1.00  0.00     0.031 A 
ATOM     47  C   UNL A   1      42.856  26.462  29.109  1.00  0.00     0.031 A 
ATOM     48  C   UNL A   1      42.143  29.321  34.926  1.00  0.00     0.049 A 
ATOM     49  C   UNL A   1      43.576  26.312  30.421  1.00  0.00     0.074 A 
ATOM     50  C   UNL A   1      42.848  29.070  36.089  1.00  0.00     0.029 A 
ATOM     51  N   UNL A   1      42.662  28.484  33.951  1.00  0.00    -0.354 N 
ATOM     52  N   UNL A   1      43.343  26.923  31.558  1.00  0.00    -0.248 NA
ATOM     53  C   UNL A   1      44.686  25.350  30.471  1.00  0.00     0.031 C 
ATOM     54  C   UNL A   1      43.831  28.123  35.803  1.00  0.00     0.029 A 
ATOM     55  C   UNL A   1      43.692  27.729  34.482  1.00  0.00     0.049 A 
ATOM     56  H   UNL A   1      42.345  28.436  33.020  1.00  0.00     0.167 HD
ATOM     57  C   UNL A   1      44.267  26.410  32.461  1.00  0.00     0.074 A 
ATOM     58  C   UNL A   1      45.047  25.421  31.747  1.00  0.00     0.031 C 
ATOM     59  C   UNL A   1      44.454  26.738  33.763  1.00  0.00     0.031 A 
BRANCH  46  60
ATOM     60  C   UNL A   1      40.626  31.083  35.907  1.00  0.00    -0.014 A 
ATOM     61  C   UNL A   1      39.259  31.230  36.206  1.00  0.00     0.010 A 
ATOM     62  C   UNL A   1      41.567  31.827  36.641  1.00  0.00     0.010 A 
ATOM     63  C   UNL A   1      38.840  32.132  37.191  1.00  0.00     0.020 A 
ATOM     64  C   UNL A   1      41.155  32.701  37.651  1.00  0.00     0.020 A 
ATOM     65  C   UNL A   1      39.792  32.869  37.900  1.00  0.00     0.054 A 
BRANCH  65  66
ATOM     66  S   UNL A   1      39.231  34.065  39.143  1.00  0.00     0.124 S 
ATOM     67  O   UNL A   1      39.085  35.284  38.354  1.00  0.00    -0.237 OA
ATOM     68  O   UNL A   1      37.987  33.468  39.623  1.00  0.00    -0.237 OA
ATOM     69  O   UNL A   1      40.320  34.079  40.119  1.00  0.00    -0.744 OA
ENDBRANCH  65  66
ENDBRANCH  46  60
BRANCH  47  70
ATOM     70  C   UNL A   1      43.199  25.618  27.928  1.00  0.00    -0.014 A 
ATOM     71  C   UNL A   1      42.734  24.293  27.832  1.00  0.00     0.010 A 
ATOM     72  C   UNL A   1      44.076  26.103  26.941  1.00  0.00     0.010 A 
ATOM     73  C   UNL A   1      43.187  23.452  26.810  1.00  0.00     0.020 A 
ATOM     74  C   UNL A   1      44.505  25.275  25.898  1.00  0.00     0.020 A 
ATOM     75  C   UNL A   1      44.084  23.945  25.859  1.00  0.00     0.054 A 
BRANCH  75  76
ATOM     76  S   UNL A   1      44.711  22.817  24.583  1.00  0.00     0.124 S 
ATOM     77  O   UNL A   1      45.133  21.668  25.381  1.00  0.00    -0.237 OA
ATOM     78  O   UNL A   1      43.539  22.601  23.741  1.00  0.00    -0.237 OA
ATOM     79  O   UNL A   1      45.794  23.574  23.958  1.00  0.00    -0.744 OA
ENDBRANCH  75  76
ENDBRANCH  47  70
BRANCH  59  80
ATOM     80  C   UNL A   1      45.542  26.037  34.532  1.00  0.00    -0.014 A 
ATOM     81  C   UNL A   1      45.245  24.855  35.237  1.00  0.00     0.010 A 
ATOM     82  C   UNL A   1      46.802  26.637  34.697  1.00  0.00     0.010 A 
ATOM     83  C   UNL A   1      46.170  24.313  36.132  1.00  0.00     0.020 A 
ATOM     84  C   UNL A   1      47.741  26.079  35.568  1.00  0.00     0.020 A 
ATOM     85  C   UNL A   1      47.407  24.939  36.303  1.00  0.00     0.054 A 
BRANCH  85  86
ATOM     86  S   UNL A   1      48.570  24.257  37.516  1.00  0.00     0.124 S 
ATOM     87  O   UNL A   1      49.281  25.451  37.963  1.00  0.00    -0.237 OA
ATOM     88  O   UNL A   1      47.682  23.647  38.503  1.00  0.00    -0.237 OA
ATOM     89  O   UNL A   1      49.365  23.312  36.735  1.00  0.00    -0.744 OA
ENDBRANCH  85  86
ENDBRANCH  59  80
ENDBRANCH  33  34
ENDBRANCH  26  28
ENDBRANCH  25  26
ENDBRANCH   1  25
TORSDOF 16
ENDMDL
