MODEL 1
REMARK VINA RESULT:     -10.0      0.000      0.000
REMARK SMILES CC[NH2+][C@]1(C(=O)OCCOC(=O)c2ccc(-c3c4nc(c(-c5ccc(S(=O)(=O)[O-])cc5)c5ccc([nH]5)c(-c5ccc(S(=O)(=O)[O-])cc5)c5nc(c(-c6ccc(S(=O)(=O)[O-])cc6)c6ccc3[nH]6)C=C5)C=C4)cc2)CCC[C@@H]1CCSc1ccc(C)cc1
REMARK SMILES IDX 8 1 7 2 5 3 6 4 4 5 73 6 76 7 74 8 75 9 3 10 2 13 1 14 77 15
REMARK SMILES IDX 78 16 79 17 80 18 81 19 86 20 82 21 85 22 83 23 84 24 9 25
REMARK SMILES IDX 10 26 11 27 12 28 13 29 14 30 72 31 15 32 71 33 16 34 17 35
REMARK SMILES IDX 18 36 65 37 19 38 70 39 64 40 66 41 20 42 69 43 63 44 62 45
REMARK SMILES IDX 21 47 51 48 32 49 50 50 33 51 36 52 49 53 67 54 34 55 35 56
REMARK SMILES IDX 48 58 68 59 37 60 22 61 23 62 31 63 24 64 30 65 25 66 26 67
REMARK SMILES IDX 27 68 28 69 29 70 52 71 53 72 61 73 54 74 60 75 55 76 56 77
REMARK SMILES IDX 57 78 58 79 59 80 38 81 39 82 47 83 40 84 46 85 41 86 42 87
REMARK SMILES IDX 43 88 44 89 45 90
REMARK H PARENT 3 11 3 12 66 46 36 57
REMARK Flexibility Score: inf
ROOT
ATOM      1  C   UNL A   1      32.397  30.078  25.709  1.00  0.00     0.274 C 
ENDROOT
BRANCH   1   2
ATOM      2  O   UNL A   1      32.409  28.654  25.468  1.00  0.00    -0.457 OA
BRANCH   2   3
ATOM      3  C   UNL A   1      32.886  28.307  24.241  1.00  0.00     0.368 C 
ATOM      4  O   UNL A   1      33.890  28.809  23.749  1.00  0.00    -0.245 OA
BRANCH   3   5
ATOM      5  C   UNL A   1      32.062  27.229  23.505  1.00  0.00     0.197 C 
ATOM      6  C   UNL A   1      32.639  26.914  22.104  1.00  0.00     0.081 C 
ATOM      7  C   UNL A   1      32.337  25.842  24.165  1.00  0.00     0.063 C 
ATOM      8  C   UNL A   1      32.148  25.495  21.778  1.00  0.00     0.008 C 
ATOM      9  C   UNL A   1      31.823  24.839  23.127  1.00  0.00     0.011 C 
BRANCH   5  10
ATOM     10  N   UNL A   1      30.652  27.612  23.260  1.00  0.00    -0.332 N 
ATOM     11  H   UNL A   1      30.204  26.839  22.766  1.00  0.00     0.347 HD
ATOM     12  H   UNL A   1      30.266  27.810  24.183  1.00  0.00     0.347 HD
BRANCH  10  13
ATOM     13  C   UNL A   1      30.426  28.815  22.487  1.00  0.00     0.257 C 
ATOM     14  C   UNL A   1      29.600  29.802  23.299  1.00  0.00     0.071 C 
ENDBRANCH  10  13
ENDBRANCH   5  10
BRANCH   7  15
ATOM     15  C   UNL A   1      31.898  25.561  25.612  1.00  0.00     0.022 C 
BRANCH  15  16
ATOM     16  C   UNL A   1      30.631  24.673  25.700  1.00  0.00     0.075 C 
BRANCH  16  17
ATOM     17  S   UNL A   1      30.825  22.925  26.278  1.00  0.00    -0.126 SA
BRANCH  17  18
ATOM     18  C   UNL A   1      32.498  22.431  25.883  1.00  0.00     0.007 A 
ATOM     19  C   UNL A   1      32.736  21.883  24.614  1.00  0.00     0.015 A 
ATOM     20  C   UNL A   1      33.575  22.536  26.759  1.00  0.00     0.015 A 
ATOM     21  C   UNL A   1      33.979  21.321  24.292  1.00  0.00     0.004 A 
ATOM     22  C   UNL A   1      34.800  21.921  26.467  1.00  0.00     0.004 A 
ATOM     23  C   UNL A   1      34.994  21.264  25.249  1.00  0.00    -0.051 A 
ATOM     24  C   UNL A   1      36.255  20.492  25.002  1.00  0.00     0.044 C 
ENDBRANCH  17  18
ENDBRANCH  16  17
ENDBRANCH  15  16
ENDBRANCH   7  15
ENDBRANCH   3   5
ENDBRANCH   2   3
ENDBRANCH   1   2
BRANCH   1  25
ATOM     25  C   UNL A   1      32.898  30.456  27.101  1.00  0.00     0.275 C 
BRANCH  25  26
ATOM     26  O   UNL A   1      34.332  30.417  27.126  1.00  0.00    -0.458 OA
BRANCH  26  27
ATOM     27  C   UNL A   1      34.920  30.844  28.268  1.00  0.00     0.338 C 
ATOM     28  O   UNL A   1      34.429  31.601  29.088  1.00  0.00    -0.246 OA
BRANCH  27  29
ATOM     29  C   UNL A   1      36.250  30.204  28.444  1.00  0.00     0.060 A 
ATOM     30  C   UNL A   1      36.705  29.790  29.697  1.00  0.00     0.016 A 
ATOM     31  C   UNL A   1      37.123  30.152  27.357  1.00  0.00     0.016 A 
ATOM     32  C   UNL A   1      38.052  29.494  29.897  1.00  0.00     0.010 A 
ATOM     33  C   UNL A   1      38.437  29.706  27.534  1.00  0.00     0.010 A 
ATOM     34  C   UNL A   1      38.934  29.408  28.815  1.00  0.00    -0.014 A 
BRANCH  34  35
ATOM     35  C   UNL A   1      40.358  29.000  28.992  1.00  0.00     0.031 A 
ATOM     36  C   UNL A   1      41.401  30.036  29.330  1.00  0.00     0.074 A 
ATOM     37  C   UNL A   1      40.735  27.719  28.798  1.00  0.00     0.049 A 
ATOM     38  N   UNL A   1      42.699  29.989  29.167  1.00  0.00    -0.248 NA
ATOM     39  C   UNL A   1      40.920  31.300  29.911  1.00  0.00     0.031 C 
ATOM     40  C   UNL A   1      39.838  26.586  28.549  1.00  0.00     0.029 A 
ATOM     41  N   UNL A   1      41.988  27.156  28.751  1.00  0.00    -0.354 N 
ATOM     42  C   UNL A   1      43.176  31.239  29.555  1.00  0.00     0.074 A 
ATOM     43  C   UNL A   1      42.035  32.015  29.984  1.00  0.00     0.031 C 
ATOM     44  C   UNL A   1      40.562  25.470  28.393  1.00  0.00     0.029 A 
ATOM     45  C   UNL A   1      41.971  25.829  28.384  1.00  0.00     0.049 A 
ATOM     46  H   UNL A   1      42.814  27.650  28.958  1.00  0.00     0.167 HD
ATOM     47  C   UNL A   1      44.451  31.696  29.524  1.00  0.00     0.031 A 
ATOM     48  C   UNL A   1      42.956  25.009  27.973  1.00  0.00     0.031 A 
ATOM     49  C   UNL A   1      45.574  30.895  29.113  1.00  0.00     0.049 A 
ATOM     50  C   UNL A   1      44.344  25.559  27.845  1.00  0.00     0.074 A 
ATOM     51  C   UNL A   1      46.911  31.249  29.047  1.00  0.00     0.029 A 
ATOM     52  N   UNL A   1      45.488  29.574  28.701  1.00  0.00    -0.354 N 
ATOM     53  N   UNL A   1      44.777  26.764  28.125  1.00  0.00    -0.248 NA
ATOM     54  C   UNL A   1      45.366  24.651  27.310  1.00  0.00     0.031 C 
ATOM     55  C   UNL A   1      47.625  30.155  28.547  1.00  0.00     0.029 A 
ATOM     56  C   UNL A   1      46.742  29.105  28.351  1.00  0.00     0.049 A 
ATOM     57  H   UNL A   1      44.658  29.046  28.664  1.00  0.00     0.167 HD
ATOM     58  C   UNL A   1      46.125  26.765  27.792  1.00  0.00     0.074 A 
ATOM     59  C   UNL A   1      46.438  25.430  27.317  1.00  0.00     0.031 C 
ATOM     60  C   UNL A   1      47.020  27.779  27.863  1.00  0.00     0.031 A 
BRANCH  47  61
ATOM     61  C   UNL A   1      44.695  33.142  29.878  1.00  0.00    -0.014 A 
ATOM     62  C   UNL A   1      44.584  34.169  28.925  1.00  0.00     0.010 A 
ATOM     63  C   UNL A   1      44.990  33.480  31.213  1.00  0.00     0.010 A 
ATOM     64  C   UNL A   1      44.788  35.503  29.295  1.00  0.00     0.020 A 
ATOM     65  C   UNL A   1      45.173  34.814  31.592  1.00  0.00     0.020 A 
ATOM     66  C   UNL A   1      45.084  35.817  30.626  1.00  0.00     0.054 A 
BRANCH  66  67
ATOM     67  S   UNL A   1      45.311  37.558  31.087  1.00  0.00     0.124 S 
ATOM     68  O   UNL A   1      45.792  38.140  29.837  1.00  0.00    -0.237 OA
ATOM     69  O   UNL A   1      43.966  37.962  31.489  1.00  0.00    -0.237 OA
ATOM     70  O   UNL A   1      46.291  37.507  32.169  1.00  0.00    -0.744 OA
ENDBRANCH  66  67
ENDBRANCH  47  61
BRANCH  48  71
ATOM     71  C   UNL A   1      42.618  23.628  27.530  1.00  0.00    -0.014 A 
ATOM     72  C   UNL A   1      42.394  23.344  26.173  1.00  0.00     0.010 A 
ATOM     73  C   UNL A   1      42.595  22.573  28.463  1.00  0.00     0.010 A 
ATOM     74  C   UNL A   1      42.168  22.028  25.757  1.00  0.00     0.020 A 
ATOM     75  C   UNL A   1      42.401  21.254  28.047  1.00  0.00     0.020 A 
ATOM     76  C   UNL A   1      42.183  20.991  26.694  1.00  0.00     0.054 A 
BRANCH  76  77
ATOM     77  S   UNL A   1      41.990  19.279  26.119  1.00  0.00     0.124 S 
ATOM     78  O   UNL A   1      42.930  19.227  25.005  1.00  0.00    -0.237 OA
ATOM     79  O   UNL A   1      42.363  18.503  27.299  1.00  0.00    -0.237 OA
ATOM     80  O   UNL A   1      40.578  19.200  25.753  1.00  0.00    -0.744 OA
ENDBRANCH  76  77
ENDBRANCH  48  71
BRANCH  60  81
ATOM     81  C   UNL A   1      48.422  27.474  27.423  1.00  0.00    -0.014 A 
ATOM     82  C   UNL A   1      49.361  26.952  28.328  1.00  0.00     0.010 A 
ATOM     83  C   UNL A   1      48.791  27.682  26.082  1.00  0.00     0.010 A 
ATOM     84  C   UNL A   1      50.661  26.666  27.904  1.00  0.00     0.020 A 
ATOM     85  C   UNL A   1      50.083  27.375  25.650  1.00  0.00     0.020 A 
ATOM     86  C   UNL A   1      51.013  26.882  26.568  1.00  0.00     0.054 A 
BRANCH  86  87
ATOM     87  S   UNL A   1      52.696  26.470  26.032  1.00  0.00     0.124 S 
ATOM     88  O   UNL A   1      53.508  27.124  27.055  1.00  0.00    -0.237 OA
ATOM     89  O   UNL A   1      52.696  25.010  26.067  1.00  0.00    -0.237 OA
ATOM     90  O   UNL A   1      52.786  27.055  24.696  1.00  0.00    -0.744 OA
ENDBRANCH  86  87
ENDBRANCH  60  81
ENDBRANCH  34  35
ENDBRANCH  27  29
ENDBRANCH  26  27
ENDBRANCH  25  26
ENDBRANCH   1  25
TORSDOF 20
ENDMDL
MODEL 2
REMARK VINA RESULT:      -9.7      8.410     14.192
REMARK SMILES CC[NH2+][C@]1(C(=O)OCCOC(=O)c2ccc(-c3c4nc(c(-c5ccc(S(=O)(=O)[O-])cc5)c5ccc([nH]5)c(-c5ccc(S(=O)(=O)[O-])cc5)c5nc(c(-c6ccc(S(=O)(=O)[O-])cc6)c6ccc3[nH]6)C=C5)C=C4)cc2)CCC[C@@H]1CCSc1ccc(C)cc1
REMARK SMILES IDX 8 1 7 2 5 3 6 4 4 5 73 6 76 7 74 8 75 9 3 10 2 13 1 14 77 15
REMARK SMILES IDX 78 16 79 17 80 18 81 19 86 20 82 21 85 22 83 23 84 24 9 25
REMARK SMILES IDX 10 26 11 27 12 28 13 29 14 30 72 31 15 32 71 33 16 34 17 35
REMARK SMILES IDX 18 36 65 37 19 38 70 39 64 40 66 41 20 42 69 43 63 44 62 45
REMARK SMILES IDX 21 47 51 48 32 49 50 50 33 51 36 52 49 53 67 54 34 55 35 56
REMARK SMILES IDX 48 58 68 59 37 60 22 61 23 62 31 63 24 64 30 65 25 66 26 67
REMARK SMILES IDX 27 68 28 69 29 70 52 71 53 72 61 73 54 74 60 75 55 76 56 77
REMARK SMILES IDX 57 78 58 79 59 80 38 81 39 82 47 83 40 84 46 85 41 86 42 87
REMARK SMILES IDX 43 88 44 89 45 90
REMARK H PARENT 3 11 3 12 66 46 36 57
REMARK Flexibility Score: inf
ROOT
ATOM      1  C   UNL A   1      48.323  22.897  38.500  1.00  0.00     0.274 C 
ENDROOT
BRANCH   1   2
ATOM      2  O   UNL A   1      48.293  22.692  37.071  1.00  0.00    -0.457 OA
BRANCH   2   3
ATOM      3  C   UNL A   1      48.257  21.382  36.703  1.00  0.00     0.368 C 
ATOM      4  O   UNL A   1      49.266  20.705  36.543  1.00  0.00    -0.245 OA
BRANCH   3   5
ATOM      5  C   UNL A   1      46.840  20.805  36.494  1.00  0.00     0.197 C 
ATOM      6  C   UNL A   1      46.675  20.164  35.095  1.00  0.00     0.081 C 
ATOM      7  C   UNL A   1      46.691  19.505  37.343  1.00  0.00     0.063 C 
ATOM      8  C   UNL A   1      45.530  19.151  35.251  1.00  0.00     0.008 C 
ATOM      9  C   UNL A   1      45.455  18.822  36.748  1.00  0.00     0.011 C 
BRANCH   5  10
ATOM     10  N   UNL A   1      45.760  21.815  36.580  1.00  0.00    -0.332 N 
ATOM     11  H   UNL A   1      44.893  21.322  36.798  1.00  0.00     0.347 HD
ATOM     12  H   UNL A   1      46.068  22.474  37.295  1.00  0.00     0.347 HD
BRANCH  10  13
ATOM     13  C   UNL A   1      45.521  22.619  35.399  1.00  0.00     0.257 C 
ATOM     14  C   UNL A   1      44.073  23.084  35.377  1.00  0.00     0.071 C 
ENDBRANCH  10  13
ENDBRANCH   5  10
BRANCH   7  15
ATOM     15  C   UNL A   1      46.724  19.563  38.880  1.00  0.00     0.022 C 
BRANCH  15  16
ATOM     16  C   UNL A   1      46.515  18.178  39.544  1.00  0.00     0.075 C 
BRANCH  16  17
ATOM     17  S   UNL A   1      45.519  18.095  41.103  1.00  0.00    -0.126 SA
BRANCH  17  18
ATOM     18  C   UNL A   1      44.197  16.926  40.812  1.00  0.00     0.007 A 
ATOM     19  C   UNL A   1      43.509  16.425  41.927  1.00  0.00     0.015 A 
ATOM     20  C   UNL A   1      43.819  16.466  39.554  1.00  0.00     0.015 A 
ATOM     21  C   UNL A   1      42.578  15.386  41.795  1.00  0.00     0.004 A 
ATOM     22  C   UNL A   1      42.936  15.386  39.421  1.00  0.00     0.004 A 
ATOM     23  C   UNL A   1      42.348  14.805  40.547  1.00  0.00    -0.051 A 
ATOM     24  C   UNL A   1      41.516  13.565  40.408  1.00  0.00     0.044 C 
ENDBRANCH  17  18
ENDBRANCH  16  17
ENDBRANCH  15  16
ENDBRANCH   7  15
ENDBRANCH   3   5
ENDBRANCH   2   3
ENDBRANCH   1   2
BRANCH   1  25
ATOM     25  C   UNL A   1      47.840  24.285  38.918  1.00  0.00     0.275 C 
BRANCH  25  26
ATOM     26  O   UNL A   1      46.861  24.758  37.981  1.00  0.00    -0.458 OA
BRANCH  26  27
ATOM     27  C   UNL A   1      45.597  24.872  38.448  1.00  0.00     0.338 C 
ATOM     28  O   UNL A   1      45.098  24.206  39.340  1.00  0.00    -0.246 OA
BRANCH  27  29
ATOM     29  C   UNL A   1      44.887  25.990  37.772  1.00  0.00     0.060 A 
ATOM     30  C   UNL A   1      43.493  26.061  37.739  1.00  0.00     0.016 A 
ATOM     31  C   UNL A   1      45.628  26.906  37.027  1.00  0.00     0.016 A 
ATOM     32  C   UNL A   1      42.851  26.917  36.847  1.00  0.00     0.010 A 
ATOM     33  C   UNL A   1      44.975  27.868  36.249  1.00  0.00     0.010 A 
ATOM     34  C   UNL A   1      43.575  27.863  36.116  1.00  0.00    -0.014 A 
BRANCH  34  35
ATOM     35  C   UNL A   1      42.901  28.854  35.227  1.00  0.00     0.031 A 
ATOM     36  C   UNL A   1      42.272  30.090  35.819  1.00  0.00     0.074 A 
ATOM     37  C   UNL A   1      42.799  28.629  33.900  1.00  0.00     0.049 A 
ATOM     38  N   UNL A   1      41.345  30.868  35.322  1.00  0.00    -0.248 NA
ATOM     39  C   UNL A   1      42.733  30.495  37.158  1.00  0.00     0.031 C 
ATOM     40  C   UNL A   1      43.424  27.526  33.163  1.00  0.00     0.029 A 
ATOM     41  N   UNL A   1      42.099  29.309  32.932  1.00  0.00    -0.354 N 
ATOM     42  C   UNL A   1      41.062  31.805  36.312  1.00  0.00     0.074 A 
ATOM     43  C   UNL A   1      41.931  31.516  37.431  1.00  0.00     0.031 C 
ATOM     44  C   UNL A   1      43.096  27.614  31.867  1.00  0.00     0.029 A 
ATOM     45  C   UNL A   1      42.125  28.684  31.706  1.00  0.00     0.049 A 
ATOM     46  H   UNL A   1      41.627  30.157  33.098  1.00  0.00     0.167 HD
ATOM     47  C   UNL A   1      40.138  32.795  36.291  1.00  0.00     0.031 A 
ATOM     48  C   UNL A   1      41.379  28.865  30.601  1.00  0.00     0.031 A 
ATOM     49  C   UNL A   1      39.300  33.077  35.155  1.00  0.00     0.049 A 
ATOM     50  C   UNL A   1      40.290  29.895  30.628  1.00  0.00     0.074 A 
ATOM     51  C   UNL A   1      38.334  34.059  35.016  1.00  0.00     0.029 A 
ATOM     52  N   UNL A   1      39.334  32.376  33.960  1.00  0.00    -0.354 N 
ATOM     53  N   UNL A   1      39.964  30.718  31.596  1.00  0.00    -0.248 NA
ATOM     54  C   UNL A   1      39.447  29.995  29.431  1.00  0.00     0.031 C 
ATOM     55  C   UNL A   1      37.750  33.917  33.752  1.00  0.00     0.029 A 
ATOM     56  C   UNL A   1      38.387  32.882  33.086  1.00  0.00     0.049 A 
ATOM     57  H   UNL A   1      39.943  31.629  33.760  1.00  0.00     0.167 HD
ATOM     58  C   UNL A   1      38.869  31.430  31.129  1.00  0.00     0.074 A 
ATOM     59  C   UNL A   1      38.608  30.960  29.782  1.00  0.00     0.031 C 
ATOM     60  C   UNL A   1      38.137  32.380  31.760  1.00  0.00     0.031 A 
BRANCH  47  61
ATOM     61  C   UNL A   1      39.933  33.602  37.548  1.00  0.00    -0.014 A 
ATOM     62  C   UNL A   1      40.597  34.822  37.764  1.00  0.00     0.010 A 
ATOM     63  C   UNL A   1      39.008  33.151  38.509  1.00  0.00     0.010 A 
ATOM     64  C   UNL A   1      40.360  35.560  38.930  1.00  0.00     0.020 A 
ATOM     65  C   UNL A   1      38.751  33.896  39.665  1.00  0.00     0.020 A 
ATOM     66  C   UNL A   1      39.441  35.091  39.875  1.00  0.00     0.054 A 
BRANCH  66  67
ATOM     67  S   UNL A   1      39.126  36.084  41.361  1.00  0.00     0.124 S 
ATOM     68  O   UNL A   1      40.319  35.816  42.160  1.00  0.00    -0.237 OA
ATOM     69  O   UNL A   1      39.023  37.440  40.826  1.00  0.00    -0.237 OA
ATOM     70  O   UNL A   1      37.883  35.531  41.892  1.00  0.00    -0.744 OA
ENDBRANCH  66  67
ENDBRANCH  47  61
BRANCH  48  71
ATOM     71  C   UNL A   1      41.561  27.952  29.439  1.00  0.00    -0.014 A 
ATOM     72  C   UNL A   1      42.511  28.235  28.445  1.00  0.00     0.010 A 
ATOM     73  C   UNL A   1      40.829  26.750  29.365  1.00  0.00     0.010 A 
ATOM     74  C   UNL A   1      42.738  27.325  27.407  1.00  0.00     0.020 A 
ATOM     75  C   UNL A   1      41.075  25.825  28.348  1.00  0.00     0.020 A 
ATOM     76  C   UNL A   1      42.026  26.122  27.371  1.00  0.00     0.054 A 
BRANCH  76  77
ATOM     77  S   UNL A   1      42.408  24.910  26.074  1.00  0.00     0.124 S 
ATOM     78  O   UNL A   1      42.402  25.740  24.873  1.00  0.00    -0.237 OA
ATOM     79  O   UNL A   1      43.714  24.403  26.486  1.00  0.00    -0.237 OA
ATOM     80  O   UNL A   1      41.315  23.946  26.176  1.00  0.00    -0.744 OA
ENDBRANCH  76  77
ENDBRANCH  48  71
BRANCH  60  81
ATOM     81  C   UNL A   1      36.994  32.975  30.990  1.00  0.00    -0.014 A 
ATOM     82  C   UNL A   1      37.228  33.870  29.934  1.00  0.00     0.010 A 
ATOM     83  C   UNL A   1      35.675  32.606  31.308  1.00  0.00     0.010 A 
ATOM     84  C   UNL A   1      36.156  34.411  29.221  1.00  0.00     0.020 A 
ATOM     85  C   UNL A   1      34.602  33.127  30.583  1.00  0.00     0.020 A 
ATOM     86  C   UNL A   1      34.850  34.037  29.553  1.00  0.00     0.054 A 
BRANCH  86  87
ATOM     87  S   UNL A   1      33.475  34.724  28.590  1.00  0.00     0.124 S 
ATOM     88  O   UNL A   1      34.083  35.914  28.002  1.00  0.00    -0.237 OA
ATOM     89  O   UNL A   1      33.168  33.647  27.654  1.00  0.00    -0.237 OA
ATOM     90  O   UNL A   1      32.445  34.982  29.594  1.00  0.00    -0.744 OA
ENDBRANCH  86  87
ENDBRANCH  60  81
ENDBRANCH  34  35
ENDBRANCH  27  29
ENDBRANCH  26  27
ENDBRANCH  25  26
ENDBRANCH   1  25
TORSDOF 20
ENDMDL
MODEL 3
REMARK VINA RESULT:      -9.6      4.416     10.200
REMARK SMILES CC[NH2+][C@]1(C(=O)OCCOC(=O)c2ccc(-c3c4nc(c(-c5ccc(S(=O)(=O)[O-])cc5)c5ccc([nH]5)c(-c5ccc(S(=O)(=O)[O-])cc5)c5nc(c(-c6ccc(S(=O)(=O)[O-])cc6)c6ccc3[nH]6)C=C5)C=C4)cc2)CCC[C@@H]1CCSc1ccc(C)cc1
REMARK SMILES IDX 8 1 7 2 5 3 6 4 4 5 73 6 76 7 74 8 75 9 3 10 2 13 1 14 77 15
REMARK SMILES IDX 78 16 79 17 80 18 81 19 86 20 82 21 85 22 83 23 84 24 9 25
REMARK SMILES IDX 10 26 11 27 12 28 13 29 14 30 72 31 15 32 71 33 16 34 17 35
REMARK SMILES IDX 18 36 65 37 19 38 70 39 64 40 66 41 20 42 69 43 63 44 62 45
REMARK SMILES IDX 21 47 51 48 32 49 50 50 33 51 36 52 49 53 67 54 34 55 35 56
REMARK SMILES IDX 48 58 68 59 37 60 22 61 23 62 31 63 24 64 30 65 25 66 26 67
REMARK SMILES IDX 27 68 28 69 29 70 52 71 53 72 61 73 54 74 60 75 55 76 56 77
REMARK SMILES IDX 57 78 58 79 59 80 38 81 39 82 47 83 40 84 46 85 41 86 42 87
REMARK SMILES IDX 43 88 44 89 45 90
REMARK H PARENT 3 11 3 12 66 46 36 57
REMARK Flexibility Score: inf
ROOT
ATOM      1  C   UNL A   1      36.150  22.287  24.088  1.00  0.00     0.274 C 
ENDROOT
BRANCH   1   2
ATOM      2  O   UNL A   1      35.383  23.406  24.583  1.00  0.00    -0.457 OA
BRANCH   2   3
ATOM      3  C   UNL A   1      34.554  23.093  25.616  1.00  0.00     0.368 C 
ATOM      4  O   UNL A   1      34.906  23.132  26.789  1.00  0.00    -0.245 OA
BRANCH   3   5
ATOM      5  C   UNL A   1      33.127  22.676  25.201  1.00  0.00     0.197 C 
ATOM      6  C   UNL A   1      32.226  22.390  26.426  1.00  0.00     0.081 C 
ATOM      7  C   UNL A   1      32.367  23.929  24.665  1.00  0.00     0.063 C 
ATOM      8  C   UNL A   1      30.788  22.596  25.923  1.00  0.00     0.008 C 
ATOM      9  C   UNL A   1      30.897  23.498  24.686  1.00  0.00     0.011 C 
BRANCH   5  10
ATOM     10  N   UNL A   1      33.074  21.436  24.391  1.00  0.00    -0.332 N 
ATOM     11  H   UNL A   1      32.134  21.362  24.001  1.00  0.00     0.347 HD
ATOM     12  H   UNL A   1      33.816  21.537  23.699  1.00  0.00     0.347 HD
BRANCH  10  13
ATOM     13  C   UNL A   1      33.361  20.194  25.078  1.00  0.00     0.257 C 
ATOM     14  C   UNL A   1      32.499  19.077  24.507  1.00  0.00     0.071 C 
ENDBRANCH  10  13
ENDBRANCH   5  10
BRANCH   7  15
ATOM     15  C   UNL A   1      32.821  24.628  23.372  1.00  0.00     0.022 C 
BRANCH  15  16
ATOM     16  C   UNL A   1      32.319  26.091  23.266  1.00  0.00     0.075 C 
BRANCH  16  17
ATOM     17  S   UNL A   1      31.262  26.755  24.634  1.00  0.00    -0.126 SA
BRANCH  17  18
ATOM     18  C   UNL A   1      32.331  27.721  25.694  1.00  0.00     0.007 A 
ATOM     19  C   UNL A   1      31.734  28.673  26.533  1.00  0.00     0.015 A 
ATOM     20  C   UNL A   1      33.718  27.603  25.726  1.00  0.00     0.015 A 
ATOM     21  C   UNL A   1      32.512  29.579  27.266  1.00  0.00     0.004 A 
ATOM     22  C   UNL A   1      34.501  28.544  26.407  1.00  0.00     0.004 A 
ATOM     23  C   UNL A   1      33.903  29.571  27.142  1.00  0.00    -0.051 A 
ATOM     24  C   UNL A   1      34.744  30.652  27.750  1.00  0.00     0.044 C 
ENDBRANCH  17  18
ENDBRANCH  16  17
ENDBRANCH  15  16
ENDBRANCH   7  15
ENDBRANCH   3   5
ENDBRANCH   2   3
ENDBRANCH   1   2
BRANCH   1  25
ATOM     25  C   UNL A   1      37.405  22.008  24.912  1.00  0.00     0.275 C 
BRANCH  25  26
ATOM     26  O   UNL A   1      37.959  23.246  25.382  1.00  0.00    -0.458 OA
BRANCH  26  27
ATOM     27  C   UNL A   1      39.061  23.147  26.161  1.00  0.00     0.338 C 
ATOM     28  O   UNL A   1      39.771  22.162  26.279  1.00  0.00    -0.246 OA
BRANCH  27  29
ATOM     29  C   UNL A   1      39.355  24.446  26.821  1.00  0.00     0.060 A 
ATOM     30  C   UNL A   1      40.179  25.402  26.226  1.00  0.00     0.016 A 
ATOM     31  C   UNL A   1      38.919  24.650  28.130  1.00  0.00     0.016 A 
ATOM     32  C   UNL A   1      40.697  26.455  26.978  1.00  0.00     0.010 A 
ATOM     33  C   UNL A   1      39.320  25.792  28.832  1.00  0.00     0.010 A 
ATOM     34  C   UNL A   1      40.248  26.692  28.280  1.00  0.00    -0.014 A 
BRANCH  34  35
ATOM     35  C   UNL A   1      40.716  27.867  29.072  1.00  0.00     0.031 A 
ATOM     36  C   UNL A   1      41.995  27.778  29.867  1.00  0.00     0.074 A 
ATOM     37  C   UNL A   1      39.977  28.995  29.129  1.00  0.00     0.049 A 
ATOM     38  N   UNL A   1      42.390  28.500  30.884  1.00  0.00    -0.248 NA
ATOM     39  C   UNL A   1      42.948  26.725  29.478  1.00  0.00     0.031 C 
ATOM     40  C   UNL A   1      38.763  29.269  28.355  1.00  0.00     0.029 A 
ATOM     41  N   UNL A   1      40.128  30.121  29.904  1.00  0.00    -0.354 N 
ATOM     42  C   UNL A   1      43.597  27.942  31.301  1.00  0.00     0.074 A 
ATOM     43  C   UNL A   1      43.883  26.838  30.413  1.00  0.00     0.031 C 
ATOM     44  C   UNL A   1      38.292  30.481  28.678  1.00  0.00     0.029 A 
ATOM     45  C   UNL A   1      39.080  31.005  29.781  1.00  0.00     0.049 A 
ATOM     46  H   UNL A   1      40.905  30.279  30.487  1.00  0.00     0.167 HD
ATOM     47  C   UNL A   1      44.373  28.309  32.349  1.00  0.00     0.031 A 
ATOM     48  C   UNL A   1      38.716  32.061  30.534  1.00  0.00     0.031 A 
ATOM     49  C   UNL A   1      44.077  29.427  33.205  1.00  0.00     0.049 A 
ATOM     50  C   UNL A   1      39.527  32.390  31.750  1.00  0.00     0.074 A 
ATOM     51  C   UNL A   1      44.793  29.897  34.292  1.00  0.00     0.029 A 
ATOM     52  N   UNL A   1      42.973  30.255  33.064  1.00  0.00    -0.354 N 
ATOM     53  N   UNL A   1      40.615  31.808  32.193  1.00  0.00    -0.248 NA
ATOM     54  C   UNL A   1      39.041  33.494  32.586  1.00  0.00     0.031 C 
ATOM     55  C   UNL A   1      44.093  30.979  34.839  1.00  0.00     0.029 A 
ATOM     56  C   UNL A   1      42.970  31.215  34.062  1.00  0.00     0.049 A 
ATOM     57  H   UNL A   1      42.292  30.173  32.359  1.00  0.00     0.167 HD
ATOM     58  C   UNL A   1      40.941  32.468  33.370  1.00  0.00     0.074 A 
ATOM     59  C   UNL A   1      39.951  33.513  33.551  1.00  0.00     0.031 C 
ATOM     60  C   UNL A   1      41.961  32.228  34.228  1.00  0.00     0.031 A 
BRANCH  47  61
ATOM     61  C   UNL A   1      45.576  27.459  32.673  1.00  0.00    -0.014 A 
ATOM     62  C   UNL A   1      45.478  26.309  33.475  1.00  0.00     0.010 A 
ATOM     63  C   UNL A   1      46.823  27.795  32.111  1.00  0.00     0.010 A 
ATOM     64  C   UNL A   1      46.611  25.527  33.731  1.00  0.00     0.020 A 
ATOM     65  C   UNL A   1      47.953  27.004  32.346  1.00  0.00     0.020 A 
ATOM     66  C   UNL A   1      47.841  25.881  33.167  1.00  0.00     0.054 A 
BRANCH  66  67
ATOM     67  S   UNL A   1      49.287  24.830  33.486  1.00  0.00     0.124 S 
ATOM     68  O   UNL A   1      50.084  25.676  34.370  1.00  0.00    -0.237 OA
ATOM     69  O   UNL A   1      48.695  23.651  34.114  1.00  0.00    -0.237 OA
ATOM     70  O   UNL A   1      49.854  24.606  32.159  1.00  0.00    -0.744 OA
ENDBRANCH  66  67
ENDBRANCH  47  61
BRANCH  48  71
ATOM     71  C   UNL A   1      37.452  32.780  30.219  1.00  0.00    -0.014 A 
ATOM     72  C   UNL A   1      37.416  33.766  29.219  1.00  0.00     0.010 A 
ATOM     73  C   UNL A   1      36.256  32.424  30.872  1.00  0.00     0.010 A 
ATOM     74  C   UNL A   1      36.205  34.371  28.869  1.00  0.00     0.020 A 
ATOM     75  C   UNL A   1      35.039  33.003  30.504  1.00  0.00     0.020 A 
ATOM     76  C   UNL A   1      35.023  33.978  29.506  1.00  0.00     0.054 A 
BRANCH  76  77
ATOM     77  S   UNL A   1      33.447  34.701  28.965  1.00  0.00     0.124 S 
ATOM     78  O   UNL A   1      32.996  33.733  27.971  1.00  0.00    -0.237 OA
ATOM     79  O   UNL A   1      32.674  34.742  30.204  1.00  0.00    -0.237 OA
ATOM     80  O   UNL A   1      33.834  36.007  28.439  1.00  0.00    -0.744 OA
ENDBRANCH  76  77
ENDBRANCH  48  71
BRANCH  60  81
ATOM     81  C   UNL A   1      42.055  33.119  35.432  1.00  0.00    -0.014 A 
ATOM     82  C   UNL A   1      41.454  32.750  36.647  1.00  0.00     0.010 A 
ATOM     83  C   UNL A   1      42.781  34.320  35.353  1.00  0.00     0.010 A 
ATOM     84  C   UNL A   1      41.555  33.585  37.762  1.00  0.00     0.020 A 
ATOM     85  C   UNL A   1      42.903  35.146  36.472  1.00  0.00     0.020 A 
ATOM     86  C   UNL A   1      42.277  34.779  37.666  1.00  0.00     0.054 A 
BRANCH  86  87
ATOM     87  S   UNL A   1      42.425  35.829  39.137  1.00  0.00     0.124 S 
ATOM     88  O   UNL A   1      41.027  36.047  39.495  1.00  0.00    -0.237 OA
ATOM     89  O   UNL A   1      43.187  34.990  40.057  1.00  0.00    -0.237 OA
ATOM     90  O   UNL A   1      43.134  37.010  38.647  1.00  0.00    -0.744 OA
ENDBRANCH  86  87
ENDBRANCH  60  81
ENDBRANCH  34  35
ENDBRANCH  27  29
ENDBRANCH  26  27
ENDBRANCH  25  26
ENDBRANCH   1  25
TORSDOF 20
ENDMDL
