MODEL 1
REMARK VINA RESULT:     -11.2      0.000      0.000
REMARK SMILES O=C(C[N@@H+]1C[C@@]2([N+](=O)[O-])CC=C(Cl)[C@@]([N+](=O)[O-])(C1)C2)OCCOC(=O)c1ccc(-c2c3nc(c(-c4ccc(S(=O)(=O)[O-])cc4)c4ccc([nH]4)c(-c4ccc(S(=O)(=O)[O-])cc4)c4nc(c(-c5ccc(S(=O)(=O)[O-])cc5)c5ccc2[nH]5)C=C4)C=C3)cc1
REMARK SMILES IDX 22 1 21 2 20 3 2 4 1 5 3 6 4 7 5 8 18 9 6 11 14 12 10 13
REMARK SMILES IDX 19 14 12 15 11 16 13 17 7 18 8 19 9 20 15 21 16 22 17 23
REMARK SMILES IDX 23 24 24 25 25 26 26 27 27 28 85 29 28 30 84 31 29 32 30 33
REMARK SMILES IDX 31 34 78 35 32 36 83 37 77 38 79 39 33 40 82 41 76 42 75 43
REMARK SMILES IDX 34 45 64 46 45 47 63 48 46 49 49 50 62 51 80 52 47 53 48 54
REMARK SMILES IDX 61 56 81 57 50 58 35 59 36 60 44 61 37 62 43 63 38 64 39 65
REMARK SMILES IDX 40 66 41 67 42 68 65 69 66 70 74 71 67 72 73 73 68 74 69 75
REMARK SMILES IDX 70 76 71 77 72 78 51 79 52 80 60 81 53 82 59 83 54 84 55 85
REMARK SMILES IDX 56 86 57 87 58 88
REMARK H PARENT 4 10 79 44 49 55
REMARK Flexibility Score: inf
ROOT
ATOM      1  C   UNL A   1      39.202  22.416  26.313  1.00  0.00     0.275 C 
ENDROOT
BRANCH   1   2
ATOM      2  C   UNL A   1      38.028  22.311  25.338  1.00  0.00     0.274 C 
BRANCH   2   3
ATOM      3  O   UNL A   1      36.984  21.454  25.858  1.00  0.00    -0.458 OA
BRANCH   3   4
ATOM      4  C   UNL A   1      35.657  21.732  25.863  1.00  0.00     0.361 C 
ATOM      5  O   UNL A   1      34.837  20.843  25.643  1.00  0.00    -0.245 OA
BRANCH   4   6
ATOM      6  C   UNL A   1      35.205  23.153  26.181  1.00  0.00     0.386 C 
BRANCH   6   7
ATOM      7  N   UNL A   1      33.982  23.505  25.451  1.00  0.00    -0.313 N 
ATOM      8  C   UNL A   1      34.270  23.971  24.081  1.00  0.00     0.350 C 
ATOM      9  C   UNL A   1      33.159  24.490  26.200  1.00  0.00     0.356 C 
ATOM     10  H   UNL A   1      33.433  22.649  25.366  1.00  0.00     0.349 HD
ATOM     11  C   UNL A   1      32.964  24.255  23.307  1.00  0.00     0.280 C 
ATOM     12  C   UNL A   1      31.817  24.733  25.463  1.00  0.00     0.311 C 
ATOM     13  C   UNL A   1      32.096  22.983  23.094  1.00  0.00     0.121 C 
ATOM     14  C   UNL A   1      32.135  25.311  24.064  1.00  0.00     0.191 C 
ATOM     15  C   UNL A   1      31.058  23.416  25.337  1.00  0.00     0.097 C 
ATOM     16  C   UNL A   1      31.194  22.628  24.255  1.00  0.00     0.004 C 
ATOM     17  Cl  UNL A   1      30.127  22.841  26.678  1.00  0.00    -0.081 Cl
BRANCH  11  18
ATOM     18  N   UNL A   1      33.400  24.785  21.952  1.00  0.00     0.032 N 
ATOM     19  O   UNL A   1      33.856  25.936  21.907  1.00  0.00    -0.264 OA
ATOM     20  O   UNL A   1      33.216  24.059  20.971  1.00  0.00    -0.264 OA
ENDBRANCH  11  18
BRANCH  12  21
ATOM     21  N   UNL A   1      30.975  25.747  26.221  1.00  0.00     0.038 N 
ATOM     22  O   UNL A   1      29.778  25.853  25.916  1.00  0.00    -0.263 OA
ATOM     23  O   UNL A   1      31.546  26.420  27.090  1.00  0.00    -0.263 OA
ENDBRANCH  12  21
ENDBRANCH   6   7
ENDBRANCH   4   6
ENDBRANCH   3   4
ENDBRANCH   2   3
ENDBRANCH   1   2
BRANCH   1  24
ATOM     24  O   UNL A   1      39.322  23.766  26.795  1.00  0.00    -0.458 OA
BRANCH  24  25
ATOM     25  C   UNL A   1      40.582  24.225  27.000  1.00  0.00     0.338 C 
ATOM     26  O   UNL A   1      41.583  23.901  26.387  1.00  0.00    -0.246 OA
BRANCH  25  27
ATOM     27  C   UNL A   1      40.503  25.400  27.905  1.00  0.00     0.060 A 
ATOM     28  C   UNL A   1      41.508  26.374  27.813  1.00  0.00     0.016 A 
ATOM     29  C   UNL A   1      39.397  25.609  28.738  1.00  0.00     0.016 A 
ATOM     30  C   UNL A   1      41.412  27.555  28.555  1.00  0.00     0.010 A 
ATOM     31  C   UNL A   1      39.310  26.782  29.489  1.00  0.00     0.010 A 
ATOM     32  C   UNL A   1      40.325  27.751  29.416  1.00  0.00    -0.014 A 
BRANCH  32  33
ATOM     33  C   UNL A   1      40.332  28.849  30.410  1.00  0.00     0.031 A 
ATOM     34  C   UNL A   1      41.270  28.730  31.578  1.00  0.00     0.074 A 
ATOM     35  C   UNL A   1      39.482  29.888  30.330  1.00  0.00     0.049 A 
ATOM     36  N   UNL A   1      41.382  29.491  32.632  1.00  0.00    -0.248 NA
ATOM     37  C   UNL A   1      42.193  27.583  31.552  1.00  0.00     0.031 C 
ATOM     38  C   UNL A   1      38.537  30.132  29.242  1.00  0.00     0.029 A 
ATOM     39  N   UNL A   1      39.262  30.920  31.209  1.00  0.00    -0.354 N 
ATOM     40  C   UNL A   1      42.379  28.911  33.404  1.00  0.00     0.074 A 
ATOM     41  C   UNL A   1      42.824  27.724  32.706  1.00  0.00     0.031 C 
ATOM     42  C   UNL A   1      37.814  31.228  29.535  1.00  0.00     0.029 A 
ATOM     43  C   UNL A   1      38.223  31.742  30.843  1.00  0.00     0.049 A 
ATOM     44  H   UNL A   1      39.796  31.058  32.023  1.00  0.00     0.167 HD
ATOM     45  C   UNL A   1      42.879  29.320  34.594  1.00  0.00     0.031 A 
ATOM     46  C   UNL A   1      37.648  32.770  31.501  1.00  0.00     0.031 A 
ATOM     47  C   UNL A   1      42.409  30.470  35.313  1.00  0.00     0.049 A 
ATOM     48  C   UNL A   1      38.173  33.178  32.854  1.00  0.00     0.074 A 
ATOM     49  C   UNL A   1      42.861  30.974  36.519  1.00  0.00     0.029 A 
ATOM     50  N   UNL A   1      41.362  31.281  34.903  1.00  0.00    -0.354 N 
ATOM     51  N   UNL A   1      39.155  32.653  33.550  1.00  0.00    -0.248 NA
ATOM     52  C   UNL A   1      37.519  34.321  33.509  1.00  0.00     0.031 C 
ATOM     53  C   UNL A   1      42.049  32.060  36.866  1.00  0.00     0.029 A 
ATOM     54  C   UNL A   1      41.132  32.267  35.847  1.00  0.00     0.049 A 
ATOM     55  H   UNL A   1      40.857  31.173  34.065  1.00  0.00     0.167 HD
ATOM     56  C   UNL A   1      39.253  33.418  34.709  1.00  0.00     0.074 A 
ATOM     57  C   UNL A   1      38.232  34.442  34.621  1.00  0.00     0.031 C 
ATOM     58  C   UNL A   1      40.117  33.286  35.747  1.00  0.00     0.031 A 
BRANCH  45  59
ATOM     59  C   UNL A   1      43.951  28.462  35.205  1.00  0.00    -0.014 A 
ATOM     60  C   UNL A   1      45.310  28.674  34.910  1.00  0.00     0.010 A 
ATOM     61  C   UNL A   1      43.588  27.401  36.052  1.00  0.00     0.010 A 
ATOM     62  C   UNL A   1      46.281  27.796  35.397  1.00  0.00     0.020 A 
ATOM     63  C   UNL A   1      44.558  26.537  36.563  1.00  0.00     0.020 A 
ATOM     64  C   UNL A   1      45.896  26.724  36.207  1.00  0.00     0.054 A 
BRANCH  64  65
ATOM     65  S   UNL A   1      47.168  25.571  36.792  1.00  0.00     0.124 S 
ATOM     66  O   UNL A   1      48.361  26.074  36.116  1.00  0.00    -0.237 OA
ATOM     67  O   UNL A   1      47.138  25.766  38.240  1.00  0.00    -0.237 OA
ATOM     68  O   UNL A   1      46.693  24.269  36.332  1.00  0.00    -0.744 OA
ENDBRANCH  64  65
ENDBRANCH  45  59
BRANCH  46  69
ATOM     69  C   UNL A   1      36.487  33.472  30.890  1.00  0.00    -0.014 A 
ATOM     70  C   UNL A   1      35.337  33.750  31.647  1.00  0.00     0.010 A 
ATOM     71  C   UNL A   1      36.546  33.902  29.550  1.00  0.00     0.010 A 
ATOM     72  C   UNL A   1      34.268  34.450  31.079  1.00  0.00     0.020 A 
ATOM     73  C   UNL A   1      35.489  34.622  28.987  1.00  0.00     0.020 A 
ATOM     74  C   UNL A   1      34.355  34.889  29.755  1.00  0.00     0.054 A 
BRANCH  74  75
ATOM     75  S   UNL A   1      32.996  35.879  29.069  1.00  0.00     0.124 S 
ATOM     76  O   UNL A   1      32.229  36.212  30.265  1.00  0.00    -0.237 OA
ATOM     77  O   UNL A   1      33.703  36.991  28.439  1.00  0.00    -0.237 OA
ATOM     78  O   UNL A   1      32.342  34.960  28.140  1.00  0.00    -0.744 OA
ENDBRANCH  74  75
ENDBRANCH  46  69
BRANCH  58  79
ATOM     79  C   UNL A   1      40.041  34.291  36.867  1.00  0.00    -0.014 A 
ATOM     80  C   UNL A   1      40.742  35.507  36.808  1.00  0.00     0.010 A 
ATOM     81  C   UNL A   1      39.162  34.057  37.941  1.00  0.00     0.010 A 
ATOM     82  C   UNL A   1      40.569  36.470  37.808  1.00  0.00     0.020 A 
ATOM     83  C   UNL A   1      38.969  35.025  38.929  1.00  0.00     0.020 A 
ATOM     84  C   UNL A   1      39.679  36.225  38.860  1.00  0.00     0.054 A 
BRANCH  84  85
ATOM     85  S   UNL A   1      39.406  37.522  40.099  1.00  0.00     0.124 S 
ATOM     86  O   UNL A   1      38.360  38.326  39.473  1.00  0.00    -0.237 OA
ATOM     87  O   UNL A   1      38.994  36.761  41.276  1.00  0.00    -0.237 OA
ATOM     88  O   UNL A   1      40.710  38.174  40.212  1.00  0.00    -0.744 OA
ENDBRANCH  84  85
ENDBRANCH  58  79
ENDBRANCH  32  33
ENDBRANCH  25  27
ENDBRANCH  24  25
ENDBRANCH   1  24
TORSDOF 17
ENDMDL
MODEL 2
REMARK VINA RESULT:     -11.0      4.061     10.124
REMARK SMILES O=C(C[N@@H+]1C[C@@]2([N+](=O)[O-])CC=C(Cl)[C@@]([N+](=O)[O-])(C1)C2)OCCOC(=O)c1ccc(-c2c3nc(c(-c4ccc(S(=O)(=O)[O-])cc4)c4ccc([nH]4)c(-c4ccc(S(=O)(=O)[O-])cc4)c4nc(c(-c5ccc(S(=O)(=O)[O-])cc5)c5ccc2[nH]5)C=C4)C=C3)cc1
REMARK SMILES IDX 22 1 21 2 20 3 2 4 1 5 3 6 4 7 5 8 18 9 6 11 14 12 10 13
REMARK SMILES IDX 19 14 12 15 11 16 13 17 7 18 8 19 9 20 15 21 16 22 17 23
REMARK SMILES IDX 23 24 24 25 25 26 26 27 27 28 85 29 28 30 84 31 29 32 30 33
REMARK SMILES IDX 31 34 78 35 32 36 83 37 77 38 79 39 33 40 82 41 76 42 75 43
REMARK SMILES IDX 34 45 64 46 45 47 63 48 46 49 49 50 62 51 80 52 47 53 48 54
REMARK SMILES IDX 61 56 81 57 50 58 35 59 36 60 44 61 37 62 43 63 38 64 39 65
REMARK SMILES IDX 40 66 41 67 42 68 65 69 66 70 74 71 67 72 73 73 68 74 69 75
REMARK SMILES IDX 70 76 71 77 72 78 51 79 52 80 60 81 53 82 59 83 54 84 55 85
REMARK SMILES IDX 56 86 57 87 58 88
REMARK H PARENT 4 10 79 44 49 55
REMARK Flexibility Score: inf
ROOT
ATOM      1  C   UNL A   1      32.874  29.819  25.733  1.00  0.00     0.275 C 
ENDROOT
BRANCH   1   2
ATOM      2  C   UNL A   1      32.835  29.189  24.339  1.00  0.00     0.274 C 
BRANCH   2   3
ATOM      3  O   UNL A   1      31.477  28.904  23.926  1.00  0.00    -0.458 OA
BRANCH   3   4
ATOM      4  C   UNL A   1      31.087  28.532  22.682  1.00  0.00     0.361 C 
ATOM      5  O   UNL A   1      30.609  29.360  21.909  1.00  0.00    -0.245 OA
BRANCH   4   6
ATOM      6  C   UNL A   1      31.287  27.084  22.251  1.00  0.00     0.386 C 
BRANCH   6   7
ATOM      7  N   UNL A   1      31.849  26.272  23.335  1.00  0.00    -0.313 N 
ATOM      8  C   UNL A   1      32.640  25.135  22.823  1.00  0.00     0.350 C 
ATOM      9  C   UNL A   1      30.799  25.821  24.286  1.00  0.00     0.356 C 
ATOM     10  H   UNL A   1      32.492  26.873  23.851  1.00  0.00     0.349 HD
ATOM     11  C   UNL A   1      33.289  24.346  23.982  1.00  0.00     0.280 C 
ATOM     12  C   UNL A   1      31.447  25.083  25.485  1.00  0.00     0.311 C 
ATOM     13  C   UNL A   1      34.320  25.187  24.785  1.00  0.00     0.121 C 
ATOM     14  C   UNL A   1      32.192  23.841  24.940  1.00  0.00     0.191 C 
ATOM     15  C   UNL A   1      32.420  26.020  26.196  1.00  0.00     0.097 C 
ATOM     16  C   UNL A   1      33.724  26.058  25.868  1.00  0.00     0.004 C 
ATOM     17  Cl  UNL A   1      31.809  27.171  27.335  1.00  0.00    -0.081 Cl
BRANCH  11  18
ATOM     18  N   UNL A   1      34.008  23.179  23.328  1.00  0.00     0.032 N 
ATOM     19  O   UNL A   1      34.446  22.288  24.069  1.00  0.00    -0.264 OA
ATOM     20  O   UNL A   1      34.166  23.222  22.104  1.00  0.00    -0.264 OA
ENDBRANCH  11  18
BRANCH  12  21
ATOM     21  N   UNL A   1      30.377  24.613  26.456  1.00  0.00     0.038 N 
ATOM     22  O   UNL A   1      29.284  25.198  26.447  1.00  0.00    -0.263 OA
ATOM     23  O   UNL A   1      30.673  23.678  27.215  1.00  0.00    -0.263 OA
ENDBRANCH  12  21
ENDBRANCH   6   7
ENDBRANCH   4   6
ENDBRANCH   3   4
ENDBRANCH   2   3
ENDBRANCH   1   2
BRANCH   1  24
ATOM     24  O   UNL A   1      34.192  29.686  26.295  1.00  0.00    -0.458 OA
BRANCH  24  25
ATOM     25  C   UNL A   1      34.465  30.450  27.383  1.00  0.00     0.338 C 
ATOM     26  O   UNL A   1      33.688  31.180  27.972  1.00  0.00    -0.246 OA
BRANCH  25  27
ATOM     27  C   UNL A   1      35.787  30.035  27.917  1.00  0.00     0.060 A 
ATOM     28  C   UNL A   1      36.889  30.068  27.050  1.00  0.00     0.016 A 
ATOM     29  C   UNL A   1      35.970  29.744  29.274  1.00  0.00     0.016 A 
ATOM     30  C   UNL A   1      38.173  29.805  27.535  1.00  0.00     0.010 A 
ATOM     31  C   UNL A   1      37.251  29.467  29.754  1.00  0.00     0.010 A 
ATOM     32  C   UNL A   1      38.354  29.478  28.886  1.00  0.00    -0.014 A 
BRANCH  32  33
ATOM     33  C   UNL A   1      39.644  28.932  29.367  1.00  0.00     0.031 A 
ATOM     34  C   UNL A   1      40.560  29.859  30.114  1.00  0.00     0.074 A 
ATOM     35  C   UNL A   1      40.035  27.676  29.089  1.00  0.00     0.049 A 
ATOM     36  N   UNL A   1      41.780  29.659  30.534  1.00  0.00    -0.248 NA
ATOM     37  C   UNL A   1      40.025  31.198  30.412  1.00  0.00     0.031 C 
ATOM     38  C   UNL A   1      39.236  26.672  28.391  1.00  0.00     0.029 A 
ATOM     39  N   UNL A   1      41.229  27.045  29.341  1.00  0.00    -0.354 N 
ATOM     40  C   UNL A   1      42.167  30.851  31.134  1.00  0.00     0.074 A 
ATOM     41  C   UNL A   1      41.058  31.772  31.005  1.00  0.00     0.031 C 
ATOM     42  C   UNL A   1      39.975  25.557  28.240  1.00  0.00     0.029 A 
ATOM     43  C   UNL A   1      41.308  25.783  28.803  1.00  0.00     0.049 A 
ATOM     44  H   UNL A   1      41.958  27.457  29.857  1.00  0.00     0.167 HD
ATOM     45  C   UNL A   1      43.340  31.158  31.732  1.00  0.00     0.031 A 
ATOM     46  C   UNL A   1      42.344  24.921  28.744  1.00  0.00     0.031 A 
ATOM     47  C   UNL A   1      44.459  30.263  31.821  1.00  0.00     0.049 A 
ATOM     48  C   UNL A   1      43.667  25.300  29.361  1.00  0.00     0.074 A 
ATOM     49  C   UNL A   1      45.687  30.479  32.420  1.00  0.00     0.029 A 
ATOM     50  N   UNL A   1      44.495  28.991  31.272  1.00  0.00    -0.354 N 
ATOM     51  N   UNL A   1      44.002  26.411  29.975  1.00  0.00    -0.248 NA
ATOM     52  C   UNL A   1      44.749  24.307  29.284  1.00  0.00     0.031 C 
ATOM     53  C   UNL A   1      46.487  29.354  32.185  1.00  0.00     0.029 A 
ATOM     54  C   UNL A   1      45.735  28.417  31.493  1.00  0.00     0.049 A 
ATOM     55  H   UNL A   1      43.749  28.559  30.797  1.00  0.00     0.167 HD
ATOM     56  C   UNL A   1      45.323  26.239  30.380  1.00  0.00     0.074 A 
ATOM     57  C   UNL A   1      45.726  24.918  29.944  1.00  0.00     0.031 C 
ATOM     58  C   UNL A   1      46.124  27.098  31.059  1.00  0.00     0.031 A 
BRANCH  45  59
ATOM     59  C   UNL A   1      43.474  32.553  32.276  1.00  0.00    -0.014 A 
ATOM     60  C   UNL A   1      43.097  32.860  33.596  1.00  0.00     0.010 A 
ATOM     61  C   UNL A   1      43.941  33.580  31.438  1.00  0.00     0.010 A 
ATOM     62  C   UNL A   1      43.120  34.182  34.047  1.00  0.00     0.020 A 
ATOM     63  C   UNL A   1      43.992  34.899  31.894  1.00  0.00     0.020 A 
ATOM     64  C   UNL A   1      43.553  35.195  33.186  1.00  0.00     0.054 A 
BRANCH  64  65
ATOM     65  S   UNL A   1      43.534  36.909  33.776  1.00  0.00     0.124 S 
ATOM     66  O   UNL A   1      42.328  36.927  34.601  1.00  0.00    -0.237 OA
ATOM     67  O   UNL A   1      44.795  37.012  34.508  1.00  0.00    -0.237 OA
ATOM     68  O   UNL A   1      43.463  37.697  32.549  1.00  0.00    -0.744 OA
ENDBRANCH  64  65
ENDBRANCH  45  59
BRANCH  46  69
ATOM     69  C   UNL A   1      42.172  23.616  28.051  1.00  0.00    -0.014 A 
ATOM     70  C   UNL A   1      42.705  23.410  26.767  1.00  0.00     0.010 A 
ATOM     71  C   UNL A   1      41.503  22.556  28.692  1.00  0.00     0.010 A 
ATOM     72  C   UNL A   1      42.579  22.167  26.140  1.00  0.00     0.020 A 
ATOM     73  C   UNL A   1      41.395  21.306  28.077  1.00  0.00     0.020 A 
ATOM     74  C   UNL A   1      41.932  21.120  26.802  1.00  0.00     0.054 A 
BRANCH  74  75
ATOM     75  S   UNL A   1      41.864  19.489  26.008  1.00  0.00     0.124 S 
ATOM     76  O   UNL A   1      42.342  18.613  27.071  1.00  0.00    -0.237 OA
ATOM     77  O   UNL A   1      40.448  19.363  25.671  1.00  0.00    -0.237 OA
ATOM     78  O   UNL A   1      42.758  19.633  24.861  1.00  0.00    -0.744 OA
ENDBRANCH  74  75
ENDBRANCH  46  69
BRANCH  58  79
ATOM     79  C   UNL A   1      47.513  26.639  31.421  1.00  0.00    -0.014 A 
ATOM     80  C   UNL A   1      47.760  25.908  32.595  1.00  0.00     0.010 A 
ATOM     81  C   UNL A   1      48.564  26.848  30.509  1.00  0.00     0.010 A 
ATOM     82  C   UNL A   1      49.037  25.399  32.853  1.00  0.00     0.020 A 
ATOM     83  C   UNL A   1      49.835  26.322  30.753  1.00  0.00     0.020 A 
ATOM     84  C   UNL A   1      50.066  25.604  31.927  1.00  0.00     0.054 A 
BRANCH  84  85
ATOM     85  S   UNL A   1      51.691  24.862  32.242  1.00  0.00     0.124 S 
ATOM     86  O   UNL A   1      52.508  25.461  31.191  1.00  0.00    -0.237 OA
ATOM     87  O   UNL A   1      51.990  25.307  33.601  1.00  0.00    -0.237 OA
ATOM     88  O   UNL A   1      51.451  23.427  32.103  1.00  0.00    -0.744 OA
ENDBRANCH  84  85
ENDBRANCH  58  79
ENDBRANCH  32  33
ENDBRANCH  25  27
ENDBRANCH  24  25
ENDBRANCH   1  24
TORSDOF 17
ENDMDL
MODEL 3
REMARK VINA RESULT:     -11.0      1.621      2.451
REMARK SMILES O=C(C[N@@H+]1C[C@@]2([N+](=O)[O-])CC=C(Cl)[C@@]([N+](=O)[O-])(C1)C2)OCCOC(=O)c1ccc(-c2c3nc(c(-c4ccc(S(=O)(=O)[O-])cc4)c4ccc([nH]4)c(-c4ccc(S(=O)(=O)[O-])cc4)c4nc(c(-c5ccc(S(=O)(=O)[O-])cc5)c5ccc2[nH]5)C=C4)C=C3)cc1
REMARK SMILES IDX 22 1 21 2 20 3 2 4 1 5 3 6 4 7 5 8 18 9 6 11 14 12 10 13
REMARK SMILES IDX 19 14 12 15 11 16 13 17 7 18 8 19 9 20 15 21 16 22 17 23
REMARK SMILES IDX 23 24 24 25 25 26 26 27 27 28 85 29 28 30 84 31 29 32 30 33
REMARK SMILES IDX 31 34 78 35 32 36 83 37 77 38 79 39 33 40 82 41 76 42 75 43
REMARK SMILES IDX 34 45 64 46 45 47 63 48 46 49 49 50 62 51 80 52 47 53 48 54
REMARK SMILES IDX 61 56 81 57 50 58 35 59 36 60 44 61 37 62 43 63 38 64 39 65
REMARK SMILES IDX 40 66 41 67 42 68 65 69 66 70 74 71 67 72 73 73 68 74 69 75
REMARK SMILES IDX 70 76 71 77 72 78 51 79 52 80 60 81 53 82 59 83 54 84 55 85
REMARK SMILES IDX 56 86 57 87 58 88
REMARK H PARENT 4 10 79 44 49 55
REMARK Flexibility Score: inf
ROOT
ATOM      1  C   UNL A   1      41.538  22.013  26.086  1.00  0.00     0.275 C 
ENDROOT
BRANCH   1   2
ATOM      2  C   UNL A   1      40.067  21.626  26.249  1.00  0.00     0.274 C 
BRANCH   2   3
ATOM      3  O   UNL A   1      39.215  22.795  26.296  1.00  0.00    -0.458 OA
BRANCH   3   4
ATOM      4  C   UNL A   1      37.906  22.838  25.945  1.00  0.00     0.361 C 
ATOM      5  O   UNL A   1      37.215  23.810  26.246  1.00  0.00    -0.245 OA
BRANCH   4   6
ATOM      6  C   UNL A   1      37.321  21.681  25.142  1.00  0.00     0.386 C 
BRANCH   6   7
ATOM      7  N   UNL A   1      35.856  21.742  25.099  1.00  0.00    -0.313 N 
ATOM      8  C   UNL A   1      35.250  20.402  24.979  1.00  0.00     0.350 C 
ATOM      9  C   UNL A   1      35.376  22.656  24.030  1.00  0.00     0.356 C 
ATOM     10  H   UNL A   1      35.551  22.129  25.992  1.00  0.00     0.349 HD
ATOM     11  C   UNL A   1      33.707  20.488  25.019  1.00  0.00     0.280 C 
ATOM     12  C   UNL A   1      33.834  22.798  24.103  1.00  0.00     0.311 C 
ATOM     13  C   UNL A   1      33.165  21.023  26.374  1.00  0.00     0.121 C 
ATOM     14  C   UNL A   1      33.211  21.400  23.880  1.00  0.00     0.191 C 
ATOM     15  C   UNL A   1      33.436  23.348  25.470  1.00  0.00     0.097 C 
ATOM     16  C   UNL A   1      33.135  22.530  26.495  1.00  0.00     0.004 C 
ATOM     17  Cl  UNL A   1      33.528  25.052  25.758  1.00  0.00    -0.081 Cl
BRANCH  11  18
ATOM     18  N   UNL A   1      33.215  19.065  24.821  1.00  0.00     0.032 N 
ATOM     19  O   UNL A   1      32.402  18.620  25.643  1.00  0.00    -0.264 OA
ATOM     20  O   UNL A   1      33.702  18.419  23.888  1.00  0.00    -0.264 OA
ENDBRANCH  11  18
BRANCH  12  21
ATOM     21  N   UNL A   1      33.336  23.726  23.006  1.00  0.00     0.038 N 
ATOM     22  O   UNL A   1      32.119  23.749  22.772  1.00  0.00    -0.263 OA
ATOM     23  O   UNL A   1      34.187  24.391  22.399  1.00  0.00    -0.263 OA
ENDBRANCH  12  21
ENDBRANCH   6   7
ENDBRANCH   4   6
ENDBRANCH   3   4
ENDBRANCH   2   3
ENDBRANCH   1   2
BRANCH   1  24
ATOM     24  O   UNL A   1      41.882  23.047  27.025  1.00  0.00    -0.458 OA
BRANCH  24  25
ATOM     25  C   UNL A   1      42.344  24.211  26.501  1.00  0.00     0.338 C 
ATOM     26  O   UNL A   1      42.701  24.399  25.351  1.00  0.00    -0.246 OA
BRANCH  25  27
ATOM     27  C   UNL A   1      42.076  25.295  27.479  1.00  0.00     0.060 A 
ATOM     28  C   UNL A   1      42.878  26.445  27.427  1.00  0.00     0.016 A 
ATOM     29  C   UNL A   1      40.979  25.243  28.347  1.00  0.00     0.016 A 
ATOM     30  C   UNL A   1      42.589  27.541  28.244  1.00  0.00     0.010 A 
ATOM     31  C   UNL A   1      40.700  26.333  29.173  1.00  0.00     0.010 A 
ATOM     32  C   UNL A   1      41.513  27.478  29.140  1.00  0.00    -0.014 A 
BRANCH  32  33
ATOM     33  C   UNL A   1      41.348  28.499  30.200  1.00  0.00     0.031 A 
ATOM     34  C   UNL A   1      42.216  28.386  31.420  1.00  0.00     0.074 A 
ATOM     35  C   UNL A   1      40.406  29.455  30.128  1.00  0.00     0.049 A 
ATOM     36  N   UNL A   1      42.186  29.078  32.527  1.00  0.00    -0.248 NA
ATOM     37  C   UNL A   1      43.249  27.337  31.385  1.00  0.00     0.031 C 
ATOM     38  C   UNL A   1      39.512  29.686  28.995  1.00  0.00     0.029 A 
ATOM     39  N   UNL A   1      40.029  30.397  31.055  1.00  0.00    -0.354 N 
ATOM     40  C   UNL A   1      43.185  28.541  33.328  1.00  0.00     0.074 A 
ATOM     41  C   UNL A   1      43.788  27.454  32.588  1.00  0.00     0.031 C 
ATOM     42  C   UNL A   1      38.666  30.685  29.306  1.00  0.00     0.029 A 
ATOM     43  C   UNL A   1      38.938  31.140  30.671  1.00  0.00     0.049 A 
ATOM     44  H   UNL A   1      40.494  30.526  31.911  1.00  0.00     0.167 HD
ATOM     45  C   UNL A   1      43.565  28.910  34.574  1.00  0.00     0.031 A 
ATOM     46  C   UNL A   1      38.223  32.059  31.352  1.00  0.00     0.031 A 
ATOM     47  C   UNL A   1      42.938  29.956  35.331  1.00  0.00     0.049 A 
ATOM     48  C   UNL A   1      38.619  32.418  32.762  1.00  0.00     0.074 A 
ATOM     49  C   UNL A   1      43.260  30.413  36.596  1.00  0.00     0.029 A 
ATOM     50  N   UNL A   1      41.843  30.691  34.902  1.00  0.00    -0.354 N 
ATOM     51  N   UNL A   1      39.601  31.940  33.489  1.00  0.00    -0.248 NA
ATOM     52  C   UNL A   1      37.814  33.444  33.442  1.00  0.00     0.031 C 
ATOM     53  C   UNL A   1      42.324  31.390  36.955  1.00  0.00     0.029 A 
ATOM     54  C   UNL A   1      41.457  31.581  35.889  1.00  0.00     0.049 A 
ATOM     55  H   UNL A   1      41.406  30.596  34.025  1.00  0.00     0.167 HD
ATOM     56  C   UNL A   1      39.549  32.627  34.699  1.00  0.00     0.074 A 
ATOM     57  C   UNL A   1      38.440  33.553  34.607  1.00  0.00     0.031 C 
ATOM     58  C   UNL A   1      40.355  32.504  35.785  1.00  0.00     0.031 A 
BRANCH  45  59
ATOM     59  C   UNL A   1      44.676  28.116  35.202  1.00  0.00    -0.014 A 
ATOM     60  C   UNL A   1      46.023  28.478  35.020  1.00  0.00     0.010 A 
ATOM     61  C   UNL A   1      44.367  26.966  35.949  1.00  0.00     0.010 A 
ATOM     62  C   UNL A   1      47.044  27.663  35.515  1.00  0.00     0.020 A 
ATOM     63  C   UNL A   1      45.384  26.165  36.469  1.00  0.00     0.020 A 
ATOM     64  C   UNL A   1      46.717  26.503  36.223  1.00  0.00     0.054 A 
BRANCH  64  65
ATOM     65  S   UNL A   1      48.057  25.438  36.820  1.00  0.00     0.124 S 
ATOM     66  O   UNL A   1      48.099  24.404  35.788  1.00  0.00    -0.237 OA
ATOM     67  O   UNL A   1      49.203  26.345  36.846  1.00  0.00    -0.237 OA
ATOM     68  O   UNL A   1      47.588  24.993  38.129  1.00  0.00    -0.744 OA
ENDBRANCH  64  65
ENDBRANCH  45  59
BRANCH  46  69
ATOM     69  C   UNL A   1      37.040  32.690  30.707  1.00  0.00    -0.014 A 
ATOM     70  C   UNL A   1      35.738  32.281  31.042  1.00  0.00     0.010 A 
ATOM     71  C   UNL A   1      37.212  33.735  29.780  1.00  0.00     0.010 A 
ATOM     72  C   UNL A   1      34.630  32.909  30.466  1.00  0.00     0.020 A 
ATOM     73  C   UNL A   1      36.106  34.380  29.220  1.00  0.00     0.020 A 
ATOM     74  C   UNL A   1      34.821  33.961  29.565  1.00  0.00     0.054 A 
BRANCH  74  75
ATOM     75  S   UNL A   1      33.366  34.823  28.904  1.00  0.00     0.124 S 
ATOM     76  O   UNL A   1      32.561  35.025  30.104  1.00  0.00    -0.237 OA
ATOM     77  O   UNL A   1      33.953  36.029  28.323  1.00  0.00    -0.237 OA
ATOM     78  O   UNL A   1      32.821  33.876  27.934  1.00  0.00    -0.744 OA
ENDBRANCH  74  75
ENDBRANCH  46  69
BRANCH  58  79
ATOM     79  C   UNL A   1      40.108  33.415  36.959  1.00  0.00    -0.014 A 
ATOM     80  C   UNL A   1      40.785  34.639  37.091  1.00  0.00     0.010 A 
ATOM     81  C   UNL A   1      39.098  33.086  37.883  1.00  0.00     0.010 A 
ATOM     82  C   UNL A   1      40.459  35.516  38.131  1.00  0.00     0.020 A 
ATOM     83  C   UNL A   1      38.754  33.970  38.909  1.00  0.00     0.020 A 
ATOM     84  C   UNL A   1      39.442  35.179  39.030  1.00  0.00     0.054 A 
BRANCH  84  85
ATOM     85  S   UNL A   1      38.978  36.369  40.318  1.00  0.00     0.124 S 
ATOM     86  O   UNL A   1      40.219  36.495  41.078  1.00  0.00    -0.237 OA
ATOM     87  O   UNL A   1      38.594  37.547  39.545  1.00  0.00    -0.237 OA
ATOM     88  O   UNL A   1      37.880  35.710  41.022  1.00  0.00    -0.744 OA
ENDBRANCH  84  85
ENDBRANCH  58  79
ENDBRANCH  32  33
ENDBRANCH  25  27
ENDBRANCH  24  25
ENDBRANCH   1  24
TORSDOF 17
ENDMDL
