MODEL 1
REMARK VINA RESULT:     -11.2      0.000      0.000
REMARK SMILES Cc1ccc(S(=O)(=O)n2cc(C(=O)C(=O)NCC(=O)NCC(=O)OCCOC(=O)c3ccc(-c4c5nc(c(-c6ccc(S(=O)(=O)[O-])cc6)c6ccc([nH]6)c(-c6ccc(S(=O)(=O)[O-])cc6)c6nc(c(-c7ccc(S(=O)(=O)[O-])cc7)c7ccc4[nH]7)C=C6)C=C5)cc3)c3ccccc32)cc1
REMARK SMILES IDX 22 1 23 2 21 3 20 4 18 5 19 6 17 8 16 9 14 10 15 11 12 13
REMARK SMILES IDX 13 14 11 15 9 16 10 17 95 18 90 19 94 20 91 21 93 22 92 23
REMARK SMILES IDX 6 24 7 25 8 26 5 27 1 28 2 29 3 30 97 31 4 32 96 33 24 34
REMARK SMILES IDX 25 35 26 36 27 37 28 38 29 39 30 40 31 41 89 42 32 43 88 44
REMARK SMILES IDX 33 45 34 46 35 47 82 48 36 49 87 50 81 51 83 52 37 53 86 54
REMARK SMILES IDX 80 55 79 56 38 58 68 59 49 60 67 61 50 62 53 63 66 64 84 65
REMARK SMILES IDX 51 66 52 67 65 69 85 70 54 71 39 72 40 73 48 74 41 75 47 76
REMARK SMILES IDX 42 77 43 78 44 79 45 80 46 81 69 82 70 83 78 84 71 85 77 86
REMARK SMILES IDX 72 87 73 88 74 89 75 90 76 91 55 92 56 93 64 94 57 95 63 96
REMARK SMILES IDX 58 97 59 98 60 99 61 100 62 101
REMARK H PARENT 20 7 16 12 83 57 53 68
REMARK Flexibility Score: inf
ROOT
ATOM      1  C   UNL A   1      48.599  44.740  21.771  1.00  0.00     0.325 C 
ATOM      2  O   UNL A   1      49.166  44.912  22.893  1.00  0.00    -0.250 OA
ENDROOT
BRANCH   1   3
ATOM      3  C   UNL A   1      49.177  45.339  19.767  1.00  0.00     0.238 C 
BRANCH   3   4
ATOM      4  N   UNL A   1      49.840  46.701  19.108  1.00  0.00    -0.344 N 
ATOM      5  C   UNL A   1      49.459  47.980  18.904  1.00  0.00     0.239 C 
ATOM      6  O   UNL A   1      50.328  48.751  18.473  1.00  0.00    -0.273 OA
ATOM      7  H   UNL A   1      50.753  46.537  18.777  1.00  0.00     0.164 HD
BRANCH   5   8
ATOM      8  C   UNL A   1      48.112  48.542  19.313  1.00  0.00     0.216 C 
BRANCH   8   9
ATOM      9  N   UNL A   1      47.526  49.558  18.469  1.00  0.00    -0.340 N 
ATOM     10  C   UNL A   1      46.284  50.152  18.567  1.00  0.00     0.292 C 
ATOM     11  O   UNL A   1      46.144  51.264  18.070  1.00  0.00    -0.265 OA
ATOM     12  H   UNL A   1      48.087  49.867  17.722  1.00  0.00     0.164 HD
BRANCH  10  13
ATOM     13  C   UNL A   1      45.113  49.493  19.341  1.00  0.00     0.252 C 
ATOM     14  O   UNL A   1      44.557  50.215  20.167  1.00  0.00    -0.283 OA
BRANCH  13  15
ATOM     15  C   UNL A   1      44.535  48.160  19.025  1.00  0.00     0.054 A 
ATOM     16  N   UNL A   1      44.185  45.968  18.787  1.00  0.00    -0.240 N 
ATOM     17  C   UNL A   1      44.646  46.933  19.652  1.00  0.00     0.117 A 
ATOM     18  C   UNL A   1      43.346  46.525  17.873  1.00  0.00     0.065 A 
ATOM     19  C   UNL A   1      43.549  47.907  17.994  1.00  0.00     0.012 A 
ATOM     20  C   UNL A   1      42.452  45.953  16.959  1.00  0.00     0.028 A 
ATOM     21  C   UNL A   1      42.801  48.751  17.157  1.00  0.00     0.011 A 
ATOM     22  C   UNL A   1      41.708  46.821  16.169  1.00  0.00     0.002 A 
ATOM     23  C   UNL A   1      41.873  48.199  16.270  1.00  0.00     0.001 A 
BRANCH  16  24
ATOM     24  S   UNL A   1      44.522  44.317  18.931  1.00  0.00     0.268 S 
ATOM     25  O   UNL A   1      45.940  44.262  19.230  1.00  0.00    -0.201 OA
ATOM     26  O   UNL A   1      43.905  43.724  17.765  1.00  0.00    -0.201 OA
BRANCH  24  27
ATOM     27  C   UNL A   1      43.618  43.700  20.323  1.00  0.00     0.088 A 
ATOM     28  C   UNL A   1      41.980  42.007  23.926  1.00  0.00     0.044 C 
ATOM     29  C   UNL A   1      42.482  42.614  22.647  1.00  0.00    -0.051 A 
ATOM     30  C   UNL A   1      43.481  43.580  22.725  1.00  0.00     0.005 A 
ATOM     31  C   UNL A   1      42.021  42.225  21.385  1.00  0.00     0.005 A 
ATOM     32  C   UNL A   1      44.041  44.127  21.577  1.00  0.00     0.022 A 
ATOM     33  C   UNL A   1      42.592  42.758  20.219  1.00  0.00     0.022 A 
ENDBRANCH  24  27
ENDBRANCH  16  24
ENDBRANCH  13  15
ENDBRANCH  10  13
ENDBRANCH   8   9
ENDBRANCH   5   8
ENDBRANCH   3   4
ENDBRANCH   1   3
BRANCH   1  34
ATOM     34  O   UNL A   1      47.414  43.973  22.064  1.00  0.00    -0.461 OA
BRANCH  34  35
ATOM     35  C   UNL A   1      47.577  42.549  22.110  1.00  0.00     0.274 C 
BRANCH  35  36
ATOM     36  C   UNL A   1      46.757  42.018  23.290  1.00  0.00     0.275 C 
BRANCH  36  37
ATOM     37  O   UNL A   1      46.961  42.710  24.553  1.00  0.00    -0.458 OA
BRANCH  37  38
ATOM     38  C   UNL A   1      46.957  42.034  25.734  1.00  0.00     0.338 C 
ATOM     39  O   UNL A   1      47.563  42.351  26.742  1.00  0.00    -0.246 OA
BRANCH  38  40
ATOM     40  C   UNL A   1      46.202  40.775  25.653  1.00  0.00     0.060 A 
ATOM     41  C   UNL A   1      44.534  40.714  26.331  1.00  0.00     0.016 A 
ATOM     42  C   UNL A   1      47.181  39.265  25.516  1.00  0.00     0.016 A 
ATOM     43  C   UNL A   1      43.932  39.169  27.105  1.00  0.00     0.010 A 
ATOM     44  C   UNL A   1      46.586  37.747  26.282  1.00  0.00     0.010 A 
ATOM     45  C   UNL A   1      45.014  37.734  27.170  1.00  0.00    -0.014 A 
BRANCH  45  46
ATOM     46  C   UNL A   1      45.164  36.860  28.377  1.00  0.00     0.031 A 
ATOM     47  C   UNL A   1      44.773  35.436  28.235  1.00  0.00     0.074 A 
ATOM     48  C   UNL A   1      45.740  37.263  29.529  1.00  0.00     0.049 A 
ATOM     49  N   UNL A   1      45.276  34.364  28.743  1.00  0.00    -0.248 NA
ATOM     50  C   UNL A   1      43.627  35.177  27.391  1.00  0.00     0.031 C 
ATOM     51  C   UNL A   1      46.209  36.399  30.613  1.00  0.00     0.029 A 
ATOM     52  N   UNL A   1      45.964  38.528  30.041  1.00  0.00    -0.354 N 
ATOM     53  C   UNL A   1      44.412  33.339  28.398  1.00  0.00     0.074 A 
ATOM     54  C   UNL A   1      43.482  33.867  27.432  1.00  0.00     0.031 C 
ATOM     55  C   UNL A   1      46.396  37.139  31.715  1.00  0.00     0.029 A 
ATOM     56  C   UNL A   1      45.893  38.464  31.427  1.00  0.00     0.049 A 
ATOM     57  H   UNL A   1      46.144  39.339  29.511  1.00  0.00     0.167 HD
ATOM     58  C   UNL A   1      43.967  32.381  29.246  1.00  0.00     0.031 A 
ATOM     59  C   UNL A   1      44.936  39.093  32.164  1.00  0.00     0.031 A 
ATOM     60  C   UNL A   1      44.149  32.741  30.644  1.00  0.00     0.049 A 
ATOM     61  C   UNL A   1      44.047  38.099  32.902  1.00  0.00     0.074 A 
ATOM     62  C   UNL A   1      45.279  32.792  31.439  1.00  0.00     0.029 A 
ATOM     63  N   UNL A   1      43.180  33.505  31.309  1.00  0.00    -0.354 N 
ATOM     64  N   UNL A   1      43.968  36.817  32.625  1.00  0.00    -0.248 NA
ATOM     65  C   UNL A   1      43.231  38.461  34.049  1.00  0.00     0.031 C 
ATOM     66  C   UNL A   1      44.998  33.615  32.565  1.00  0.00     0.029 A 
ATOM     67  C   UNL A   1      43.675  34.028  32.508  1.00  0.00     0.049 A 
ATOM     68  H   UNL A   1      42.267  33.655  30.975  1.00  0.00     0.167 HD
ATOM     69  C   UNL A   1      43.140  36.178  33.520  1.00  0.00     0.074 A 
ATOM     70  C   UNL A   1      42.738  37.263  34.410  1.00  0.00     0.031 C 
ATOM     71  C   UNL A   1      42.846  34.831  33.440  1.00  0.00     0.031 A 
BRANCH  58  72
ATOM     72  C   UNL A   1      43.624  31.038  28.623  1.00  0.00    -0.014 A 
ATOM     73  C   UNL A   1      44.363  30.593  27.521  1.00  0.00     0.010 A 
ATOM     74  C   UNL A   1      42.472  30.265  28.956  1.00  0.00     0.010 A 
ATOM     75  C   UNL A   1      43.925  29.507  26.740  1.00  0.00     0.020 A 
ATOM     76  C   UNL A   1      42.047  29.161  28.209  1.00  0.00     0.020 A 
ATOM     77  C   UNL A   1      42.754  28.819  27.070  1.00  0.00     0.054 A 
BRANCH  77  78
ATOM     78  S   UNL A   1      42.103  27.559  25.943  1.00  0.00     0.124 S 
ATOM     79  O   UNL A   1      40.693  27.506  26.323  1.00  0.00    -0.237 OA
ATOM     80  O   UNL A   1      42.384  28.129  24.630  1.00  0.00    -0.237 OA
ATOM     81  O   UNL A   1      42.873  26.359  26.273  1.00  0.00    -0.744 OA
ENDBRANCH  77  78
ENDBRANCH  58  72
BRANCH  59  82
ATOM     82  C   UNL A   1      44.646  40.482  31.698  1.00  0.00    -0.014 A 
ATOM     83  C   UNL A   1      43.275  40.842  31.693  1.00  0.00     0.010 A 
ATOM     84  C   UNL A   1      45.601  41.510  31.751  1.00  0.00     0.010 A 
ATOM     85  C   UNL A   1      42.870  42.150  31.975  1.00  0.00     0.020 A 
ATOM     86  C   UNL A   1      45.192  42.840  31.990  1.00  0.00     0.020 A 
ATOM     87  C   UNL A   1      43.835  43.133  32.177  1.00  0.00     0.054 A 
BRANCH  87  88
ATOM     88  S   UNL A   1      43.287  44.732  32.858  1.00  0.00     0.124 S 
ATOM     89  O   UNL A   1      43.526  45.650  31.750  1.00  0.00    -0.237 OA
ATOM     90  O   UNL A   1      41.882  44.482  33.167  1.00  0.00    -0.237 OA
ATOM     91  O   UNL A   1      44.146  44.915  34.026  1.00  0.00    -0.744 OA
ENDBRANCH  87  88
ENDBRANCH  59  82
BRANCH  71  92
ATOM     92  C   UNL A   1      41.757  34.108  34.259  1.00  0.00    -0.014 A 
ATOM     93  C   UNL A   1      40.430  34.552  34.406  1.00  0.00     0.010 A 
ATOM     94  C   UNL A   1      42.021  32.828  34.811  1.00  0.00     0.010 A 
ATOM     95  C   UNL A   1      39.414  33.759  34.965  1.00  0.00     0.020 A 
ATOM     96  C   UNL A   1      41.011  32.010  35.359  1.00  0.00     0.020 A 
ATOM     97  C   UNL A   1      39.702  32.475  35.408  1.00  0.00     0.054 A 
BRANCH  97  98
ATOM     98  S   UNL A   1      38.308  31.374  35.796  1.00  0.00     0.124 S 
ATOM     99  O   UNL A   1      38.275  31.413  37.254  1.00  0.00    -0.237 OA
ATOM    100  O   UNL A   1      37.190  32.039  35.127  1.00  0.00    -0.237 OA
ATOM    101  O   UNL A   1      38.700  30.100  35.201  1.00  0.00    -0.744 OA
ENDBRANCH  97  98
ENDBRANCH  71  92
ENDBRANCH  45  46
ENDBRANCH  38  40
ENDBRANCH  37  38
ENDBRANCH  36  37
ENDBRANCH  35  36
ENDBRANCH  34  35
ENDBRANCH   1  34
TORSDOF 21
ENDMDL
MODEL 2
REMARK VINA RESULT:     -10.8     12.440     16.526
REMARK SMILES Cc1ccc(S(=O)(=O)n2cc(C(=O)C(=O)NCC(=O)NCC(=O)OCCOC(=O)c3ccc(-c4c5nc(c(-c6ccc(S(=O)(=O)[O-])cc6)c6ccc([nH]6)c(-c6ccc(S(=O)(=O)[O-])cc6)c6nc(c(-c7ccc(S(=O)(=O)[O-])cc7)c7ccc4[nH]7)C=C6)C=C5)cc3)c3ccccc32)cc1
REMARK SMILES IDX 22 1 23 2 21 3 20 4 18 5 19 6 17 8 16 9 14 10 15 11 12 13
REMARK SMILES IDX 13 14 11 15 9 16 10 17 95 18 90 19 94 20 91 21 93 22 92 23
REMARK SMILES IDX 6 24 7 25 8 26 5 27 1 28 2 29 3 30 97 31 4 32 96 33 24 34
REMARK SMILES IDX 25 35 26 36 27 37 28 38 29 39 30 40 31 41 89 42 32 43 88 44
REMARK SMILES IDX 33 45 34 46 35 47 82 48 36 49 87 50 81 51 83 52 37 53 86 54
REMARK SMILES IDX 80 55 79 56 38 58 68 59 49 60 67 61 50 62 53 63 66 64 84 65
REMARK SMILES IDX 51 66 52 67 65 69 85 70 54 71 39 72 40 73 48 74 41 75 47 76
REMARK SMILES IDX 42 77 43 78 44 79 45 80 46 81 69 82 70 83 78 84 71 85 77 86
REMARK SMILES IDX 72 87 73 88 74 89 75 90 76 91 55 92 56 93 64 94 57 95 63 96
REMARK SMILES IDX 58 97 59 98 60 99 61 100 62 101
REMARK H PARENT 20 7 16 12 83 57 53 68
REMARK Flexibility Score: inf
ROOT
ATOM      1  C   UNL A   1      39.759  27.267  27.820  1.00  0.00     0.325 C 
ATOM      2  O   UNL A   1      40.312  27.914  26.879  1.00  0.00    -0.250 OA
ENDROOT
BRANCH   1   3
ATOM      3  C   UNL A   1      39.565  25.135  28.173  1.00  0.00     0.238 C 
BRANCH   3   4
ATOM      4  N   UNL A   1      39.836  23.779  27.269  1.00  0.00    -0.344 N 
ATOM      5  C   UNL A   1      39.102  22.948  26.499  1.00  0.00     0.239 C 
ATOM      6  O   UNL A   1      39.728  22.084  25.870  1.00  0.00    -0.273 OA
ATOM      7  H   UNL A   1      40.782  23.505  27.299  1.00  0.00     0.164 HD
BRANCH   5   8
ATOM      8  C   UNL A   1      37.616  23.112  26.248  1.00  0.00     0.216 C 
BRANCH   8   9
ATOM      9  N   UNL A   1      36.818  21.911  26.144  1.00  0.00    -0.340 N 
ATOM     10  C   UNL A   1      35.459  21.792  25.934  1.00  0.00     0.292 C 
ATOM     11  O   UNL A   1      35.049  20.749  25.437  1.00  0.00    -0.265 OA
ATOM     12  H   UNL A   1      37.310  21.063  26.235  1.00  0.00     0.164 HD
BRANCH  10  13
ATOM     13  C   UNL A   1      34.473  22.951  26.235  1.00  0.00     0.252 C 
ATOM     14  O   UNL A   1      34.003  22.960  27.372  1.00  0.00    -0.283 OA
BRANCH  13  15
ATOM     15  C   UNL A   1      34.217  24.100  25.327  1.00  0.00     0.054 A 
ATOM     16  N   UNL A   1      33.719  26.106  24.484  1.00  0.00    -0.240 N 
ATOM     17  C   UNL A   1      34.409  25.461  25.482  1.00  0.00     0.117 A 
ATOM     18  C   UNL A   1      33.517  25.261  23.436  1.00  0.00     0.065 A 
ATOM     19  C   UNL A   1      33.816  23.988  23.940  1.00  0.00     0.012 A 
ATOM     20  C   UNL A   1      33.095  25.493  22.122  1.00  0.00     0.028 A 
ATOM     21  C   UNL A   1      33.693  22.896  23.064  1.00  0.00     0.011 A 
ATOM     22  C   UNL A   1      33.015  24.393  21.276  1.00  0.00     0.002 A 
ATOM     23  C   UNL A   1      33.315  23.114  21.737  1.00  0.00     0.001 A 
BRANCH  16  24
ATOM     24  S   UNL A   1      33.303  27.745  24.517  1.00  0.00     0.268 S 
ATOM     25  O   UNL A   1      34.192  28.364  23.553  1.00  0.00    -0.201 OA
ATOM     26  O   UNL A   1      33.261  28.074  25.925  1.00  0.00    -0.201 OA
BRANCH  24  27
ATOM     27  C   UNL A   1      31.636  27.891  23.937  1.00  0.00     0.088 A 
ATOM     28  C   UNL A   1      27.586  28.814  22.809  1.00  0.00     0.044 C 
ATOM     29  C   UNL A   1      28.990  28.425  23.171  1.00  0.00    -0.051 A 
ATOM     30  C   UNL A   1      30.024  29.289  22.818  1.00  0.00     0.005 A 
ATOM     31  C   UNL A   1      29.301  27.260  23.879  1.00  0.00     0.005 A 
ATOM     32  C   UNL A   1      31.337  29.024  23.188  1.00  0.00     0.022 A 
ATOM     33  C   UNL A   1      30.622  26.992  24.273  1.00  0.00     0.022 A 
ENDBRANCH  24  27
ENDBRANCH  16  24
ENDBRANCH  13  15
ENDBRANCH  10  13
ENDBRANCH   8   9
ENDBRANCH   5   8
ENDBRANCH   3   4
ENDBRANCH   1   3
BRANCH   1  34
ATOM     34  O   UNL A   1      39.266  28.274  28.727  1.00  0.00    -0.461 OA
BRANCH  34  35
ATOM     35  C   UNL A   1      38.581  27.795  29.892  1.00  0.00     0.274 C 
BRANCH  35  36
ATOM     36  C   UNL A   1      37.669  28.918  30.398  1.00  0.00     0.275 C 
BRANCH  36  37
ATOM     37  O   UNL A   1      37.909  30.228  29.814  1.00  0.00    -0.458 OA
BRANCH  37  38
ATOM     38  C   UNL A   1      37.650  31.367  30.511  1.00  0.00     0.338 C 
ATOM     39  O   UNL A   1      36.596  31.978  30.518  1.00  0.00    -0.246 OA
BRANCH  38  40
ATOM     40  C   UNL A   1      38.839  31.876  31.208  1.00  0.00     0.060 A 
ATOM     41  C   UNL A   1      40.169  32.611  30.239  1.00  0.00     0.016 A 
ATOM     42  C   UNL A   1      39.189  31.154  32.824  1.00  0.00     0.016 A 
ATOM     43  C   UNL A   1      41.903  32.401  30.784  1.00  0.00     0.010 A 
ATOM     44  C   UNL A   1      40.898  30.946  33.356  1.00  0.00     0.010 A 
ATOM     45  C   UNL A   1      42.251  31.471  32.283  1.00  0.00    -0.014 A 
BRANCH  45  46
ATOM     46  C   UNL A   1      43.359  30.470  32.400  1.00  0.00     0.031 A 
ATOM     47  C   UNL A   1      43.366  29.350  31.427  1.00  0.00     0.074 A 
ATOM     48  C   UNL A   1      44.400  30.597  33.250  1.00  0.00     0.049 A 
ATOM     49  N   UNL A   1      44.339  28.736  30.848  1.00  0.00    -0.248 NA
ATOM     50  C   UNL A   1      42.068  28.834  31.050  1.00  0.00     0.031 C 
ATOM     51  C   UNL A   1      45.658  29.852  33.198  1.00  0.00     0.029 A 
ATOM     52  N   UNL A   1      44.549  31.350  34.401  1.00  0.00    -0.354 N 
ATOM     53  C   UNL A   1      43.767  27.674  30.168  1.00  0.00     0.074 A 
ATOM     54  C   UNL A   1      42.339  27.863  30.199  1.00  0.00     0.031 C 
ATOM     55  C   UNL A   1      46.295  29.982  34.370  1.00  0.00     0.029 A 
ATOM     56  C   UNL A   1      45.393  30.669  35.268  1.00  0.00     0.049 A 
ATOM     57  H   UNL A   1      44.127  32.223  34.575  1.00  0.00     0.167 HD
ATOM     58  C   UNL A   1      44.237  26.404  30.174  1.00  0.00     0.031 A 
ATOM     59  C   UNL A   1      44.998  30.177  36.476  1.00  0.00     0.031 A 
ATOM     60  C   UNL A   1      45.159  26.154  31.273  1.00  0.00     0.049 A 
ATOM     61  C   UNL A   1      45.086  28.656  36.521  1.00  0.00     0.074 A 
ATOM     62  C   UNL A   1      46.470  26.545  31.477  1.00  0.00     0.029 A 
ATOM     63  N   UNL A   1      44.674  25.774  32.531  1.00  0.00    -0.354 N 
ATOM     64  N   UNL A   1      45.195  27.880  35.466  1.00  0.00    -0.248 NA
ATOM     65  C   UNL A   1      45.124  27.899  37.762  1.00  0.00     0.031 C 
ATOM     66  C   UNL A   1      46.760  26.430  32.866  1.00  0.00     0.029 A 
ATOM     67  C   UNL A   1      45.653  25.911  33.520  1.00  0.00     0.049 A 
ATOM     68  H   UNL A   1      43.759  25.453  32.699  1.00  0.00     0.167 HD
ATOM     69  C   UNL A   1      45.332  26.564  35.845  1.00  0.00     0.074 A 
ATOM     70  C   UNL A   1      45.315  26.649  37.302  1.00  0.00     0.031 C 
ATOM     71  C   UNL A   1      45.427  25.529  34.936  1.00  0.00     0.031 A 
BRANCH  58  72
ATOM     72  C   UNL A   1      43.952  25.574  28.934  1.00  0.00    -0.014 A 
ATOM     73  C   UNL A   1      43.867  24.182  29.055  1.00  0.00     0.010 A 
ATOM     74  C   UNL A   1      43.948  26.088  27.604  1.00  0.00     0.010 A 
ATOM     75  C   UNL A   1      43.881  23.350  27.919  1.00  0.00     0.020 A 
ATOM     76  C   UNL A   1      43.925  25.272  26.467  1.00  0.00     0.020 A 
ATOM     77  C   UNL A   1      43.942  23.899  26.635  1.00  0.00     0.054 A 
BRANCH  77  78
ATOM     78  S   UNL A   1      44.160  22.813  25.202  1.00  0.00     0.124 S 
ATOM     79  O   UNL A   1      45.044  21.778  25.733  1.00  0.00    -0.237 OA
ATOM     80  O   UNL A   1      42.795  22.391  24.910  1.00  0.00    -0.237 OA
ATOM     81  O   UNL A   1      44.769  23.679  24.192  1.00  0.00    -0.744 OA
ENDBRANCH  77  78
ENDBRANCH  58  72
BRANCH  59  82
ATOM     82  C   UNL A   1      44.121  31.114  37.240  1.00  0.00    -0.014 A 
ATOM     83  C   UNL A   1      44.733  32.332  37.625  1.00  0.00     0.010 A 
ATOM     84  C   UNL A   1      42.721  31.074  37.155  1.00  0.00     0.010 A 
ATOM     85  C   UNL A   1      44.002  33.523  37.686  1.00  0.00     0.020 A 
ATOM     86  C   UNL A   1      41.974  32.268  37.260  1.00  0.00     0.020 A 
ATOM     87  C   UNL A   1      42.631  33.491  37.448  1.00  0.00     0.054 A 
BRANCH  87  88
ATOM     88  S   UNL A   1      41.774  35.082  37.212  1.00  0.00     0.124 S 
ATOM     89  O   UNL A   1      41.616  35.565  38.579  1.00  0.00    -0.237 OA
ATOM     90  O   UNL A   1      42.719  35.834  36.392  1.00  0.00    -0.237 OA
ATOM     91  O   UNL A   1      40.539  34.704  36.529  1.00  0.00    -0.744 OA
ENDBRANCH  87  88
ENDBRANCH  59  82
BRANCH  71  92
ATOM     92  C   UNL A   1      45.350  24.028  35.285  1.00  0.00    -0.014 A 
ATOM     93  C   UNL A   1      45.334  22.981  34.346  1.00  0.00     0.010 A 
ATOM     94  C   UNL A   1      45.437  23.612  36.639  1.00  0.00     0.010 A 
ATOM     95  C   UNL A   1      45.493  21.631  34.701  1.00  0.00     0.020 A 
ATOM     96  C   UNL A   1      45.614  22.264  37.013  1.00  0.00     0.020 A 
ATOM     97  C   UNL A   1      45.667  21.280  36.033  1.00  0.00     0.054 A 
BRANCH  97  98
ATOM     98  S   UNL A   1      46.208  19.585  36.405  1.00  0.00     0.124 S 
ATOM     99  O   UNL A   1      47.661  19.699  36.337  1.00  0.00    -0.237 OA
ATOM    100  O   UNL A   1      45.660  19.369  37.743  1.00  0.00    -0.237 OA
ATOM    101  O   UNL A   1      45.581  18.786  35.356  1.00  0.00    -0.744 OA
ENDBRANCH  97  98
ENDBRANCH  71  92
ENDBRANCH  45  46
ENDBRANCH  38  40
ENDBRANCH  37  38
ENDBRANCH  36  37
ENDBRANCH  35  36
ENDBRANCH  34  35
ENDBRANCH   1  34
TORSDOF 21
ENDMDL
MODEL 3
REMARK VINA RESULT:     -10.5     11.094     15.865
REMARK SMILES Cc1ccc(S(=O)(=O)n2cc(C(=O)C(=O)NCC(=O)NCC(=O)OCCOC(=O)c3ccc(-c4c5nc(c(-c6ccc(S(=O)(=O)[O-])cc6)c6ccc([nH]6)c(-c6ccc(S(=O)(=O)[O-])cc6)c6nc(c(-c7ccc(S(=O)(=O)[O-])cc7)c7ccc4[nH]7)C=C6)C=C5)cc3)c3ccccc32)cc1
REMARK SMILES IDX 22 1 23 2 21 3 20 4 18 5 19 6 17 8 16 9 14 10 15 11 12 13
REMARK SMILES IDX 13 14 11 15 9 16 10 17 95 18 90 19 94 20 91 21 93 22 92 23
REMARK SMILES IDX 6 24 7 25 8 26 5 27 1 28 2 29 3 30 97 31 4 32 96 33 24 34
REMARK SMILES IDX 25 35 26 36 27 37 28 38 29 39 30 40 31 41 89 42 32 43 88 44
REMARK SMILES IDX 33 45 34 46 35 47 82 48 36 49 87 50 81 51 83 52 37 53 86 54
REMARK SMILES IDX 80 55 79 56 38 58 68 59 49 60 67 61 50 62 53 63 66 64 84 65
REMARK SMILES IDX 51 66 52 67 65 69 85 70 54 71 39 72 40 73 48 74 41 75 47 76
REMARK SMILES IDX 42 77 43 78 44 79 45 80 46 81 69 82 70 83 78 84 71 85 77 86
REMARK SMILES IDX 72 87 73 88 74 89 75 90 76 91 55 92 56 93 64 94 57 95 63 96
REMARK SMILES IDX 58 97 59 98 60 99 61 100 62 101
REMARK H PARENT 20 7 16 12 83 57 53 68
REMARK Flexibility Score: inf
ROOT
ATOM      1  C   UNL A   1      47.592  27.826  26.428  1.00  0.00     0.325 C 
ATOM      2  O   UNL A   1      48.657  28.273  26.953  1.00  0.00    -0.250 OA
ENDROOT
BRANCH   1   3
ATOM      3  C   UNL A   1      46.808  25.809  26.274  1.00  0.00     0.238 C 
BRANCH   3   4
ATOM      4  N   UNL A   1      46.115  24.921  25.065  1.00  0.00    -0.344 N 
ATOM      5  C   UNL A   1      45.647  23.664  24.913  1.00  0.00     0.239 C 
ATOM      6  O   UNL A   1      45.070  23.417  23.845  1.00  0.00    -0.273 OA
ATOM      7  H   UNL A   1      46.018  25.447  24.238  1.00  0.00     0.164 HD
BRANCH   5   8
ATOM      8  C   UNL A   1      45.649  22.617  26.010  1.00  0.00     0.216 C 
BRANCH   8   9
ATOM      9  N   UNL A   1      45.241  21.277  25.657  1.00  0.00    -0.340 N 
ATOM     10  C   UNL A   1      43.967  20.746  25.608  1.00  0.00     0.292 C 
ATOM     11  O   UNL A   1      43.782  19.777  24.878  1.00  0.00    -0.265 OA
ATOM     12  H   UNL A   1      45.968  20.658  25.419  1.00  0.00     0.164 HD
BRANCH  10  13
ATOM     13  C   UNL A   1      42.779  21.379  26.376  1.00  0.00     0.252 C 
ATOM     14  O   UNL A   1      41.914  20.589  26.751  1.00  0.00    -0.283 OA
BRANCH  13  15
ATOM     15  C   UNL A   1      42.720  22.796  26.823  1.00  0.00     0.054 A 
ATOM     16  N   UNL A   1      42.630  25.025  26.901  1.00  0.00    -0.240 N 
ATOM     17  C   UNL A   1      42.119  23.914  26.274  1.00  0.00     0.117 A 
ATOM     18  C   UNL A   1      43.129  24.684  28.121  1.00  0.00     0.065 A 
ATOM     19  C   UNL A   1      43.204  23.285  28.098  1.00  0.00     0.012 A 
ATOM     20  C   UNL A   1      43.525  25.462  29.215  1.00  0.00     0.028 A 
ATOM     21  C   UNL A   1      43.693  22.640  29.247  1.00  0.00     0.011 A 
ATOM     22  C   UNL A   1      43.975  24.788  30.345  1.00  0.00     0.002 A 
ATOM     23  C   UNL A   1      44.052  23.398  30.365  1.00  0.00     0.001 A 
BRANCH  16  24
ATOM     24  S   UNL A   1      42.530  26.598  26.288  1.00  0.00     0.268 S 
ATOM     25  O   UNL A   1      42.356  26.419  24.859  1.00  0.00    -0.201 OA
ATOM     26  O   UNL A   1      43.644  27.290  26.899  1.00  0.00    -0.201 OA
BRANCH  24  27
ATOM     27  C   UNL A   1      41.072  27.348  26.955  1.00  0.00     0.088 A 
ATOM     28  C   UNL A   1      37.911  29.629  28.783  1.00  0.00     0.044 C 
ATOM     29  C   UNL A   1      38.964  28.780  28.128  1.00  0.00    -0.051 A 
ATOM     30  C   UNL A   1      39.785  29.374  27.173  1.00  0.00     0.005 A 
ATOM     31  C   UNL A   1      39.180  27.440  28.461  1.00  0.00     0.005 A 
ATOM     32  C   UNL A   1      40.826  28.665  26.583  1.00  0.00     0.022 A 
ATOM     33  C   UNL A   1      40.239  26.721  27.884  1.00  0.00     0.022 A 
ENDBRANCH  24  27
ENDBRANCH  16  24
ENDBRANCH  13  15
ENDBRANCH  10  13
ENDBRANCH   8   9
ENDBRANCH   5   8
ENDBRANCH   3   4
ENDBRANCH   1   3
BRANCH   1  34
ATOM     34  O   UNL A   1      46.899  28.991  25.935  1.00  0.00    -0.461 OA
BRANCH  34  35
ATOM     35  C   UNL A   1      46.748  30.076  26.861  1.00  0.00     0.274 C 
BRANCH  35  36
ATOM     36  C   UNL A   1      45.270  30.158  27.255  1.00  0.00     0.275 C 
BRANCH  36  37
ATOM     37  O   UNL A   1      44.615  31.423  26.960  1.00  0.00    -0.458 OA
BRANCH  37  38
ATOM     38  C   UNL A   1      44.078  32.184  27.951  1.00  0.00     0.338 C 
ATOM     39  O   UNL A   1      43.716  33.342  27.848  1.00  0.00    -0.246 OA
BRANCH  38  40
ATOM     40  C   UNL A   1      44.067  31.487  29.246  1.00  0.00     0.060 A 
ATOM     41  C   UNL A   1      42.543  30.703  29.800  1.00  0.00     0.016 A 
ATOM     42  C   UNL A   1      45.302  32.018  30.449  1.00  0.00     0.016 A 
ATOM     43  C   UNL A   1      42.142  30.673  31.586  1.00  0.00     0.010 A 
ATOM     44  C   UNL A   1      44.903  31.989  32.206  1.00  0.00     0.010 A 
ATOM     45  C   UNL A   1      43.282  31.419  32.759  1.00  0.00    -0.014 A 
BRANCH  45  46
ATOM     46  C   UNL A   1      42.848  32.280  33.905  1.00  0.00     0.031 A 
ATOM     47  C   UNL A   1      43.361  31.925  35.251  1.00  0.00     0.074 A 
ATOM     48  C   UNL A   1      42.128  33.413  33.763  1.00  0.00     0.049 A 
ATOM     49  N   UNL A   1      43.711  32.662  36.247  1.00  0.00    -0.248 NA
ATOM     50  C   UNL A   1      43.493  30.509  35.522  1.00  0.00     0.031 C 
ATOM     51  C   UNL A   1      41.948  34.458  34.772  1.00  0.00     0.029 A 
ATOM     52  N   UNL A   1      41.325  33.858  32.730  1.00  0.00    -0.354 N 
ATOM     53  C   UNL A   1      43.954  31.793  37.297  1.00  0.00     0.074 A 
ATOM     54  C   UNL A   1      43.951  30.456  36.758  1.00  0.00     0.031 C 
ATOM     55  C   UNL A   1      40.917  35.237  34.418  1.00  0.00     0.029 A 
ATOM     56  C   UNL A   1      40.296  34.622  33.267  1.00  0.00     0.049 A 
ATOM     57  H   UNL A   1      41.460  33.666  31.773  1.00  0.00     0.167 HD
ATOM     58  C   UNL A   1      43.510  31.963  38.565  1.00  0.00     0.031 A 
ATOM     59  C   UNL A   1      38.982  34.267  33.208  1.00  0.00     0.031 A 
ATOM     60  C   UNL A   1      42.421  32.926  38.653  1.00  0.00     0.049 A 
ATOM     61  C   UNL A   1      38.402  34.016  34.595  1.00  0.00     0.074 A 
ATOM     62  C   UNL A   1      42.406  34.305  38.557  1.00  0.00     0.029 A 
ATOM     63  N   UNL A   1      41.096  32.515  38.452  1.00  0.00    -0.354 N 
ATOM     64  N   UNL A   1      39.116  33.827  35.682  1.00  0.00    -0.248 NA
ATOM     65  C   UNL A   1      36.975  34.026  34.873  1.00  0.00     0.031 C 
ATOM     66  C   UNL A   1      41.076  34.719  38.265  1.00  0.00     0.029 A 
ATOM     67  C   UNL A   1      40.249  33.606  38.240  1.00  0.00     0.049 A 
ATOM     68  H   UNL A   1      40.800  31.576  38.459  1.00  0.00     0.167 HD
ATOM     69  C   UNL A   1      38.299  33.708  36.783  1.00  0.00     0.074 A 
ATOM     70  C   UNL A   1      36.967  33.877  36.210  1.00  0.00     0.031 C 
ATOM     71  C   UNL A   1      38.784  33.464  38.053  1.00  0.00     0.031 A 
BRANCH  58  72
ATOM     72  C   UNL A   1      44.367  31.360  39.666  1.00  0.00    -0.014 A 
ATOM     73  C   UNL A   1      45.670  30.949  39.362  1.00  0.00     0.010 A 
ATOM     74  C   UNL A   1      43.882  30.999  40.957  1.00  0.00     0.010 A 
ATOM     75  C   UNL A   1      46.406  30.142  40.251  1.00  0.00     0.020 A 
ATOM     76  C   UNL A   1      44.619  30.229  41.865  1.00  0.00     0.020 A 
ATOM     77  C   UNL A   1      45.863  29.762  41.482  1.00  0.00     0.054 A 
BRANCH  77  78
ATOM     78  S   UNL A   1      46.742  28.564  42.519  1.00  0.00     0.124 S 
ATOM     79  O   UNL A   1      45.720  28.198  43.498  1.00  0.00    -0.237 OA
ATOM     80  O   UNL A   1      47.108  27.523  41.566  1.00  0.00    -0.237 OA
ATOM     81  O   UNL A   1      47.865  29.328  43.063  1.00  0.00    -0.744 OA
ENDBRANCH  77  78
ENDBRANCH  58  72
BRANCH  59  82
ATOM     82  C   UNL A   1      38.575  33.716  31.880  1.00  0.00    -0.014 A 
ATOM     83  C   UNL A   1      37.716  32.590  31.933  1.00  0.00     0.010 A 
ATOM     84  C   UNL A   1      38.584  34.488  30.708  1.00  0.00     0.010 A 
ATOM     85  C   UNL A   1      36.732  32.385  30.961  1.00  0.00     0.020 A 
ATOM     86  C   UNL A   1      37.620  34.255  29.704  1.00  0.00     0.020 A 
ATOM     87  C   UNL A   1      36.655  33.255  29.877  1.00  0.00     0.054 A 
BRANCH  87  88
ATOM     88  S   UNL A   1      35.176  33.158  28.815  1.00  0.00     0.124 S 
ATOM     89  O   UNL A   1      34.559  31.907  29.241  1.00  0.00    -0.237 OA
ATOM     90  O   UNL A   1      34.444  34.368  29.178  1.00  0.00    -0.237 OA
ATOM     91  O   UNL A   1      35.730  33.161  27.463  1.00  0.00    -0.744 OA
ENDBRANCH  87  88
ENDBRANCH  59  82
BRANCH  71  92
ATOM     92  C   UNL A   1      37.922  33.092  39.278  1.00  0.00    -0.014 A 
ATOM     93  C   UNL A   1      37.955  33.755  40.518  1.00  0.00     0.010 A 
ATOM     94  C   UNL A   1      36.909  32.107  39.156  1.00  0.00     0.010 A 
ATOM     95  C   UNL A   1      37.003  33.538  41.528  1.00  0.00     0.020 A 
ATOM     96  C   UNL A   1      35.933  31.889  40.151  1.00  0.00     0.020 A 
ATOM     97  C   UNL A   1      35.973  32.629  41.326  1.00  0.00     0.054 A 
BRANCH  97  98
ATOM     98  S   UNL A   1      34.587  32.637  42.502  1.00  0.00     0.124 S 
ATOM     99  O   UNL A   1      34.447  31.222  42.829  1.00  0.00    -0.237 OA
ATOM    100  O   UNL A   1      35.098  33.481  43.581  1.00  0.00    -0.237 OA
ATOM    101  O   UNL A   1      33.491  33.226  41.738  1.00  0.00    -0.744 OA
ENDBRANCH  97  98
ENDBRANCH  71  92
ENDBRANCH  45  46
ENDBRANCH  38  40
ENDBRANCH  37  38
ENDBRANCH  36  37
ENDBRANCH  35  36
ENDBRANCH  34  35
ENDBRANCH   1  34
TORSDOF 21
ENDMDL
