MODEL 1
REMARK VINA RESULT:     -15.2      0.000      0.000
REMARK SMILES Cc1ccc(-c2nc(NC(=O)[C@H]3[C@@H](C(=O)OCCOC(=O)c4ccc(-c5c6nc(c(-c7ccc(S(=O)(=O)[O-])cc7)c7ccc([nH]7)c(-c7ccc(S(=O)(=O)[O-])cc7)c7nc(c(-c8ccc(S(=O)(=O)[O-])cc8)c8ccc5[nH]8)C=C7)C=C6)cc4)[C@@H]4CC[C@H]3O4)sc2C)cc1
REMARK SMILES IDX 17 1 16 2 14 3 15 4 13 5 12 6 85 7 82 8 84 9 86 10 83 11
REMARK SMILES IDX 10 12 9 13 11 15 8 16 6 17 7 18 88 19 87 20 89 21 5 22 1 23
REMARK SMILES IDX 2 24 3 25 91 26 4 27 90 28 18 29 19 30 20 31 21 32 22 33
REMARK SMILES IDX 23 34 81 35 24 36 80 37 25 38 26 39 27 40 74 41 28 42 79 43
REMARK SMILES IDX 73 44 75 45 29 46 78 47 72 48 71 49 30 51 60 52 41 53 59 54
REMARK SMILES IDX 42 55 45 56 58 57 76 58 43 59 44 60 57 62 77 63 46 64 31 65
REMARK SMILES IDX 32 66 40 67 33 68 39 69 34 70 35 71 36 72 37 73 38 74 61 75
REMARK SMILES IDX 62 76 70 77 63 78 69 79 64 80 65 81 66 82 67 83 68 84 47 85
REMARK SMILES IDX 48 86 56 87 49 88 55 89 50 90 51 91 52 92 53 93 54 94
REMARK H PARENT 9 14 75 50 45 61
REMARK Flexibility Score: inf
ROOT
ATOM      1  C   UNL A   1      34.154  25.234  25.417  1.00  0.00     0.274 C 
ENDROOT
BRANCH   1   2
ATOM      2  O   UNL A   1      33.391  23.802  26.124  1.00  0.00    -0.462 OA
BRANCH   2   3
ATOM      3  C   UNL A   1      33.743  22.576  26.895  1.00  0.00     0.312 C 
ATOM      4  O   UNL A   1      34.398  22.617  27.885  1.00  0.00    -0.252 OA
BRANCH   3   5
ATOM      5  C   UNL A   1      33.376  21.091  26.212  1.00  0.00     0.143 C 
ATOM      6  C   UNL A   1      34.656  20.507  25.757  1.00  0.00     0.124 C 
ATOM      7  C   UNL A   1      34.412  19.669  24.527  1.00  0.00     0.132 C 
ATOM      8  C   UNL A   1      32.533  20.712  24.899  1.00  0.00     0.133 C 
ATOM      9  C   UNL A   1      33.460  18.517  24.792  1.00  0.00     0.035 C 
ATOM     10  O   UNL A   1      33.554  20.592  23.838  1.00  0.00    -0.373 OA
ATOM     11  C   UNL A   1      32.117  19.241  24.725  1.00  0.00     0.036 C 
BRANCH   6  12
ATOM     12  C   UNL A   1      35.509  21.624  25.271  1.00  0.00     0.232 C 
ATOM     13  N   UNL A   1      36.700  22.022  26.161  1.00  0.00    -0.302 N 
ATOM     14  H   UNL A   1      36.376  21.986  27.090  1.00  0.00     0.172 HD
ATOM     15  O   UNL A   1      35.079  22.040  24.195  1.00  0.00    -0.274 OA
BRANCH  13  16
ATOM     16  C   UNL A   1      38.214  22.461  26.234  1.00  0.00     0.190 A 
ATOM     17  C   UNL A   1      40.244  22.901  27.174  1.00  0.00     0.086 A 
ATOM     18  N   UNL A   1      39.358  21.871  26.641  1.00  0.00    -0.220 NA
ATOM     19  C   UNL A   1      39.498  24.022  27.488  1.00  0.00     0.031 A 
ATOM     20  S   UNL A   1      38.583  24.171  26.111  1.00  0.00    -0.101 S 
ATOM     21  C   UNL A   1      39.539  25.199  28.355  1.00  0.00     0.059 C 
BRANCH  17  22
ATOM     22  C   UNL A   1      41.709  22.997  27.396  1.00  0.00     0.001 A 
ATOM     23  C   UNL A   1      45.594  24.825  28.106  1.00  0.00     0.044 C 
ATOM     24  C   UNL A   1      44.341  24.042  27.821  1.00  0.00    -0.051 A 
ATOM     25  C   UNL A   1      43.720  24.205  26.592  1.00  0.00     0.004 A 
ATOM     26  C   UNL A   1      43.705  23.227  28.776  1.00  0.00     0.004 A 
ATOM     27  C   UNL A   1      42.454  23.656  26.378  1.00  0.00     0.010 A 
ATOM     28  C   UNL A   1      42.391  22.714  28.573  1.00  0.00     0.010 A 
ENDBRANCH  17  22
ENDBRANCH  13  16
ENDBRANCH   6  12
ENDBRANCH   3   5
ENDBRANCH   2   3
ENDBRANCH   1   2
BRANCH   1  29
ATOM     29  C   UNL A   1      33.396  26.737  24.515  1.00  0.00     0.275 C 
BRANCH  29  30
ATOM     30  O   UNL A   1      33.317  28.483  25.031  1.00  0.00    -0.458 OA
BRANCH  30  31
ATOM     31  C   UNL A   1      33.325  29.747  25.873  1.00  0.00     0.338 C 
ATOM     32  O   UNL A   1      32.351  30.488  25.737  1.00  0.00    -0.246 OA
BRANCH  31  33
ATOM     33  C   UNL A   1      34.379  30.206  27.068  1.00  0.00     0.060 A 
ATOM     34  C   UNL A   1      34.633  31.424  27.721  1.00  0.00     0.016 A 
ATOM     35  C   UNL A   1      35.120  29.269  27.717  1.00  0.00     0.016 A 
ATOM     36  C   UNL A   1      35.750  31.586  28.703  1.00  0.00     0.010 A 
ATOM     37  C   UNL A   1      36.272  29.379  28.447  1.00  0.00     0.010 A 
ATOM     38  C   UNL A   1      36.649  30.541  28.995  1.00  0.00    -0.014 A 
BRANCH  38  39
ATOM     39  C   UNL A   1      38.046  30.410  29.493  1.00  0.00     0.031 A 
ATOM     40  C   UNL A   1      39.111  29.541  28.855  1.00  0.00     0.074 A 
ATOM     41  C   UNL A   1      38.461  31.515  30.149  1.00  0.00     0.049 A 
ATOM     42  N   UNL A   1      39.897  28.716  29.481  1.00  0.00    -0.248 NA
ATOM     43  C   UNL A   1      39.420  29.568  27.410  1.00  0.00     0.031 C 
ATOM     44  C   UNL A   1      39.757  31.974  30.605  1.00  0.00     0.029 A 
ATOM     45  N   UNL A   1      37.621  32.537  30.578  1.00  0.00    -0.354 N 
ATOM     46  C   UNL A   1      40.945  28.437  28.599  1.00  0.00     0.074 A 
ATOM     47  C   UNL A   1      40.449  28.732  27.285  1.00  0.00     0.031 C 
ATOM     48  C   UNL A   1      39.560  32.900  31.574  1.00  0.00     0.029 A 
ATOM     49  C   UNL A   1      38.120  33.116  31.738  1.00  0.00     0.049 A 
ATOM     50  H   UNL A   1      36.791  32.810  30.123  1.00  0.00     0.167 HD
ATOM     51  C   UNL A   1      42.270  28.521  28.951  1.00  0.00     0.031 A 
ATOM     52  C   UNL A   1      37.375  32.919  32.860  1.00  0.00     0.031 A 
ATOM     53  C   UNL A   1      42.407  29.213  30.248  1.00  0.00     0.049 A 
ATOM     54  C   UNL A   1      38.023  31.751  33.582  1.00  0.00     0.074 A 
ATOM     55  C   UNL A   1      43.041  30.379  30.645  1.00  0.00     0.029 A 
ATOM     56  N   UNL A   1      41.555  28.879  31.307  1.00  0.00    -0.354 N 
ATOM     57  N   UNL A   1      38.758  30.846  32.972  1.00  0.00    -0.248 NA
ATOM     58  C   UNL A   1      38.163  31.679  35.029  1.00  0.00     0.031 C 
ATOM     59  C   UNL A   1      42.493  30.778  31.906  1.00  0.00     0.029 A 
ATOM     60  C   UNL A   1      41.510  29.865  32.278  1.00  0.00     0.049 A 
ATOM     61  H   UNL A   1      41.044  28.038  31.355  1.00  0.00     0.167 HD
ATOM     62  C   UNL A   1      39.642  30.300  33.858  1.00  0.00     0.074 A 
ATOM     63  C   UNL A   1      39.159  30.779  35.150  1.00  0.00     0.031 C 
ATOM     64  C   UNL A   1      40.794  29.627  33.538  1.00  0.00     0.031 A 
BRANCH  51  65
ATOM     65  C   UNL A   1      43.405  28.309  27.917  1.00  0.00    -0.014 A 
ATOM     66  C   UNL A   1      43.178  27.728  26.653  1.00  0.00     0.010 A 
ATOM     67  C   UNL A   1      44.740  28.741  28.137  1.00  0.00     0.010 A 
ATOM     68  C   UNL A   1      44.215  27.523  25.709  1.00  0.00     0.020 A 
ATOM     69  C   UNL A   1      45.796  28.497  27.231  1.00  0.00     0.020 A 
ATOM     70  C   UNL A   1      45.525  27.898  26.009  1.00  0.00     0.054 A 
BRANCH  70  71
ATOM     71  S   UNL A   1      46.844  27.663  24.775  1.00  0.00     0.124 S 
ATOM     72  O   UNL A   1      48.060  27.744  25.581  1.00  0.00    -0.237 OA
ATOM     73  O   UNL A   1      46.535  26.342  24.235  1.00  0.00    -0.237 OA
ATOM     74  O   UNL A   1      46.652  28.772  23.842  1.00  0.00    -0.744 OA
ENDBRANCH  70  71
ENDBRANCH  51  65
BRANCH  52  75
ATOM     75  C   UNL A   1      35.966  33.489  32.755  1.00  0.00    -0.014 A 
ATOM     76  C   UNL A   1      35.551  34.299  33.850  1.00  0.00     0.010 A 
ATOM     77  C   UNL A   1      35.209  33.638  31.574  1.00  0.00     0.010 A 
ATOM     78  C   UNL A   1      34.554  35.298  33.742  1.00  0.00     0.020 A 
ATOM     79  C   UNL A   1      34.203  34.649  31.452  1.00  0.00     0.020 A 
ATOM     80  C   UNL A   1      33.915  35.508  32.524  1.00  0.00     0.054 A 
BRANCH  80  81
ATOM     81  S   UNL A   1      33.067  37.135  32.247  1.00  0.00     0.124 S 
ATOM     82  O   UNL A   1      33.954  38.080  32.912  1.00  0.00    -0.237 OA
ATOM     83  O   UNL A   1      33.033  37.243  30.787  1.00  0.00    -0.237 OA
ATOM     84  O   UNL A   1      31.764  36.927  32.871  1.00  0.00    -0.744 OA
ENDBRANCH  80  81
ENDBRANCH  52  75
BRANCH  64  85
ATOM     85  C   UNL A   1      41.432  28.619  34.460  1.00  0.00    -0.014 A 
ATOM     86  C   UNL A   1      41.226  27.240  34.340  1.00  0.00     0.010 A 
ATOM     87  C   UNL A   1      42.469  29.049  35.327  1.00  0.00     0.010 A 
ATOM     88  C   UNL A   1      41.994  26.336  35.075  1.00  0.00     0.020 A 
ATOM     89  C   UNL A   1      43.287  28.155  36.005  1.00  0.00     0.020 A 
ATOM     90  C   UNL A   1      43.027  26.800  35.889  1.00  0.00     0.054 A 
BRANCH  90  91
ATOM     91  S   UNL A   1      44.079  25.610  36.737  1.00  0.00     0.124 S 
ATOM     92  O   UNL A   1      45.412  26.083  36.372  1.00  0.00    -0.237 OA
ATOM     93  O   UNL A   1      43.708  25.794  38.139  1.00  0.00    -0.237 OA
ATOM     94  O   UNL A   1      43.687  24.327  36.160  1.00  0.00    -0.744 OA
ENDBRANCH  90  91
ENDBRANCH  64  85
ENDBRANCH  38  39
ENDBRANCH  31  33
ENDBRANCH  30  31
ENDBRANCH  29  30
ENDBRANCH   1  29
TORSDOF 17
ENDMDL
MODEL 2
REMARK VINA RESULT:     -14.3      4.247     10.958
REMARK SMILES Cc1ccc(-c2nc(NC(=O)[C@H]3[C@@H](C(=O)OCCOC(=O)c4ccc(-c5c6nc(c(-c7ccc(S(=O)(=O)[O-])cc7)c7ccc([nH]7)c(-c7ccc(S(=O)(=O)[O-])cc7)c7nc(c(-c8ccc(S(=O)(=O)[O-])cc8)c8ccc5[nH]8)C=C7)C=C6)cc4)[C@@H]4CC[C@H]3O4)sc2C)cc1
REMARK SMILES IDX 17 1 16 2 14 3 15 4 13 5 12 6 85 7 82 8 84 9 86 10 83 11
REMARK SMILES IDX 10 12 9 13 11 15 8 16 6 17 7 18 88 19 87 20 89 21 5 22 1 23
REMARK SMILES IDX 2 24 3 25 91 26 4 27 90 28 18 29 19 30 20 31 21 32 22 33
REMARK SMILES IDX 23 34 81 35 24 36 80 37 25 38 26 39 27 40 74 41 28 42 79 43
REMARK SMILES IDX 73 44 75 45 29 46 78 47 72 48 71 49 30 51 60 52 41 53 59 54
REMARK SMILES IDX 42 55 45 56 58 57 76 58 43 59 44 60 57 62 77 63 46 64 31 65
REMARK SMILES IDX 32 66 40 67 33 68 39 69 34 70 35 71 36 72 37 73 38 74 61 75
REMARK SMILES IDX 62 76 70 77 63 78 69 79 64 80 65 81 66 82 67 83 68 84 47 85
REMARK SMILES IDX 48 86 56 87 49 88 55 89 50 90 51 91 52 92 53 93 54 94
REMARK H PARENT 9 14 75 50 45 61
REMARK Flexibility Score: inf
ROOT
ATOM      1  C   UNL A   1      37.232  22.498  24.740  1.00  0.00     0.274 C 
ENDROOT
BRANCH   1   2
ATOM      2  O   UNL A   1      35.512  22.166  24.991  1.00  0.00    -0.462 OA
BRANCH   2   3
ATOM      3  C   UNL A   1      34.617  21.147  25.610  1.00  0.00     0.312 C 
ATOM      4  O   UNL A   1      34.354  21.156  26.769  1.00  0.00    -0.252 OA
BRANCH   3   5
ATOM      5  C   UNL A   1      34.154  19.840  24.671  1.00  0.00     0.143 C 
ATOM      6  C   UNL A   1      33.004  20.291  23.857  1.00  0.00     0.124 C 
ATOM      7  C   UNL A   1      32.074  19.127  23.621  1.00  0.00     0.132 C 
ATOM      8  C   UNL A   1      33.535  18.415  25.075  1.00  0.00     0.133 C 
ATOM      9  C   UNL A   1      32.745  17.996  22.864  1.00  0.00     0.035 C 
ATOM     10  O   UNL A   1      32.075  18.612  24.961  1.00  0.00    -0.373 OA
ATOM     11  C   UNL A   1      33.516  17.319  23.996  1.00  0.00     0.036 C 
BRANCH   6  12
ATOM     12  C   UNL A   1      32.207  21.229  24.691  1.00  0.00     0.232 C 
ATOM     13  N   UNL A   1      32.529  22.727  24.546  1.00  0.00    -0.302 N 
ATOM     14  H   UNL A   1      33.509  22.796  24.486  1.00  0.00     0.172 HD
ATOM     15  O   UNL A   1      31.401  20.597  25.374  1.00  0.00    -0.274 OA
BRANCH  13  16
ATOM     16  C   UNL A   1      31.972  24.201  24.451  1.00  0.00     0.190 A 
ATOM     17  C   UNL A   1      30.628  25.912  23.772  1.00  0.00     0.086 A 
ATOM     18  N   UNL A   1      30.780  24.786  24.688  1.00  0.00    -0.220 NA
ATOM     19  C   UNL A   1      31.505  25.758  22.714  1.00  0.00     0.031 A 
ATOM     20  S   UNL A   1      32.898  25.372  23.529  1.00  0.00    -0.101 S 
ATOM     21  C   UNL A   1      31.675  26.167  21.321  1.00  0.00     0.059 C 
BRANCH  17  22
ATOM     22  C   UNL A   1      29.799  27.145  23.770  1.00  0.00     0.001 A 
ATOM     23  C   UNL A   1      28.107  30.894  22.351  1.00  0.00     0.044 C 
ATOM     24  C   UNL A   1      28.622  29.640  23.004  1.00  0.00    -0.051 A 
ATOM     25  C   UNL A   1      29.954  29.590  23.387  1.00  0.00     0.004 A 
ATOM     26  C   UNL A   1      27.851  28.472  23.152  1.00  0.00     0.004 A 
ATOM     27  C   UNL A   1      30.509  28.377  23.800  1.00  0.00     0.010 A 
ATOM     28  C   UNL A   1      28.434  27.226  23.524  1.00  0.00     0.010 A 
ENDBRANCH  17  22
ENDBRANCH  13  16
ENDBRANCH   6  12
ENDBRANCH   3   5
ENDBRANCH   2   3
ENDBRANCH   1   2
BRANCH   1  29
ATOM     29  C   UNL A   1      38.786  21.640  25.445  1.00  0.00     0.275 C 
BRANCH  29  30
ATOM     30  O   UNL A   1      40.103  22.314  26.510  1.00  0.00    -0.458 OA
BRANCH  30  31
ATOM     31  C   UNL A   1      40.915  23.236  27.401  1.00  0.00     0.338 C 
ATOM     32  O   UNL A   1      41.750  22.688  28.122  1.00  0.00    -0.246 OA
BRANCH  31  33
ATOM     33  C   UNL A   1      40.955  24.894  27.439  1.00  0.00     0.060 A 
ATOM     34  C   UNL A   1      41.362  25.875  26.520  1.00  0.00     0.016 A 
ATOM     35  C   UNL A   1      40.387  25.563  28.478  1.00  0.00     0.016 A 
ATOM     36  C   UNL A   1      41.401  27.330  26.868  1.00  0.00     0.010 A 
ATOM     37  C   UNL A   1      40.578  26.838  28.939  1.00  0.00     0.010 A 
ATOM     38  C   UNL A   1      41.082  27.800  28.158  1.00  0.00    -0.014 A 
BRANCH  38  39
ATOM     39  C   UNL A   1      41.410  28.984  28.999  1.00  0.00     0.031 A 
ATOM     40  C   UNL A   1      40.457  29.630  29.986  1.00  0.00     0.074 A 
ATOM     41  C   UNL A   1      42.731  29.076  29.264  1.00  0.00     0.049 A 
ATOM     42  N   UNL A   1      40.217  30.904  30.090  1.00  0.00    -0.248 NA
ATOM     43  C   UNL A   1      39.707  28.868  31.005  1.00  0.00     0.031 C 
ATOM     44  C   UNL A   1      43.507  29.873  30.190  1.00  0.00     0.029 A 
ATOM     45  N   UNL A   1      43.716  28.346  28.608  1.00  0.00    -0.354 N 
ATOM     46  C   UNL A   1      39.612  31.081  31.338  1.00  0.00     0.074 A 
ATOM     47  C   UNL A   1      39.065  29.804  31.701  1.00  0.00     0.031 C 
ATOM     48  C   UNL A   1      44.788  29.906  29.749  1.00  0.00     0.029 A 
ATOM     49  C   UNL A   1      44.896  29.077  28.545  1.00  0.00     0.049 A 
ATOM     50  H   UNL A   1      43.594  27.441  28.241  1.00  0.00     0.167 HD
ATOM     51  C   UNL A   1      40.026  32.020  32.250  1.00  0.00     0.031 A 
ATOM     52  C   UNL A   1      45.277  29.472  27.299  1.00  0.00     0.031 A 
ATOM     53  C   UNL A   1      41.334  32.575  31.850  1.00  0.00     0.049 A 
ATOM     54  C   UNL A   1      44.792  30.903  27.156  1.00  0.00     0.074 A 
ATOM     55  C   UNL A   1      42.585  32.593  32.445  1.00  0.00     0.029 A 
ATOM     56  N   UNL A   1      41.555  32.937  30.516  1.00  0.00    -0.354 N 
ATOM     57  N   UNL A   1      43.790  31.396  27.852  1.00  0.00    -0.248 NA
ATOM     58  C   UNL A   1      45.556  31.947  26.490  1.00  0.00     0.031 C 
ATOM     59  C   UNL A   1      43.556  32.883  31.432  1.00  0.00     0.029 A 
ATOM     60  C   UNL A   1      42.903  33.028  30.211  1.00  0.00     0.049 A 
ATOM     61  H   UNL A   1      40.834  33.108  29.867  1.00  0.00     0.167 HD
ATOM     62  C   UNL A   1      43.935  32.749  27.967  1.00  0.00     0.074 A 
ATOM     63  C   UNL A   1      44.996  33.056  27.012  1.00  0.00     0.031 C 
ATOM     64  C   UNL A   1      43.331  33.548  28.906  1.00  0.00     0.031 A 
BRANCH  51  65
ATOM     65  C   UNL A   1      39.401  32.115  33.665  1.00  0.00    -0.014 A 
ATOM     66  C   UNL A   1      40.123  31.798  34.835  1.00  0.00     0.010 A 
ATOM     67  C   UNL A   1      38.081  32.586  33.896  1.00  0.00     0.010 A 
ATOM     68  C   UNL A   1      39.551  31.874  36.129  1.00  0.00     0.020 A 
ATOM     69  C   UNL A   1      37.478  32.617  35.173  1.00  0.00     0.020 A 
ATOM     70  C   UNL A   1      38.224  32.271  36.291  1.00  0.00     0.054 A 
BRANCH  70  71
ATOM     71  S   UNL A   1      37.509  32.399  37.962  1.00  0.00     0.124 S 
ATOM     72  O   UNL A   1      37.227  31.007  38.301  1.00  0.00    -0.237 OA
ATOM     73  O   UNL A   1      38.592  33.023  38.718  1.00  0.00    -0.237 OA
ATOM     74  O   UNL A   1      36.325  33.236  37.773  1.00  0.00    -0.744 OA
ENDBRANCH  70  71
ENDBRANCH  51  65
BRANCH  52  75
ATOM     75  C   UNL A   1      45.529  28.307  26.350  1.00  0.00    -0.014 A 
ATOM     76  C   UNL A   1      46.639  27.478  26.681  1.00  0.00     0.010 A 
ATOM     77  C   UNL A   1      44.597  27.738  25.457  1.00  0.00     0.010 A 
ATOM     78  C   UNL A   1      46.745  26.126  26.277  1.00  0.00     0.020 A 
ATOM     79  C   UNL A   1      44.692  26.368  25.047  1.00  0.00     0.020 A 
ATOM     80  C   UNL A   1      45.741  25.555  25.501  1.00  0.00     0.054 A 
BRANCH  80  81
ATOM     81  S   UNL A   1      45.602  23.705  25.469  1.00  0.00     0.124 S 
ATOM     82  O   UNL A   1      45.745  23.393  24.053  1.00  0.00    -0.237 OA
ATOM     83  O   UNL A   1      46.720  23.277  26.312  1.00  0.00    -0.237 OA
ATOM     84  O   UNL A   1      44.282  23.474  26.048  1.00  0.00    -0.744 OA
ENDBRANCH  80  81
ENDBRANCH  52  75
BRANCH  64  85
ATOM     85  C   UNL A   1      43.088  35.020  28.690  1.00  0.00    -0.014 A 
ATOM     86  C   UNL A   1      43.912  36.015  29.229  1.00  0.00     0.010 A 
ATOM     87  C   UNL A   1      42.143  35.419  27.709  1.00  0.00     0.010 A 
ATOM     88  C   UNL A   1      43.777  37.346  28.836  1.00  0.00     0.020 A 
ATOM     89  C   UNL A   1      42.051  36.729  27.257  1.00  0.00     0.020 A 
ATOM     90  C   UNL A   1      42.859  37.690  27.843  1.00  0.00     0.054 A 
BRANCH  90  91
ATOM     91  S   UNL A   1      42.782  39.395  27.269  1.00  0.00     0.124 S 
ATOM     92  O   UNL A   1      41.532  39.394  26.513  1.00  0.00    -0.237 OA
ATOM     93  O   UNL A   1      42.762  40.154  28.517  1.00  0.00    -0.237 OA
ATOM     94  O   UNL A   1      43.998  39.548  26.474  1.00  0.00    -0.744 OA
ENDBRANCH  90  91
ENDBRANCH  64  85
ENDBRANCH  38  39
ENDBRANCH  31  33
ENDBRANCH  30  31
ENDBRANCH  29  30
ENDBRANCH   1  29
TORSDOF 17
ENDMDL
MODEL 3
REMARK VINA RESULT:     -13.8      3.380      6.731
REMARK SMILES Cc1ccc(-c2nc(NC(=O)[C@H]3[C@@H](C(=O)OCCOC(=O)c4ccc(-c5c6nc(c(-c7ccc(S(=O)(=O)[O-])cc7)c7ccc([nH]7)c(-c7ccc(S(=O)(=O)[O-])cc7)c7nc(c(-c8ccc(S(=O)(=O)[O-])cc8)c8ccc5[nH]8)C=C7)C=C6)cc4)[C@@H]4CC[C@H]3O4)sc2C)cc1
REMARK SMILES IDX 17 1 16 2 14 3 15 4 13 5 12 6 85 7 82 8 84 9 86 10 83 11
REMARK SMILES IDX 10 12 9 13 11 15 8 16 6 17 7 18 88 19 87 20 89 21 5 22 1 23
REMARK SMILES IDX 2 24 3 25 91 26 4 27 90 28 18 29 19 30 20 31 21 32 22 33
REMARK SMILES IDX 23 34 81 35 24 36 80 37 25 38 26 39 27 40 74 41 28 42 79 43
REMARK SMILES IDX 73 44 75 45 29 46 78 47 72 48 71 49 30 51 60 52 41 53 59 54
REMARK SMILES IDX 42 55 45 56 58 57 76 58 43 59 44 60 57 62 77 63 46 64 31 65
REMARK SMILES IDX 32 66 40 67 33 68 39 69 34 70 35 71 36 72 37 73 38 74 61 75
REMARK SMILES IDX 62 76 70 77 63 78 69 79 64 80 65 81 66 82 67 83 68 84 47 85
REMARK SMILES IDX 48 86 56 87 49 88 55 89 50 90 51 91 52 92 53 93 54 94
REMARK H PARENT 9 14 75 50 45 61
REMARK Flexibility Score: inf
ROOT
ATOM      1  C   UNL A   1      33.419  29.350  26.902  1.00  0.00     0.274 C 
ENDROOT
BRANCH   1   2
ATOM      2  O   UNL A   1      32.215  28.944  25.670  1.00  0.00    -0.462 OA
BRANCH   2   3
ATOM      3  C   UNL A   1      31.880  29.246  24.250  1.00  0.00     0.312 C 
ATOM      4  O   UNL A   1      32.716  29.380  23.416  1.00  0.00    -0.252 OA
BRANCH   3   5
ATOM      5  C   UNL A   1      30.287  29.612  23.884  1.00  0.00     0.143 C 
ATOM      6  C   UNL A   1      29.618  28.330  23.575  1.00  0.00     0.124 C 
ATOM      7  C   UNL A   1      28.545  28.565  22.542  1.00  0.00     0.132 C 
ATOM      8  C   UNL A   1      29.646  30.443  22.668  1.00  0.00     0.133 C 
ATOM      9  C   UNL A   1      27.474  29.524  23.028  1.00  0.00     0.035 C 
ATOM     10  O   UNL A   1      29.307  29.409  21.667  1.00  0.00    -0.373 OA
ATOM     11  C   UNL A   1      28.172  30.863  22.796  1.00  0.00     0.036 C 
BRANCH   6  12
ATOM     12  C   UNL A   1      30.609  27.466  22.879  1.00  0.00     0.232 C 
ATOM     13  N   UNL A   1      31.451  26.530  23.764  1.00  0.00    -0.302 N 
ATOM     14  H   UNL A   1      31.691  27.048  24.566  1.00  0.00     0.172 HD
ATOM     15  O   UNL A   1      30.565  27.674  21.667  1.00  0.00    -0.274 OA
BRANCH  13  16
ATOM     16  C   UNL A   1      32.097  25.101  23.947  1.00  0.00     0.190 A 
ATOM     17  C   UNL A   1      32.236  22.827  23.919  1.00  0.00     0.086 A 
ATOM     18  N   UNL A   1      32.334  24.052  23.133  1.00  0.00    -0.220 NA
ATOM     19  C   UNL A   1      31.533  23.088  25.080  1.00  0.00     0.031 A 
ATOM     20  S   UNL A   1      32.279  24.484  25.578  1.00  0.00    -0.101 S 
ATOM     21  C   UNL A   1      30.725  22.403  26.089  1.00  0.00     0.059 C 
BRANCH  17  22
ATOM     22  C   UNL A   1      32.749  21.443  23.753  1.00  0.00     0.001 A 
ATOM     23  C   UNL A   1      33.752  17.336  24.785  1.00  0.00     0.044 C 
ATOM     24  C   UNL A   1      33.508  18.733  24.280  1.00  0.00    -0.051 A 
ATOM     25  C   UNL A   1      34.230  19.776  24.839  1.00  0.00     0.004 A 
ATOM     26  C   UNL A   1      32.508  19.052  23.343  1.00  0.00     0.004 A 
ATOM     27  C   UNL A   1      33.881  21.095  24.543  1.00  0.00     0.010 A 
ATOM     28  C   UNL A   1      32.120  20.399  23.085  1.00  0.00     0.010 A 
ENDBRANCH  17  22
ENDBRANCH  13  16
ENDBRANCH   6  12
ENDBRANCH   3   5
ENDBRANCH   2   3
ENDBRANCH   1   2
BRANCH   1  29
ATOM     29  C   UNL A   1      33.856  31.019  27.720  1.00  0.00     0.275 C 
BRANCH  29  30
ATOM     30  O   UNL A   1      35.282  31.462  28.767  1.00  0.00    -0.458 OA
BRANCH  30  31
ATOM     31  C   UNL A   1      36.532  31.376  29.623  1.00  0.00     0.338 C 
ATOM     32  O   UNL A   1      36.696  32.295  30.428  1.00  0.00    -0.246 OA
BRANCH  31  33
ATOM     33  C   UNL A   1      37.638  30.146  29.748  1.00  0.00     0.060 A 
ATOM     34  C   UNL A   1      37.579  28.837  30.253  1.00  0.00     0.016 A 
ATOM     35  C   UNL A   1      38.859  30.270  29.162  1.00  0.00     0.016 A 
ATOM     36  C   UNL A   1      38.789  27.962  30.350  1.00  0.00     0.010 A 
ATOM     37  C   UNL A   1      40.038  29.615  29.394  1.00  0.00     0.010 A 
ATOM     38  C   UNL A   1      40.072  28.417  29.989  1.00  0.00    -0.014 A 
BRANCH  38  39
ATOM     39  C   UNL A   1      41.483  28.087  30.333  1.00  0.00     0.031 A 
ATOM     40  C   UNL A   1      42.486  27.482  29.371  1.00  0.00     0.074 A 
ATOM     41  C   UNL A   1      41.968  28.874  31.318  1.00  0.00     0.049 A 
ATOM     42  N   UNL A   1      43.265  26.471  29.619  1.00  0.00    -0.248 NA
ATOM     43  C   UNL A   1      42.735  28.018  28.017  1.00  0.00     0.031 C 
ATOM     44  C   UNL A   1      43.299  29.111  31.838  1.00  0.00     0.029 A 
ATOM     45  N   UNL A   1      41.187  29.692  32.126  1.00  0.00    -0.354 N 
ATOM     46  C   UNL A   1      44.263  26.504  28.641  1.00  0.00     0.074 A 
ATOM     47  C   UNL A   1      43.725  27.261  27.547  1.00  0.00     0.031 C 
ATOM     48  C   UNL A   1      43.179  29.633  33.082  1.00  0.00     0.029 A 
ATOM     49  C   UNL A   1      41.756  29.806  33.389  1.00  0.00     0.049 A 
ATOM     50  H   UNL A   1      40.350  30.128  31.845  1.00  0.00     0.167 HD
ATOM     51  C   UNL A   1      45.604  26.428  28.930  1.00  0.00     0.031 A 
ATOM     52  C   UNL A   1      41.052  29.235  34.405  1.00  0.00     0.031 A 
ATOM     53  C   UNL A   1      45.822  26.606  30.378  1.00  0.00     0.049 A 
ATOM     54  C   UNL A   1      41.683  27.873  34.627  1.00  0.00     0.074 A 
ATOM     55  C   UNL A   1      46.517  27.539  31.131  1.00  0.00     0.029 A 
ATOM     56  N   UNL A   1      45.003  25.933  31.292  1.00  0.00    -0.354 N 
ATOM     57  N   UNL A   1      42.357  27.232  33.695  1.00  0.00    -0.248 NA
ATOM     58  C   UNL A   1      41.881  27.283  35.942  1.00  0.00     0.031 C 
ATOM     59  C   UNL A   1      46.038  27.470  32.479  1.00  0.00     0.029 A 
ATOM     60  C   UNL A   1      45.037  26.506  32.552  1.00  0.00     0.049 A 
ATOM     61  H   UNL A   1      44.462  25.142  31.064  1.00  0.00     0.167 HD
ATOM     62  C   UNL A   1      43.255  26.385  34.280  1.00  0.00     0.074 A 
ATOM     63  C   UNL A   1      42.846  26.379  35.682  1.00  0.00     0.031 C 
ATOM     64  C   UNL A   1      44.365  25.847  33.680  1.00  0.00     0.031 A 
BRANCH  51  65
ATOM     65  C   UNL A   1      46.685  26.577  27.829  1.00  0.00    -0.014 A 
ATOM     66  C   UNL A   1      47.642  27.613  27.842  1.00  0.00     0.010 A 
ATOM     67  C   UNL A   1      46.835  25.650  26.763  1.00  0.00     0.010 A 
ATOM     68  C   UNL A   1      48.625  27.758  26.832  1.00  0.00     0.020 A 
ATOM     69  C   UNL A   1      47.774  25.808  25.720  1.00  0.00     0.020 A 
ATOM     70  C   UNL A   1      48.678  26.860  25.766  1.00  0.00     0.054 A 
BRANCH  70  71
ATOM     71  S   UNL A   1      49.967  27.035  24.492  1.00  0.00     0.124 S 
ATOM     72  O   UNL A   1      50.273  28.462  24.533  1.00  0.00    -0.237 OA
ATOM     73  O   UNL A   1      51.019  26.152  24.989  1.00  0.00    -0.237 OA
ATOM     74  O   UNL A   1      49.311  26.583  23.266  1.00  0.00    -0.744 OA
ENDBRANCH  70  71
ENDBRANCH  51  65
BRANCH  52  75
ATOM     75  C   UNL A   1      39.663  29.835  34.585  1.00  0.00    -0.014 A 
ATOM     76  C   UNL A   1      39.500  30.670  35.727  1.00  0.00     0.010 A 
ATOM     77  C   UNL A   1      38.679  29.984  33.585  1.00  0.00     0.010 A 
ATOM     78  C   UNL A   1      38.522  31.689  35.810  1.00  0.00     0.020 A 
ATOM     79  C   UNL A   1      37.689  31.016  33.656  1.00  0.00     0.020 A 
ATOM     80  C   UNL A   1      37.647  31.895  34.748  1.00  0.00     0.054 A 
BRANCH  80  81
ATOM     81  S   UNL A   1      36.791  33.537  34.624  1.00  0.00     0.124 S 
ATOM     82  O   UNL A   1      36.256  33.727  35.965  1.00  0.00    -0.237 OA
ATOM     83  O   UNL A   1      37.878  34.448  34.258  1.00  0.00    -0.237 OA
ATOM     84  O   UNL A   1      35.811  33.308  33.567  1.00  0.00    -0.744 OA
ENDBRANCH  80  81
ENDBRANCH  52  75
BRANCH  64  85
ATOM     85  C   UNL A   1      45.002  24.562  34.146  1.00  0.00    -0.014 A 
ATOM     86  C   UNL A   1      46.179  24.527  34.902  1.00  0.00     0.010 A 
ATOM     87  C   UNL A   1      44.266  23.355  34.030  1.00  0.00     0.010 A 
ATOM     88  C   UNL A   1      46.618  23.338  35.487  1.00  0.00     0.020 A 
ATOM     89  C   UNL A   1      44.655  22.185  34.670  1.00  0.00     0.020 A 
ATOM     90  C   UNL A   1      45.845  22.182  35.378  1.00  0.00     0.054 A 
BRANCH  90  91
ATOM     91  S   UNL A   1      46.372  20.689  36.237  1.00  0.00     0.124 S 
ATOM     92  O   UNL A   1      45.374  19.723  35.786  1.00  0.00    -0.237 OA
ATOM     93  O   UNL A   1      47.724  20.483  35.724  1.00  0.00    -0.237 OA
ATOM     94  O   UNL A   1      46.297  21.057  37.649  1.00  0.00    -0.744 OA
ENDBRANCH  90  91
ENDBRANCH  64  85
ENDBRANCH  38  39
ENDBRANCH  31  33
ENDBRANCH  30  31
ENDBRANCH  29  30
ENDBRANCH   1  29
TORSDOF 17
ENDMDL
