MODEL 1
REMARK VINA RESULT:     -10.6      0.000      0.000
REMARK SMILES C[C@H](c1cnccn1)[N@@H+]1[C@@H](C(=O)OCCOC(=O)c2ccc(-c3c4nc(c(-c5ccc(S(=O)(=O)[O-])cc5)c5ccc([nH]5)c(-c5ccc(S(=O)(=O)[O-])cc5)c5nc(c(-c6ccc(S(=O)(=O)[O-])cc6)c6ccc3[nH]6)C=C5)C=C4)cc2)CC[C@H]2CCCC[C@H]21
REMARK SMILES IDX 15 1 14 2 13 3 11 4 12 5 10 6 9 7 86 8 79 10 81 11 85 12
REMARK SMILES IDX 80 13 82 14 84 15 83 16 2 17 1 18 3 19 4 20 8 21 5 22 7 23
REMARK SMILES IDX 6 24 16 25 17 26 18 27 19 28 20 29 78 30 21 31 77 32 22 33
REMARK SMILES IDX 23 34 24 35 71 36 25 37 76 38 70 39 72 40 26 41 75 42 69 43
REMARK SMILES IDX 68 44 27 46 57 47 38 48 56 49 39 50 42 51 55 52 73 53 40 54
REMARK SMILES IDX 41 55 54 57 74 58 43 59 28 60 29 61 37 62 30 63 36 64 31 65
REMARK SMILES IDX 32 66 33 67 34 68 35 69 58 70 59 71 67 72 60 73 66 74 61 75
REMARK SMILES IDX 62 76 63 77 64 78 65 79 44 80 45 81 53 82 46 83 52 84 47 85
REMARK SMILES IDX 48 86 49 87 50 88 51 89
REMARK H PARENT 9 9 72 45 42 56
REMARK Flexibility Score: inf
ROOT
ATOM      1  C   UNL A   1      36.738  23.034  24.311  1.00  0.00     0.275 C 
ENDROOT
BRANCH   1   2
ATOM      2  C   UNL A   1      35.211  22.939  24.428  1.00  0.00     0.274 C 
BRANCH   2   3
ATOM      3  O   UNL A   1      34.598  24.204  24.746  1.00  0.00    -0.458 OA
BRANCH   3   4
ATOM      4  C   UNL A   1      33.945  24.251  25.943  1.00  0.00     0.365 C 
ATOM      5  O   UNL A   1      34.148  23.441  26.841  1.00  0.00    -0.245 OA
BRANCH   4   6
ATOM      6  C   UNL A   1      32.941  25.434  26.062  1.00  0.00     0.295 C 
ATOM      7  N   UNL A   1      31.778  25.344  25.109  1.00  0.00    -0.313 N 
ATOM      8  C   UNL A   1      30.893  26.542  25.221  1.00  0.00     0.188 C 
ATOM      9  H   UNL A   1      32.111  25.361  24.145  1.00  0.00     0.349 HD
ATOM     10  C   UNL A   1      33.705  26.762  25.963  1.00  0.00     0.078 C 
ATOM     11  C   UNL A   1      31.635  27.911  25.206  1.00  0.00     0.048 C 
ATOM     12  C   UNL A   1      29.845  26.652  24.094  1.00  0.00     0.065 C 
ATOM     13  C   UNL A   1      32.783  27.937  26.207  1.00  0.00     0.016 C 
ATOM     14  C   UNL A   1      32.072  28.394  23.803  1.00  0.00     0.010 C 
ATOM     15  C   UNL A   1      30.457  26.744  22.702  1.00  0.00     0.006 C 
ATOM     16  C   UNL A   1      31.832  27.403  22.671  1.00  0.00     0.001 C 
BRANCH   7  17
ATOM     17  C   UNL A   1      31.073  24.017  25.295  1.00  0.00     0.233 C 
ATOM     18  C   UNL A   1      30.785  23.850  26.793  1.00  0.00     0.083 C 
BRANCH  17  19
ATOM     19  C   UNL A   1      31.583  22.769  24.575  1.00  0.00     0.116 A 
ATOM     20  C   UNL A   1      31.752  21.540  25.211  1.00  0.00     0.141 A 
ATOM     21  N   UNL A   1      31.791  22.878  23.232  1.00  0.00    -0.252 NA
ATOM     22  N   UNL A   1      32.138  20.410  24.568  1.00  0.00    -0.261 NA
ATOM     23  C   UNL A   1      32.144  21.743  22.582  1.00  0.00     0.131 A 
ATOM     24  C   UNL A   1      32.316  20.538  23.237  1.00  0.00     0.131 A 
ENDBRANCH  17  19
ENDBRANCH   7  17
ENDBRANCH   4   6
ENDBRANCH   3   4
ENDBRANCH   2   3
ENDBRANCH   1   2
BRANCH   1  25
ATOM     25  O   UNL A   1      37.317  23.893  25.314  1.00  0.00    -0.458 OA
BRANCH  25  26
ATOM     26  C   UNL A   1      38.345  23.348  26.003  1.00  0.00     0.338 C 
ATOM     27  O   UNL A   1      38.706  22.179  25.979  1.00  0.00    -0.246 OA
BRANCH  26  28
ATOM     28  C   UNL A   1      39.109  24.384  26.717  1.00  0.00     0.060 A 
ATOM     29  C   UNL A   1      38.832  24.565  28.073  1.00  0.00     0.016 A 
ATOM     30  C   UNL A   1      39.965  25.263  26.052  1.00  0.00     0.016 A 
ATOM     31  C   UNL A   1      39.390  25.628  28.774  1.00  0.00     0.010 A 
ATOM     32  C   UNL A   1      40.520  26.343  26.755  1.00  0.00     0.010 A 
ATOM     33  C   UNL A   1      40.213  26.545  28.113  1.00  0.00    -0.014 A 
BRANCH  33  34
ATOM     34  C   UNL A   1      40.629  27.772  28.836  1.00  0.00     0.031 A 
ATOM     35  C   UNL A   1      42.040  27.890  29.344  1.00  0.00     0.074 A 
ATOM     36  C   UNL A   1      39.783  28.813  28.954  1.00  0.00     0.049 A 
ATOM     37  N   UNL A   1      42.608  28.878  29.989  1.00  0.00    -0.248 NA
ATOM     38  C   UNL A   1      42.931  26.747  29.088  1.00  0.00     0.031 C 
ATOM     39  C   UNL A   1      38.412  28.851  28.445  1.00  0.00     0.029 A 
ATOM     40  N   UNL A   1      39.964  30.048  29.525  1.00  0.00    -0.354 N 
ATOM     41  C   UNL A   1      43.914  28.470  30.234  1.00  0.00     0.074 A 
ATOM     42  C   UNL A   1      44.051  27.140  29.679  1.00  0.00     0.031 C 
ATOM     43  C   UNL A   1      37.880  30.055  28.715  1.00  0.00     0.029 A 
ATOM     44  C   UNL A   1      38.859  30.859  29.443  1.00  0.00     0.049 A 
ATOM     45  H   UNL A   1      40.806  30.326  29.953  1.00  0.00     0.167 HD
ATOM     46  C   UNL A   1      44.910  29.139  30.862  1.00  0.00     0.031 A 
ATOM     47  C   UNL A   1      38.654  32.106  29.912  1.00  0.00     0.031 A 
ATOM     48  C   UNL A   1      44.780  30.464  31.408  1.00  0.00     0.049 A 
ATOM     49  C   UNL A   1      39.761  32.813  30.642  1.00  0.00     0.074 A 
ATOM     50  C   UNL A   1      45.730  31.219  32.076  1.00  0.00     0.029 A 
ATOM     51  N   UNL A   1      43.630  31.235  31.343  1.00  0.00    -0.354 N 
ATOM     52  N   UNL A   1      40.981  32.400  30.890  1.00  0.00    -0.248 NA
ATOM     53  C   UNL A   1      39.465  34.160  31.152  1.00  0.00     0.031 C 
ATOM     54  C   UNL A   1      45.142  32.437  32.441  1.00  0.00     0.029 A 
ATOM     55  C   UNL A   1      43.841  32.453  31.967  1.00  0.00     0.049 A 
ATOM     56  H   UNL A   1      42.787  30.957  30.916  1.00  0.00     0.167 HD
ATOM     57  C   UNL A   1      41.601  33.439  31.576  1.00  0.00     0.074 A 
ATOM     58  C   UNL A   1      40.627  34.508  31.685  1.00  0.00     0.031 C 
ATOM     59  C   UNL A   1      42.860  33.502  32.073  1.00  0.00     0.031 A 
BRANCH  46  60
ATOM     60  C   UNL A   1      46.220  28.419  31.027  1.00  0.00    -0.014 A 
ATOM     61  C   UNL A   1      47.197  28.442  30.018  1.00  0.00     0.010 A 
ATOM     62  C   UNL A   1      46.478  27.716  32.218  1.00  0.00     0.010 A 
ATOM     63  C   UNL A   1      48.394  27.738  30.179  1.00  0.00     0.020 A 
ATOM     64  C   UNL A   1      47.681  27.028  32.391  1.00  0.00     0.020 A 
ATOM     65  C   UNL A   1      48.623  27.027  31.360  1.00  0.00     0.054 A 
BRANCH  65  66
ATOM     66  S   UNL A   1      50.184  26.120  31.551  1.00  0.00     0.124 S 
ATOM     67  O   UNL A   1      50.862  26.906  32.578  1.00  0.00    -0.237 OA
ATOM     68  O   UNL A   1      49.740  24.793  31.968  1.00  0.00    -0.237 OA
ATOM     69  O   UNL A   1      50.784  26.183  30.220  1.00  0.00    -0.744 OA
ENDBRANCH  65  66
ENDBRANCH  46  60
BRANCH  47  70
ATOM     70  C   UNL A   1      37.332  32.759  29.720  1.00  0.00    -0.014 A 
ATOM     71  C   UNL A   1      36.384  32.777  30.759  1.00  0.00     0.010 A 
ATOM     72  C   UNL A   1      37.019  33.373  28.495  1.00  0.00     0.010 A 
ATOM     73  C   UNL A   1      35.143  33.391  30.569  1.00  0.00     0.020 A 
ATOM     74  C   UNL A   1      35.789  34.007  28.310  1.00  0.00     0.020 A 
ATOM     75  C   UNL A   1      34.853  34.004  29.346  1.00  0.00     0.054 A 
BRANCH  75  76
ATOM     76  S   UNL A   1      33.263  34.853  29.140  1.00  0.00     0.124 S 
ATOM     77  O   UNL A   1      33.679  36.156  28.633  1.00  0.00    -0.237 OA
ATOM     78  O   UNL A   1      32.564  33.994  28.186  1.00  0.00    -0.237 OA
ATOM     79  O   UNL A   1      32.703  34.851  30.491  1.00  0.00    -0.744 OA
ENDBRANCH  75  76
ENDBRANCH  47  70
BRANCH  59  80
ATOM     80  C   UNL A   1      43.260  34.778  32.762  1.00  0.00    -0.014 A 
ATOM     81  C   UNL A   1      43.117  34.925  34.153  1.00  0.00     0.010 A 
ATOM     82  C   UNL A   1      43.807  35.833  32.011  1.00  0.00     0.010 A 
ATOM     83  C   UNL A   1      43.477  36.123  34.777  1.00  0.00     0.020 A 
ATOM     84  C   UNL A   1      44.188  37.025  32.634  1.00  0.00     0.020 A 
ATOM     85  C   UNL A   1      44.002  37.168  34.011  1.00  0.00     0.054 A 
BRANCH  85  86
ATOM     86  S   UNL A   1      44.483  38.710  34.838  1.00  0.00     0.124 S 
ATOM     87  O   UNL A   1      44.202  38.401  36.238  1.00  0.00    -0.237 OA
ATOM     88  O   UNL A   1      45.897  38.838  34.495  1.00  0.00    -0.237 OA
ATOM     89  O   UNL A   1      43.609  39.712  34.233  1.00  0.00    -0.744 OA
ENDBRANCH  85  86
ENDBRANCH  59  80
ENDBRANCH  33  34
ENDBRANCH  26  28
ENDBRANCH  25  26
ENDBRANCH   1  25
TORSDOF 16
ENDMDL
MODEL 2
REMARK VINA RESULT:     -10.6      3.383      9.202
REMARK SMILES C[C@H](c1cnccn1)[N@@H+]1[C@@H](C(=O)OCCOC(=O)c2ccc(-c3c4nc(c(-c5ccc(S(=O)(=O)[O-])cc5)c5ccc([nH]5)c(-c5ccc(S(=O)(=O)[O-])cc5)c5nc(c(-c6ccc(S(=O)(=O)[O-])cc6)c6ccc3[nH]6)C=C5)C=C4)cc2)CC[C@H]2CCCC[C@H]21
REMARK SMILES IDX 15 1 14 2 13 3 11 4 12 5 10 6 9 7 86 8 79 10 81 11 85 12
REMARK SMILES IDX 80 13 82 14 84 15 83 16 2 17 1 18 3 19 4 20 8 21 5 22 7 23
REMARK SMILES IDX 6 24 16 25 17 26 18 27 19 28 20 29 78 30 21 31 77 32 22 33
REMARK SMILES IDX 23 34 24 35 71 36 25 37 76 38 70 39 72 40 26 41 75 42 69 43
REMARK SMILES IDX 68 44 27 46 57 47 38 48 56 49 39 50 42 51 55 52 73 53 40 54
REMARK SMILES IDX 41 55 54 57 74 58 43 59 28 60 29 61 37 62 30 63 36 64 31 65
REMARK SMILES IDX 32 66 33 67 34 68 35 69 58 70 59 71 67 72 60 73 66 74 61 75
REMARK SMILES IDX 62 76 63 77 64 78 65 79 44 80 45 81 53 82 46 83 52 84 47 85
REMARK SMILES IDX 48 86 49 87 50 88 51 89
REMARK H PARENT 9 9 72 45 42 56
REMARK Flexibility Score: inf
ROOT
ATOM      1  C   UNL A   1      32.111  30.390  26.852  1.00  0.00     0.275 C 
ENDROOT
BRANCH   1   2
ATOM      2  C   UNL A   1      31.732  29.891  25.451  1.00  0.00     0.274 C 
BRANCH   2   3
ATOM      3  O   UNL A   1      32.023  28.492  25.262  1.00  0.00    -0.458 OA
BRANCH   3   4
ATOM      4  C   UNL A   1      32.969  28.215  24.319  1.00  0.00     0.365 C 
ATOM      5  O   UNL A   1      33.436  29.073  23.576  1.00  0.00    -0.245 OA
BRANCH   4   6
ATOM      6  C   UNL A   1      33.408  26.722  24.290  1.00  0.00     0.295 C 
ATOM      7  N   UNL A   1      32.280  25.762  24.010  1.00  0.00    -0.313 N 
ATOM      8  C   UNL A   1      32.749  24.346  24.069  1.00  0.00     0.188 C 
ATOM      9  H   UNL A   1      31.572  25.828  24.741  1.00  0.00     0.349 HD
ATOM     10  C   UNL A   1      34.178  26.393  25.575  1.00  0.00     0.078 C 
ATOM     11  C   UNL A   1      33.606  23.988  25.320  1.00  0.00     0.048 C 
ATOM     12  C   UNL A   1      31.608  23.308  24.067  1.00  0.00     0.065 C 
ATOM     13  C   UNL A   1      34.737  24.988  25.528  1.00  0.00     0.016 C 
ATOM     14  C   UNL A   1      32.792  23.748  26.613  1.00  0.00     0.010 C 
ATOM     15  C   UNL A   1      30.651  23.455  25.245  1.00  0.00     0.006 C 
ATOM     16  C   UNL A   1      31.299  24.026  26.501  1.00  0.00     0.001 C 
BRANCH   7  17
ATOM     17  C   UNL A   1      31.596  26.149  22.716  1.00  0.00     0.233 C 
ATOM     18  C   UNL A   1      32.689  26.369  21.660  1.00  0.00     0.083 C 
BRANCH  17  19
ATOM     19  C   UNL A   1      30.464  27.176  22.722  1.00  0.00     0.116 A 
ATOM     20  C   UNL A   1      29.314  27.034  23.497  1.00  0.00     0.141 A 
ATOM     21  N   UNL A   1      30.660  28.309  21.991  1.00  0.00    -0.252 NA
ATOM     22  N   UNL A   1      28.335  27.970  23.564  1.00  0.00    -0.261 NA
ATOM     23  C   UNL A   1      29.700  29.260  22.082  1.00  0.00     0.131 A 
ATOM     24  C   UNL A   1      28.562  29.092  22.849  1.00  0.00     0.131 A 
ENDBRANCH  17  19
ENDBRANCH   7  17
ENDBRANCH   4   6
ENDBRANCH   3   4
ENDBRANCH   2   3
ENDBRANCH   1   2
BRANCH   1  25
ATOM     25  O   UNL A   1      33.489  30.121  27.180  1.00  0.00    -0.458 OA
BRANCH  25  26
ATOM     26  C   UNL A   1      34.185  31.190  27.629  1.00  0.00     0.338 C 
ATOM     27  O   UNL A   1      33.748  32.314  27.837  1.00  0.00    -0.246 OA
BRANCH  26  28
ATOM     28  C   UNL A   1      35.560  30.811  27.990  1.00  0.00     0.060 A 
ATOM     29  C   UNL A   1      35.803  29.463  28.263  1.00  0.00     0.016 A 
ATOM     30  C   UNL A   1      36.558  31.761  28.206  1.00  0.00     0.016 A 
ATOM     31  C   UNL A   1      37.032  29.053  28.768  1.00  0.00     0.010 A 
ATOM     32  C   UNL A   1      37.795  31.352  28.727  1.00  0.00     0.010 A 
ATOM     33  C   UNL A   1      38.027  29.998  29.034  1.00  0.00    -0.014 A 
BRANCH  33  34
ATOM     34  C   UNL A   1      39.247  29.557  29.756  1.00  0.00     0.031 A 
ATOM     35  C   UNL A   1      39.598  30.194  31.074  1.00  0.00     0.074 A 
ATOM     36  C   UNL A   1      39.982  28.532  29.287  1.00  0.00     0.049 A 
ATOM     37  N   UNL A   1      40.609  29.948  31.867  1.00  0.00    -0.248 NA
ATOM     38  C   UNL A   1      38.688  31.240  31.564  1.00  0.00     0.031 C 
ATOM     39  C   UNL A   1      39.710  27.786  28.058  1.00  0.00     0.029 A 
ATOM     40  N   UNL A   1      41.101  27.928  29.805  1.00  0.00    -0.354 N 
ATOM     41  C   UNL A   1      40.470  30.821  32.940  1.00  0.00     0.074 A 
ATOM     42  C   UNL A   1      39.283  31.611  32.690  1.00  0.00     0.031 C 
ATOM     43  C   UNL A   1      40.629  26.816  27.924  1.00  0.00     0.029 A 
ATOM     44  C   UNL A   1      41.572  26.892  29.037  1.00  0.00     0.049 A 
ATOM     45  H   UNL A   1      41.526  28.212  30.647  1.00  0.00     0.167 HD
ATOM     46  C   UNL A   1      41.257  30.955  34.035  1.00  0.00     0.031 A 
ATOM     47  C   UNL A   1      42.650  26.099  29.205  1.00  0.00     0.031 A 
ATOM     48  C   UNL A   1      42.432  30.167  34.291  1.00  0.00     0.049 A 
ATOM     49  C   UNL A   1      43.531  26.294  30.408  1.00  0.00     0.074 A 
ATOM     50  C   UNL A   1      43.302  30.240  35.367  1.00  0.00     0.029 A 
ATOM     51  N   UNL A   1      42.901  29.156  33.467  1.00  0.00    -0.354 N 
ATOM     52  N   UNL A   1      43.400  27.145  31.397  1.00  0.00    -0.248 NA
ATOM     53  C   UNL A   1      44.705  25.416  30.518  1.00  0.00     0.031 C 
ATOM     54  C   UNL A   1      44.314  29.291  35.176  1.00  0.00     0.029 A 
ATOM     55  C   UNL A   1      44.052  28.603  34.002  1.00  0.00     0.049 A 
ATOM     56  H   UNL A   1      42.477  28.873  32.624  1.00  0.00     0.167 HD
ATOM     57  C   UNL A   1      44.468  26.898  32.252  1.00  0.00     0.074 A 
ATOM     58  C   UNL A   1      45.223  25.804  31.674  1.00  0.00     0.031 C 
ATOM     59  C   UNL A   1      44.796  27.522  33.410  1.00  0.00     0.031 A 
BRANCH  46  60
ATOM     60  C   UNL A   1      40.884  32.030  35.017  1.00  0.00    -0.014 A 
ATOM     61  C   UNL A   1      41.390  33.336  34.896  1.00  0.00     0.010 A 
ATOM     62  C   UNL A   1      40.005  31.729  36.073  1.00  0.00     0.010 A 
ATOM     63  C   UNL A   1      41.056  34.313  35.839  1.00  0.00     0.020 A 
ATOM     64  C   UNL A   1      39.653  32.707  37.007  1.00  0.00     0.020 A 
ATOM     65  C   UNL A   1      40.199  33.988  36.895  1.00  0.00     0.054 A 
BRANCH  65  66
ATOM     66  S   UNL A   1      39.777  35.269  38.109  1.00  0.00     0.124 S 
ATOM     67  O   UNL A   1      39.647  36.452  37.263  1.00  0.00    -0.237 OA
ATOM     68  O   UNL A   1      38.531  34.772  38.687  1.00  0.00    -0.237 OA
ATOM     69  O   UNL A   1      40.921  35.274  39.017  1.00  0.00    -0.744 OA
ENDBRANCH  65  66
ENDBRANCH  46  60
BRANCH  47  70
ATOM     70  C   UNL A   1      42.966  25.058  28.192  1.00  0.00    -0.014 A 
ATOM     71  C   UNL A   1      43.734  25.372  27.057  1.00  0.00     0.010 A 
ATOM     72  C   UNL A   1      42.502  23.742  28.365  1.00  0.00     0.010 A 
ATOM     73  C   UNL A   1      44.025  24.387  26.109  1.00  0.00     0.020 A 
ATOM     74  C   UNL A   1      42.810  22.751  27.430  1.00  0.00     0.020 A 
ATOM     75  C   UNL A   1      43.561  23.081  26.302  1.00  0.00     0.054 A 
BRANCH  75  76
ATOM     76  S   UNL A   1      44.003  21.802  25.094  1.00  0.00     0.124 S 
ATOM     77  O   UNL A   1      43.016  20.766  25.375  1.00  0.00    -0.237 OA
ATOM     78  O   UNL A   1      43.846  22.499  23.819  1.00  0.00    -0.237 OA
ATOM     79  O   UNL A   1      45.383  21.469  25.445  1.00  0.00    -0.744 OA
ENDBRANCH  75  76
ENDBRANCH  47  70
BRANCH  59  80
ATOM     80  C   UNL A   1      46.014  27.020  34.136  1.00  0.00    -0.014 A 
ATOM     81  C   UNL A   1      47.282  27.577  33.893  1.00  0.00     0.010 A 
ATOM     82  C   UNL A   1      45.884  25.995  35.089  1.00  0.00     0.010 A 
ATOM     83  C   UNL A   1      48.407  27.089  34.563  1.00  0.00     0.020 A 
ATOM     84  C   UNL A   1      47.003  25.518  35.776  1.00  0.00     0.020 A 
ATOM     85  C   UNL A   1      48.261  26.055  35.494  1.00  0.00     0.054 A 
BRANCH  85  86
ATOM     86  S   UNL A   1      49.729  25.446  36.369  1.00  0.00     0.124 S 
ATOM     87  O   UNL A   1      50.482  26.679  36.590  1.00  0.00    -0.237 OA
ATOM     88  O   UNL A   1      49.164  24.832  37.567  1.00  0.00    -0.237 OA
ATOM     89  O   UNL A   1      50.330  24.510  35.422  1.00  0.00    -0.744 OA
ENDBRANCH  85  86
ENDBRANCH  59  80
ENDBRANCH  33  34
ENDBRANCH  26  28
ENDBRANCH  25  26
ENDBRANCH   1  25
TORSDOF 16
ENDMDL
MODEL 3
REMARK VINA RESULT:     -10.5      3.381      7.401
REMARK SMILES C[C@H](c1cnccn1)[N@@H+]1[C@@H](C(=O)OCCOC(=O)c2ccc(-c3c4nc(c(-c5ccc(S(=O)(=O)[O-])cc5)c5ccc([nH]5)c(-c5ccc(S(=O)(=O)[O-])cc5)c5nc(c(-c6ccc(S(=O)(=O)[O-])cc6)c6ccc3[nH]6)C=C5)C=C4)cc2)CC[C@H]2CCCC[C@H]21
REMARK SMILES IDX 15 1 14 2 13 3 11 4 12 5 10 6 9 7 86 8 79 10 81 11 85 12
REMARK SMILES IDX 80 13 82 14 84 15 83 16 2 17 1 18 3 19 4 20 8 21 5 22 7 23
REMARK SMILES IDX 6 24 16 25 17 26 18 27 19 28 20 29 78 30 21 31 77 32 22 33
REMARK SMILES IDX 23 34 24 35 71 36 25 37 76 38 70 39 72 40 26 41 75 42 69 43
REMARK SMILES IDX 68 44 27 46 57 47 38 48 56 49 39 50 42 51 55 52 73 53 40 54
REMARK SMILES IDX 41 55 54 57 74 58 43 59 28 60 29 61 37 62 30 63 36 64 31 65
REMARK SMILES IDX 32 66 33 67 34 68 35 69 58 70 59 71 67 72 60 73 66 74 61 75
REMARK SMILES IDX 62 76 63 77 64 78 65 79 44 80 45 81 53 82 46 83 52 84 47 85
REMARK SMILES IDX 48 86 49 87 50 88 51 89
REMARK H PARENT 9 9 72 45 42 56
REMARK Flexibility Score: inf
ROOT
ATOM      1  C   UNL A   1      32.103  30.579  26.616  1.00  0.00     0.275 C 
ENDROOT
BRANCH   1   2
ATOM      2  C   UNL A   1      31.673  29.684  25.446  1.00  0.00     0.274 C 
BRANCH   2   3
ATOM      3  O   UNL A   1      32.284  28.379  25.492  1.00  0.00    -0.458 OA
BRANCH   3   4
ATOM      4  C   UNL A   1      33.137  28.099  24.465  1.00  0.00     0.365 C 
ATOM      5  O   UNL A   1      33.544  28.957  23.687  1.00  0.00    -0.245 OA
BRANCH   4   6
ATOM      6  C   UNL A   1      33.556  26.602  24.389  1.00  0.00     0.295 C 
ATOM      7  N   UNL A   1      32.425  25.671  24.036  1.00  0.00    -0.313 N 
ATOM      8  C   UNL A   1      32.872  24.246  24.051  1.00  0.00     0.188 C 
ATOM      9  H   UNL A   1      31.695  25.718  24.747  1.00  0.00     0.349 HD
ATOM     10  C   UNL A   1      34.281  26.210  25.683  1.00  0.00     0.078 C 
ATOM     11  C   UNL A   1      33.684  23.826  25.312  1.00  0.00     0.048 C 
ATOM     12  C   UNL A   1      31.717  23.227  23.972  1.00  0.00     0.065 C 
ATOM     13  C   UNL A   1      34.822  24.799  25.596  1.00  0.00     0.016 C 
ATOM     14  C   UNL A   1      32.827  23.547  26.569  1.00  0.00     0.010 C 
ATOM     15  C   UNL A   1      30.726  23.341  25.125  1.00  0.00     0.006 C 
ATOM     16  C   UNL A   1      31.342  23.851  26.423  1.00  0.00     0.001 C 
BRANCH   7  17
ATOM     17  C   UNL A   1      31.786  26.120  22.738  1.00  0.00     0.233 C 
ATOM     18  C   UNL A   1      32.918  26.449  21.754  1.00  0.00     0.083 C 
BRANCH  17  19
ATOM     19  C   UNL A   1      30.617  27.103  22.757  1.00  0.00     0.116 A 
ATOM     20  C   UNL A   1      29.474  26.910  23.531  1.00  0.00     0.141 A 
ATOM     21  N   UNL A   1      30.769  28.251  22.037  1.00  0.00    -0.252 NA
ATOM     22  N   UNL A   1      28.460  27.807  23.609  1.00  0.00    -0.261 NA
ATOM     23  C   UNL A   1      29.774  29.164  22.140  1.00  0.00     0.131 A 
ATOM     24  C   UNL A   1      28.644  28.945  22.906  1.00  0.00     0.131 A 
ENDBRANCH  17  19
ENDBRANCH   7  17
ENDBRANCH   4   6
ENDBRANCH   3   4
ENDBRANCH   2   3
ENDBRANCH   1   2
BRANCH   1  25
ATOM     25  O   UNL A   1      33.440  30.289  27.071  1.00  0.00    -0.458 OA
BRANCH  25  26
ATOM     26  C   UNL A   1      34.104  31.346  27.593  1.00  0.00     0.338 C 
ATOM     27  O   UNL A   1      33.660  32.470  27.782  1.00  0.00    -0.246 OA
BRANCH  26  28
ATOM     28  C   UNL A   1      35.442  30.948  28.061  1.00  0.00     0.060 A 
ATOM     29  C   UNL A   1      35.581  29.664  28.591  1.00  0.00     0.016 A 
ATOM     30  C   UNL A   1      36.502  31.852  28.125  1.00  0.00     0.016 A 
ATOM     31  C   UNL A   1      36.768  29.275  29.201  1.00  0.00     0.010 A 
ATOM     32  C   UNL A   1      37.697  31.466  28.752  1.00  0.00     0.010 A 
ATOM     33  C   UNL A   1      37.825  30.183  29.315  1.00  0.00    -0.014 A 
BRANCH  33  34
ATOM     34  C   UNL A   1      38.996  29.805  30.144  1.00  0.00     0.031 A 
ATOM     35  C   UNL A   1      39.919  28.715  29.668  1.00  0.00     0.074 A 
ATOM     36  C   UNL A   1      39.290  30.493  31.263  1.00  0.00     0.049 A 
ATOM     37  N   UNL A   1      41.000  28.241  30.233  1.00  0.00    -0.248 NA
ATOM     38  C   UNL A   1      39.582  28.079  28.384  1.00  0.00     0.031 C 
ATOM     39  C   UNL A   1      38.516  31.614  31.795  1.00  0.00     0.029 A 
ATOM     40  N   UNL A   1      40.334  30.357  32.143  1.00  0.00    -0.354 N 
ATOM     41  C   UNL A   1      41.461  27.239  29.388  1.00  0.00     0.074 A 
ATOM     42  C   UNL A   1      40.536  27.166  28.276  1.00  0.00     0.031 C 
ATOM     43  C   UNL A   1      39.119  32.074  32.904  1.00  0.00     0.029 A 
ATOM     44  C   UNL A   1      40.302  31.260  33.178  1.00  0.00     0.049 A 
ATOM     45  H   UNL A   1      41.039  29.678  32.044  1.00  0.00     0.167 HD
ATOM     46  C   UNL A   1      42.556  26.451  29.520  1.00  0.00     0.031 A 
ATOM     47  C   UNL A   1      41.126  31.409  34.234  1.00  0.00     0.031 A 
ATOM     48  C   UNL A   1      43.481  26.526  30.618  1.00  0.00     0.049 A 
ATOM     49  C   UNL A   1      42.312  30.496  34.382  1.00  0.00     0.074 A 
ATOM     50  C   UNL A   1      44.612  25.760  30.847  1.00  0.00     0.029 A 
ATOM     51  N   UNL A   1      43.389  27.426  31.669  1.00  0.00    -0.354 N 
ATOM     52  N   UNL A   1      42.716  29.534  33.586  1.00  0.00    -0.248 NA
ATOM     53  C   UNL A   1      43.155  30.692  35.569  1.00  0.00     0.031 C 
ATOM     54  C   UNL A   1      45.186  26.178  32.054  1.00  0.00     0.029 A 
ATOM     55  C   UNL A   1      44.435  27.228  32.555  1.00  0.00     0.049 A 
ATOM     56  H   UNL A   1      42.684  28.105  31.770  1.00  0.00     0.167 HD
ATOM     57  C   UNL A   1      43.866  29.018  34.172  1.00  0.00     0.074 A 
ATOM     58  C   UNL A   1      44.104  29.788  35.377  1.00  0.00     0.031 C 
ATOM     59  C   UNL A   1      44.653  27.997  33.752  1.00  0.00     0.031 A 
BRANCH  46  60
ATOM     60  C   UNL A   1      42.779  25.407  28.461  1.00  0.00    -0.014 A 
ATOM     61  C   UNL A   1      42.200  24.130  28.561  1.00  0.00     0.010 A 
ATOM     62  C   UNL A   1      43.576  25.715  27.344  1.00  0.00     0.010 A 
ATOM     63  C   UNL A   1      42.448  23.164  27.582  1.00  0.00     0.020 A 
ATOM     64  C   UNL A   1      43.810  24.759  26.353  1.00  0.00     0.020 A 
ATOM     65  C   UNL A   1      43.261  23.482  26.490  1.00  0.00     0.054 A 
BRANCH  65  66
ATOM     66  S   UNL A   1      43.571  22.214  25.228  1.00  0.00     0.124 S 
ATOM     67  O   UNL A   1      42.507  21.252  25.504  1.00  0.00    -0.237 OA
ATOM     68  O   UNL A   1      43.435  22.959  23.979  1.00  0.00    -0.237 OA
ATOM     69  O   UNL A   1      44.923  21.752  25.529  1.00  0.00    -0.744 OA
ENDBRANCH  65  66
ENDBRANCH  46  60
BRANCH  47  70
ATOM     70  C   UNL A   1      40.844  32.458  35.249  1.00  0.00    -0.014 A 
ATOM     71  C   UNL A   1      40.040  32.175  36.367  1.00  0.00     0.010 A 
ATOM     72  C   UNL A   1      41.388  33.746  35.102  1.00  0.00     0.010 A 
ATOM     73  C   UNL A   1      39.778  33.168  37.316  1.00  0.00     0.020 A 
ATOM     74  C   UNL A   1      41.147  34.734  36.060  1.00  0.00     0.020 A 
ATOM     75  C   UNL A   1      40.334  34.442  37.156  1.00  0.00     0.054 A 
BRANCH  75  76
ATOM     76  S   UNL A   1      40.037  35.698  38.431  1.00  0.00     0.124 S 
ATOM     77  O   UNL A   1      41.323  35.741  39.119  1.00  0.00    -0.237 OA
ATOM     78  O   UNL A   1      39.700  36.881  37.641  1.00  0.00    -0.237 OA
ATOM     79  O   UNL A   1      38.928  35.140  39.203  1.00  0.00    -0.744 OA
ENDBRANCH  75  76
ENDBRANCH  47  70
BRANCH  59  80
ATOM     80  C   UNL A   1      45.855  27.670  34.595  1.00  0.00    -0.014 A 
ATOM     81  C   UNL A   1      45.777  26.723  35.631  1.00  0.00     0.010 A 
ATOM     82  C   UNL A   1      47.084  28.300  34.330  1.00  0.00     0.010 A 
ATOM     83  C   UNL A   1      46.899  26.442  36.416  1.00  0.00     0.020 A 
ATOM     84  C   UNL A   1      48.213  28.007  35.100  1.00  0.00     0.020 A 
ATOM     85  C   UNL A   1      48.107  27.093  36.151  1.00  0.00     0.054 A 
BRANCH  85  86
ATOM     86  S   UNL A   1      49.559  26.702  37.166  1.00  0.00     0.124 S 
ATOM     87  O   UNL A   1      48.985  25.832  38.190  1.00  0.00    -0.237 OA
ATOM     88  O   UNL A   1      50.456  26.049  36.217  1.00  0.00    -0.237 OA
ATOM     89  O   UNL A   1      50.009  28.009  37.640  1.00  0.00    -0.744 OA
ENDBRANCH  85  86
ENDBRANCH  59  80
ENDBRANCH  33  34
ENDBRANCH  26  28
ENDBRANCH  25  26
ENDBRANCH   1  25
TORSDOF 16
ENDMDL
