MODEL 1
REMARK VINA RESULT:     -10.4      0.000      0.000
REMARK SMILES O=C(C[C@H](Cc1ccc(Cl)cc1)C(=O)Nc1cc(Cl)ccc1Cl)OCCOC(=O)c1ccc(-c2c3nc(c(-c4ccc(S(=O)(=O)[O-])cc4)c4ccc([nH]4)c(-c4ccc(S(=O)(=O)[O-])cc4)c4nc(c(-c5ccc(S(=O)(=O)[O-])cc5)c5ccc2[nH]5)C=C4)C=C3)cc1
REMARK SMILES IDX 25 1 24 2 2 3 1 4 3 5 4 6 13 7 14 8 15 9 16 11 17 12 22 13
REMARK SMILES IDX 18 14 21 15 23 16 19 17 20 18 5 19 6 20 7 21 12 22 8 23
REMARK SMILES IDX 11 24 9 25 10 26 26 27 27 28 28 29 29 30 30 31 31 32 89 33
REMARK SMILES IDX 32 34 88 35 33 36 34 37 35 38 82 39 36 40 87 41 81 42 83 43
REMARK SMILES IDX 37 44 86 45 80 46 79 47 38 49 68 50 49 51 67 52 50 53 53 54
REMARK SMILES IDX 66 55 84 56 51 57 52 58 65 60 85 61 54 62 39 63 40 64 48 65
REMARK SMILES IDX 41 66 47 67 42 68 43 69 44 70 45 71 46 72 69 73 70 74 78 75
REMARK SMILES IDX 71 76 77 77 72 78 73 79 74 80 75 81 76 82 55 83 56 84 64 85
REMARK SMILES IDX 57 86 63 87 58 88 59 89 60 90 61 91 62 92
REMARK H PARENT 15 10 83 48 53 59
REMARK Flexibility Score: inf
ROOT
ATOM      1  C   UNL A   1      35.581  22.780  25.102  1.00  0.00     0.274 C 
ENDROOT
BRANCH   1   2
ATOM      2  O   UNL A   1      34.594  21.928  25.724  1.00  0.00    -0.462 OA
BRANCH   2   3
ATOM      3  C   UNL A   1      33.487  22.337  26.379  1.00  0.00     0.306 C 
ATOM      4  O   UNL A   1      33.556  22.657  27.562  1.00  0.00    -0.252 OA
BRANCH   3   5
ATOM      5  C   UNL A   1      32.181  22.421  25.633  1.00  0.00     0.136 C 
BRANCH   5   6
ATOM      6  C   UNL A   1      31.814  23.776  25.023  1.00  0.00     0.094 C 
BRANCH   6   7
ATOM      7  C   UNL A   1      31.349  23.668  23.558  1.00  0.00     0.228 C 
ATOM      8  O   UNL A   1      31.011  22.553  23.138  1.00  0.00    -0.274 OA
ATOM      9  N   UNL A   1      31.137  24.726  22.724  1.00  0.00    -0.324 N 
ATOM     10  H   UNL A   1      30.649  24.489  21.902  1.00  0.00     0.169 HD
BRANCH   9  11
ATOM     11  C   UNL A   1      31.480  26.088  22.804  1.00  0.00     0.061 A 
ATOM     12  C   UNL A   1      30.523  27.072  23.023  1.00  0.00     0.048 A 
ATOM     13  C   UNL A   1      32.827  26.481  22.715  1.00  0.00     0.064 A 
ATOM     14  C   UNL A   1      30.874  28.422  23.000  1.00  0.00     0.043 A 
ATOM     15  C   UNL A   1      33.177  27.832  22.659  1.00  0.00     0.024 A 
ATOM     16  Cl  UNL A   1      34.106  25.334  22.636  1.00  0.00    -0.082 Cl
ATOM     17  Cl  UNL A   1      29.668  29.618  23.277  1.00  0.00    -0.084 Cl
ATOM     18  C   UNL A   1      32.192  28.808  22.776  1.00  0.00     0.022 A 
ENDBRANCH   9  11
ENDBRANCH   6   7
BRANCH   6  19
ATOM     19  C   UNL A   1      31.036  24.746  25.922  1.00  0.00     0.049 C 
BRANCH  19  20
ATOM     20  C   UNL A   1      31.809  26.002  26.244  1.00  0.00    -0.047 A 
ATOM     21  C   UNL A   1      33.200  26.036  26.064  1.00  0.00     0.005 A 
ATOM     22  C   UNL A   1      31.148  27.153  26.690  1.00  0.00     0.005 A 
ATOM     23  C   UNL A   1      33.919  27.201  26.324  1.00  0.00     0.021 A 
ATOM     24  C   UNL A   1      31.869  28.319  26.954  1.00  0.00     0.021 A 
ATOM     25  C   UNL A   1      33.249  28.338  26.769  1.00  0.00     0.041 A 
ATOM     26  Cl  UNL A   1      34.140  29.774  27.099  1.00  0.00    -0.084 Cl
ENDBRANCH  19  20
ENDBRANCH   6  19
ENDBRANCH   5   6
ENDBRANCH   3   5
ENDBRANCH   2   3
ENDBRANCH   1   2
BRANCH   1  27
ATOM     27  C   UNL A   1      36.721  23.109  26.067  1.00  0.00     0.275 C 
BRANCH  27  28
ATOM     28  O   UNL A   1      37.988  22.903  25.417  1.00  0.00    -0.458 OA
BRANCH  28  29
ATOM     29  C   UNL A   1      39.062  22.750  26.236  1.00  0.00     0.338 C 
ATOM     30  O   UNL A   1      39.779  21.777  26.310  1.00  0.00    -0.246 OA
BRANCH  29  31
ATOM     31  C   UNL A   1      39.368  24.062  26.868  1.00  0.00     0.060 A 
ATOM     32  C   UNL A   1      39.932  25.057  26.060  1.00  0.00     0.016 A 
ATOM     33  C   UNL A   1      39.037  24.348  28.199  1.00  0.00     0.016 A 
ATOM     34  C   UNL A   1      40.173  26.328  26.583  1.00  0.00     0.010 A 
ATOM     35  C   UNL A   1      39.292  25.618  28.726  1.00  0.00     0.010 A 
ATOM     36  C   UNL A   1      39.877  26.610  27.926  1.00  0.00    -0.014 A 
BRANCH  36  37
ATOM     37  C   UNL A   1      40.349  27.881  28.524  1.00  0.00     0.031 A 
ATOM     38  C   UNL A   1      41.824  28.048  28.759  1.00  0.00     0.074 A 
ATOM     39  C   UNL A   1      39.500  28.880  28.830  1.00  0.00     0.049 A 
ATOM     40  N   UNL A   1      42.484  29.093  29.181  1.00  0.00    -0.248 NA
ATOM     41  C   UNL A   1      42.665  26.867  28.495  1.00  0.00     0.031 C 
ATOM     42  C   UNL A   1      38.049  28.836  28.668  1.00  0.00     0.029 A 
ATOM     43  N   UNL A   1      39.748  30.145  29.303  1.00  0.00    -0.354 N 
ATOM     44  C   UNL A   1      43.812  28.693  29.255  1.00  0.00     0.074 A 
ATOM     45  C   UNL A   1      43.866  27.313  28.825  1.00  0.00     0.031 C 
ATOM     46  C   UNL A   1      37.543  30.051  28.948  1.00  0.00     0.029 A 
ATOM     47  C   UNL A   1      38.627  30.942  29.359  1.00  0.00     0.049 A 
ATOM     48  H   UNL A   1      40.642  30.453  29.576  1.00  0.00     0.167 HD
ATOM     49  C   UNL A   1      44.888  29.399  29.672  1.00  0.00     0.031 A 
ATOM     50  C   UNL A   1      38.499  32.244  29.689  1.00  0.00     0.031 A 
ATOM     51  C   UNL A   1      44.833  30.752  30.150  1.00  0.00     0.049 A 
ATOM     52  C   UNL A   1      39.718  33.016  30.136  1.00  0.00     0.074 A 
ATOM     53  C   UNL A   1      45.865  31.537  30.634  1.00  0.00     0.029 A 
ATOM     54  N   UNL A   1      43.679  31.517  30.221  1.00  0.00    -0.354 N 
ATOM     55  N   UNL A   1      40.971  32.630  30.178  1.00  0.00    -0.248 NA
ATOM     56  C   UNL A   1      39.497  34.394  30.601  1.00  0.00     0.031 C 
ATOM     57  C   UNL A   1      45.326  32.762  31.041  1.00  0.00     0.029 A 
ATOM     58  C   UNL A   1      43.969  32.758  30.760  1.00  0.00     0.049 A 
ATOM     59  H   UNL A   1      42.786  31.221  29.931  1.00  0.00     0.167 HD
ATOM     60  C   UNL A   1      41.684  33.714  30.684  1.00  0.00     0.074 A 
ATOM     61  C   UNL A   1      40.731  34.784  30.891  1.00  0.00     0.031 C 
ATOM     62  C   UNL A   1      43.006  33.810  30.968  1.00  0.00     0.031 A 
BRANCH  49  63
ATOM     63  C   UNL A   1      46.205  28.677  29.698  1.00  0.00    -0.014 A 
ATOM     64  C   UNL A   1      47.101  28.757  28.617  1.00  0.00     0.010 A 
ATOM     65  C   UNL A   1      46.542  27.898  30.818  1.00  0.00     0.010 A 
ATOM     66  C   UNL A   1      48.296  28.033  28.640  1.00  0.00     0.020 A 
ATOM     67  C   UNL A   1      47.747  27.190  30.854  1.00  0.00     0.020 A 
ATOM     68  C   UNL A   1      48.606  27.248  29.755  1.00  0.00     0.054 A 
BRANCH  68  69
ATOM     69  S   UNL A   1      50.159  26.312  29.759  1.00  0.00     0.124 S 
ATOM     70  O   UNL A   1      50.922  26.993  28.715  1.00  0.00    -0.237 OA
ATOM     71  O   UNL A   1      50.649  26.507  31.122  1.00  0.00    -0.237 OA
ATOM     72  O   UNL A   1      49.744  24.949  29.437  1.00  0.00    -0.744 OA
ENDBRANCH  68  69
ENDBRANCH  49  63
BRANCH  50  73
ATOM     73  C   UNL A   1      37.173  32.919  29.616  1.00  0.00    -0.014 A 
ATOM     74  C   UNL A   1      36.691  33.402  28.384  1.00  0.00     0.010 A 
ATOM     75  C   UNL A   1      36.396  33.111  30.771  1.00  0.00     0.010 A 
ATOM     76  C   UNL A   1      35.470  34.081  28.313  1.00  0.00     0.020 A 
ATOM     77  C   UNL A   1      35.160  33.764  30.700  1.00  0.00     0.020 A 
ATOM     78  C   UNL A   1      34.713  34.259  29.474  1.00  0.00     0.054 A 
BRANCH  78  79
ATOM     79  S   UNL A   1      33.111  35.106  29.359  1.00  0.00     0.124 S 
ATOM     80  O   UNL A   1      33.508  36.452  28.960  1.00  0.00    -0.237 OA
ATOM     81  O   UNL A   1      32.409  34.326  28.343  1.00  0.00    -0.237 OA
ATOM     82  O   UNL A   1      32.568  34.985  30.710  1.00  0.00    -0.744 OA
ENDBRANCH  78  79
ENDBRANCH  50  73
BRANCH  62  83
ATOM     83  C   UNL A   1      43.508  35.108  31.543  1.00  0.00    -0.014 A 
ATOM     84  C   UNL A   1      43.928  36.155  30.704  1.00  0.00     0.010 A 
ATOM     85  C   UNL A   1      43.481  35.313  32.934  1.00  0.00     0.010 A 
ATOM     86  C   UNL A   1      44.333  37.378  31.246  1.00  0.00     0.020 A 
ATOM     87  C   UNL A   1      43.863  36.542  33.480  1.00  0.00     0.020 A 
ATOM     88  C   UNL A   1      44.298  37.563  32.632  1.00  0.00     0.054 A 
BRANCH  88  89
ATOM     89  S   UNL A   1      44.770  39.179  33.310  1.00  0.00     0.124 S 
ATOM     90  O   UNL A   1      43.495  39.679  33.816  1.00  0.00    -0.237 OA
ATOM     91  O   UNL A   1      45.756  38.826  34.330  1.00  0.00    -0.237 OA
ATOM     92  O   UNL A   1      45.308  39.895  32.155  1.00  0.00    -0.744 OA
ENDBRANCH  88  89
ENDBRANCH  62  83
ENDBRANCH  36  37
ENDBRANCH  29  31
ENDBRANCH  28  29
ENDBRANCH  27  28
ENDBRANCH   1  27
TORSDOF 19
ENDMDL
MODEL 2
REMARK VINA RESULT:     -10.3      4.037      8.861
REMARK SMILES O=C(C[C@H](Cc1ccc(Cl)cc1)C(=O)Nc1cc(Cl)ccc1Cl)OCCOC(=O)c1ccc(-c2c3nc(c(-c4ccc(S(=O)(=O)[O-])cc4)c4ccc([nH]4)c(-c4ccc(S(=O)(=O)[O-])cc4)c4nc(c(-c5ccc(S(=O)(=O)[O-])cc5)c5ccc2[nH]5)C=C4)C=C3)cc1
REMARK SMILES IDX 25 1 24 2 2 3 1 4 3 5 4 6 13 7 14 8 15 9 16 11 17 12 22 13
REMARK SMILES IDX 18 14 21 15 23 16 19 17 20 18 5 19 6 20 7 21 12 22 8 23
REMARK SMILES IDX 11 24 9 25 10 26 26 27 27 28 28 29 29 30 30 31 31 32 89 33
REMARK SMILES IDX 32 34 88 35 33 36 34 37 35 38 82 39 36 40 87 41 81 42 83 43
REMARK SMILES IDX 37 44 86 45 80 46 79 47 38 49 68 50 49 51 67 52 50 53 53 54
REMARK SMILES IDX 66 55 84 56 51 57 52 58 65 60 85 61 54 62 39 63 40 64 48 65
REMARK SMILES IDX 41 66 47 67 42 68 43 69 44 70 45 71 46 72 69 73 70 74 78 75
REMARK SMILES IDX 71 76 77 77 72 78 73 79 74 80 75 81 76 82 55 83 56 84 64 85
REMARK SMILES IDX 57 86 63 87 58 88 59 89 60 90 61 91 62 92
REMARK H PARENT 15 10 83 48 53 59
REMARK Flexibility Score: inf
ROOT
ATOM      1  C   UNL A   1      36.966  22.911  25.554  1.00  0.00     0.274 C 
ENDROOT
BRANCH   1   2
ATOM      2  O   UNL A   1      36.320  21.656  25.867  1.00  0.00    -0.462 OA
BRANCH   2   3
ATOM      3  C   UNL A   1      35.049  21.498  26.291  1.00  0.00     0.306 C 
ATOM      4  O   UNL A   1      34.761  21.711  27.465  1.00  0.00    -0.252 OA
BRANCH   3   5
ATOM      5  C   UNL A   1      33.990  21.087  25.302  1.00  0.00     0.136 C 
BRANCH   5   6
ATOM      6  C   UNL A   1      32.975  22.154  24.885  1.00  0.00     0.094 C 
BRANCH   6   7
ATOM      7  C   UNL A   1      32.419  21.932  23.466  1.00  0.00     0.228 C 
ATOM      8  O   UNL A   1      32.173  20.770  23.115  1.00  0.00    -0.274 OA
ATOM      9  N   UNL A   1      32.035  22.924  22.611  1.00  0.00    -0.324 N 
ATOM     10  H   UNL A   1      31.517  22.600  21.839  1.00  0.00     0.169 HD
BRANCH   9  11
ATOM     11  C   UNL A   1      32.235  24.316  22.614  1.00  0.00     0.061 A 
ATOM     12  C   UNL A   1      31.168  25.208  22.641  1.00  0.00     0.048 A 
ATOM     13  C   UNL A   1      33.539  24.840  22.645  1.00  0.00     0.064 A 
ATOM     14  C   UNL A   1      31.390  26.583  22.544  1.00  0.00     0.043 A 
ATOM     15  C   UNL A   1      33.763  26.213  22.514  1.00  0.00     0.024 A 
ATOM     16  Cl  UNL A   1      34.921  23.830  22.807  1.00  0.00    -0.082 Cl
ATOM     17  Cl  UNL A   1      30.051  27.662  22.581  1.00  0.00    -0.084 Cl
ATOM     18  C   UNL A   1      32.682  27.086  22.437  1.00  0.00     0.022 A 
ENDBRANCH   9  11
ENDBRANCH   6   7
BRANCH   6  19
ATOM     19  C   UNL A   1      31.970  22.600  25.956  1.00  0.00     0.049 C 
BRANCH  19  20
ATOM     20  C   UNL A   1      31.871  24.101  26.085  1.00  0.00    -0.047 A 
ATOM     21  C   UNL A   1      33.038  24.877  26.151  1.00  0.00     0.005 A 
ATOM     22  C   UNL A   1      30.623  24.735  26.105  1.00  0.00     0.005 A 
ATOM     23  C   UNL A   1      32.958  26.266  26.235  1.00  0.00     0.021 A 
ATOM     24  C   UNL A   1      30.544  26.126  26.193  1.00  0.00     0.021 A 
ATOM     25  C   UNL A   1      31.710  26.885  26.256  1.00  0.00     0.041 A 
ATOM     26  Cl  UNL A   1      31.615  28.600  26.369  1.00  0.00    -0.084 Cl
ENDBRANCH  19  20
ENDBRANCH   6  19
ENDBRANCH   5   6
ENDBRANCH   3   5
ENDBRANCH   2   3
ENDBRANCH   1   2
BRANCH   1  27
ATOM     27  C   UNL A   1      38.386  22.962  26.118  1.00  0.00     0.275 C 
BRANCH  27  28
ATOM     28  O   UNL A   1      38.725  24.316  26.469  1.00  0.00    -0.458 OA
BRANCH  28  29
ATOM     29  C   UNL A   1      39.999  24.521  26.897  1.00  0.00     0.338 C 
ATOM     30  O   UNL A   1      41.008  24.082  26.392  1.00  0.00    -0.246 OA
BRANCH  29  31
ATOM     31  C   UNL A   1      39.982  25.571  27.952  1.00  0.00     0.060 A 
ATOM     32  C   UNL A   1      40.960  26.570  27.890  1.00  0.00     0.016 A 
ATOM     33  C   UNL A   1      38.985  25.629  28.934  1.00  0.00     0.016 A 
ATOM     34  C   UNL A   1      40.947  27.618  28.812  1.00  0.00     0.010 A 
ATOM     35  C   UNL A   1      38.981  26.671  29.866  1.00  0.00     0.010 A 
ATOM     36  C   UNL A   1      39.972  27.662  29.821  1.00  0.00    -0.014 A 
BRANCH  36  37
ATOM     37  C   UNL A   1      40.109  28.645  30.922  1.00  0.00     0.031 A 
ATOM     38  C   UNL A   1      39.127  29.781  30.983  1.00  0.00     0.074 A 
ATOM     39  C   UNL A   1      41.064  28.527  31.864  1.00  0.00     0.049 A 
ATOM     40  N   UNL A   1      38.986  30.707  31.894  1.00  0.00    -0.248 NA
ATOM     41  C   UNL A   1      38.186  29.892  29.855  1.00  0.00     0.031 C 
ATOM     42  C   UNL A   1      42.086  27.484  31.906  1.00  0.00     0.029 A 
ATOM     43  N   UNL A   1      41.297  29.274  32.993  1.00  0.00    -0.354 N 
ATOM     44  C   UNL A   1      37.958  31.525  31.440  1.00  0.00     0.074 A 
ATOM     45  C   UNL A   1      37.504  30.979  30.179  1.00  0.00     0.031 C 
ATOM     46  C   UNL A   1      42.780  27.602  33.053  1.00  0.00     0.029 A 
ATOM     47  C   UNL A   1      42.286  28.758  33.799  1.00  0.00     0.049 A 
ATOM     48  H   UNL A   1      40.804  30.099  33.204  1.00  0.00     0.167 HD
ATOM     49  C   UNL A   1      37.454  32.646  32.005  1.00  0.00     0.031 A 
ATOM     50  C   UNL A   1      42.727  29.167  35.006  1.00  0.00     0.031 A 
ATOM     51  C   UNL A   1      37.936  33.222  33.229  1.00  0.00     0.049 A 
ATOM     52  C   UNL A   1      42.139  30.413  35.625  1.00  0.00     0.074 A 
ATOM     53  C   UNL A   1      37.517  34.381  33.858  1.00  0.00     0.029 A 
ATOM     54  N   UNL A   1      38.957  32.692  34.002  1.00  0.00    -0.354 N 
ATOM     55  N   UNL A   1      41.151  31.162  35.195  1.00  0.00    -0.248 NA
ATOM     56  C   UNL A   1      42.744  30.880  36.882  1.00  0.00     0.031 C 
ATOM     57  C   UNL A   1      38.317  34.576  34.990  1.00  0.00     0.029 A 
ATOM     58  C   UNL A   1      39.196  33.510  35.092  1.00  0.00     0.049 A 
ATOM     59  H   UNL A   1      39.439  31.857  33.806  1.00  0.00     0.167 HD
ATOM     60  C   UNL A   1      41.025  32.192  36.123  1.00  0.00     0.074 A 
ATOM     61  C   UNL A   1      42.006  31.947  37.159  1.00  0.00     0.031 C 
ATOM     62  C   UNL A   1      40.183  33.256  36.111  1.00  0.00     0.031 A 
BRANCH  49  63
ATOM     63  C   UNL A   1      36.372  33.360  31.247  1.00  0.00    -0.014 A 
ATOM     64  C   UNL A   1      36.592  33.842  29.944  1.00  0.00     0.010 A 
ATOM     65  C   UNL A   1      35.121  33.561  31.855  1.00  0.00     0.010 A 
ATOM     66  C   UNL A   1      35.589  34.551  29.278  1.00  0.00     0.020 A 
ATOM     67  C   UNL A   1      34.108  34.251  31.184  1.00  0.00     0.020 A 
ATOM     68  C   UNL A   1      34.356  34.757  29.907  1.00  0.00     0.054 A 
BRANCH  68  69
ATOM     69  S   UNL A   1      33.072  35.686  29.026  1.00  0.00     0.124 S 
ATOM     70  O   UNL A   1      32.249  36.179  30.129  1.00  0.00    -0.237 OA
ATOM     71  O   UNL A   1      33.841  36.703  28.313  1.00  0.00    -0.237 OA
ATOM     72  O   UNL A   1      32.437  34.680  28.178  1.00  0.00    -0.744 OA
ENDBRANCH  68  69
ENDBRANCH  49  63
BRANCH  50  73
ATOM     73  C   UNL A   1      43.783  28.402  35.729  1.00  0.00    -0.014 A 
ATOM     74  C   UNL A   1      45.142  28.703  35.522  1.00  0.00     0.010 A 
ATOM     75  C   UNL A   1      43.443  27.354  36.602  1.00  0.00     0.010 A 
ATOM     76  C   UNL A   1      46.141  27.958  36.158  1.00  0.00     0.020 A 
ATOM     77  C   UNL A   1      44.439  26.625  37.263  1.00  0.00     0.020 A 
ATOM     78  C   UNL A   1      45.782  26.922  37.023  1.00  0.00     0.054 A 
BRANCH  78  79
ATOM     79  S   UNL A   1      47.088  25.990  37.873  1.00  0.00     0.124 S 
ATOM     80  O   UNL A   1      46.952  24.666  37.276  1.00  0.00    -0.237 OA
ATOM     81  O   UNL A   1      48.296  26.727  37.508  1.00  0.00    -0.237 OA
ATOM     82  O   UNL A   1      46.711  26.087  39.281  1.00  0.00    -0.744 OA
ENDBRANCH  78  79
ENDBRANCH  50  73
BRANCH  62  83
ATOM     83  C   UNL A   1      40.287  34.245  37.241  1.00  0.00    -0.014 A 
ATOM     84  C   UNL A   1      41.203  35.310  37.186  1.00  0.00     0.010 A 
ATOM     85  C   UNL A   1      39.404  34.155  38.332  1.00  0.00     0.010 A 
ATOM     86  C   UNL A   1      41.248  36.258  38.212  1.00  0.00     0.020 A 
ATOM     87  C   UNL A   1      39.430  35.114  39.349  1.00  0.00     0.020 A 
ATOM     88  C   UNL A   1      40.361  36.153  39.288  1.00  0.00     0.054 A 
BRANCH  88  89
ATOM     89  S   UNL A   1      40.397  37.429  40.579  1.00  0.00     0.124 S 
ATOM     90  O   UNL A   1      40.721  38.627  39.811  1.00  0.00    -0.237 OA
ATOM     91  O   UNL A   1      39.041  37.378  41.121  1.00  0.00    -0.237 OA
ATOM     92  O   UNL A   1      41.443  36.970  41.490  1.00  0.00    -0.744 OA
ENDBRANCH  88  89
ENDBRANCH  62  83
ENDBRANCH  36  37
ENDBRANCH  29  31
ENDBRANCH  28  29
ENDBRANCH  27  28
ENDBRANCH   1  27
TORSDOF 19
ENDMDL
MODEL 3
REMARK VINA RESULT:     -10.2      1.620      2.437
REMARK SMILES O=C(C[C@H](Cc1ccc(Cl)cc1)C(=O)Nc1cc(Cl)ccc1Cl)OCCOC(=O)c1ccc(-c2c3nc(c(-c4ccc(S(=O)(=O)[O-])cc4)c4ccc([nH]4)c(-c4ccc(S(=O)(=O)[O-])cc4)c4nc(c(-c5ccc(S(=O)(=O)[O-])cc5)c5ccc2[nH]5)C=C4)C=C3)cc1
REMARK SMILES IDX 25 1 24 2 2 3 1 4 3 5 4 6 13 7 14 8 15 9 16 11 17 12 22 13
REMARK SMILES IDX 18 14 21 15 23 16 19 17 20 18 5 19 6 20 7 21 12 22 8 23
REMARK SMILES IDX 11 24 9 25 10 26 26 27 27 28 28 29 29 30 30 31 31 32 89 33
REMARK SMILES IDX 32 34 88 35 33 36 34 37 35 38 82 39 36 40 87 41 81 42 83 43
REMARK SMILES IDX 37 44 86 45 80 46 79 47 38 49 68 50 49 51 67 52 50 53 53 54
REMARK SMILES IDX 66 55 84 56 51 57 52 58 65 60 85 61 54 62 39 63 40 64 48 65
REMARK SMILES IDX 41 66 47 67 42 68 43 69 44 70 45 71 46 72 69 73 70 74 78 75
REMARK SMILES IDX 71 76 77 77 72 78 73 79 74 80 75 81 76 82 55 83 56 84 64 85
REMARK SMILES IDX 57 86 63 87 58 88 59 89 60 90 61 91 62 92
REMARK H PARENT 15 10 83 48 53 59
REMARK Flexibility Score: inf
ROOT
ATOM      1  C   UNL A   1      35.766  21.481  25.031  1.00  0.00     0.274 C 
ENDROOT
BRANCH   1   2
ATOM      2  O   UNL A   1      34.959  22.626  25.385  1.00  0.00    -0.462 OA
BRANCH   2   3
ATOM      3  C   UNL A   1      34.192  22.751  26.489  1.00  0.00     0.306 C 
ATOM      4  O   UNL A   1      34.716  22.802  27.598  1.00  0.00    -0.252 OA
BRANCH   3   5
ATOM      5  C   UNL A   1      32.697  22.853  26.337  1.00  0.00     0.136 C 
BRANCH   5   6
ATOM      6  C   UNL A   1      32.156  24.077  25.594  1.00  0.00     0.094 C 
BRANCH   6   7
ATOM      7  C   UNL A   1      31.608  23.735  24.196  1.00  0.00     0.228 C 
ATOM      8  O   UNL A   1      31.371  22.547  23.940  1.00  0.00    -0.274 OA
ATOM      9  N   UNL A   1      31.221  24.650  23.261  1.00  0.00    -0.324 N 
ATOM     10  H   UNL A   1      30.708  24.261  22.516  1.00  0.00     0.169 HD
BRANCH   9  11
ATOM     11  C   UNL A   1      31.411  26.040  23.150  1.00  0.00     0.061 A 
ATOM     12  C   UNL A   1      32.607  26.581  22.693  1.00  0.00     0.048 A 
ATOM     13  C   UNL A   1      30.358  26.921  23.455  1.00  0.00     0.064 A 
ATOM     14  C   UNL A   1      32.805  27.962  22.686  1.00  0.00     0.043 A 
ATOM     15  C   UNL A   1      30.564  28.302  23.481  1.00  0.00     0.024 A 
ATOM     16  Cl  UNL A   1      28.782  26.354  23.845  1.00  0.00    -0.082 Cl
ATOM     17  Cl  UNL A   1      34.296  28.603  22.113  1.00  0.00    -0.084 Cl
ATOM     18  C   UNL A   1      31.803  28.824  23.119  1.00  0.00     0.022 A 
ENDBRANCH   9  11
ENDBRANCH   6   7
BRANCH   6  19
ATOM     19  C   UNL A   1      31.345  25.081  26.424  1.00  0.00     0.049 C 
BRANCH  19  20
ATOM     20  C   UNL A   1      32.023  26.423  26.557  1.00  0.00    -0.047 A 
ATOM     21  C   UNL A   1      31.330  27.508  27.113  1.00  0.00     0.005 A 
ATOM     22  C   UNL A   1      33.355  26.591  26.160  1.00  0.00     0.005 A 
ATOM     23  C   UNL A   1      31.958  28.742  27.272  1.00  0.00     0.021 A 
ATOM     24  C   UNL A   1      33.983  27.828  26.317  1.00  0.00     0.021 A 
ATOM     25  C   UNL A   1      33.283  28.897  26.873  1.00  0.00     0.041 A 
ATOM     26  Cl  UNL A   1      34.055  30.424  27.062  1.00  0.00    -0.084 Cl
ENDBRANCH  19  20
ENDBRANCH   6  19
ENDBRANCH   5   6
ENDBRANCH   3   5
ENDBRANCH   2   3
ENDBRANCH   1   2
BRANCH   1  27
ATOM     27  C   UNL A   1      37.220  21.882  24.778  1.00  0.00     0.275 C 
BRANCH  27  28
ATOM     28  O   UNL A   1      37.735  22.602  25.913  1.00  0.00    -0.458 OA
BRANCH  28  29
ATOM     29  C   UNL A   1      39.008  22.302  26.284  1.00  0.00     0.338 C 
ATOM     30  O   UNL A   1      39.574  21.245  26.124  1.00  0.00    -0.246 OA
BRANCH  29  31
ATOM     31  C   UNL A   1      39.686  23.557  26.709  1.00  0.00     0.060 A 
ATOM     32  C   UNL A   1      40.414  23.529  27.904  1.00  0.00     0.016 A 
ATOM     33  C   UNL A   1      39.681  24.715  25.921  1.00  0.00     0.016 A 
ATOM     34  C   UNL A   1      41.128  24.656  28.314  1.00  0.00     0.010 A 
ATOM     35  C   UNL A   1      40.385  25.849  26.340  1.00  0.00     0.010 A 
ATOM     36  C   UNL A   1      41.098  25.831  27.547  1.00  0.00    -0.014 A 
BRANCH  36  37
ATOM     37  C   UNL A   1      41.666  27.080  28.108  1.00  0.00     0.031 A 
ATOM     38  C   UNL A   1      43.145  27.308  27.973  1.00  0.00     0.074 A 
ATOM     39  C   UNL A   1      40.892  28.007  28.702  1.00  0.00     0.049 A 
ATOM     40  N   UNL A   1      43.857  28.355  28.299  1.00  0.00    -0.248 NA
ATOM     41  C   UNL A   1      43.928  26.196  27.407  1.00  0.00     0.031 C 
ATOM     42  C   UNL A   1      39.450  27.898  28.911  1.00  0.00     0.029 A 
ATOM     43  N   UNL A   1      41.211  29.247  29.200  1.00  0.00    -0.354 N 
ATOM     44  C   UNL A   1      45.172  28.022  27.999  1.00  0.00     0.074 A 
ATOM     45  C   UNL A   1      45.159  26.680  27.456  1.00  0.00     0.031 C 
ATOM     46  C   UNL A   1      38.993  29.061  29.411  1.00  0.00     0.029 A 
ATOM     47  C   UNL A   1      40.117  29.977  29.605  1.00  0.00     0.049 A 
ATOM     48  H   UNL A   1      42.135  29.581  29.261  1.00  0.00     0.167 HD
ATOM     49  C   UNL A   1      46.295  28.752  28.185  1.00  0.00     0.031 A 
ATOM     50  C   UNL A   1      40.035  31.243  30.064  1.00  0.00     0.031 A 
ATOM     51  C   UNL A   1      46.319  30.062  28.773  1.00  0.00     0.049 A 
ATOM     52  C   UNL A   1      41.301  32.045  30.248  1.00  0.00     0.074 A 
ATOM     53  C   UNL A   1      47.415  30.865  29.041  1.00  0.00     0.029 A 
ATOM     54  N   UNL A   1      45.198  30.758  29.198  1.00  0.00    -0.354 N 
ATOM     55  N   UNL A   1      42.535  31.725  29.938  1.00  0.00    -0.248 NA
ATOM     56  C   UNL A   1      41.162  33.373  30.867  1.00  0.00     0.031 C 
ATOM     57  C   UNL A   1      46.958  32.027  29.672  1.00  0.00     0.029 A 
ATOM     58  C   UNL A   1      45.576  31.971  29.746  1.00  0.00     0.049 A 
ATOM     59  H   UNL A   1      44.271  30.436  29.121  1.00  0.00     0.167 HD
ATOM     60  C   UNL A   1      43.318  32.807  30.334  1.00  0.00     0.074 A 
ATOM     61  C   UNL A   1      42.415  33.806  30.865  1.00  0.00     0.031 C 
ATOM     62  C   UNL A   1      44.665  32.952  30.279  1.00  0.00     0.031 A 
BRANCH  49  63
ATOM     63  C   UNL A   1      47.597  28.101  27.815  1.00  0.00    -0.014 A 
ATOM     64  C   UNL A   1      48.321  27.340  28.750  1.00  0.00     0.010 A 
ATOM     65  C   UNL A   1      48.106  28.266  26.515  1.00  0.00     0.010 A 
ATOM     66  C   UNL A   1      49.556  26.789  28.400  1.00  0.00     0.020 A 
ATOM     67  C   UNL A   1      49.331  27.698  26.156  1.00  0.00     0.020 A 
ATOM     68  C   UNL A   1      50.056  26.979  27.108  1.00  0.00     0.054 A 
BRANCH  68  69
ATOM     69  S   UNL A   1      51.665  26.260  26.679  1.00  0.00     0.124 S 
ATOM     70  O   UNL A   1      52.532  26.833  27.706  1.00  0.00    -0.237 OA
ATOM     71  O   UNL A   1      51.418  24.825  26.796  1.00  0.00    -0.237 OA
ATOM     72  O   UNL A   1      51.908  26.739  25.321  1.00  0.00    -0.744 OA
ENDBRANCH  68  69
ENDBRANCH  49  63
BRANCH  50  73
ATOM     73  C   UNL A   1      38.712  31.850  30.386  1.00  0.00    -0.014 A 
ATOM     74  C   UNL A   1      38.087  31.574  31.617  1.00  0.00     0.010 A 
ATOM     75  C   UNL A   1      38.056  32.680  29.462  1.00  0.00     0.010 A 
ATOM     76  C   UNL A   1      36.824  32.099  31.908  1.00  0.00     0.020 A 
ATOM     77  C   UNL A   1      36.805  33.232  29.760  1.00  0.00     0.020 A 
ATOM     78  C   UNL A   1      36.190  32.924  30.976  1.00  0.00     0.054 A 
BRANCH  78  79
ATOM     79  S   UNL A   1      34.569  33.632  31.384  1.00  0.00     0.124 S 
ATOM     80  O   UNL A   1      33.935  33.714  30.072  1.00  0.00    -0.237 OA
ATOM     81  O   UNL A   1      34.007  32.640  32.297  1.00  0.00    -0.237 OA
ATOM     82  O   UNL A   1      34.905  34.914  32.000  1.00  0.00    -0.744 OA
ENDBRANCH  78  79
ENDBRANCH  50  73
BRANCH  62  83
ATOM     83  C   UNL A   1      45.254  34.231  30.814  1.00  0.00    -0.014 A 
ATOM     84  C   UNL A   1      45.380  35.366  29.993  1.00  0.00     0.010 A 
ATOM     85  C   UNL A   1      45.609  34.322  32.171  1.00  0.00     0.010 A 
ATOM     86  C   UNL A   1      45.870  36.566  30.516  1.00  0.00     0.020 A 
ATOM     87  C   UNL A   1      46.079  35.527  32.703  1.00  0.00     0.020 A 
ATOM     88  C   UNL A   1      46.218  36.638  31.869  1.00  0.00     0.054 A 
BRANCH  88  89
ATOM     89  S   UNL A   1      46.794  38.223  32.540  1.00  0.00     0.124 S 
ATOM     90  O   UNL A   1      47.020  39.002  31.326  1.00  0.00    -0.237 OA
ATOM     91  O   UNL A   1      45.667  38.654  33.364  1.00  0.00    -0.237 OA
ATOM     92  O   UNL A   1      48.000  37.864  33.284  1.00  0.00    -0.744 OA
ENDBRANCH  88  89
ENDBRANCH  62  83
ENDBRANCH  36  37
ENDBRANCH  29  31
ENDBRANCH  28  29
ENDBRANCH  27  28
ENDBRANCH   1  27
TORSDOF 19
ENDMDL
