MODEL 1
REMARK VINA RESULT:     -13.1      0.000      0.000
REMARK SMILES [NH3+][C@@H](Cc1cn(-c2nc(Cl)nc(N3CCOCC3)n2)c2ccccc12)C(=O)OCCOC(=O)c1ccc(-c2c3nc(c(-c4ccc(S(=O)(=O)[O-])cc4)c4ccc([nH]4)c(-c4ccc(S(=O)(=O)[O-])cc4)c4nc(c(-c5ccc(S(=O)(=O)[O-])cc5)c5ccc2[nH]5)C=C4)C=C3)cc1
REMARK SMILES IDX 29 1 28 2 26 3 27 4 2 5 1 6 3 10 4 11 5 12 25 13 6 14 20 15
REMARK SMILES IDX 24 16 21 17 23 18 22 19 7 20 8 21 19 22 9 23 12 24 10 25
REMARK SMILES IDX 11 26 13 27 14 28 18 29 15 30 17 31 16 32 30 33 31 34 32 35
REMARK SMILES IDX 33 36 34 37 35 38 93 39 36 40 92 41 37 42 38 43 39 44 86 45
REMARK SMILES IDX 40 46 91 47 85 48 87 49 41 50 90 51 84 52 83 53 42 55 72 56
REMARK SMILES IDX 53 57 71 58 54 59 57 60 70 61 88 62 55 63 56 64 69 66 89 67
REMARK SMILES IDX 58 68 43 69 44 70 52 71 45 72 51 73 46 74 47 75 48 76 49 77
REMARK SMILES IDX 50 78 73 79 74 80 82 81 75 82 81 83 76 84 77 85 78 86 79 87
REMARK SMILES IDX 80 88 59 89 60 90 68 91 61 92 67 93 62 94 63 95 64 96 65 97
REMARK SMILES IDX 66 98
REMARK H PARENT 1 7 1 8 1 9 87 54 57 65
REMARK Flexibility Score: inf
ROOT
ATOM      1  C   UNL A   1      40.923  20.898  27.141  1.00  0.00     0.274 C 
ENDROOT
BRANCH   1   2
ATOM      2  O   UNL A   1      40.006  21.105  26.046  1.00  0.00    -0.458 OA
BRANCH   2   3
ATOM      3  C   UNL A   1      39.132  22.152  26.143  1.00  0.00     0.365 C 
ATOM      4  O   UNL A   1      39.317  23.129  26.857  1.00  0.00    -0.245 OA
BRANCH   3   5
ATOM      5  C   UNL A   1      37.888  21.968  25.236  1.00  0.00     0.296 C 
BRANCH   5   6
ATOM      6  N   UNL A   1      37.718  20.562  24.785  1.00  0.00    -0.346 N 
ATOM      7  H   UNL A   1      37.943  20.493  23.793  1.00  0.00     0.345 HD
ATOM      8  H   UNL A   1      36.752  20.271  24.937  1.00  0.00     0.345 HD
ATOM      9  H   UNL A   1      38.343  19.957  25.318  1.00  0.00     0.345 HD
ENDBRANCH   5   6
BRANCH   5  10
ATOM     10  C   UNL A   1      36.618  22.608  25.814  1.00  0.00     0.115 C 
BRANCH  10  11
ATOM     11  C   UNL A   1      35.541  22.707  24.811  1.00  0.00    -0.015 A 
ATOM     12  C   UNL A   1      35.238  23.794  24.024  1.00  0.00     0.099 A 
ATOM     13  C   UNL A   1      34.568  21.717  24.559  1.00  0.00     0.004 A 
ATOM     14  N   UNL A   1      33.982  23.597  23.490  1.00  0.00    -0.285 N 
ATOM     15  C   UNL A   1      33.543  22.321  23.830  1.00  0.00     0.056 A 
ATOM     16  C   UNL A   1      34.454  20.376  24.969  1.00  0.00     0.010 A 
ATOM     17  C   UNL A   1      32.371  21.614  23.523  1.00  0.00     0.027 A 
ATOM     18  C   UNL A   1      33.303  19.665  24.657  1.00  0.00     0.001 A 
ATOM     19  C   UNL A   1      32.273  20.282  23.953  1.00  0.00     0.002 A 
BRANCH  14  20
ATOM     20  C   UNL A   1      33.286  24.601  22.766  1.00  0.00     0.240 A 
ATOM     21  N   UNL A   1      33.380  24.617  21.443  1.00  0.00    -0.181 NA
ATOM     22  N   UNL A   1      32.517  25.420  23.484  1.00  0.00    -0.176 NA
ATOM     23  C   UNL A   1      32.510  25.456  20.897  1.00  0.00     0.228 A 
ATOM     24  C   UNL A   1      31.782  26.298  22.817  1.00  0.00     0.231 A 
ATOM     25  Cl  UNL A   1      32.463  25.454  19.186  1.00  0.00    -0.041 Cl
ATOM     26  N   UNL A   1      31.685  26.305  21.498  1.00  0.00    -0.182 NA
BRANCH  24  27
ATOM     27  N   UNL A   1      31.167  27.275  23.538  1.00  0.00    -0.336 N 
ATOM     28  C   UNL A   1      29.993  27.955  23.001  1.00  0.00     0.148 C 
ATOM     29  C   UNL A   1      31.681  27.737  24.819  1.00  0.00     0.148 C 
ATOM     30  C   UNL A   1      30.177  29.472  23.078  1.00  0.00     0.181 C 
ATOM     31  C   UNL A   1      31.782  29.276  24.794  1.00  0.00     0.181 C 
ATOM     32  O   UNL A   1      30.527  29.874  24.414  1.00  0.00    -0.378 OA
ENDBRANCH  24  27
ENDBRANCH  14  20
ENDBRANCH  10  11
ENDBRANCH   5  10
ENDBRANCH   3   5
ENDBRANCH   2   3
ENDBRANCH   1   2
BRANCH   1  33
ATOM     33  C   UNL A   1      42.362  21.080  26.643  1.00  0.00     0.275 C 
BRANCH  33  34
ATOM     34  O   UNL A   1      42.766  22.434  26.896  1.00  0.00    -0.458 OA
BRANCH  34  35
ATOM     35  C   UNL A   1      43.115  23.163  25.809  1.00  0.00     0.338 C 
ATOM     36  O   UNL A   1      43.218  22.761  24.661  1.00  0.00    -0.246 OA
BRANCH  35  37
ATOM     37  C   UNL A   1      43.025  24.587  26.211  1.00  0.00     0.060 A 
ATOM     38  C   UNL A   1      43.651  25.055  27.376  1.00  0.00     0.016 A 
ATOM     39  C   UNL A   1      42.077  25.374  25.558  1.00  0.00     0.016 A 
ATOM     40  C   UNL A   1      43.191  26.217  27.991  1.00  0.00     0.010 A 
ATOM     41  C   UNL A   1      41.636  26.543  26.172  1.00  0.00     0.010 A 
ATOM     42  C   UNL A   1      42.119  26.915  27.436  1.00  0.00    -0.014 A 
BRANCH  42  43
ATOM     43  C   UNL A   1      41.654  28.156  28.057  1.00  0.00     0.031 A 
ATOM     44  C   UNL A   1      42.610  29.260  27.869  1.00  0.00     0.074 A 
ATOM     45  C   UNL A   1      40.519  28.420  28.740  1.00  0.00     0.049 A 
ATOM     46  N   UNL A   1      43.460  29.651  28.757  1.00  0.00    -0.248 NA
ATOM     47  C   UNL A   1      42.771  29.866  26.544  1.00  0.00     0.031 C 
ATOM     48  C   UNL A   1      39.373  27.562  29.000  1.00  0.00     0.029 A 
ATOM     49  N   UNL A   1      40.125  29.606  29.301  1.00  0.00    -0.354 N 
ATOM     50  C   UNL A   1      44.148  30.690  28.166  1.00  0.00     0.074 A 
ATOM     51  C   UNL A   1      43.843  30.629  26.757  1.00  0.00     0.031 C 
ATOM     52  C   UNL A   1      38.314  28.307  29.406  1.00  0.00     0.029 A 
ATOM     53  C   UNL A   1      38.782  29.658  29.654  1.00  0.00     0.049 A 
ATOM     54  H   UNL A   1      40.743  30.360  29.441  1.00  0.00     0.167 HD
ATOM     55  C   UNL A   1      44.719  31.672  28.910  1.00  0.00     0.031 A 
ATOM     56  C   UNL A   1      38.118  30.698  30.219  1.00  0.00     0.031 A 
ATOM     57  C   UNL A   1      44.766  31.338  30.311  1.00  0.00     0.049 A 
ATOM     58  C   UNL A   1      39.118  31.475  30.981  1.00  0.00     0.074 A 
ATOM     59  C   UNL A   1      45.350  30.333  31.054  1.00  0.00     0.029 A 
ATOM     60  N   UNL A   1      43.805  31.908  31.113  1.00  0.00    -0.354 N 
ATOM     61  N   UNL A   1      39.692  31.036  32.064  1.00  0.00    -0.248 NA
ATOM     62  C   UNL A   1      39.742  32.634  30.365  1.00  0.00     0.031 C 
ATOM     63  C   UNL A   1      44.459  30.090  32.138  1.00  0.00     0.029 A 
ATOM     64  C   UNL A   1      43.384  30.974  32.027  1.00  0.00     0.049 A 
ATOM     65  H   UNL A   1      43.475  32.832  31.044  1.00  0.00     0.167 HD
ATOM     66  C   UNL A   1      40.971  31.564  32.014  1.00  0.00     0.074 A 
ATOM     67  C   UNL A   1      40.891  32.648  31.043  1.00  0.00     0.031 C 
ATOM     68  C   UNL A   1      42.030  30.892  32.551  1.00  0.00     0.031 A 
BRANCH  55  69
ATOM     69  C   UNL A   1      44.899  33.072  28.396  1.00  0.00    -0.014 A 
ATOM     70  C   UNL A   1      43.961  33.705  27.553  1.00  0.00     0.010 A 
ATOM     71  C   UNL A   1      45.923  33.873  28.931  1.00  0.00     0.010 A 
ATOM     72  C   UNL A   1      44.067  35.047  27.202  1.00  0.00     0.020 A 
ATOM     73  C   UNL A   1      46.006  35.238  28.631  1.00  0.00     0.020 A 
ATOM     74  C   UNL A   1      45.085  35.811  27.754  1.00  0.00     0.054 A 
BRANCH  74  75
ATOM     75  S   UNL A   1      45.115  37.575  27.366  1.00  0.00     0.124 S 
ATOM     76  O   UNL A   1      43.731  37.815  26.969  1.00  0.00    -0.237 OA
ATOM     77  O   UNL A   1      45.516  38.166  28.640  1.00  0.00    -0.237 OA
ATOM     78  O   UNL A   1      46.103  37.671  26.296  1.00  0.00    -0.744 OA
ENDBRANCH  74  75
ENDBRANCH  55  69
BRANCH  56  79
ATOM     79  C   UNL A   1      36.795  31.272  29.866  1.00  0.00    -0.014 A 
ATOM     80  C   UNL A   1      36.536  31.703  28.551  1.00  0.00     0.010 A 
ATOM     81  C   UNL A   1      35.927  31.717  30.887  1.00  0.00     0.010 A 
ATOM     82  C   UNL A   1      35.519  32.630  28.281  1.00  0.00     0.020 A 
ATOM     83  C   UNL A   1      34.909  32.647  30.624  1.00  0.00     0.020 A 
ATOM     84  C   UNL A   1      34.740  33.130  29.327  1.00  0.00     0.054 A 
BRANCH  84  85
ATOM     85  S   UNL A   1      33.584  34.488  28.977  1.00  0.00     0.124 S 
ATOM     86  O   UNL A   1      34.468  35.500  28.404  1.00  0.00    -0.237 OA
ATOM     87  O   UNL A   1      32.648  33.873  28.040  1.00  0.00    -0.237 OA
ATOM     88  O   UNL A   1      33.024  34.816  30.286  1.00  0.00    -0.744 OA
ENDBRANCH  84  85
ENDBRANCH  56  79
BRANCH  68  89
ATOM     89  C   UNL A   1      41.763  29.796  33.564  1.00  0.00    -0.014 A 
ATOM     90  C   UNL A   1      41.993  30.099  34.919  1.00  0.00     0.010 A 
ATOM     91  C   UNL A   1      41.456  28.464  33.223  1.00  0.00     0.010 A 
ATOM     92  C   UNL A   1      41.960  29.105  35.899  1.00  0.00     0.020 A 
ATOM     93  C   UNL A   1      41.393  27.463  34.207  1.00  0.00     0.020 A 
ATOM     94  C   UNL A   1      41.674  27.788  35.537  1.00  0.00     0.054 A 
BRANCH  94  95
ATOM     95  S   UNL A   1      41.709  26.515  36.828  1.00  0.00     0.124 S 
ATOM     96  O   UNL A   1      41.772  25.281  36.046  1.00  0.00    -0.237 OA
ATOM     97  O   UNL A   1      42.923  26.840  37.574  1.00  0.00    -0.237 OA
ATOM     98  O   UNL A   1      40.462  26.718  37.563  1.00  0.00    -0.744 OA
ENDBRANCH  94  95
ENDBRANCH  68  89
ENDBRANCH  42  43
ENDBRANCH  35  37
ENDBRANCH  34  35
ENDBRANCH  33  34
ENDBRANCH   1  33
TORSDOF 19
ENDMDL
MODEL 2
REMARK VINA RESULT:     -12.9      4.889      8.337
REMARK SMILES [NH3+][C@@H](Cc1cn(-c2nc(Cl)nc(N3CCOCC3)n2)c2ccccc12)C(=O)OCCOC(=O)c1ccc(-c2c3nc(c(-c4ccc(S(=O)(=O)[O-])cc4)c4ccc([nH]4)c(-c4ccc(S(=O)(=O)[O-])cc4)c4nc(c(-c5ccc(S(=O)(=O)[O-])cc5)c5ccc2[nH]5)C=C4)C=C3)cc1
REMARK SMILES IDX 29 1 28 2 26 3 27 4 2 5 1 6 3 10 4 11 5 12 25 13 6 14 20 15
REMARK SMILES IDX 24 16 21 17 23 18 22 19 7 20 8 21 19 22 9 23 12 24 10 25
REMARK SMILES IDX 11 26 13 27 14 28 18 29 15 30 17 31 16 32 30 33 31 34 32 35
REMARK SMILES IDX 33 36 34 37 35 38 93 39 36 40 92 41 37 42 38 43 39 44 86 45
REMARK SMILES IDX 40 46 91 47 85 48 87 49 41 50 90 51 84 52 83 53 42 55 72 56
REMARK SMILES IDX 53 57 71 58 54 59 57 60 70 61 88 62 55 63 56 64 69 66 89 67
REMARK SMILES IDX 58 68 43 69 44 70 52 71 45 72 51 73 46 74 47 75 48 76 49 77
REMARK SMILES IDX 50 78 73 79 74 80 82 81 75 82 81 83 76 84 77 85 78 86 79 87
REMARK SMILES IDX 80 88 59 89 60 90 68 91 61 92 67 93 62 94 63 95 64 96 65 97
REMARK SMILES IDX 66 98
REMARK H PARENT 1 7 1 8 1 9 87 54 57 65
REMARK Flexibility Score: inf
ROOT
ATOM      1  C   UNL A   1      42.415  19.226  26.158  1.00  0.00     0.274 C 
ENDROOT
BRANCH   1   2
ATOM      2  O   UNL A   1      43.044  20.093  25.190  1.00  0.00    -0.458 OA
BRANCH   2   3
ATOM      3  C   UNL A   1      44.214  19.667  24.626  1.00  0.00     0.365 C 
ATOM      4  O   UNL A   1      44.583  18.500  24.621  1.00  0.00    -0.245 OA
BRANCH   3   5
ATOM      5  C   UNL A   1      45.015  20.829  23.984  1.00  0.00     0.296 C 
BRANCH   5   6
ATOM      6  N   UNL A   1      44.152  21.988  23.635  1.00  0.00    -0.346 N 
ATOM      7  H   UNL A   1      44.396  22.783  24.226  1.00  0.00     0.345 HD
ATOM      8  H   UNL A   1      43.174  21.739  23.784  1.00  0.00     0.345 HD
ATOM      9  H   UNL A   1      44.295  22.236  22.657  1.00  0.00     0.345 HD
ENDBRANCH   5   6
BRANCH   5  10
ATOM     10  C   UNL A   1      46.284  21.195  24.767  1.00  0.00     0.115 C 
BRANCH  10  11
ATOM     11  C   UNL A   1      46.364  22.641  25.048  1.00  0.00    -0.015 A 
ATOM     12  C   UNL A   1      47.005  23.598  24.294  1.00  0.00     0.099 A 
ATOM     13  C   UNL A   1      45.869  23.276  26.206  1.00  0.00     0.004 A 
ATOM     14  N   UNL A   1      47.132  24.733  25.066  1.00  0.00    -0.285 N 
ATOM     15  C   UNL A   1      46.451  24.543  26.264  1.00  0.00     0.056 A 
ATOM     16  C   UNL A   1      45.033  22.829  27.245  1.00  0.00     0.010 A 
ATOM     17  C   UNL A   1      46.239  25.376  27.372  1.00  0.00     0.027 A 
ATOM     18  C   UNL A   1      44.807  23.655  28.339  1.00  0.00     0.001 A 
ATOM     19  C   UNL A   1      45.411  24.906  28.403  1.00  0.00     0.002 A 
BRANCH  14  20
ATOM     20  C   UNL A   1      47.897  25.859  24.660  1.00  0.00     0.240 A 
ATOM     21  N   UNL A   1      48.305  26.721  25.581  1.00  0.00    -0.181 NA
ATOM     22  N   UNL A   1      48.216  25.920  23.367  1.00  0.00    -0.176 NA
ATOM     23  C   UNL A   1      49.185  27.584  25.094  1.00  0.00     0.228 A 
ATOM     24  C   UNL A   1      49.013  26.908  22.986  1.00  0.00     0.231 A 
ATOM     25  Cl  UNL A   1      49.870  28.659  26.236  1.00  0.00    -0.041 Cl
ATOM     26  N   UNL A   1      49.594  27.735  23.840  1.00  0.00    -0.182 NA
BRANCH  24  27
ATOM     27  N   UNL A   1      49.166  27.109  21.649  1.00  0.00    -0.336 N 
ATOM     28  C   UNL A   1      49.032  25.992  20.719  1.00  0.00     0.148 C 
ATOM     29  C   UNL A   1      49.539  28.402  21.095  1.00  0.00     0.148 C 
ATOM     30  C   UNL A   1      50.241  25.933  19.783  1.00  0.00     0.181 C 
ATOM     31  C   UNL A   1      50.734  28.212  20.139  1.00  0.00     0.181 C 
ATOM     32  O   UNL A   1      50.452  27.205  19.146  1.00  0.00    -0.378 OA
ENDBRANCH  24  27
ENDBRANCH  14  20
ENDBRANCH  10  11
ENDBRANCH   5  10
ENDBRANCH   3   5
ENDBRANCH   2   3
ENDBRANCH   1   2
BRANCH   1  33
ATOM     33  C   UNL A   1      41.339  20.007  26.921  1.00  0.00     0.275 C 
BRANCH  33  34
ATOM     34  O   UNL A   1      41.396  21.382  26.513  1.00  0.00    -0.458 OA
BRANCH  34  35
ATOM     35  C   UNL A   1      40.208  21.967  26.225  1.00  0.00     0.338 C 
ATOM     36  O   UNL A   1      39.279  21.470  25.609  1.00  0.00    -0.246 OA
BRANCH  35  37
ATOM     37  C   UNL A   1      40.120  23.181  27.071  1.00  0.00     0.060 A 
ATOM     38  C   UNL A   1      39.182  24.189  26.801  1.00  0.00     0.016 A 
ATOM     39  C   UNL A   1      41.171  23.417  27.956  1.00  0.00     0.016 A 
ATOM     40  C   UNL A   1      39.405  25.484  27.262  1.00  0.00     0.010 A 
ATOM     41  C   UNL A   1      41.375  24.712  28.427  1.00  0.00     0.010 A 
ATOM     42  C   UNL A   1      40.553  25.766  28.002  1.00  0.00    -0.014 A 
BRANCH  42  43
ATOM     43  C   UNL A   1      40.775  27.118  28.520  1.00  0.00     0.031 A 
ATOM     44  C   UNL A   1      42.038  27.695  28.033  1.00  0.00     0.074 A 
ATOM     45  C   UNL A   1      40.013  27.876  29.338  1.00  0.00     0.049 A 
ATOM     46  N   UNL A   1      43.135  27.731  28.709  1.00  0.00    -0.248 NA
ATOM     47  C   UNL A   1      42.158  28.106  26.630  1.00  0.00     0.031 C 
ATOM     48  C   UNL A   1      38.696  27.605  29.894  1.00  0.00     0.029 A 
ATOM     49  N   UNL A   1      40.263  29.144  29.793  1.00  0.00    -0.354 N 
ATOM     50  C   UNL A   1      44.052  28.344  27.880  1.00  0.00     0.074 A 
ATOM     51  C   UNL A   1      43.467  28.346  26.561  1.00  0.00     0.031 C 
ATOM     52  C   UNL A   1      38.143  28.752  30.365  1.00  0.00     0.029 A 
ATOM     53  C   UNL A   1      39.163  29.784  30.350  1.00  0.00     0.049 A 
ATOM     54  H   UNL A   1      41.150  29.568  29.728  1.00  0.00     0.167 HD
ATOM     55  C   UNL A   1      45.114  29.025  28.383  1.00  0.00     0.031 A 
ATOM     56  C   UNL A   1      39.114  31.035  30.873  1.00  0.00     0.031 A 
ATOM     57  C   UNL A   1      45.305  28.776  29.789  1.00  0.00     0.049 A 
ATOM     58  C   UNL A   1      40.477  31.349  31.350  1.00  0.00     0.074 A 
ATOM     59  C   UNL A   1      45.566  27.657  30.554  1.00  0.00     0.029 A 
ATOM     60  N   UNL A   1      44.849  29.742  30.655  1.00  0.00    -0.354 N 
ATOM     61  N   UNL A   1      41.030  30.762  32.373  1.00  0.00    -0.248 NA
ATOM     62  C   UNL A   1      41.380  32.096  30.491  1.00  0.00     0.031 C 
ATOM     63  C   UNL A   1      44.895  27.875  31.792  1.00  0.00     0.029 A 
ATOM     64  C   UNL A   1      44.279  29.126  31.741  1.00  0.00     0.049 A 
ATOM     65  H   UNL A   1      44.920  30.714  30.518  1.00  0.00     0.167 HD
ATOM     66  C   UNL A   1      42.372  30.690  32.045  1.00  0.00     0.074 A 
ATOM     67  C   UNL A   1      42.547  31.652  30.964  1.00  0.00     0.031 C 
ATOM     68  C   UNL A   1      43.149  29.658  32.486  1.00  0.00     0.031 A 
BRANCH  55  69
ATOM     69  C   UNL A   1      45.741  30.185  27.665  1.00  0.00    -0.014 A 
ATOM     70  C   UNL A   1      44.987  31.233  27.096  1.00  0.00     0.010 A 
ATOM     71  C   UNL A   1      47.134  30.362  27.733  1.00  0.00     0.010 A 
ATOM     72  C   UNL A   1      45.583  32.371  26.561  1.00  0.00     0.020 A 
ATOM     73  C   UNL A   1      47.741  31.528  27.250  1.00  0.00     0.020 A 
ATOM     74  C   UNL A   1      46.960  32.517  26.653  1.00  0.00     0.054 A 
BRANCH  74  75
ATOM     75  S   UNL A   1      47.681  34.061  26.054  1.00  0.00     0.124 S 
ATOM     76  O   UNL A   1      47.835  34.817  27.295  1.00  0.00    -0.237 OA
ATOM     77  O   UNL A   1      48.923  33.606  25.436  1.00  0.00    -0.237 OA
ATOM     78  O   UNL A   1      46.674  34.571  25.128  1.00  0.00    -0.744 OA
ENDBRANCH  74  75
ENDBRANCH  55  69
BRANCH  56  79
ATOM     79  C   UNL A   1      38.101  32.101  30.667  1.00  0.00    -0.014 A 
ATOM     80  C   UNL A   1      36.941  32.140  31.465  1.00  0.00     0.010 A 
ATOM     81  C   UNL A   1      38.103  32.852  29.472  1.00  0.00     0.010 A 
ATOM     82  C   UNL A   1      35.789  32.813  31.032  1.00  0.00     0.020 A 
ATOM     83  C   UNL A   1      36.952  33.525  29.033  1.00  0.00     0.020 A 
ATOM     84  C   UNL A   1      35.788  33.464  29.798  1.00  0.00     0.054 A 
BRANCH  84  85
ATOM     85  S   UNL A   1      34.219  34.134  29.170  1.00  0.00     0.124 S 
ATOM     86  O   UNL A   1      33.747  33.051  28.312  1.00  0.00    -0.237 OA
ATOM     87  O   UNL A   1      33.452  34.343  30.395  1.00  0.00    -0.237 OA
ATOM     88  O   UNL A   1      34.615  35.356  28.473  1.00  0.00    -0.744 OA
ENDBRANCH  84  85
ENDBRANCH  56  79
BRANCH  68  89
ATOM     89  C   UNL A   1      42.670  28.836  33.666  1.00  0.00    -0.014 A 
ATOM     90  C   UNL A   1      43.310  29.046  34.901  1.00  0.00     0.010 A 
ATOM     91  C   UNL A   1      41.746  27.776  33.567  1.00  0.00     0.010 A 
ATOM     92  C   UNL A   1      43.072  28.207  35.992  1.00  0.00     0.020 A 
ATOM     93  C   UNL A   1      41.481  26.945  34.668  1.00  0.00     0.020 A 
ATOM     94  C   UNL A   1      42.169  27.151  35.866  1.00  0.00     0.054 A 
BRANCH  94  95
ATOM     95  S   UNL A   1      41.939  26.043  37.284  1.00  0.00     0.124 S 
ATOM     96  O   UNL A   1      42.236  24.733  36.705  1.00  0.00    -0.237 OA
ATOM     97  O   UNL A   1      42.925  26.535  38.245  1.00  0.00    -0.237 OA
ATOM     98  O   UNL A   1      40.545  26.246  37.673  1.00  0.00    -0.744 OA
ENDBRANCH  94  95
ENDBRANCH  68  89
ENDBRANCH  42  43
ENDBRANCH  35  37
ENDBRANCH  34  35
ENDBRANCH  33  34
ENDBRANCH   1  33
TORSDOF 19
ENDMDL
MODEL 3
REMARK VINA RESULT:     -12.9      1.497      2.073
REMARK SMILES [NH3+][C@@H](Cc1cn(-c2nc(Cl)nc(N3CCOCC3)n2)c2ccccc12)C(=O)OCCOC(=O)c1ccc(-c2c3nc(c(-c4ccc(S(=O)(=O)[O-])cc4)c4ccc([nH]4)c(-c4ccc(S(=O)(=O)[O-])cc4)c4nc(c(-c5ccc(S(=O)(=O)[O-])cc5)c5ccc2[nH]5)C=C4)C=C3)cc1
REMARK SMILES IDX 29 1 28 2 26 3 27 4 2 5 1 6 3 10 4 11 5 12 25 13 6 14 20 15
REMARK SMILES IDX 24 16 21 17 23 18 22 19 7 20 8 21 19 22 9 23 12 24 10 25
REMARK SMILES IDX 11 26 13 27 14 28 18 29 15 30 17 31 16 32 30 33 31 34 32 35
REMARK SMILES IDX 33 36 34 37 35 38 93 39 36 40 92 41 37 42 38 43 39 44 86 45
REMARK SMILES IDX 40 46 91 47 85 48 87 49 41 50 90 51 84 52 83 53 42 55 72 56
REMARK SMILES IDX 53 57 71 58 54 59 57 60 70 61 88 62 55 63 56 64 69 66 89 67
REMARK SMILES IDX 58 68 43 69 44 70 52 71 45 72 51 73 46 74 47 75 48 76 49 77
REMARK SMILES IDX 50 78 73 79 74 80 82 81 75 82 81 83 76 84 77 85 78 86 79 87
REMARK SMILES IDX 80 88 59 89 60 90 68 91 61 92 67 93 62 94 63 95 64 96 65 97
REMARK SMILES IDX 66 98
REMARK H PARENT 1 7 1 8 1 9 87 54 57 65
REMARK Flexibility Score: inf
ROOT
ATOM      1  C   UNL A   1      39.996  22.305  27.227  1.00  0.00     0.274 C 
ENDROOT
BRANCH   1   2
ATOM      2  O   UNL A   1      38.891  22.473  26.313  1.00  0.00    -0.458 OA
BRANCH   2   3
ATOM      3  C   UNL A   1      38.327  23.716  26.227  1.00  0.00     0.365 C 
ATOM      4  O   UNL A   1      38.748  24.698  26.824  1.00  0.00    -0.245 OA
BRANCH   3   5
ATOM      5  C   UNL A   1      37.101  23.741  25.278  1.00  0.00     0.296 C 
BRANCH   5   6
ATOM      6  N   UNL A   1      37.299  22.894  24.073  1.00  0.00    -0.346 N 
ATOM      7  H   UNL A   1      36.461  22.337  23.907  1.00  0.00     0.345 HD
ATOM      8  H   UNL A   1      38.097  22.276  24.220  1.00  0.00     0.345 HD
ATOM      9  H   UNL A   1      37.476  23.490  23.264  1.00  0.00     0.345 HD
ENDBRANCH   5   6
BRANCH   5  10
ATOM     10  C   UNL A   1      35.769  23.508  26.005  1.00  0.00     0.115 C 
BRANCH  10  11
ATOM     11  C   UNL A   1      34.645  24.192  25.337  1.00  0.00    -0.015 A 
ATOM     12  C   UNL A   1      34.321  25.527  25.419  1.00  0.00     0.099 A 
ATOM     13  C   UNL A   1      33.647  23.560  24.568  1.00  0.00     0.004 A 
ATOM     14  N   UNL A   1      33.037  25.684  24.939  1.00  0.00    -0.285 N 
ATOM     15  C   UNL A   1      32.596  24.467  24.427  1.00  0.00     0.056 A 
ATOM     16  C   UNL A   1      33.533  22.255  24.054  1.00  0.00     0.010 A 
ATOM     17  C   UNL A   1      31.401  24.085  23.801  1.00  0.00     0.027 A 
ATOM     18  C   UNL A   1      32.357  21.874  23.421  1.00  0.00     0.001 A 
ATOM     19  C   UNL A   1      31.304  22.775  23.307  1.00  0.00     0.002 A 
BRANCH  14  20
ATOM     20  C   UNL A   1      32.322  26.907  25.036  1.00  0.00     0.240 A 
ATOM     21  N   UNL A   1      32.491  27.664  26.111  1.00  0.00    -0.181 NA
ATOM     22  N   UNL A   1      31.579  27.240  23.980  1.00  0.00    -0.176 NA
ATOM     23  C   UNL A   1      31.944  28.862  25.961  1.00  0.00     0.228 A 
ATOM     24  C   UNL A   1      30.985  28.424  24.008  1.00  0.00     0.231 A 
ATOM     25  Cl  UNL A   1      32.219  29.960  27.245  1.00  0.00    -0.041 Cl
ATOM     26  N   UNL A   1      31.201  29.317  24.959  1.00  0.00    -0.182 NA
BRANCH  24  27
ATOM     27  N   UNL A   1      30.057  28.681  23.047  1.00  0.00    -0.336 N 
ATOM     28  C   UNL A   1      30.342  29.649  21.991  1.00  0.00     0.148 C 
ATOM     29  C   UNL A   1      28.732  28.079  23.063  1.00  0.00     0.148 C 
ATOM     30  C   UNL A   1      29.203  30.665  21.881  1.00  0.00     0.181 C 
ATOM     31  C   UNL A   1      27.673  29.189  22.902  1.00  0.00     0.181 C 
ATOM     32  O   UNL A   1      27.938  29.996  21.737  1.00  0.00    -0.378 OA
ENDBRANCH  24  27
ENDBRANCH  14  20
ENDBRANCH  10  11
ENDBRANCH   5  10
ENDBRANCH   3   5
ENDBRANCH   2   3
ENDBRANCH   1   2
BRANCH   1  33
ATOM     33  C   UNL A   1      41.160  21.621  26.499  1.00  0.00     0.275 C 
BRANCH  33  34
ATOM     34  O   UNL A   1      41.700  22.537  25.536  1.00  0.00    -0.458 OA
BRANCH  34  35
ATOM     35  C   UNL A   1      42.984  22.921  25.733  1.00  0.00     0.338 C 
ATOM     36  O   UNL A   1      43.988  22.334  25.363  1.00  0.00    -0.246 OA
BRANCH  35  37
ATOM     37  C   UNL A   1      42.937  24.333  26.184  1.00  0.00     0.060 A 
ATOM     38  C   UNL A   1      43.476  24.719  27.420  1.00  0.00     0.016 A 
ATOM     39  C   UNL A   1      42.101  25.198  25.480  1.00  0.00     0.016 A 
ATOM     40  C   UNL A   1      43.026  25.884  28.038  1.00  0.00     0.010 A 
ATOM     41  C   UNL A   1      41.671  26.369  26.098  1.00  0.00     0.010 A 
ATOM     42  C   UNL A   1      42.053  26.665  27.415  1.00  0.00    -0.014 A 
BRANCH  42  43
ATOM     43  C   UNL A   1      41.602  27.909  28.042  1.00  0.00     0.031 A 
ATOM     44  C   UNL A   1      42.562  29.007  27.843  1.00  0.00     0.074 A 
ATOM     45  C   UNL A   1      40.477  28.179  28.739  1.00  0.00     0.049 A 
ATOM     46  N   UNL A   1      43.425  29.394  28.720  1.00  0.00    -0.248 NA
ATOM     47  C   UNL A   1      42.710  29.613  26.516  1.00  0.00     0.031 C 
ATOM     48  C   UNL A   1      39.330  27.327  29.012  1.00  0.00     0.029 A 
ATOM     49  N   UNL A   1      40.096  29.367  29.304  1.00  0.00    -0.354 N 
ATOM     50  C   UNL A   1      44.112  30.428  28.120  1.00  0.00     0.074 A 
ATOM     51  C   UNL A   1      43.789  30.369  26.716  1.00  0.00     0.031 C 
ATOM     52  C   UNL A   1      38.279  28.079  29.432  1.00  0.00     0.029 A 
ATOM     53  C   UNL A   1      38.758  29.427  29.673  1.00  0.00     0.049 A 
ATOM     54  H   UNL A   1      40.720  30.118  29.437  1.00  0.00     0.167 HD
ATOM     55  C   UNL A   1      44.697  31.408  28.857  1.00  0.00     0.031 A 
ATOM     56  C   UNL A   1      38.107  30.471  30.246  1.00  0.00     0.031 A 
ATOM     57  C   UNL A   1      44.758  31.074  30.258  1.00  0.00     0.049 A 
ATOM     58  C   UNL A   1      39.120  31.242  30.996  1.00  0.00     0.074 A 
ATOM     59  C   UNL A   1      45.346  30.066  30.994  1.00  0.00     0.029 A 
ATOM     60  N   UNL A   1      43.811  31.649  31.072  1.00  0.00    -0.354 N 
ATOM     61  N   UNL A   1      39.705  30.800  32.072  1.00  0.00    -0.248 NA
ATOM     62  C   UNL A   1      39.743  32.398  30.372  1.00  0.00     0.031 C 
ATOM     63  C   UNL A   1      44.466  29.827  32.089  1.00  0.00     0.029 A 
ATOM     64  C   UNL A   1      43.395  30.717  31.990  1.00  0.00     0.049 A 
ATOM     65  H   UNL A   1      43.485  32.575  31.007  1.00  0.00     0.167 HD
ATOM     66  C   UNL A   1      40.985  31.321  32.007  1.00  0.00     0.074 A 
ATOM     67  C   UNL A   1      40.900  32.405  31.036  1.00  0.00     0.031 C 
ATOM     68  C   UNL A   1      42.047  30.643  32.530  1.00  0.00     0.031 A 
BRANCH  55  69
ATOM     69  C   UNL A   1      44.878  32.806  28.342  1.00  0.00    -0.014 A 
ATOM     70  C   UNL A   1      43.794  33.656  28.034  1.00  0.00     0.010 A 
ATOM     71  C   UNL A   1      46.159  33.384  28.359  1.00  0.00     0.010 A 
ATOM     72  C   UNL A   1      43.973  34.994  27.695  1.00  0.00     0.020 A 
ATOM     73  C   UNL A   1      46.346  34.743  28.076  1.00  0.00     0.020 A 
ATOM     74  C   UNL A   1      45.251  35.533  27.730  1.00  0.00     0.054 A 
BRANCH  74  75
ATOM     75  S   UNL A   1      45.424  37.301  27.400  1.00  0.00     0.124 S 
ATOM     76  O   UNL A   1      45.792  37.813  28.718  1.00  0.00    -0.237 OA
ATOM     77  O   UNL A   1      46.483  37.328  26.396  1.00  0.00    -0.237 OA
ATOM     78  O   UNL A   1      44.101  37.690  26.922  1.00  0.00    -0.744 OA
ENDBRANCH  74  75
ENDBRANCH  55  69
BRANCH  56  79
ATOM     79  C   UNL A   1      36.782  31.052  29.909  1.00  0.00    -0.014 A 
ATOM     80  C   UNL A   1      36.410  31.236  28.564  1.00  0.00     0.010 A 
ATOM     81  C   UNL A   1      36.046  31.743  30.897  1.00  0.00     0.010 A 
ATOM     82  C   UNL A   1      35.415  32.159  28.210  1.00  0.00     0.020 A 
ATOM     83  C   UNL A   1      35.051  32.670  30.548  1.00  0.00     0.020 A 
ATOM     84  C   UNL A   1      34.773  32.903  29.201  1.00  0.00     0.054 A 
BRANCH  84  85
ATOM     85  S   UNL A   1      33.652  34.241  28.696  1.00  0.00     0.124 S 
ATOM     86  O   UNL A   1      33.059  34.639  29.970  1.00  0.00    -0.237 OA
ATOM     87  O   UNL A   1      34.566  35.211  28.100  1.00  0.00    -0.237 OA
ATOM     88  O   UNL A   1      32.738  33.595  27.757  1.00  0.00    -0.744 OA
ENDBRANCH  84  85
ENDBRANCH  56  79
BRANCH  68  89
ATOM     89  C   UNL A   1      41.786  29.549  33.547  1.00  0.00    -0.014 A 
ATOM     90  C   UNL A   1      41.841  29.905  34.907  1.00  0.00     0.010 A 
ATOM     91  C   UNL A   1      41.653  28.184  33.221  1.00  0.00     0.010 A 
ATOM     92  C   UNL A   1      41.804  28.935  35.912  1.00  0.00     0.020 A 
ATOM     93  C   UNL A   1      41.587  27.205  34.226  1.00  0.00     0.020 A 
ATOM     94  C   UNL A   1      41.693  27.588  35.566  1.00  0.00     0.054 A 
BRANCH  94  95
ATOM     95  S   UNL A   1      41.719  26.354  36.897  1.00  0.00     0.124 S 
ATOM     96  O   UNL A   1      42.949  26.694  37.610  1.00  0.00    -0.237 OA
ATOM     97  O   UNL A   1      40.481  26.633  37.623  1.00  0.00    -0.237 OA
ATOM     98  O   UNL A   1      41.745  25.073  36.194  1.00  0.00    -0.744 OA
ENDBRANCH  94  95
ENDBRANCH  68  89
ENDBRANCH  42  43
ENDBRANCH  35  37
ENDBRANCH  34  35
ENDBRANCH  33  34
ENDBRANCH   1  33
TORSDOF 19
ENDMDL
