MODEL 1
REMARK VINA RESULT:     -10.3      0.000      0.000
REMARK SMILES C[C@@H]1CCCN(c2ccc(NC(=O)Cc3cccs3)c(C(=O)OCCOC(=O)c3ccc(-c4c5nc(c(-c6ccc(S(=O)(=O)[O-])cc6)c6ccc([nH]6)c(-c6ccc(S(=O)(=O)[O-])cc6)c6nc(c(-c7ccc(S(=O)(=O)[O-])cc7)c7ccc4[nH]7)C=C6)C=C5)cc3)c2)C1
REMARK SMILES IDX 24 1 23 2 21 3 22 4 20 5 7 6 8 7 89 8 9 9 10 10 6 11 1 12
REMARK SMILES IDX 2 13 3 14 90 15 4 16 5 17 11 18 12 19 13 21 14 22 15 23
REMARK SMILES IDX 16 24 19 25 17 26 18 27 25 28 26 29 27 30 28 31 29 32 30 33
REMARK SMILES IDX 88 34 31 35 87 36 32 37 33 38 34 39 81 40 35 41 86 42 80 43
REMARK SMILES IDX 82 44 36 45 85 46 79 47 78 48 37 50 67 51 48 52 66 53 49 54
REMARK SMILES IDX 52 55 65 56 83 57 50 58 51 59 64 61 84 62 53 63 38 64 39 65
REMARK SMILES IDX 47 66 40 67 46 68 41 69 42 70 43 71 44 72 45 73 68 74 69 75
REMARK SMILES IDX 77 76 70 77 76 78 71 79 72 80 73 81 74 82 75 83 54 84 55 85
REMARK SMILES IDX 63 86 56 87 62 88 57 89 58 90 59 91 60 92 61 93
REMARK H PARENT 11 20 82 49 52 60
REMARK Flexibility Score: inf
ROOT
ATOM      1  C   UNL A   1      34.029  29.076  25.244  1.00  0.00     0.275 C 
ENDROOT
BRANCH   1   2
ATOM      2  O   UNL A   1      33.281  27.948  24.743  1.00  0.00    -0.458 OA
BRANCH   2   3
ATOM      3  C   UNL A   1      33.298  26.800  25.472  1.00  0.00     0.340 C 
ATOM      4  O   UNL A   1      32.927  26.687  26.629  1.00  0.00    -0.246 OA
BRANCH   3   5
ATOM      5  C   UNL A   1      33.844  25.656  24.677  1.00  0.00     0.085 A 
ATOM      6  C   UNL A   1      35.404  23.783  24.523  1.00  0.00     0.038 A 
ATOM      7  C   UNL A   1      34.941  23.503  23.245  1.00  0.00     0.028 A 
ATOM      8  C   UNL A   1      34.828  24.837  25.241  1.00  0.00     0.043 A 
ATOM      9  C   UNL A   1      33.935  24.279  22.680  1.00  0.00     0.029 A 
ATOM     10  C   UNL A   1      33.429  25.397  23.350  1.00  0.00     0.055 A 
BRANCH   6  11
ATOM     11  N   UNL A   1      36.383  23.029  25.121  1.00  0.00    -0.371 N 
ATOM     12  C   UNL A   1      37.849  19.552  24.935  1.00  0.00     0.009 C 
ATOM     13  C   UNL A   1      37.786  21.075  24.906  1.00  0.00     0.005 C 
ATOM     14  C   UNL A   1      38.707  21.682  25.982  1.00  0.00     0.007 C 
ATOM     15  C   UNL A   1      36.341  21.575  25.072  1.00  0.00     0.119 C 
ATOM     16  C   UNL A   1      38.604  23.210  26.022  1.00  0.00     0.022 C 
ATOM     17  C   UNL A   1      37.157  23.655  26.179  1.00  0.00     0.116 C 
ENDBRANCH   6  11
BRANCH  10  18
ATOM     18  N   UNL A   1      32.556  26.276  22.696  1.00  0.00    -0.325 N 
ATOM     19  C   UNL A   1      31.200  26.280  22.553  1.00  0.00     0.229 C 
ATOM     20  H   UNL A   1      33.007  27.034  22.258  1.00  0.00     0.169 HD
ATOM     21  O   UNL A   1      30.716  27.319  22.086  1.00  0.00    -0.274 OA
BRANCH  19  22
ATOM     22  C   UNL A   1      30.271  25.124  22.920  1.00  0.00     0.147 C 
BRANCH  22  23
ATOM     23  C   UNL A   1      30.493  24.406  24.243  1.00  0.00     0.014 A 
ATOM     24  C   UNL A   1      31.097  23.209  24.587  1.00  0.00     0.016 A 
ATOM     25  S   UNL A   1      29.981  25.221  25.685  1.00  0.00    -0.148 S 
ATOM     26  C   UNL A   1      31.156  22.971  25.991  1.00  0.00     0.012 A 
ATOM     27  C   UNL A   1      30.589  23.995  26.705  1.00  0.00     0.065 A 
ENDBRANCH  22  23
ENDBRANCH  19  22
ENDBRANCH  10  18
ENDBRANCH   3   5
ENDBRANCH   2   3
ENDBRANCH   1   2
BRANCH   1  28
ATOM     28  C   UNL A   1      33.259  29.858  26.313  1.00  0.00     0.275 C 
BRANCH  28  29
ATOM     29  O   UNL A   1      33.797  29.608  27.624  1.00  0.00    -0.458 OA
BRANCH  29  30
ATOM     30  C   UNL A   1      34.554  30.611  28.122  1.00  0.00     0.338 C 
ATOM     31  O   UNL A   1      34.154  31.655  28.615  1.00  0.00    -0.246 OA
BRANCH  30  32
ATOM     32  C   UNL A   1      35.957  30.171  28.205  1.00  0.00     0.060 A 
ATOM     33  C   UNL A   1      36.350  29.655  29.434  1.00  0.00     0.016 A 
ATOM     34  C   UNL A   1      36.881  30.273  27.163  1.00  0.00     0.016 A 
ATOM     35  C   UNL A   1      37.657  29.238  29.631  1.00  0.00     0.010 A 
ATOM     36  C   UNL A   1      38.207  29.845  27.368  1.00  0.00     0.010 A 
ATOM     37  C   UNL A   1      38.598  29.315  28.608  1.00  0.00    -0.014 A 
BRANCH  37  38
ATOM     38  C   UNL A   1      39.985  28.914  28.945  1.00  0.00     0.031 A 
ATOM     39  C   UNL A   1      40.823  29.829  29.789  1.00  0.00     0.074 A 
ATOM     40  C   UNL A   1      40.427  27.671  28.673  1.00  0.00     0.049 A 
ATOM     41  N   UNL A   1      42.053  29.675  30.204  1.00  0.00    -0.248 NA
ATOM     42  C   UNL A   1      40.178  31.070  30.246  1.00  0.00     0.031 C 
ATOM     43  C   UNL A   1      39.639  26.616  28.039  1.00  0.00     0.029 A 
ATOM     44  N   UNL A   1      41.636  27.071  28.936  1.00  0.00    -0.354 N 
ATOM     45  C   UNL A   1      42.341  30.810  30.951  1.00  0.00     0.074 A 
ATOM     46  C   UNL A   1      41.154  31.639  30.938  1.00  0.00     0.031 C 
ATOM     47  C   UNL A   1      40.380  25.495  27.972  1.00  0.00     0.029 A 
ATOM     48  C   UNL A   1      41.713  25.768  28.500  1.00  0.00     0.049 A 
ATOM     49  H   UNL A   1      42.376  27.530  29.395  1.00  0.00     0.167 HD
ATOM     50  C   UNL A   1      43.498  31.137  31.575  1.00  0.00     0.031 A 
ATOM     51  C   UNL A   1      42.750  24.904  28.499  1.00  0.00     0.031 A 
ATOM     52  C   UNL A   1      44.678  30.314  31.574  1.00  0.00     0.049 A 
ATOM     53  C   UNL A   1      44.073  25.352  29.069  1.00  0.00     0.074 A 
ATOM     54  C   UNL A   1      45.920  30.592  32.119  1.00  0.00     0.029 A 
ATOM     55  N   UNL A   1      44.768  29.055  31.000  1.00  0.00    -0.354 N 
ATOM     56  N   UNL A   1      44.368  26.467  29.695  1.00  0.00    -0.248 NA
ATOM     57  C   UNL A   1      45.209  24.429  28.920  1.00  0.00     0.031 C 
ATOM     58  C   UNL A   1      46.777  29.530  31.816  1.00  0.00     0.029 A 
ATOM     59  C   UNL A   1      46.051  28.556  31.148  1.00  0.00     0.049 A 
ATOM     60  H   UNL A   1      44.028  28.585  30.552  1.00  0.00     0.167 HD
ATOM     61  C   UNL A   1      45.715  26.369  30.034  1.00  0.00     0.074 A 
ATOM     62  C   UNL A   1      46.172  25.080  29.560  1.00  0.00     0.031 C 
ATOM     63  C   UNL A   1      46.500  27.270  30.675  1.00  0.00     0.031 A 
BRANCH  50  64
ATOM     64  C   UNL A   1      43.568  32.492  32.223  1.00  0.00    -0.014 A 
ATOM     65  C   UNL A   1      43.261  32.683  33.582  1.00  0.00     0.010 A 
ATOM     66  C   UNL A   1      43.962  33.597  31.446  1.00  0.00     0.010 A 
ATOM     67  C   UNL A   1      43.311  33.964  34.140  1.00  0.00     0.020 A 
ATOM     68  C   UNL A   1      44.040  34.873  32.007  1.00  0.00     0.020 A 
ATOM     69  C   UNL A   1      43.696  35.051  33.348  1.00  0.00     0.054 A 
BRANCH  69  70
ATOM     70  S   UNL A   1      43.759  36.700  34.099  1.00  0.00     0.124 S 
ATOM     71  O   UNL A   1      43.896  37.561  32.927  1.00  0.00    -0.237 OA
ATOM     72  O   UNL A   1      42.476  36.785  34.792  1.00  0.00    -0.237 OA
ATOM     73  O   UNL A   1      44.931  36.643  34.969  1.00  0.00    -0.744 OA
ENDBRANCH  69  70
ENDBRANCH  50  64
BRANCH  51  74
ATOM     74  C   UNL A   1      42.613  23.559  27.867  1.00  0.00    -0.014 A 
ATOM     75  C   UNL A   1      42.136  22.453  28.594  1.00  0.00     0.010 A 
ATOM     76  C   UNL A   1      43.008  23.369  26.528  1.00  0.00     0.010 A 
ATOM     77  C   UNL A   1      42.080  21.184  28.003  1.00  0.00     0.020 A 
ATOM     78  C   UNL A   1      42.922  22.112  25.925  1.00  0.00     0.020 A 
ATOM     79  C   UNL A   1      42.473  21.022  26.671  1.00  0.00     0.054 A 
BRANCH  79  80
ATOM     80  S   UNL A   1      42.368  19.376  25.915  1.00  0.00     0.124 S 
ATOM     81  O   UNL A   1      40.931  19.234  25.694  1.00  0.00    -0.237 OA
ATOM     82  O   UNL A   1      43.180  19.527  24.711  1.00  0.00    -0.237 OA
ATOM     83  O   UNL A   1      42.932  18.493  26.932  1.00  0.00    -0.744 OA
ENDBRANCH  79  80
ENDBRANCH  51  74
BRANCH  63  84
ATOM     84  C   UNL A   1      47.933  26.886  30.943  1.00  0.00    -0.014 A 
ATOM     85  C   UNL A   1      48.972  27.279  30.079  1.00  0.00     0.010 A 
ATOM     86  C   UNL A   1      48.254  26.178  32.116  1.00  0.00     0.010 A 
ATOM     87  C   UNL A   1      50.299  26.948  30.371  1.00  0.00     0.020 A 
ATOM     88  C   UNL A   1      49.582  25.872  32.427  1.00  0.00     0.020 A 
ATOM     89  C   UNL A   1      50.596  26.249  31.545  1.00  0.00     0.054 A 
BRANCH  89  90
ATOM     90  S   UNL A   1      52.330  25.877  31.927  1.00  0.00     0.124 S 
ATOM     91  O   UNL A   1      52.961  25.979  30.614  1.00  0.00    -0.237 OA
ATOM     92  O   UNL A   1      52.681  26.931  32.877  1.00  0.00    -0.237 OA
ATOM     93  O   UNL A   1      52.281  24.530  32.491  1.00  0.00    -0.744 OA
ENDBRANCH  89  90
ENDBRANCH  63  84
ENDBRANCH  37  38
ENDBRANCH  30  32
ENDBRANCH  29  30
ENDBRANCH  28  29
ENDBRANCH   1  28
TORSDOF 18
ENDMDL
MODEL 2
REMARK VINA RESULT:     -10.3      3.979      9.873
REMARK SMILES C[C@@H]1CCCN(c2ccc(NC(=O)Cc3cccs3)c(C(=O)OCCOC(=O)c3ccc(-c4c5nc(c(-c6ccc(S(=O)(=O)[O-])cc6)c6ccc([nH]6)c(-c6ccc(S(=O)(=O)[O-])cc6)c6nc(c(-c7ccc(S(=O)(=O)[O-])cc7)c7ccc4[nH]7)C=C6)C=C5)cc3)c2)C1
REMARK SMILES IDX 24 1 23 2 21 3 22 4 20 5 7 6 8 7 89 8 9 9 10 10 6 11 1 12
REMARK SMILES IDX 2 13 3 14 90 15 4 16 5 17 11 18 12 19 13 21 14 22 15 23
REMARK SMILES IDX 16 24 19 25 17 26 18 27 25 28 26 29 27 30 28 31 29 32 30 33
REMARK SMILES IDX 88 34 31 35 87 36 32 37 33 38 34 39 81 40 35 41 86 42 80 43
REMARK SMILES IDX 82 44 36 45 85 46 79 47 78 48 37 50 67 51 48 52 66 53 49 54
REMARK SMILES IDX 52 55 65 56 83 57 50 58 51 59 64 61 84 62 53 63 38 64 39 65
REMARK SMILES IDX 47 66 40 67 46 68 41 69 42 70 43 71 44 72 45 73 68 74 69 75
REMARK SMILES IDX 77 76 70 77 76 78 71 79 72 80 73 81 74 82 75 83 54 84 55 85
REMARK SMILES IDX 63 86 56 87 62 88 57 89 58 90 59 91 60 92 61 93
REMARK H PARENT 11 20 82 49 52 60
REMARK Flexibility Score: inf
ROOT
ATOM      1  C   UNL A   1      34.269  29.313  26.928  1.00  0.00     0.275 C 
ENDROOT
BRANCH   1   2
ATOM      2  O   UNL A   1      33.654  28.031  27.176  1.00  0.00    -0.458 OA
BRANCH   2   3
ATOM      3  C   UNL A   1      32.330  27.898  26.897  1.00  0.00     0.340 C 
ATOM      4  O   UNL A   1      31.446  27.710  27.716  1.00  0.00    -0.246 OA
BRANCH   3   5
ATOM      5  C   UNL A   1      32.068  28.009  25.428  1.00  0.00     0.085 A 
ATOM      6  C   UNL A   1      30.743  28.969  23.615  1.00  0.00     0.038 A 
ATOM      7  C   UNL A   1      31.492  28.257  22.689  1.00  0.00     0.028 A 
ATOM      8  C   UNL A   1      31.058  28.865  24.974  1.00  0.00     0.043 A 
ATOM      9  C   UNL A   1      32.526  27.431  23.115  1.00  0.00     0.029 A 
ATOM     10  C   UNL A   1      32.780  27.241  24.477  1.00  0.00     0.055 A 
BRANCH   6  11
ATOM     11  N   UNL A   1      29.725  29.808  23.232  1.00  0.00    -0.371 N 
ATOM     12  C   UNL A   1      28.908  33.497  23.176  1.00  0.00     0.009 C 
ATOM     13  C   UNL A   1      29.141  32.080  22.660  1.00  0.00     0.005 C 
ATOM     14  C   UNL A   1      27.873  31.529  21.982  1.00  0.00     0.007 C 
ATOM     15  C   UNL A   1      29.612  31.148  23.789  1.00  0.00     0.119 C 
ATOM     16  C   UNL A   1      28.059  30.080  21.522  1.00  0.00     0.022 C 
ATOM     17  C   UNL A   1      28.532  29.200  22.670  1.00  0.00     0.116 C 
ENDBRANCH   6  11
BRANCH  10  18
ATOM     18  N   UNL A   1      33.695  26.267  24.895  1.00  0.00    -0.325 N 
ATOM     19  C   UNL A   1      33.577  24.921  25.080  1.00  0.00     0.229 C 
ATOM     20  H   UNL A   1      34.593  26.620  25.092  1.00  0.00     0.169 HD
ATOM     21  O   UNL A   1      34.639  24.312  25.261  1.00  0.00    -0.274 OA
BRANCH  19  22
ATOM     22  C   UNL A   1      32.263  24.142  25.077  1.00  0.00     0.147 C 
BRANCH  22  23
ATOM     23  C   UNL A   1      32.211  22.807  24.348  1.00  0.00     0.014 A 
ATOM     24  C   UNL A   1      32.092  22.455  23.014  1.00  0.00     0.016 A 
ATOM     25  S   UNL A   1      32.414  21.373  25.300  1.00  0.00    -0.148 S 
ATOM     26  C   UNL A   1      32.181  21.053  22.774  1.00  0.00     0.012 A 
ATOM     27  C   UNL A   1      32.364  20.348  23.936  1.00  0.00     0.065 A 
ENDBRANCH  22  23
ENDBRANCH  19  22
ENDBRANCH  10  18
ENDBRANCH   3   5
ENDBRANCH   2   3
ENDBRANCH   1   2
BRANCH   1  28
ATOM     28  C   UNL A   1      35.244  29.718  28.040  1.00  0.00     0.275 C 
BRANCH  28  29
ATOM     29  O   UNL A   1      36.582  29.287  27.734  1.00  0.00    -0.458 OA
BRANCH  29  30
ATOM     30  C   UNL A   1      37.412  29.232  28.800  1.00  0.00     0.338 C 
ATOM     31  O   UNL A   1      37.090  29.127  29.975  1.00  0.00    -0.246 OA
BRANCH  30  32
ATOM     32  C   UNL A   1      38.800  29.080  28.334  1.00  0.00     0.060 A 
ATOM     33  C   UNL A   1      39.744  28.858  29.328  1.00  0.00     0.016 A 
ATOM     34  C   UNL A   1      39.201  29.176  26.999  1.00  0.00     0.016 A 
ATOM     35  C   UNL A   1      41.085  28.728  29.002  1.00  0.00     0.010 A 
ATOM     36  C   UNL A   1      40.565  29.040  26.674  1.00  0.00     0.010 A 
ATOM     37  C   UNL A   1      41.514  28.806  27.680  1.00  0.00    -0.014 A 
BRANCH  37  38
ATOM     38  C   UNL A   1      42.977  28.730  27.447  1.00  0.00     0.031 A 
ATOM     39  C   UNL A   1      43.562  27.468  26.886  1.00  0.00     0.074 A 
ATOM     40  C   UNL A   1      43.747  29.832  27.547  1.00  0.00     0.049 A 
ATOM     41  N   UNL A   1      44.806  27.188  26.602  1.00  0.00    -0.248 NA
ATOM     42  C   UNL A   1      42.611  26.387  26.580  1.00  0.00     0.031 C 
ATOM     43  C   UNL A   1      43.264  31.170  27.886  1.00  0.00     0.029 A 
ATOM     44  N   UNL A   1      45.093  30.008  27.330  1.00  0.00    -0.354 N 
ATOM     45  C   UNL A   1      44.796  25.891  26.107  1.00  0.00     0.074 A 
ATOM     46  C   UNL A   1      43.419  25.442  26.123  1.00  0.00     0.031 C 
ATOM     47  C   UNL A   1      44.296  32.031  27.843  1.00  0.00     0.029 A 
ATOM     48  C   UNL A   1      45.521  31.299  27.536  1.00  0.00     0.049 A 
ATOM     49  H   UNL A   1      45.693  29.279  27.053  1.00  0.00     0.167 HD
ATOM     50  C   UNL A   1      45.843  25.137  25.695  1.00  0.00     0.031 A 
ATOM     51  C   UNL A   1      46.764  31.825  27.510  1.00  0.00     0.031 A 
ATOM     52  C   UNL A   1      47.210  25.584  25.694  1.00  0.00     0.049 A 
ATOM     53  C   UNL A   1      47.930  30.923  27.191  1.00  0.00     0.074 A 
ATOM     54  C   UNL A   1      48.348  24.870  25.360  1.00  0.00     0.029 A 
ATOM     55  N   UNL A   1      47.629  26.860  26.043  1.00  0.00    -0.354 N 
ATOM     56  N   UNL A   1      47.925  29.667  26.812  1.00  0.00    -0.248 NA
ATOM     57  C   UNL A   1      49.276  31.507  27.312  1.00  0.00     0.031 C 
ATOM     58  C   UNL A   1      49.458  25.693  25.572  1.00  0.00     0.029 A 
ATOM     59  C   UNL A   1      49.009  26.944  25.965  1.00  0.00     0.049 A 
ATOM     60  H   UNL A   1      47.033  27.597  26.308  1.00  0.00     0.167 HD
ATOM     61  C   UNL A   1      49.260  29.318  26.627  1.00  0.00     0.074 A 
ATOM     62  C   UNL A   1      50.044  30.500  26.917  1.00  0.00     0.031 C 
ATOM     63  C   UNL A   1      49.785  28.125  26.254  1.00  0.00     0.031 A 
BRANCH  50  64
ATOM     64  C   UNL A   1      45.553  23.713  25.310  1.00  0.00    -0.014 A 
ATOM     65  C   UNL A   1      45.266  23.345  23.984  1.00  0.00     0.010 A 
ATOM     66  C   UNL A   1      45.580  22.720  26.307  1.00  0.00     0.010 A 
ATOM     67  C   UNL A   1      44.974  22.014  23.671  1.00  0.00     0.020 A 
ATOM     68  C   UNL A   1      45.317  21.386  25.993  1.00  0.00     0.020 A 
ATOM     69  C   UNL A   1      44.997  21.044  24.679  1.00  0.00     0.054 A 
BRANCH  69  70
ATOM     70  S   UNL A   1      44.621  19.324  24.244  1.00  0.00     0.124 S 
ATOM     71  O   UNL A   1      44.654  19.367  22.785  1.00  0.00    -0.237 OA
ATOM     72  O   UNL A   1      45.714  18.588  24.875  1.00  0.00    -0.237 OA
ATOM     73  O   UNL A   1      43.302  19.097  24.830  1.00  0.00    -0.744 OA
ENDBRANCH  69  70
ENDBRANCH  50  64
BRANCH  51  74
ATOM     74  C   UNL A   1      46.988  33.255  27.873  1.00  0.00    -0.014 A 
ATOM     75  C   UNL A   1      47.134  33.656  29.214  1.00  0.00     0.010 A 
ATOM     76  C   UNL A   1      47.009  34.241  26.867  1.00  0.00     0.010 A 
ATOM     77  C   UNL A   1      47.274  35.011  29.541  1.00  0.00     0.020 A 
ATOM     78  C   UNL A   1      47.183  35.590  27.186  1.00  0.00     0.020 A 
ATOM     79  C   UNL A   1      47.298  35.970  28.523  1.00  0.00     0.054 A 
BRANCH  79  80
ATOM     80  S   UNL A   1      47.507  37.718  28.964  1.00  0.00     0.124 S 
ATOM     81  O   UNL A   1      46.559  38.373  28.068  1.00  0.00    -0.237 OA
ATOM     82  O   UNL A   1      47.152  37.732  30.380  1.00  0.00    -0.237 OA
ATOM     83  O   UNL A   1      48.916  37.979  28.679  1.00  0.00    -0.744 OA
ENDBRANCH  79  80
ENDBRANCH  51  74
BRANCH  63  84
ATOM     84  C   UNL A   1      51.282  28.035  26.098  1.00  0.00    -0.014 A 
ATOM     85  C   UNL A   1      52.097  27.519  27.122  1.00  0.00     0.010 A 
ATOM     86  C   UNL A   1      51.875  28.410  24.878  1.00  0.00     0.010 A 
ATOM     87  C   UNL A   1      53.479  27.406  26.938  1.00  0.00     0.020 A 
ATOM     88  C   UNL A   1      53.252  28.270  24.679  1.00  0.00     0.020 A 
ATOM     89  C   UNL A   1      54.047  27.780  25.716  1.00  0.00     0.054 A 
BRANCH  89  90
ATOM     90  S   UNL A   1      55.835  27.573  25.483  1.00  0.00     0.124 S 
ATOM     91  O   UNL A   1      56.296  28.957  25.418  1.00  0.00    -0.237 OA
ATOM     92  O   UNL A   1      56.229  26.835  26.681  1.00  0.00    -0.237 OA
ATOM     93  O   UNL A   1      55.938  26.822  24.234  1.00  0.00    -0.744 OA
ENDBRANCH  89  90
ENDBRANCH  63  84
ENDBRANCH  37  38
ENDBRANCH  30  32
ENDBRANCH  29  30
ENDBRANCH  28  29
ENDBRANCH   1  28
TORSDOF 18
ENDMDL
MODEL 3
REMARK VINA RESULT:     -10.3      2.645      3.547
REMARK SMILES C[C@@H]1CCCN(c2ccc(NC(=O)Cc3cccs3)c(C(=O)OCCOC(=O)c3ccc(-c4c5nc(c(-c6ccc(S(=O)(=O)[O-])cc6)c6ccc([nH]6)c(-c6ccc(S(=O)(=O)[O-])cc6)c6nc(c(-c7ccc(S(=O)(=O)[O-])cc7)c7ccc4[nH]7)C=C6)C=C5)cc3)c2)C1
REMARK SMILES IDX 24 1 23 2 21 3 22 4 20 5 7 6 8 7 89 8 9 9 10 10 6 11 1 12
REMARK SMILES IDX 2 13 3 14 90 15 4 16 5 17 11 18 12 19 13 21 14 22 15 23
REMARK SMILES IDX 16 24 19 25 17 26 18 27 25 28 26 29 27 30 28 31 29 32 30 33
REMARK SMILES IDX 88 34 31 35 87 36 32 37 33 38 34 39 81 40 35 41 86 42 80 43
REMARK SMILES IDX 82 44 36 45 85 46 79 47 78 48 37 50 67 51 48 52 66 53 49 54
REMARK SMILES IDX 52 55 65 56 83 57 50 58 51 59 64 61 84 62 53 63 38 64 39 65
REMARK SMILES IDX 47 66 40 67 46 68 41 69 42 70 43 71 44 72 45 73 68 74 69 75
REMARK SMILES IDX 77 76 70 77 76 78 71 79 72 80 73 81 74 82 75 83 54 84 55 85
REMARK SMILES IDX 63 86 56 87 62 88 57 89 58 90 59 91 60 92 61 93
REMARK H PARENT 11 20 82 49 52 60
REMARK Flexibility Score: inf
ROOT
ATOM      1  C   UNL A   1      32.770  28.455  27.352  1.00  0.00     0.275 C 
ENDROOT
BRANCH   1   2
ATOM      2  O   UNL A   1      32.559  27.523  26.270  1.00  0.00    -0.458 OA
BRANCH   2   3
ATOM      3  C   UNL A   1      31.583  26.589  26.420  1.00  0.00     0.340 C 
ATOM      4  O   UNL A   1      30.599  26.696  27.134  1.00  0.00    -0.246 OA
BRANCH   3   5
ATOM      5  C   UNL A   1      31.857  25.375  25.589  1.00  0.00     0.085 A 
ATOM      6  C   UNL A   1      33.461  23.714  24.794  1.00  0.00     0.038 A 
ATOM      7  C   UNL A   1      32.465  23.113  24.037  1.00  0.00     0.028 A 
ATOM      8  C   UNL A   1      33.141  24.820  25.589  1.00  0.00     0.043 A 
ATOM      9  C   UNL A   1      31.172  23.624  24.053  1.00  0.00     0.029 A 
ATOM     10  C   UNL A   1      30.869  24.790  24.763  1.00  0.00     0.055 A 
BRANCH   6  11
ATOM     11  N   UNL A   1      34.746  23.229  24.818  1.00  0.00    -0.371 N 
ATOM     12  C   UNL A   1      38.149  24.168  26.164  1.00  0.00     0.009 C 
ATOM     13  C   UNL A   1      36.886  23.346  25.930  1.00  0.00     0.005 C 
ATOM     14  C   UNL A   1      37.230  21.982  25.299  1.00  0.00     0.007 C 
ATOM     15  C   UNL A   1      35.874  24.114  25.063  1.00  0.00     0.119 C 
ATOM     16  C   UNL A   1      35.971  21.168  24.986  1.00  0.00     0.022 C 
ATOM     17  C   UNL A   1      34.999  21.972  24.134  1.00  0.00     0.116 C 
ENDBRANCH   6  11
BRANCH  10  18
ATOM     18  N   UNL A   1      29.615  25.397  24.620  1.00  0.00    -0.325 N 
ATOM     19  C   UNL A   1      29.197  26.471  23.890  1.00  0.00     0.229 C 
ATOM     20  H   UNL A   1      28.900  24.968  25.144  1.00  0.00     0.169 HD
ATOM     21  O   UNL A   1      27.972  26.626  23.822  1.00  0.00    -0.274 OA
BRANCH  19  22
ATOM     22  C   UNL A   1      30.114  27.462  23.174  1.00  0.00     0.147 C 
BRANCH  22  23
ATOM     23  C   UNL A   1      29.777  28.944  23.244  1.00  0.00     0.014 A 
ATOM     24  C   UNL A   1      30.107  29.955  24.130  1.00  0.00     0.016 A 
ATOM     25  S   UNL A   1      28.852  29.610  21.938  1.00  0.00    -0.148 S 
ATOM     26  C   UNL A   1      29.632  31.243  23.745  1.00  0.00     0.012 A 
ATOM     27  C   UNL A   1      28.938  31.196  22.563  1.00  0.00     0.065 A 
ENDBRANCH  22  23
ENDBRANCH  19  22
ENDBRANCH  10  18
ENDBRANCH   3   5
ENDBRANCH   2   3
ENDBRANCH   1   2
BRANCH   1  28
ATOM     28  C   UNL A   1      32.630  29.913  26.903  1.00  0.00     0.275 C 
BRANCH  28  29
ATOM     29  O   UNL A   1      33.920  30.526  26.731  1.00  0.00    -0.458 OA
BRANCH  29  30
ATOM     30  C   UNL A   1      34.240  31.437  27.677  1.00  0.00     0.338 C 
ATOM     31  O   UNL A   1      33.492  32.261  28.184  1.00  0.00    -0.246 OA
BRANCH  30  32
ATOM     32  C   UNL A   1      35.586  31.150  28.200  1.00  0.00     0.060 A 
ATOM     33  C   UNL A   1      35.768  29.872  28.713  1.00  0.00     0.016 A 
ATOM     34  C   UNL A   1      36.635  32.072  28.233  1.00  0.00     0.016 A 
ATOM     35  C   UNL A   1      36.990  29.505  29.257  1.00  0.00     0.010 A 
ATOM     36  C   UNL A   1      37.874  31.692  28.784  1.00  0.00     0.010 A 
ATOM     37  C   UNL A   1      38.057  30.397  29.292  1.00  0.00    -0.014 A 
BRANCH  37  38
ATOM     38  C   UNL A   1      39.295  29.930  29.964  1.00  0.00     0.031 A 
ATOM     39  C   UNL A   1      39.682  30.536  31.281  1.00  0.00     0.074 A 
ATOM     40  C   UNL A   1      39.958  28.849  29.510  1.00  0.00     0.049 A 
ATOM     41  N   UNL A   1      40.715  30.275  32.039  1.00  0.00    -0.248 NA
ATOM     42  C   UNL A   1      38.768  31.552  31.827  1.00  0.00     0.031 C 
ATOM     43  C   UNL A   1      39.566  28.044  28.354  1.00  0.00     0.029 A 
ATOM     44  N   UNL A   1      41.078  28.215  29.993  1.00  0.00    -0.354 N 
ATOM     45  C   UNL A   1      40.592  31.111  33.141  1.00  0.00     0.074 A 
ATOM     46  C   UNL A   1      39.380  31.882  32.955  1.00  0.00     0.031 C 
ATOM     47  C   UNL A   1      40.425  27.017  28.224  1.00  0.00     0.029 A 
ATOM     48  C   UNL A   1      41.462  27.125  29.246  1.00  0.00     0.049 A 
ATOM     49  H   UNL A   1      41.560  28.513  30.798  1.00  0.00     0.167 HD
ATOM     50  C   UNL A   1      41.424  31.237  34.201  1.00  0.00     0.031 A 
ATOM     51  C   UNL A   1      42.543  26.324  29.355  1.00  0.00     0.031 A 
ATOM     52  C   UNL A   1      42.634  30.478  34.373  1.00  0.00     0.049 A 
ATOM     53  C   UNL A   1      43.533  26.584  30.463  1.00  0.00     0.074 A 
ATOM     54  C   UNL A   1      43.579  30.584  35.379  1.00  0.00     0.029 A 
ATOM     55  N   UNL A   1      43.070  29.474  33.521  1.00  0.00    -0.354 N 
ATOM     56  N   UNL A   1      43.460  27.441  31.454  1.00  0.00    -0.248 NA
ATOM     57  C   UNL A   1      44.764  25.777  30.459  1.00  0.00     0.031 C 
ATOM     58  C   UNL A   1      44.618  29.690  35.098  1.00  0.00     0.029 A 
ATOM     59  C   UNL A   1      44.285  28.974  33.959  1.00  0.00     0.049 A 
ATOM     60  H   UNL A   1      42.586  29.162  32.723  1.00  0.00     0.167 HD
ATOM     61  C   UNL A   1      44.620  27.260  32.202  1.00  0.00     0.074 A 
ATOM     62  C   UNL A   1      45.370  26.200  31.561  1.00  0.00     0.031 C 
ATOM     63  C   UNL A   1      45.026  27.917  33.316  1.00  0.00     0.031 A 
BRANCH  50  64
ATOM     64  C   UNL A   1      41.102  32.311  35.204  1.00  0.00    -0.014 A 
ATOM     65  C   UNL A   1      41.603  33.618  35.080  1.00  0.00     0.010 A 
ATOM     66  C   UNL A   1      40.265  31.996  36.290  1.00  0.00     0.010 A 
ATOM     67  C   UNL A   1      41.303  34.581  36.049  1.00  0.00     0.020 A 
ATOM     68  C   UNL A   1      39.940  32.962  37.244  1.00  0.00     0.020 A 
ATOM     69  C   UNL A   1      40.477  34.245  37.127  1.00  0.00     0.054 A 
BRANCH  69  70
ATOM     70  S   UNL A   1      40.098  35.514  38.365  1.00  0.00     0.124 S 
ATOM     71  O   UNL A   1      39.744  36.656  37.528  1.00  0.00    -0.237 OA
ATOM     72  O   UNL A   1      38.994  34.915  39.110  1.00  0.00    -0.237 OA
ATOM     73  O   UNL A   1      41.345  35.654  39.113  1.00  0.00    -0.744 OA
ENDBRANCH  69  70
ENDBRANCH  50  64
BRANCH  51  74
ATOM     74  C   UNL A   1      42.796  25.254  28.346  1.00  0.00    -0.014 A 
ATOM     75  C   UNL A   1      42.262  23.962  28.498  1.00  0.00     0.010 A 
ATOM     76  C   UNL A   1      43.624  25.517  27.237  1.00  0.00     0.010 A 
ATOM     77  C   UNL A   1      42.567  22.952  27.577  1.00  0.00     0.020 A 
ATOM     78  C   UNL A   1      43.904  24.522  26.297  1.00  0.00     0.020 A 
ATOM     79  C   UNL A   1      43.387  23.239  26.481  1.00  0.00     0.054 A 
BRANCH  79  80
ATOM     80  S   UNL A   1      43.750  21.925  25.284  1.00  0.00     0.124 S 
ATOM     81  O   UNL A   1      45.097  21.520  25.676  1.00  0.00    -0.237 OA
ATOM     82  O   UNL A   1      42.694  20.952  25.550  1.00  0.00    -0.237 OA
ATOM     83  O   UNL A   1      43.654  22.600  23.992  1.00  0.00    -0.744 OA
ENDBRANCH  79  80
ENDBRANCH  51  74
BRANCH  63  84
ATOM     84  C   UNL A   1      46.327  27.490  33.948  1.00  0.00    -0.014 A 
ATOM     85  C   UNL A   1      46.364  26.526  34.972  1.00  0.00     0.010 A 
ATOM     86  C   UNL A   1      47.539  28.012  33.460  1.00  0.00     0.010 A 
ATOM     87  C   UNL A   1      47.586  26.115  35.513  1.00  0.00     0.020 A 
ATOM     88  C   UNL A   1      48.764  27.581  33.976  1.00  0.00     0.020 A 
ATOM     89  C   UNL A   1      48.779  26.643  35.009  1.00  0.00     0.054 A 
BRANCH  89  90
ATOM     90  S   UNL A   1      50.354  26.053  35.692  1.00  0.00     0.124 S 
ATOM     91  O   UNL A   1      50.981  25.437  34.526  1.00  0.00    -0.237 OA
ATOM     92  O   UNL A   1      50.979  27.287  36.164  1.00  0.00    -0.237 OA
ATOM     93  O   UNL A   1      49.949  25.124  36.746  1.00  0.00    -0.744 OA
ENDBRANCH  89  90
ENDBRANCH  63  84
ENDBRANCH  37  38
ENDBRANCH  30  32
ENDBRANCH  29  30
ENDBRANCH  28  29
ENDBRANCH   1  28
TORSDOF 18
ENDMDL
