MODEL 1
REMARK VINA RESULT:     -10.5      0.000      0.000
REMARK SMILES C/C(=C\CN1CC(=O)N2CCC[C@H]2C1=O)C(=O)OCCOC(=O)c1ccc(-c2c3nc(c(-c4ccc(S(=O)(=O)[O-])cc4)c4ccc([nH]4)c(-c4ccc(S(=O)(=O)[O-])cc4)c4nc(c(-c5ccc(S(=O)(=O)[O-])cc5)c5ccc2[nH]5)C=C4)C=C3)cc1
REMARK SMILES IDX 20 1 19 2 18 3 16 4 17 5 2 6 1 7 3 8 4 9 5 10 6 11 14 12
REMARK SMILES IDX 7 13 13 14 15 15 8 16 9 17 12 18 10 19 11 20 21 21 22 22
REMARK SMILES IDX 23 23 24 24 25 25 83 26 26 27 82 28 27 29 28 30 29 31 76 32
REMARK SMILES IDX 30 33 81 34 75 35 77 36 31 37 80 38 74 39 73 40 32 42 62 43
REMARK SMILES IDX 43 44 61 45 44 46 47 47 60 48 78 49 45 50 46 51 59 53 79 54
REMARK SMILES IDX 48 55 33 56 34 57 42 58 35 59 41 60 36 61 37 62 38 63 39 64
REMARK SMILES IDX 40 65 63 66 64 67 72 68 65 69 71 70 66 71 67 72 68 73 69 74
REMARK SMILES IDX 70 75 49 76 50 77 58 78 51 79 57 80 52 81 53 82 54 83 55 84
REMARK SMILES IDX 56 85
REMARK H PARENT 77 41 47 52
REMARK Flexibility Score: inf
ROOT
ATOM      1  C   UNL A   1      32.344  30.179  27.123  1.00  0.00     0.275 C 
ENDROOT
BRANCH   1   2
ATOM      2  C   UNL A   1      32.027  30.052  25.635  1.00  0.00     0.275 C 
BRANCH   2   3
ATOM      3  O   UNL A   1      31.505  28.745  25.324  1.00  0.00    -0.459 OA
BRANCH   3   4
ATOM      4  C   UNL A   1      30.739  28.668  24.206  1.00  0.00     0.333 C 
ATOM      5  O   UNL A   1      30.296  29.616  23.575  1.00  0.00    -0.247 OA
BRANCH   4   6
ATOM      6  C   UNL A   1      30.534  27.256  23.774  1.00  0.00     0.032 C 
ATOM      7  C   UNL A   1      29.104  26.806  23.708  1.00  0.00     0.052 C 
ATOM      8  C   UNL A   1      31.609  26.470  23.565  1.00  0.00     0.005 C 
BRANCH   8   9
ATOM      9  C   UNL A   1      31.605  25.006  23.260  1.00  0.00     0.148 C 
BRANCH   9  10
ATOM     10  N   UNL A   1      32.474  24.329  24.198  1.00  0.00    -0.328 N 
ATOM     11  C   UNL A   1      32.211  24.489  25.639  1.00  0.00     0.220 C 
ATOM     12  C   UNL A   1      33.670  23.771  23.747  1.00  0.00     0.246 C 
ATOM     13  C   UNL A   1      32.691  23.301  26.480  1.00  0.00     0.242 C 
ATOM     14  C   UNL A   1      34.568  23.249  24.869  1.00  0.00     0.174 C 
ATOM     15  O   UNL A   1      34.045  23.829  22.578  1.00  0.00    -0.272 OA
ATOM     16  O   UNL A   1      32.219  23.024  27.577  1.00  0.00    -0.273 OA
ATOM     17  N   UNL A   1      33.791  22.669  25.950  1.00  0.00    -0.329 N 
ATOM     18  C   UNL A   1      35.488  22.110  24.453  1.00  0.00     0.037 C 
ATOM     19  C   UNL A   1      34.410  21.484  26.504  1.00  0.00     0.120 C 
ATOM     20  C   UNL A   1      35.747  21.391  25.775  1.00  0.00     0.024 C 
ENDBRANCH   9  10
ENDBRANCH   8   9
ENDBRANCH   4   6
ENDBRANCH   3   4
ENDBRANCH   2   3
ENDBRANCH   1   2
BRANCH   1  21
ATOM     21  O   UNL A   1      33.705  29.786  27.365  1.00  0.00    -0.458 OA
BRANCH  21  22
ATOM     22  C   UNL A   1      34.435  30.636  28.124  1.00  0.00     0.338 C 
ATOM     23  O   UNL A   1      34.073  31.685  28.625  1.00  0.00    -0.246 OA
BRANCH  22  24
ATOM     24  C   UNL A   1      35.791  30.091  28.292  1.00  0.00     0.060 A 
ATOM     25  C   UNL A   1      36.204  29.678  29.557  1.00  0.00     0.016 A 
ATOM     26  C   UNL A   1      36.690  30.104  27.229  1.00  0.00     0.016 A 
ATOM     27  C   UNL A   1      37.539  29.358  29.788  1.00  0.00     0.010 A 
ATOM     28  C   UNL A   1      38.011  29.691  27.443  1.00  0.00     0.010 A 
ATOM     29  C   UNL A   1      38.459  29.347  28.732  1.00  0.00    -0.014 A 
BRANCH  29  30
ATOM     30  C   UNL A   1      39.889  29.015  28.980  1.00  0.00     0.031 A 
ATOM     31  C   UNL A   1      40.811  30.049  29.574  1.00  0.00     0.074 A 
ATOM     32  C   UNL A   1      40.367  27.789  28.687  1.00  0.00     0.049 A 
ATOM     33  N   UNL A   1      42.113  30.019  29.701  1.00  0.00    -0.248 NA
ATOM     34  C   UNL A   1      40.188  31.283  30.081  1.00  0.00     0.031 C 
ATOM     35  C   UNL A   1      39.579  26.672  28.160  1.00  0.00     0.029 A 
ATOM     36  N   UNL A   1      41.635  27.273  28.798  1.00  0.00    -0.354 N 
ATOM     37  C   UNL A   1      42.471  31.248  30.244  1.00  0.00     0.074 A 
ATOM     38  C   UNL A   1      41.249  32.000  30.428  1.00  0.00     0.031 C 
ATOM     39  C   UNL A   1      40.371  25.596  28.029  1.00  0.00     0.029 A 
ATOM     40  C   UNL A   1      41.738  25.967  28.377  1.00  0.00     0.049 A 
ATOM     41  H   UNL A   1      42.399  27.788  29.146  1.00  0.00     0.167 HD
ATOM     42  C   UNL A   1      43.706  31.711  30.554  1.00  0.00     0.031 A 
ATOM     43  C   UNL A   1      42.814  25.167  28.242  1.00  0.00     0.031 A 
ATOM     44  C   UNL A   1      44.917  30.945  30.408  1.00  0.00     0.049 A 
ATOM     45  C   UNL A   1      44.177  25.710  28.562  1.00  0.00     0.074 A 
ATOM     46  C   UNL A   1      46.217  31.326  30.695  1.00  0.00     0.029 A 
ATOM     47  N   UNL A   1      44.974  29.638  29.950  1.00  0.00    -0.354 N 
ATOM     48  N   UNL A   1      44.503  26.898  29.012  1.00  0.00    -0.248 NA
ATOM     49  C   UNL A   1      45.318  24.813  28.337  1.00  0.00     0.031 C 
ATOM     50  C   UNL A   1      47.064  30.258  30.380  1.00  0.00     0.029 A 
ATOM     51  C   UNL A   1      46.288  29.200  29.937  1.00  0.00     0.049 A 
ATOM     52  H   UNL A   1      44.197  29.101  29.675  1.00  0.00     0.167 HD
ATOM     53  C   UNL A   1      45.887  26.890  29.129  1.00  0.00     0.074 A 
ATOM     54  C   UNL A   1      46.334  25.572  28.722  1.00  0.00     0.031 C 
ATOM     55  C   UNL A   1      46.715  27.885  29.529  1.00  0.00     0.031 A 
BRANCH  42  56
ATOM     56  C   UNL A   1      43.815  33.132  31.037  1.00  0.00    -0.014 A 
ATOM     57  C   UNL A   1      43.790  33.448  32.407  1.00  0.00     0.010 A 
ATOM     58  C   UNL A   1      43.978  34.167  30.098  1.00  0.00     0.010 A 
ATOM     59  C   UNL A   1      43.886  34.779  32.826  1.00  0.00     0.020 A 
ATOM     60  C   UNL A   1      44.097  35.496  30.514  1.00  0.00     0.020 A 
ATOM     61  C   UNL A   1      44.032  35.795  31.876  1.00  0.00     0.054 A 
BRANCH  61  62
ATOM     62  S   UNL A   1      44.169  37.514  32.443  1.00  0.00     0.124 S 
ATOM     63  O   UNL A   1      43.822  38.258  31.236  1.00  0.00    -0.237 OA
ATOM     64  O   UNL A   1      43.188  37.578  33.523  1.00  0.00    -0.237 OA
ATOM     65  O   UNL A   1      45.563  37.628  32.866  1.00  0.00    -0.744 OA
ENDBRANCH  61  62
ENDBRANCH  42  56
BRANCH  43  66
ATOM     66  C   UNL A   1      42.642  23.782  27.726  1.00  0.00    -0.014 A 
ATOM     67  C   UNL A   1      42.410  22.713  28.608  1.00  0.00     0.010 A 
ATOM     68  C   UNL A   1      42.681  23.532  26.341  1.00  0.00     0.010 A 
ATOM     69  C   UNL A   1      42.220  21.419  28.114  1.00  0.00     0.020 A 
ATOM     70  C   UNL A   1      42.465  22.245  25.844  1.00  0.00     0.020 A 
ATOM     71  C   UNL A   1      42.246  21.193  26.735  1.00  0.00     0.054 A 
BRANCH  71  72
ATOM     72  S   UNL A   1      41.923  19.521  26.108  1.00  0.00     0.124 S 
ATOM     73  O   UNL A   1      42.814  19.455  24.953  1.00  0.00    -0.237 OA
ATOM     74  O   UNL A   1      42.293  18.677  27.241  1.00  0.00    -0.237 OA
ATOM     75  O   UNL A   1      40.496  19.544  25.799  1.00  0.00    -0.744 OA
ENDBRANCH  71  72
ENDBRANCH  43  66
BRANCH  55  76
ATOM     76  C   UNL A   1      48.185  27.582  29.571  1.00  0.00    -0.014 A 
ATOM     77  C   UNL A   1      49.014  27.861  28.470  1.00  0.00     0.010 A 
ATOM     78  C   UNL A   1      48.753  27.059  30.747  1.00  0.00     0.010 A 
ATOM     79  C   UNL A   1      50.384  27.601  28.537  1.00  0.00     0.020 A 
ATOM     80  C   UNL A   1      50.127  26.816  30.822  1.00  0.00     0.020 A 
ATOM     81  C   UNL A   1      50.932  27.078  29.712  1.00  0.00     0.054 A 
BRANCH  81  82
ATOM     82  S   UNL A   1      52.722  26.791  29.794  1.00  0.00     0.124 S 
ATOM     83  O   UNL A   1      52.829  25.868  30.920  1.00  0.00    -0.237 OA
ATOM     84  O   UNL A   1      53.018  26.219  28.483  1.00  0.00    -0.237 OA
ATOM     85  O   UNL A   1      53.274  28.124  30.025  1.00  0.00    -0.744 OA
ENDBRANCH  81  82
ENDBRANCH  55  76
ENDBRANCH  29  30
ENDBRANCH  22  24
ENDBRANCH  21  22
ENDBRANCH   1  21
TORSDOF 16
ENDMDL
MODEL 2
REMARK VINA RESULT:     -10.4      2.693      3.554
REMARK SMILES C/C(=C\CN1CC(=O)N2CCC[C@H]2C1=O)C(=O)OCCOC(=O)c1ccc(-c2c3nc(c(-c4ccc(S(=O)(=O)[O-])cc4)c4ccc([nH]4)c(-c4ccc(S(=O)(=O)[O-])cc4)c4nc(c(-c5ccc(S(=O)(=O)[O-])cc5)c5ccc2[nH]5)C=C4)C=C3)cc1
REMARK SMILES IDX 20 1 19 2 18 3 16 4 17 5 2 6 1 7 3 8 4 9 5 10 6 11 14 12
REMARK SMILES IDX 7 13 13 14 15 15 8 16 9 17 12 18 10 19 11 20 21 21 22 22
REMARK SMILES IDX 23 23 24 24 25 25 83 26 26 27 82 28 27 29 28 30 29 31 76 32
REMARK SMILES IDX 30 33 81 34 75 35 77 36 31 37 80 38 74 39 73 40 32 42 62 43
REMARK SMILES IDX 43 44 61 45 44 46 47 47 60 48 78 49 45 50 46 51 59 53 79 54
REMARK SMILES IDX 48 55 33 56 34 57 42 58 35 59 41 60 36 61 37 62 38 63 39 64
REMARK SMILES IDX 40 65 63 66 64 67 72 68 65 69 71 70 66 71 67 72 68 73 69 74
REMARK SMILES IDX 70 75 49 76 50 77 58 78 51 79 57 80 52 81 53 82 54 83 55 84
REMARK SMILES IDX 56 85
REMARK H PARENT 77 41 47 52
REMARK Flexibility Score: inf
ROOT
ATOM      1  C   UNL A   1      35.600  30.988  27.779  1.00  0.00     0.275 C 
ENDROOT
BRANCH   1   2
ATOM      2  C   UNL A   1      34.105  30.711  27.638  1.00  0.00     0.275 C 
BRANCH   2   3
ATOM      3  O   UNL A   1      33.814  30.040  26.395  1.00  0.00    -0.459 OA
BRANCH   3   4
ATOM      4  C   UNL A   1      32.510  30.039  26.019  1.00  0.00     0.333 C 
ATOM      5  O   UNL A   1      31.626  30.733  26.498  1.00  0.00    -0.247 OA
BRANCH   4   6
ATOM      6  C   UNL A   1      32.266  29.109  24.879  1.00  0.00     0.032 C 
ATOM      7  C   UNL A   1      30.967  29.308  24.155  1.00  0.00     0.052 C 
ATOM      8  C   UNL A   1      33.152  28.124  24.636  1.00  0.00     0.005 C 
BRANCH   8   9
ATOM      9  C   UNL A   1      33.017  27.024  23.632  1.00  0.00     0.148 C 
BRANCH   9  10
ATOM     10  N   UNL A   1      33.035  25.752  24.323  1.00  0.00    -0.328 N 
ATOM     11  C   UNL A   1      32.710  25.731  25.760  1.00  0.00     0.220 C 
ATOM     12  C   UNL A   1      33.603  24.641  23.702  1.00  0.00     0.246 C 
ATOM     13  C   UNL A   1      32.121  24.396  26.230  1.00  0.00     0.242 C 
ATOM     14  C   UNL A   1      33.715  23.417  24.611  1.00  0.00     0.174 C 
ATOM     15  O   UNL A   1      34.109  24.676  22.582  1.00  0.00    -0.272 OA
ATOM     16  O   UNL A   1      31.411  24.291  27.223  1.00  0.00    -0.273 OA
ATOM     17  N   UNL A   1      32.584  23.316  25.516  1.00  0.00    -0.329 N 
ATOM     18  C   UNL A   1      33.688  22.086  23.872  1.00  0.00     0.037 C 
ATOM     19  C   UNL A   1      32.145  21.950  25.706  1.00  0.00     0.120 C 
ATOM     20  C   UNL A   1      33.172  21.123  24.940  1.00  0.00     0.024 C 
ENDBRANCH   9  10
ENDBRANCH   8   9
ENDBRANCH   4   6
ENDBRANCH   3   4
ENDBRANCH   2   3
ENDBRANCH   1   2
BRANCH   1  21
ATOM     21  O   UNL A   1      36.330  29.751  27.736  1.00  0.00    -0.458 OA
BRANCH  21  22
ATOM     22  C   UNL A   1      36.977  29.413  28.875  1.00  0.00     0.338 C 
ATOM     23  O   UNL A   1      36.528  29.383  30.007  1.00  0.00    -0.246 OA
BRANCH  22  24
ATOM     24  C   UNL A   1      38.365  29.045  28.553  1.00  0.00     0.060 A 
ATOM     25  C   UNL A   1      39.163  28.477  29.542  1.00  0.00     0.016 A 
ATOM     26  C   UNL A   1      38.908  29.374  27.314  1.00  0.00     0.016 A 
ATOM     27  C   UNL A   1      40.530  28.314  29.332  1.00  0.00     0.010 A 
ATOM     28  C   UNL A   1      40.264  29.122  27.071  1.00  0.00     0.010 A 
ATOM     29  C   UNL A   1      41.097  28.621  28.089  1.00  0.00    -0.014 A 
BRANCH  29  30
ATOM     30  C   UNL A   1      42.561  28.458  27.866  1.00  0.00     0.031 A 
ATOM     31  C   UNL A   1      43.506  29.583  28.203  1.00  0.00     0.074 A 
ATOM     32  C   UNL A   1      43.052  27.303  27.374  1.00  0.00     0.049 A 
ATOM     33  N   UNL A   1      44.778  29.705  27.921  1.00  0.00    -0.248 NA
ATOM     34  C   UNL A   1      42.943  30.725  28.944  1.00  0.00     0.031 C 
ATOM     35  C   UNL A   1      42.264  26.109  27.056  1.00  0.00     0.029 A 
ATOM     36  N   UNL A   1      44.339  26.939  27.061  1.00  0.00    -0.354 N 
ATOM     37  C   UNL A   1      45.152  30.958  28.393  1.00  0.00     0.074 A 
ATOM     38  C   UNL A   1      43.976  31.556  28.985  1.00  0.00     0.031 C 
ATOM     39  C   UNL A   1      43.086  25.138  26.630  1.00  0.00     0.029 A 
ATOM     40  C   UNL A   1      44.445  25.663  26.559  1.00  0.00     0.049 A 
ATOM     41  H   UNL A   1      45.113  27.535  27.185  1.00  0.00     0.167 HD
ATOM     42  C   UNL A   1      46.366  31.559  28.332  1.00  0.00     0.031 A 
ATOM     43  C   UNL A   1      45.504  24.999  26.056  1.00  0.00     0.031 A 
ATOM     44  C   UNL A   1      47.545  30.946  27.779  1.00  0.00     0.049 A 
ATOM     45  C   UNL A   1      46.832  25.694  25.970  1.00  0.00     0.074 A 
ATOM     46  C   UNL A   1      48.821  31.472  27.673  1.00  0.00     0.029 A 
ATOM     47  N   UNL A   1      47.597  29.663  27.256  1.00  0.00    -0.354 N 
ATOM     48  N   UNL A   1      47.154  26.903  26.362  1.00  0.00    -0.248 NA
ATOM     49  C   UNL A   1      47.936  24.943  25.356  1.00  0.00     0.031 C 
ATOM     50  C   UNL A   1      49.638  30.519  27.055  1.00  0.00     0.029 A 
ATOM     51  C   UNL A   1      48.880  29.384  26.815  1.00  0.00     0.049 A 
ATOM     52  H   UNL A   1      46.835  29.042  27.205  1.00  0.00     0.167 HD
ATOM     53  C   UNL A   1      48.497  27.058  26.045  1.00  0.00     0.074 A 
ATOM     54  C   UNL A   1      48.934  25.810  25.450  1.00  0.00     0.031 C 
ATOM     55  C   UNL A   1      49.296  28.137  26.225  1.00  0.00     0.031 A 
BRANCH  42  56
ATOM     56  C   UNL A   1      46.467  32.974  28.835  1.00  0.00    -0.014 A 
ATOM     57  C   UNL A   1      46.828  33.259  30.163  1.00  0.00     0.010 A 
ATOM     58  C   UNL A   1      46.227  34.038  27.946  1.00  0.00     0.010 A 
ATOM     59  C   UNL A   1      46.906  34.585  30.604  1.00  0.00     0.020 A 
ATOM     60  C   UNL A   1      46.327  35.364  28.377  1.00  0.00     0.020 A 
ATOM     61  C   UNL A   1      46.648  35.628  29.709  1.00  0.00     0.054 A 
BRANCH  61  62
ATOM     62  S   UNL A   1      46.771  37.340  30.299  1.00  0.00     0.124 S 
ATOM     63  O   UNL A   1      48.100  37.356  30.903  1.00  0.00    -0.237 OA
ATOM     64  O   UNL A   1      46.631  38.118  29.070  1.00  0.00    -0.237 OA
ATOM     65  O   UNL A   1      45.658  37.462  31.237  1.00  0.00    -0.744 OA
ENDBRANCH  61  62
ENDBRANCH  42  56
BRANCH  43  66
ATOM     66  C   UNL A   1      45.330  23.612  25.543  1.00  0.00    -0.014 A 
ATOM     67  C   UNL A   1      45.703  22.508  26.327  1.00  0.00     0.010 A 
ATOM     68  C   UNL A   1      44.759  23.392  24.276  1.00  0.00     0.010 A 
ATOM     69  C   UNL A   1      45.509  21.207  25.852  1.00  0.00     0.020 A 
ATOM     70  C   UNL A   1      44.539  22.094  23.810  1.00  0.00     0.020 A 
ATOM     71  C   UNL A   1      44.925  21.009  24.597  1.00  0.00     0.054 A 
BRANCH  71  72
ATOM     72  S   UNL A   1      44.612  19.314  24.027  1.00  0.00     0.124 S 
ATOM     73  O   UNL A   1      45.781  18.604  24.535  1.00  0.00    -0.237 OA
ATOM     74  O   UNL A   1      43.343  18.988  24.674  1.00  0.00    -0.237 OA
ATOM     75  O   UNL A   1      44.543  19.452  22.575  1.00  0.00    -0.744 OA
ENDBRANCH  71  72
ENDBRANCH  43  66
BRANCH  55  76
ATOM     76  C   UNL A   1      50.730  28.010  25.796  1.00  0.00    -0.014 A 
ATOM     77  C   UNL A   1      51.140  28.411  24.512  1.00  0.00     0.010 A 
ATOM     78  C   UNL A   1      51.688  27.531  26.708  1.00  0.00     0.010 A 
ATOM     79  C   UNL A   1      52.482  28.314  24.139  1.00  0.00     0.020 A 
ATOM     80  C   UNL A   1      53.035  27.452  26.343  1.00  0.00     0.020 A 
ATOM     81  C   UNL A   1      53.422  27.833  25.057  1.00  0.00     0.054 A 
BRANCH  81  82
ATOM     82  S   UNL A   1      55.167  27.760  24.568  1.00  0.00     0.124 S 
ATOM     83  O   UNL A   1      55.314  26.360  24.179  1.00  0.00    -0.237 OA
ATOM     84  O   UNL A   1      55.238  28.727  23.476  1.00  0.00    -0.237 OA
ATOM     85  O   UNL A   1      55.882  28.147  25.782  1.00  0.00    -0.744 OA
ENDBRANCH  81  82
ENDBRANCH  55  76
ENDBRANCH  29  30
ENDBRANCH  22  24
ENDBRANCH  21  22
ENDBRANCH   1  21
TORSDOF 16
ENDMDL
MODEL 3
REMARK VINA RESULT:     -10.4      4.907     10.686
REMARK SMILES C/C(=C\CN1CC(=O)N2CCC[C@H]2C1=O)C(=O)OCCOC(=O)c1ccc(-c2c3nc(c(-c4ccc(S(=O)(=O)[O-])cc4)c4ccc([nH]4)c(-c4ccc(S(=O)(=O)[O-])cc4)c4nc(c(-c5ccc(S(=O)(=O)[O-])cc5)c5ccc2[nH]5)C=C4)C=C3)cc1
REMARK SMILES IDX 20 1 19 2 18 3 16 4 17 5 2 6 1 7 3 8 4 9 5 10 6 11 14 12
REMARK SMILES IDX 7 13 13 14 15 15 8 16 9 17 12 18 10 19 11 20 21 21 22 22
REMARK SMILES IDX 23 23 24 24 25 25 83 26 26 27 82 28 27 29 28 30 29 31 76 32
REMARK SMILES IDX 30 33 81 34 75 35 77 36 31 37 80 38 74 39 73 40 32 42 62 43
REMARK SMILES IDX 43 44 61 45 44 46 47 47 60 48 78 49 45 50 46 51 59 53 79 54
REMARK SMILES IDX 48 55 33 56 34 57 42 58 35 59 41 60 36 61 37 62 38 63 39 64
REMARK SMILES IDX 40 65 63 66 64 67 72 68 65 69 71 70 66 71 67 72 68 73 69 74
REMARK SMILES IDX 70 75 49 76 50 77 58 78 51 79 57 80 52 81 53 82 54 83 55 84
REMARK SMILES IDX 56 85
REMARK H PARENT 77 41 47 52
REMARK Flexibility Score: inf
ROOT
ATOM      1  C   UNL A   1      38.747  22.747  26.430  1.00  0.00     0.275 C 
ENDROOT
BRANCH   1   2
ATOM      2  C   UNL A   1      37.792  22.377  25.297  1.00  0.00     0.275 C 
BRANCH   2   3
ATOM      3  O   UNL A   1      36.469  22.101  25.802  1.00  0.00    -0.459 OA
BRANCH   3   4
ATOM      4  C   UNL A   1      35.765  21.161  25.122  1.00  0.00     0.333 C 
ATOM      5  O   UNL A   1      36.118  20.008  24.922  1.00  0.00    -0.247 OA
BRANCH   4   6
ATOM      6  C   UNL A   1      34.441  21.679  24.675  1.00  0.00     0.032 C 
ATOM      7  C   UNL A   1      33.248  21.042  25.325  1.00  0.00     0.052 C 
ATOM      8  C   UNL A   1      34.395  22.591  23.683  1.00  0.00     0.005 C 
BRANCH   8   9
ATOM      9  C   UNL A   1      33.170  23.127  23.014  1.00  0.00     0.148 C 
BRANCH   9  10
ATOM     10  N   UNL A   1      32.849  24.418  23.586  1.00  0.00    -0.328 N 
ATOM     11  C   UNL A   1      31.870  24.474  24.685  1.00  0.00     0.220 C 
ATOM     12  C   UNL A   1      33.256  25.579  22.930  1.00  0.00     0.246 C 
ATOM     13  C   UNL A   1      32.077  25.669  25.623  1.00  0.00     0.242 C 
ATOM     14  C   UNL A   1      32.698  26.862  23.547  1.00  0.00     0.174 C 
ATOM     15  O   UNL A   1      33.876  25.576  21.868  1.00  0.00    -0.272 OA
ATOM     16  O   UNL A   1      31.687  25.682  26.784  1.00  0.00    -0.273 OA
ATOM     17  N   UNL A   1      32.611  26.768  24.993  1.00  0.00    -0.329 N 
ATOM     18  C   UNL A   1      33.572  28.090  23.331  1.00  0.00     0.037 C 
ATOM     19  C   UNL A   1      32.968  28.006  25.652  1.00  0.00     0.120 C 
ATOM     20  C   UNL A   1      33.182  28.987  24.504  1.00  0.00     0.024 C 
ENDBRANCH   9  10
ENDBRANCH   8   9
ENDBRANCH   4   6
ENDBRANCH   3   4
ENDBRANCH   2   3
ENDBRANCH   1   2
BRANCH   1  21
ATOM     21  O   UNL A   1      39.357  24.019  26.156  1.00  0.00    -0.458 OA
BRANCH  21  22
ATOM     22  C   UNL A   1      40.521  24.262  26.799  1.00  0.00     0.338 C 
ATOM     23  O   UNL A   1      41.572  23.656  26.693  1.00  0.00    -0.246 OA
BRANCH  22  24
ATOM     24  C   UNL A   1      40.354  25.430  27.679  1.00  0.00     0.060 A 
ATOM     25  C   UNL A   1      41.273  26.474  27.602  1.00  0.00     0.016 A 
ATOM     26  C   UNL A   1      39.363  25.436  28.657  1.00  0.00     0.016 A 
ATOM     27  C   UNL A   1      41.264  27.486  28.558  1.00  0.00     0.010 A 
ATOM     28  C   UNL A   1      39.298  26.504  29.560  1.00  0.00     0.010 A 
ATOM     29  C   UNL A   1      40.268  27.523  29.542  1.00  0.00    -0.014 A 
BRANCH  29  30
ATOM     30  C   UNL A   1      40.263  28.600  30.571  1.00  0.00     0.031 A 
ATOM     31  C   UNL A   1      41.252  28.562  31.708  1.00  0.00     0.074 A 
ATOM     32  C   UNL A   1      39.385  29.620  30.489  1.00  0.00     0.049 A 
ATOM     33  N   UNL A   1      41.296  29.297  32.789  1.00  0.00    -0.248 NA
ATOM     34  C   UNL A   1      42.326  27.558  31.621  1.00  0.00     0.031 C 
ATOM     35  C   UNL A   1      38.408  29.818  29.415  1.00  0.00     0.029 A 
ATOM     36  N   UNL A   1      39.177  30.691  31.323  1.00  0.00    -0.354 N 
ATOM     37  C   UNL A   1      42.360  28.806  33.539  1.00  0.00     0.074 A 
ATOM     38  C   UNL A   1      42.939  27.714  32.787  1.00  0.00     0.031 C 
ATOM     39  C   UNL A   1      37.733  30.956  29.637  1.00  0.00     0.029 A 
ATOM     40  C   UNL A   1      38.164  31.524  30.910  1.00  0.00     0.049 A 
ATOM     41  H   UNL A   1      39.703  30.848  32.141  1.00  0.00     0.167 HD
ATOM     42  C   UNL A   1      42.808  29.223  34.748  1.00  0.00     0.031 A 
ATOM     43  C   UNL A   1      37.610  32.599  31.502  1.00  0.00     0.031 A 
ATOM     44  C   UNL A   1      42.255  30.335  35.476  1.00  0.00     0.049 A 
ATOM     45  C   UNL A   1      38.101  33.025  32.856  1.00  0.00     0.074 A 
ATOM     46  C   UNL A   1      42.641  30.836  36.708  1.00  0.00     0.029 A 
ATOM     47  N   UNL A   1      41.211  31.131  35.030  1.00  0.00    -0.354 N 
ATOM     48  N   UNL A   1      39.064  32.509  33.580  1.00  0.00    -0.248 NA
ATOM     49  C   UNL A   1      37.418  34.166  33.481  1.00  0.00     0.031 C 
ATOM     50  C   UNL A   1      41.808  31.915  37.022  1.00  0.00     0.029 A 
ATOM     51  C   UNL A   1      40.932  32.112  35.966  1.00  0.00     0.049 A 
ATOM     52  H   UNL A   1      40.738  31.016  34.175  1.00  0.00     0.167 HD
ATOM     53  C   UNL A   1      39.107  33.264  34.745  1.00  0.00     0.074 A 
ATOM     54  C   UNL A   1      38.087  34.286  34.620  1.00  0.00     0.031 C 
ATOM     55  C   UNL A   1      39.912  33.120  35.825  1.00  0.00     0.031 A 
BRANCH  42  56
ATOM     56  C   UNL A   1      43.924  28.438  35.384  1.00  0.00    -0.014 A 
ATOM     57  C   UNL A   1      45.272  28.783  35.185  1.00  0.00     0.010 A 
ATOM     58  C   UNL A   1      43.610  27.353  36.224  1.00  0.00     0.010 A 
ATOM     59  C   UNL A   1      46.288  28.030  35.784  1.00  0.00     0.020 A 
ATOM     60  C   UNL A   1      44.622  26.613  36.842  1.00  0.00     0.020 A 
ATOM     61  C   UNL A   1      45.956  26.946  36.602  1.00  0.00     0.054 A 
BRANCH  61  62
ATOM     62  S   UNL A   1      47.291  25.993  37.380  1.00  0.00     0.124 S 
ATOM     63  O   UNL A   1      47.068  24.658  36.830  1.00  0.00    -0.237 OA
ATOM     64  O   UNL A   1      48.494  26.673  36.906  1.00  0.00    -0.237 OA
ATOM     65  O   UNL A   1      47.025  26.130  38.810  1.00  0.00    -0.744 OA
ENDBRANCH  61  62
ENDBRANCH  42  56
BRANCH  43  66
ATOM     66  C   UNL A   1      36.485  33.311  30.836  1.00  0.00    -0.014 A 
ATOM     67  C   UNL A   1      35.169  33.169  31.307  1.00  0.00     0.010 A 
ATOM     68  C   UNL A   1      36.734  34.162  29.743  1.00  0.00     0.010 A 
ATOM     69  C   UNL A   1      34.121  33.864  30.695  1.00  0.00     0.020 A 
ATOM     70  C   UNL A   1      35.694  34.878  29.147  1.00  0.00     0.020 A 
ATOM     71  C   UNL A   1      34.391  34.717  29.621  1.00  0.00     0.054 A 
BRANCH  71  72
ATOM     72  S   UNL A   1      33.031  35.669  28.887  1.00  0.00     0.124 S 
ATOM     73  O   UNL A   1      32.303  36.117  30.069  1.00  0.00    -0.237 OA
ATOM     74  O   UNL A   1      33.735  36.713  28.145  1.00  0.00    -0.237 OA
ATOM     75  O   UNL A   1      32.339  34.687  28.057  1.00  0.00    -0.744 OA
ENDBRANCH  71  72
ENDBRANCH  43  66
BRANCH  55  76
ATOM     76  C   UNL A   1      39.741  34.105  36.947  1.00  0.00    -0.014 A 
ATOM     77  C   UNL A   1      38.917  33.812  38.047  1.00  0.00     0.010 A 
ATOM     78  C   UNL A   1      40.455  35.317  36.922  1.00  0.00     0.010 A 
ATOM     79  C   UNL A   1      38.792  34.726  39.096  1.00  0.00     0.020 A 
ATOM     80  C   UNL A   1      40.347  36.223  37.980  1.00  0.00     0.020 A 
ATOM     81  C   UNL A   1      39.507  35.928  39.055  1.00  0.00     0.054 A 
BRANCH  81  82
ATOM     82  S   UNL A   1      39.367  37.079  40.449  1.00  0.00     0.124 S 
ATOM     83  O   UNL A   1      38.615  38.182  39.856  1.00  0.00    -0.237 OA
ATOM     84  O   UNL A   1      38.646  36.293  41.448  1.00  0.00    -0.237 OA
ATOM     85  O   UNL A   1      40.756  37.382  40.787  1.00  0.00    -0.744 OA
ENDBRANCH  81  82
ENDBRANCH  55  76
ENDBRANCH  29  30
ENDBRANCH  22  24
ENDBRANCH  21  22
ENDBRANCH   1  21
TORSDOF 16
ENDMDL
