MODEL 1
REMARK VINA RESULT:     -10.1      0.000      0.000
REMARK SMILES Cc1cc(Br)cc2c1O[C@H](C(F)(F)F)C(C(=O)OCCOC(=O)c1ccc(-c3c4nc(c(-c5ccc(S(=O)(=O)[O-])cc5)c5ccc([nH]5)c(-c5ccc(S(=O)(=O)[O-])cc5)c5nc(c(-c6ccc(S(=O)(=O)[O-])cc6)c6ccc3[nH]6)C=C5)C=C4)cc1)=C2
REMARK SMILES IDX 20 1 19 2 18 3 16 4 17 5 15 6 1 7 2 8 3 9 8 10 4 11 7 12
REMARK SMILES IDX 9 13 5 14 6 15 84 16 10 17 11 18 12 19 13 20 14 21 21 22
REMARK SMILES IDX 22 23 23 24 24 25 25 26 83 27 26 28 82 29 27 30 28 31 29 32
REMARK SMILES IDX 76 33 30 34 81 35 75 36 77 37 31 38 80 39 74 40 73 41 32 43
REMARK SMILES IDX 62 44 43 45 61 46 44 47 47 48 60 49 78 50 45 51 46 52 59 54
REMARK SMILES IDX 79 55 48 56 33 57 34 58 42 59 35 60 41 61 36 62 37 63 38 64
REMARK SMILES IDX 39 65 40 66 63 67 64 68 72 69 65 70 71 71 66 72 67 73 68 74
REMARK SMILES IDX 69 75 70 76 49 77 50 78 58 79 51 80 57 81 52 82 53 83 54 84
REMARK SMILES IDX 55 85 56 86
REMARK H PARENT 77 42 47 53
REMARK Flexibility Score: inf
ROOT
ATOM      1  C   UNL A   1      40.876  20.247  26.398  1.00  0.00     0.275 C 
ENDROOT
BRANCH   1   2
ATOM      2  C   UNL A   1      42.292  20.120  26.962  1.00  0.00     0.275 C 
BRANCH   2   3
ATOM      3  O   UNL A   1      43.285  20.551  26.006  1.00  0.00    -0.459 OA
BRANCH   3   4
ATOM      4  C   UNL A   1      43.301  21.878  25.745  1.00  0.00     0.338 C 
ATOM      5  O   UNL A   1      42.505  22.490  25.049  1.00  0.00    -0.246 OA
BRANCH   4   6
ATOM      6  C   UNL A   1      44.431  22.534  26.427  1.00  0.00     0.087 C 
ATOM      7  C   UNL A   1      48.837  24.979  27.484  1.00  0.00     0.048 C 
ATOM      8  C   UNL A   1      47.474  24.873  28.102  1.00  0.00    -0.007 A 
ATOM      9  C   UNL A   1      47.195  25.607  29.268  1.00  0.00     0.023 A 
ATOM     10  C   UNL A   1      46.486  24.031  27.568  1.00  0.00     0.130 A 
ATOM     11  C   UNL A   1      45.948  25.512  29.881  1.00  0.00     0.019 A 
ATOM     12  C   UNL A   1      45.234  23.957  28.182  1.00  0.00     0.019 A 
ATOM     13  O   UNL A   1      46.808  23.293  26.460  1.00  0.00    -0.475 OA
ATOM     14  Br  UNL A   1      45.582  26.518  31.439  1.00  0.00    -0.051 Br
ATOM     15  C   UNL A   1      44.964  24.690  29.345  1.00  0.00     0.027 A 
ATOM     16  C   UNL A   1      44.189  23.153  27.586  1.00  0.00     0.027 C 
ATOM     17  C   UNL A   1      45.750  22.621  25.720  1.00  0.00     0.316 C 
BRANCH  17  18
ATOM     18  C   UNL A   1      45.605  23.288  24.344  1.00  0.00     0.430 C 
ATOM     19  F   UNL A   1      46.804  23.701  23.867  1.00  0.00    -0.167 F 
ATOM     20  F   UNL A   1      45.105  22.427  23.422  1.00  0.00    -0.167 F 
ATOM     21  F   UNL A   1      44.789  24.365  24.376  1.00  0.00    -0.167 F 
ENDBRANCH  17  18
ENDBRANCH   4   6
ENDBRANCH   3   4
ENDBRANCH   2   3
ENDBRANCH   1   2
BRANCH   1  22
ATOM     22  O   UNL A   1      40.082  21.133  27.208  1.00  0.00    -0.458 OA
BRANCH  22  23
ATOM     23  C   UNL A   1      39.445  22.108  26.522  1.00  0.00     0.338 C 
ATOM     24  O   UNL A   1      38.656  21.969  25.603  1.00  0.00    -0.246 OA
BRANCH  23  25
ATOM     25  C   UNL A   1      39.748  23.428  27.097  1.00  0.00     0.060 A 
ATOM     26  C   UNL A   1      39.294  24.554  26.424  1.00  0.00     0.016 A 
ATOM     27  C   UNL A   1      40.666  23.559  28.134  1.00  0.00     0.016 A 
ATOM     28  C   UNL A   1      39.903  25.784  26.644  1.00  0.00     0.010 A 
ATOM     29  C   UNL A   1      41.145  24.832  28.470  1.00  0.00     0.010 A 
ATOM     30  C   UNL A   1      40.819  25.956  27.688  1.00  0.00    -0.014 A 
BRANCH  30  31
ATOM     31  C   UNL A   1      41.446  27.291  27.936  1.00  0.00     0.031 A 
ATOM     32  C   UNL A   1      42.854  27.575  27.462  1.00  0.00     0.074 A 
ATOM     33  C   UNL A   1      40.751  28.264  28.564  1.00  0.00     0.049 A 
ATOM     34  N   UNL A   1      43.632  28.587  27.752  1.00  0.00    -0.248 NA
ATOM     35  C   UNL A   1      43.474  26.591  26.557  1.00  0.00     0.031 C 
ATOM     36  C   UNL A   1      39.361  28.163  29.021  1.00  0.00     0.029 A 
ATOM     37  N   UNL A   1      41.113  29.543  28.917  1.00  0.00    -0.354 N 
ATOM     38  C   UNL A   1      44.845  28.333  27.119  1.00  0.00     0.074 A 
ATOM     39  C   UNL A   1      44.706  27.065  26.437  1.00  0.00     0.031 C 
ATOM     40  C   UNL A   1      38.971  29.341  29.526  1.00  0.00     0.029 A 
ATOM     41  C   UNL A   1      40.113  30.241  29.556  1.00  0.00     0.049 A 
ATOM     42  H   UNL A   1      42.002  29.922  28.730  1.00  0.00     0.167 HD
ATOM     43  C   UNL A   1      45.971  29.088  27.105  1.00  0.00     0.031 A 
ATOM     44  C   UNL A   1      40.119  31.448  30.155  1.00  0.00     0.031 A 
ATOM     45  C   UNL A   1      46.085  30.372  27.747  1.00  0.00     0.049 A 
ATOM     46  C   UNL A   1      41.399  32.230  30.194  1.00  0.00     0.074 A 
ATOM     47  C   UNL A   1      47.181  31.217  27.791  1.00  0.00     0.029 A 
ATOM     48  N   UNL A   1      45.063  31.008  28.437  1.00  0.00    -0.354 N 
ATOM     49  N   UNL A   1      42.557  31.938  29.654  1.00  0.00    -0.248 NA
ATOM     50  C   UNL A   1      41.379  33.493  30.943  1.00  0.00     0.031 C 
ATOM     51  C   UNL A   1      46.839  32.337  28.555  1.00  0.00     0.029 A 
ATOM     52  C   UNL A   1      45.511  32.222  28.931  1.00  0.00     0.049 A 
ATOM     53  H   UNL A   1      44.154  30.650  28.558  1.00  0.00     0.167 HD
ATOM     54  C   UNL A   1      43.402  32.988  29.987  1.00  0.00     0.074 A 
ATOM     55  C   UNL A   1      42.615  33.934  30.752  1.00  0.00     0.031 C 
ATOM     56  C   UNL A   1      44.716  33.151  29.692  1.00  0.00     0.031 A 
BRANCH  43  57
ATOM     57  C   UNL A   1      47.190  28.543  26.402  1.00  0.00    -0.014 A 
ATOM     58  C   UNL A   1      47.117  28.026  25.097  1.00  0.00     0.010 A 
ATOM     59  C   UNL A   1      48.447  28.627  27.032  1.00  0.00     0.010 A 
ATOM     60  C   UNL A   1      48.272  27.586  24.444  1.00  0.00     0.020 A 
ATOM     61  C   UNL A   1      49.608  28.214  26.372  1.00  0.00     0.020 A 
ATOM     62  C   UNL A   1      49.512  27.687  25.085  1.00  0.00     0.054 A 
BRANCH  62  63
ATOM     63  S   UNL A   1      50.999  27.152  24.192  1.00  0.00     0.124 S 
ATOM     64  O   UNL A   1      51.405  25.976  24.957  1.00  0.00    -0.237 OA
ATOM     65  O   UNL A   1      50.485  26.882  22.851  1.00  0.00    -0.237 OA
ATOM     66  O   UNL A   1      51.898  28.299  24.292  1.00  0.00    -0.744 OA
ENDBRANCH  62  63
ENDBRANCH  43  57
BRANCH  44  67
ATOM     67  C   UNL A   1      38.884  31.956  30.820  1.00  0.00    -0.014 A 
ATOM     68  C   UNL A   1      37.929  32.688  30.094  1.00  0.00     0.010 A 
ATOM     69  C   UNL A   1      38.646  31.688  32.182  1.00  0.00     0.010 A 
ATOM     70  C   UNL A   1      36.767  33.149  30.718  1.00  0.00     0.020 A 
ATOM     71  C   UNL A   1      37.467  32.116  32.800  1.00  0.00     0.020 A 
ATOM     72  C   UNL A   1      36.540  32.855  32.066  1.00  0.00     0.054 A 
BRANCH  72  73
ATOM     73  S   UNL A   1      34.999  33.422  32.838  1.00  0.00     0.124 S 
ATOM     74  O   UNL A   1      35.215  33.072  34.239  1.00  0.00    -0.237 OA
ATOM     75  O   UNL A   1      35.003  34.851  32.533  1.00  0.00    -0.237 OA
ATOM     76  O   UNL A   1      33.966  32.649  32.151  1.00  0.00    -0.744 OA
ENDBRANCH  72  73
ENDBRANCH  44  67
BRANCH  56  77
ATOM     77  C   UNL A   1      45.381  34.410  30.175  1.00  0.00    -0.014 A 
ATOM     78  C   UNL A   1      45.366  35.582  29.398  1.00  0.00     0.010 A 
ATOM     79  C   UNL A   1      45.975  34.438  31.449  1.00  0.00     0.010 A 
ATOM     80  C   UNL A   1      45.957  36.752  29.877  1.00  0.00     0.020 A 
ATOM     81  C   UNL A   1      46.540  35.615  31.945  1.00  0.00     0.020 A 
ATOM     82  C   UNL A   1      46.537  36.763  31.150  1.00  0.00     0.054 A 
BRANCH  82  83
ATOM     83  S   UNL A   1      47.254  38.310  31.765  1.00  0.00     0.124 S 
ATOM     84  O   UNL A   1      47.993  37.859  32.939  1.00  0.00    -0.237 OA
ATOM     85  O   UNL A   1      48.074  38.751  30.637  1.00  0.00    -0.237 OA
ATOM     86  O   UNL A   1      46.089  39.146  32.045  1.00  0.00    -0.744 OA
ENDBRANCH  82  83
ENDBRANCH  56  77
ENDBRANCH  30  31
ENDBRANCH  23  25
ENDBRANCH  22  23
ENDBRANCH   1  22
TORSDOF 15
ENDMDL
MODEL 2
REMARK VINA RESULT:      -9.8      0.900      8.375
REMARK SMILES Cc1cc(Br)cc2c1O[C@H](C(F)(F)F)C(C(=O)OCCOC(=O)c1ccc(-c3c4nc(c(-c5ccc(S(=O)(=O)[O-])cc5)c5ccc([nH]5)c(-c5ccc(S(=O)(=O)[O-])cc5)c5nc(c(-c6ccc(S(=O)(=O)[O-])cc6)c6ccc3[nH]6)C=C5)C=C4)cc1)=C2
REMARK SMILES IDX 20 1 19 2 18 3 16 4 17 5 15 6 1 7 2 8 3 9 8 10 4 11 7 12
REMARK SMILES IDX 9 13 5 14 6 15 84 16 10 17 11 18 12 19 13 20 14 21 21 22
REMARK SMILES IDX 22 23 23 24 24 25 25 26 83 27 26 28 82 29 27 30 28 31 29 32
REMARK SMILES IDX 76 33 30 34 81 35 75 36 77 37 31 38 80 39 74 40 73 41 32 43
REMARK SMILES IDX 62 44 43 45 61 46 44 47 47 48 60 49 78 50 45 51 46 52 59 54
REMARK SMILES IDX 79 55 48 56 33 57 34 58 42 59 35 60 41 61 36 62 37 63 38 64
REMARK SMILES IDX 39 65 40 66 63 67 64 68 72 69 65 70 71 71 66 72 67 73 68 74
REMARK SMILES IDX 69 75 70 76 49 77 50 78 58 79 51 80 57 81 52 82 53 83 54 84
REMARK SMILES IDX 55 85 56 86
REMARK H PARENT 77 42 47 53
REMARK Flexibility Score: inf
ROOT
ATOM      1  C   UNL A   1      40.452  20.154  26.126  1.00  0.00     0.275 C 
ENDROOT
BRANCH   1   2
ATOM      2  C   UNL A   1      41.980  20.090  26.126  1.00  0.00     0.275 C 
BRANCH   2   3
ATOM      3  O   UNL A   1      42.568  21.408  26.193  1.00  0.00    -0.459 OA
BRANCH   3   4
ATOM      4  C   UNL A   1      43.796  21.523  25.639  1.00  0.00     0.338 C 
ATOM      5  O   UNL A   1      44.161  21.038  24.579  1.00  0.00    -0.246 OA
BRANCH   4   6
ATOM      6  C   UNL A   1      44.683  22.337  26.489  1.00  0.00     0.087 C 
ATOM      7  C   UNL A   1      48.233  25.645  28.210  1.00  0.00     0.048 C 
ATOM      8  C   UNL A   1      46.923  25.100  28.698  1.00  0.00    -0.007 A 
ATOM      9  C   UNL A   1      46.412  25.553  29.928  1.00  0.00     0.023 A 
ATOM     10  C   UNL A   1      46.218  24.123  27.980  1.00  0.00     0.130 A 
ATOM     11  C   UNL A   1      45.211  25.049  30.422  1.00  0.00     0.019 A 
ATOM     12  C   UNL A   1      45.006  23.637  28.478  1.00  0.00     0.019 A 
ATOM     13  O   UNL A   1      46.769  23.668  26.811  1.00  0.00    -0.475 OA
ATOM     14  Br  UNL A   1      44.528  25.680  32.067  1.00  0.00    -0.051 Br
ATOM     15  C   UNL A   1      44.504  24.092  29.704  1.00  0.00     0.027 A 
ATOM     16  C   UNL A   1      44.238  22.690  27.699  1.00  0.00     0.027 C 
ATOM     17  C   UNL A   1      45.958  22.866  25.907  1.00  0.00     0.316 C 
BRANCH  17  18
ATOM     18  C   UNL A   1      45.696  23.672  24.626  1.00  0.00     0.430 C 
ATOM     19  F   UNL A   1      44.413  24.105  24.570  1.00  0.00    -0.167 F 
ATOM     20  F   UNL A   1      46.475  24.781  24.566  1.00  0.00    -0.167 F 
ATOM     21  F   UNL A   1      45.930  22.953  23.506  1.00  0.00    -0.167 F 
ENDBRANCH  17  18
ENDBRANCH   4   6
ENDBRANCH   3   4
ENDBRANCH   2   3
ENDBRANCH   1   2
BRANCH   1  22
ATOM     22  O   UNL A   1      39.984  21.145  27.058  1.00  0.00    -0.458 OA
BRANCH  22  23
ATOM     23  C   UNL A   1      39.284  22.159  26.503  1.00  0.00     0.338 C 
ATOM     24  O   UNL A   1      38.390  22.073  25.678  1.00  0.00    -0.246 OA
BRANCH  23  25
ATOM     25  C   UNL A   1      39.670  23.445  27.104  1.00  0.00     0.060 A 
ATOM     26  C   UNL A   1      39.255  24.611  26.475  1.00  0.00     0.016 A 
ATOM     27  C   UNL A   1      40.624  23.500  28.115  1.00  0.00     0.016 A 
ATOM     28  C   UNL A   1      39.932  25.802  26.709  1.00  0.00     0.010 A 
ATOM     29  C   UNL A   1      41.177  24.737  28.471  1.00  0.00     0.010 A 
ATOM     30  C   UNL A   1      40.887  25.898  27.729  1.00  0.00    -0.014 A 
BRANCH  30  31
ATOM     31  C   UNL A   1      41.587  27.192  27.993  1.00  0.00     0.031 A 
ATOM     32  C   UNL A   1      40.897  28.291  28.769  1.00  0.00     0.074 A 
ATOM     33  C   UNL A   1      42.853  27.384  27.561  1.00  0.00     0.049 A 
ATOM     34  N   UNL A   1      41.257  29.540  28.927  1.00  0.00    -0.248 NA
ATOM     35  C   UNL A   1      39.632  27.949  29.445  1.00  0.00     0.031 C 
ATOM     36  C   UNL A   1      43.675  26.393  26.856  1.00  0.00     0.029 A 
ATOM     37  N   UNL A   1      43.683  28.475  27.663  1.00  0.00    -0.354 N 
ATOM     38  C   UNL A   1      40.241  30.143  29.663  1.00  0.00     0.074 A 
ATOM     39  C   UNL A   1      39.242  29.127  29.912  1.00  0.00     0.031 C 
ATOM     40  C   UNL A   1      44.900  26.895  26.653  1.00  0.00     0.029 A 
ATOM     41  C   UNL A   1      44.919  28.283  27.088  1.00  0.00     0.049 A 
ATOM     42  H   UNL A   1      43.418  29.314  28.106  1.00  0.00     0.167 HD
ATOM     43  C   UNL A   1      40.149  31.425  30.093  1.00  0.00     0.031 A 
ATOM     44  C   UNL A   1      45.940  29.136  26.875  1.00  0.00     0.031 A 
ATOM     45  C   UNL A   1      41.172  32.419  29.881  1.00  0.00     0.049 A 
ATOM     46  C   UNL A   1      45.783  30.569  27.290  1.00  0.00     0.074 A 
ATOM     47  C   UNL A   1      41.176  33.745  30.278  1.00  0.00     0.029 A 
ATOM     48  N   UNL A   1      42.378  32.191  29.236  1.00  0.00    -0.354 N 
ATOM     49  N   UNL A   1      44.783  31.138  27.918  1.00  0.00    -0.248 NA
ATOM     50  C   UNL A   1      46.883  31.481  26.948  1.00  0.00     0.031 C 
ATOM     51  C   UNL A   1      42.360  34.333  29.824  1.00  0.00     0.029 A 
ATOM     52  C   UNL A   1      43.123  33.358  29.202  1.00  0.00     0.049 A 
ATOM     53  H   UNL A   1      42.663  31.328  28.858  1.00  0.00     0.167 HD
ATOM     54  C   UNL A   1      45.138  32.473  28.059  1.00  0.00     0.074 A 
ATOM     55  C   UNL A   1      46.455  32.621  27.474  1.00  0.00     0.031 C 
ATOM     56  C   UNL A   1      44.432  33.488  28.615  1.00  0.00     0.031 A 
BRANCH  43  57
ATOM     57  C   UNL A   1      38.893  31.851  30.811  1.00  0.00    -0.014 A 
ATOM     58  C   UNL A   1      38.768  31.734  32.207  1.00  0.00     0.010 A 
ATOM     59  C   UNL A   1      37.852  32.458  30.083  1.00  0.00     0.010 A 
ATOM     60  C   UNL A   1      37.617  32.195  32.855  1.00  0.00     0.020 A 
ATOM     61  C   UNL A   1      36.712  32.945  30.730  1.00  0.00     0.020 A 
ATOM     62  C   UNL A   1      36.599  32.802  32.113  1.00  0.00     0.054 A 
BRANCH  62  63
ATOM     63  S   UNL A   1      35.141  33.434  32.991  1.00  0.00     0.124 S 
ATOM     64  O   UNL A   1      35.444  33.078  34.375  1.00  0.00    -0.237 OA
ATOM     65  O   UNL A   1      35.182  34.862  32.687  1.00  0.00    -0.237 OA
ATOM     66  O   UNL A   1      34.028  32.703  32.391  1.00  0.00    -0.744 OA
ENDBRANCH  62  63
ENDBRANCH  43  57
BRANCH  44  67
ATOM     67  C   UNL A   1      47.171  28.665  26.179  1.00  0.00    -0.014 A 
ATOM     68  C   UNL A   1      47.092  28.062  24.912  1.00  0.00     0.010 A 
ATOM     69  C   UNL A   1      48.437  28.838  26.771  1.00  0.00     0.010 A 
ATOM     70  C   UNL A   1      48.250  27.634  24.257  1.00  0.00     0.020 A 
ATOM     71  C   UNL A   1      49.601  28.446  26.103  1.00  0.00     0.020 A 
ATOM     72  C   UNL A   1      49.498  27.834  24.854  1.00  0.00     0.054 A 
BRANCH  72  73
ATOM     73  S   UNL A   1      50.989  27.317  23.959  1.00  0.00     0.124 S 
ATOM     74  O   UNL A   1      51.859  28.478  24.122  1.00  0.00    -0.237 OA
ATOM     75  O   UNL A   1      51.390  26.116  24.688  1.00  0.00    -0.237 OA
ATOM     76  O   UNL A   1      50.509  27.080  22.599  1.00  0.00    -0.744 OA
ENDBRANCH  72  73
ENDBRANCH  44  67
BRANCH  56  77
ATOM     77  C   UNL A   1      45.079  34.845  28.643  1.00  0.00    -0.014 A 
ATOM     78  C   UNL A   1      44.822  35.792  27.636  1.00  0.00     0.010 A 
ATOM     79  C   UNL A   1      45.907  35.199  29.724  1.00  0.00     0.010 A 
ATOM     80  C   UNL A   1      45.403  37.060  27.696  1.00  0.00     0.020 A 
ATOM     81  C   UNL A   1      46.465  36.477  29.804  1.00  0.00     0.020 A 
ATOM     82  C   UNL A   1      46.219  37.396  28.782  1.00  0.00     0.054 A 
BRANCH  82  83
ATOM     83  S   UNL A   1      46.919  39.066  28.858  1.00  0.00     0.124 S 
ATOM     84  O   UNL A   1      46.992  39.431  27.446  1.00  0.00    -0.237 OA
ATOM     85  O   UNL A   1      45.924  39.793  29.644  1.00  0.00    -0.237 OA
ATOM     86  O   UNL A   1      48.208  38.874  29.518  1.00  0.00    -0.744 OA
ENDBRANCH  82  83
ENDBRANCH  56  77
ENDBRANCH  30  31
ENDBRANCH  23  25
ENDBRANCH  22  23
ENDBRANCH   1  22
TORSDOF 15
ENDMDL
MODEL 3
REMARK VINA RESULT:      -9.7      4.879     10.627
REMARK SMILES Cc1cc(Br)cc2c1O[C@H](C(F)(F)F)C(C(=O)OCCOC(=O)c1ccc(-c3c4nc(c(-c5ccc(S(=O)(=O)[O-])cc5)c5ccc([nH]5)c(-c5ccc(S(=O)(=O)[O-])cc5)c5nc(c(-c6ccc(S(=O)(=O)[O-])cc6)c6ccc3[nH]6)C=C5)C=C4)cc1)=C2
REMARK SMILES IDX 20 1 19 2 18 3 16 4 17 5 15 6 1 7 2 8 3 9 8 10 4 11 7 12
REMARK SMILES IDX 9 13 5 14 6 15 84 16 10 17 11 18 12 19 13 20 14 21 21 22
REMARK SMILES IDX 22 23 23 24 24 25 25 26 83 27 26 28 82 29 27 30 28 31 29 32
REMARK SMILES IDX 76 33 30 34 81 35 75 36 77 37 31 38 80 39 74 40 73 41 32 43
REMARK SMILES IDX 62 44 43 45 61 46 44 47 47 48 60 49 78 50 45 51 46 52 59 54
REMARK SMILES IDX 79 55 48 56 33 57 34 58 42 59 35 60 41 61 36 62 37 63 38 64
REMARK SMILES IDX 39 65 40 66 63 67 64 68 72 69 65 70 71 71 66 72 67 73 68 74
REMARK SMILES IDX 69 75 70 76 49 77 50 78 58 79 51 80 57 81 52 82 53 83 54 84
REMARK SMILES IDX 55 85 56 86
REMARK H PARENT 77 42 47 53
REMARK Flexibility Score: inf
ROOT
ATOM      1  C   UNL A   1      33.102  28.005  26.866  1.00  0.00     0.275 C 
ENDROOT
BRANCH   1   2
ATOM      2  C   UNL A   1      32.297  27.893  25.570  1.00  0.00     0.275 C 
BRANCH   2   3
ATOM      3  O   UNL A   1      32.399  26.573  24.993  1.00  0.00    -0.459 OA
BRANCH   3   4
ATOM      4  C   UNL A   1      31.803  25.585  25.700  1.00  0.00     0.338 C 
ATOM      5  O   UNL A   1      30.731  25.655  26.282  1.00  0.00    -0.246 OA
BRANCH   4   6
ATOM      6  C   UNL A   1      32.621  24.359  25.683  1.00  0.00     0.087 C 
ATOM      7  C   UNL A   1      34.556  19.705  24.632  1.00  0.00     0.048 C 
ATOM      8  C   UNL A   1      35.089  21.026  25.106  1.00  0.00    -0.007 A 
ATOM      9  C   UNL A   1      36.469  21.160  25.338  1.00  0.00     0.023 A 
ATOM     10  C   UNL A   1      34.240  22.114  25.361  1.00  0.00     0.130 A 
ATOM     11  C   UNL A   1      36.993  22.365  25.803  1.00  0.00     0.019 A 
ATOM     12  C   UNL A   1      34.779  23.321  25.811  1.00  0.00     0.019 A 
ATOM     13  O   UNL A   1      32.896  21.932  25.173  1.00  0.00    -0.475 OA
ATOM     14  Br  UNL A   1      38.852  22.536  26.094  1.00  0.00    -0.051 Br
ATOM     15  C   UNL A   1      36.155  23.447  26.042  1.00  0.00     0.027 A 
ATOM     16  C   UNL A   1      33.916  24.468  25.996  1.00  0.00     0.027 C 
ATOM     17  C   UNL A   1      32.015  23.091  25.163  1.00  0.00     0.316 C 
BRANCH  17  18
ATOM     18  C   UNL A   1      31.456  23.280  23.744  1.00  0.00     0.430 C 
ATOM     19  F   UNL A   1      32.209  24.151  23.029  1.00  0.00    -0.167 F 
ATOM     20  F   UNL A   1      31.458  22.115  23.048  1.00  0.00    -0.167 F 
ATOM     21  F   UNL A   1      30.189  23.748  23.747  1.00  0.00    -0.167 F 
ENDBRANCH  17  18
ENDBRANCH   4   6
ENDBRANCH   3   4
ENDBRANCH   2   3
ENDBRANCH   1   2
BRANCH   1  22
ATOM     22  O   UNL A   1      34.297  28.778  26.657  1.00  0.00    -0.458 OA
BRANCH  22  23
ATOM     23  C   UNL A   1      34.443  29.831  27.493  1.00  0.00     0.338 C 
ATOM     24  O   UNL A   1      33.579  30.611  27.853  1.00  0.00    -0.246 OA
BRANCH  23  25
ATOM     25  C   UNL A   1      35.813  29.882  28.027  1.00  0.00     0.060 A 
ATOM     26  C   UNL A   1      36.848  30.160  27.145  1.00  0.00     0.016 A 
ATOM     27  C   UNL A   1      36.095  29.421  29.309  1.00  0.00     0.016 A 
ATOM     28  C   UNL A   1      38.148  29.790  27.464  1.00  0.00     0.010 A 
ATOM     29  C   UNL A   1      37.429  29.217  29.687  1.00  0.00     0.010 A 
ATOM     30  C   UNL A   1      38.471  29.337  28.749  1.00  0.00    -0.014 A 
BRANCH  30  31
ATOM     31  C   UNL A   1      39.879  28.970  29.093  1.00  0.00     0.031 A 
ATOM     32  C   UNL A   1      40.773  29.956  29.813  1.00  0.00     0.074 A 
ATOM     33  C   UNL A   1      40.361  27.746  28.785  1.00  0.00     0.049 A 
ATOM     34  N   UNL A   1      42.065  29.900  30.018  1.00  0.00    -0.248 NA
ATOM     35  C   UNL A   1      40.138  31.167  30.362  1.00  0.00     0.031 C 
ATOM     36  C   UNL A   1      39.600  26.664  28.150  1.00  0.00     0.029 A 
ATOM     37  N   UNL A   1      41.605  27.194  28.977  1.00  0.00    -0.354 N 
ATOM     38  C   UNL A   1      42.404  31.087  30.662  1.00  0.00     0.074 A 
ATOM     39  C   UNL A   1      41.184  31.851  30.804  1.00  0.00     0.031 C 
ATOM     40  C   UNL A   1      40.367  25.569  28.069  1.00  0.00     0.029 A 
ATOM     41  C   UNL A   1      41.710  25.900  28.519  1.00  0.00     0.049 A 
ATOM     42  H   UNL A   1      42.350  27.679  29.402  1.00  0.00     0.167 HD
ATOM     43  C   UNL A   1      43.619  31.501  31.095  1.00  0.00     0.031 A 
ATOM     44  C   UNL A   1      42.775  25.081  28.413  1.00  0.00     0.031 A 
ATOM     45  C   UNL A   1      44.821  30.712  30.992  1.00  0.00     0.049 A 
ATOM     46  C   UNL A   1      44.124  25.591  28.828  1.00  0.00     0.074 A 
ATOM     47  C   UNL A   1      46.102  31.040  31.402  1.00  0.00     0.029 A 
ATOM     48  N   UNL A   1      44.887  29.432  30.461  1.00  0.00    -0.354 N 
ATOM     49  N   UNL A   1      44.436  26.745  29.365  1.00  0.00    -0.248 NA
ATOM     50  C   UNL A   1      45.267  24.697  28.601  1.00  0.00     0.031 C 
ATOM     51  C   UNL A   1      46.952  29.982  31.068  1.00  0.00     0.029 A 
ATOM     52  C   UNL A   1      46.190  28.967  30.511  1.00  0.00     0.049 A 
ATOM     53  H   UNL A   1      44.121  28.929  30.102  1.00  0.00     0.167 HD
ATOM     54  C   UNL A   1      45.812  26.712  29.553  1.00  0.00     0.074 A 
ATOM     55  C   UNL A   1      46.266  25.414  29.097  1.00  0.00     0.031 C 
ATOM     56  C   UNL A   1      46.627  27.674  30.052  1.00  0.00     0.031 A 
BRANCH  43  57
ATOM     57  C   UNL A   1      43.733  32.880  31.697  1.00  0.00    -0.014 A 
ATOM     58  C   UNL A   1      43.890  34.022  30.893  1.00  0.00     0.010 A 
ATOM     59  C   UNL A   1      43.597  33.040  33.089  1.00  0.00     0.010 A 
ATOM     60  C   UNL A   1      43.930  35.295  31.472  1.00  0.00     0.020 A 
ATOM     61  C   UNL A   1      43.607  34.312  33.669  1.00  0.00     0.020 A 
ATOM     62  C   UNL A   1      43.783  35.432  32.857  1.00  0.00     0.054 A 
BRANCH  62  63
ATOM     63  S   UNL A   1      43.789  37.101  33.571  1.00  0.00     0.124 S 
ATOM     64  O   UNL A   1      43.817  37.941  32.377  1.00  0.00    -0.237 OA
ATOM     65  O   UNL A   1      42.540  37.127  34.328  1.00  0.00    -0.237 OA
ATOM     66  O   UNL A   1      45.006  37.130  34.379  1.00  0.00    -0.744 OA
ENDBRANCH  62  63
ENDBRANCH  43  57
BRANCH  44  67
ATOM     67  C   UNL A   1      42.611  23.718  27.831  1.00  0.00    -0.014 A 
ATOM     68  C   UNL A   1      42.834  23.492  26.462  1.00  0.00     0.010 A 
ATOM     69  C   UNL A   1      42.251  22.630  28.650  1.00  0.00     0.010 A 
ATOM     70  C   UNL A   1      42.693  22.211  25.923  1.00  0.00     0.020 A 
ATOM     71  C   UNL A   1      42.146  21.340  28.122  1.00  0.00     0.020 A 
ATOM     72  C   UNL A   1      42.356  21.141  26.757  1.00  0.00     0.054 A 
BRANCH  72  73
ATOM     73  S   UNL A   1      42.229  19.478  26.042  1.00  0.00     0.124 S 
ATOM     74  O   UNL A   1      42.660  18.637  27.154  1.00  0.00    -0.237 OA
ATOM     75  O   UNL A   1      40.812  19.394  25.694  1.00  0.00    -0.237 OA
ATOM     76  O   UNL A   1      43.142  19.525  24.902  1.00  0.00    -0.744 OA
ENDBRANCH  72  73
ENDBRANCH  44  67
BRANCH  56  77
ATOM     77  C   UNL A   1      48.092  27.352  30.156  1.00  0.00    -0.014 A 
ATOM     78  C   UNL A   1      48.967  27.605  29.085  1.00  0.00     0.010 A 
ATOM     79  C   UNL A   1      48.609  26.846  31.362  1.00  0.00     0.010 A 
ATOM     80  C   UNL A   1      50.331  27.334  29.212  1.00  0.00     0.020 A 
ATOM     81  C   UNL A   1      49.977  26.602  31.503  1.00  0.00     0.020 A 
ATOM     82  C   UNL A   1      50.828  26.837  30.421  1.00  0.00     0.054 A 
BRANCH  82  83
ATOM     83  S   UNL A   1      52.610  26.540  30.571  1.00  0.00     0.124 S 
ATOM     84  O   UNL A   1      52.655  25.411  31.495  1.00  0.00    -0.237 OA
ATOM     85  O   UNL A   1      52.999  26.242  29.194  1.00  0.00    -0.237 OA
ATOM     86  O   UNL A   1      53.129  27.799  31.101  1.00  0.00    -0.744 OA
ENDBRANCH  82  83
ENDBRANCH  56  77
ENDBRANCH  30  31
ENDBRANCH  23  25
ENDBRANCH  22  23
ENDBRANCH   1  22
TORSDOF 15
ENDMDL
