MODEL 1
REMARK VINA RESULT:     -11.2      0.000      0.000
REMARK SMILES C[C@H](C(=O)OCCOC(=O)c1ccc(-c2c3nc(c(-c4ccc(S(=O)(=O)[O-])cc4)c4ccc([nH]4)c(-c4ccc(S(=O)(=O)[O-])cc4)c4nc(c(-c5ccc(S(=O)(=O)[O-])cc5)c5ccc2[nH]5)C=C4)C=C3)cc1)c1ccc2c3cc(Cl)ccc3n(C(=O)c3cocn3)c2c1
REMARK SMILES IDX 6 1 5 2 3 3 4 4 2 5 1 6 71 7 72 8 91 9 73 10 90 11 74 12
REMARK SMILES IDX 82 13 75 14 81 15 76 16 80 17 77 18 79 19 78 20 83 21 84 22
REMARK SMILES IDX 85 23 86 24 89 25 87 26 88 27 7 28 8 29 9 30 10 31 11 32
REMARK SMILES IDX 12 33 70 34 13 35 69 36 14 37 15 38 16 39 63 40 17 41 68 42
REMARK SMILES IDX 62 43 64 44 18 45 67 46 61 47 60 48 19 50 49 51 30 52 48 53
REMARK SMILES IDX 31 54 34 55 47 56 65 57 32 58 33 59 46 61 66 62 35 63 20 64
REMARK SMILES IDX 21 65 29 66 22 67 28 68 23 69 24 70 25 71 26 72 27 73 50 74
REMARK SMILES IDX 51 75 59 76 52 77 58 78 53 79 54 80 55 81 56 82 57 83 36 84
REMARK SMILES IDX 37 85 45 86 38 87 44 88 39 89 40 90 41 91 42 92 43 93
REMARK H PARENT 64 49 34 60
REMARK Flexibility Score: inf
ROOT
ATOM      1  C   UNL A   1      44.666  25.707  26.038  1.00  0.00     0.274 C 
ENDROOT
BRANCH   1   2
ATOM      2  O   UNL A   1      44.920  24.667  27.002  1.00  0.00    -0.462 OA
BRANCH   2   3
ATOM      3  C   UNL A   1      44.819  25.006  28.319  1.00  0.00     0.313 C 
ATOM      4  O   UNL A   1      45.232  26.052  28.805  1.00  0.00    -0.252 OA
BRANCH   3   5
ATOM      5  C   UNL A   1      44.168  23.898  29.150  1.00  0.00     0.126 C 
ATOM      6  C   UNL A   1      43.874  24.305  30.596  1.00  0.00     0.025 C 
BRANCH   5   7
ATOM      7  C   UNL A   1      42.906  23.374  28.492  1.00  0.00    -0.032 A 
ATOM      8  C   UNL A   1      41.755  24.160  28.416  1.00  0.00     0.005 A 
ATOM      9  C   UNL A   1      42.907  22.098  27.914  1.00  0.00     0.032 A 
ATOM     10  C   UNL A   1      40.615  23.697  27.747  1.00  0.00     0.011 A 
ATOM     11  C   UNL A   1      41.744  21.615  27.304  1.00  0.00     0.058 A 
ATOM     12  C   UNL A   1      40.616  22.410  27.166  1.00  0.00     0.008 A 
ATOM     13  N   UNL A   1      41.498  20.372  26.723  1.00  0.00    -0.274 N 
ATOM     14  C   UNL A   1      39.677  21.667  26.398  1.00  0.00     0.009 A 
ATOM     15  C   UNL A   1      40.229  20.405  26.135  1.00  0.00     0.057 A 
ATOM     16  C   UNL A   1      38.385  21.975  25.918  1.00  0.00     0.031 A 
ATOM     17  C   UNL A   1      39.482  19.417  25.464  1.00  0.00     0.029 A 
ATOM     18  C   UNL A   1      37.671  21.010  25.210  1.00  0.00     0.041 A 
ATOM     19  C   UNL A   1      38.206  19.747  24.993  1.00  0.00     0.023 A 
ATOM     20  Cl  UNL A   1      36.099  21.386  24.618  1.00  0.00    -0.084 Cl
BRANCH  13  21
ATOM     21  C   UNL A   1      42.407  19.285  26.791  1.00  0.00     0.284 C 
ATOM     22  O   UNL A   1      42.262  18.519  27.743  1.00  0.00    -0.266 OA
BRANCH  21  23
ATOM     23  C   UNL A   1      43.501  19.074  25.850  1.00  0.00     0.167 A 
ATOM     24  C   UNL A   1      44.535  18.167  25.927  1.00  0.00     0.231 A 
ATOM     25  N   UNL A   1      43.564  19.712  24.619  1.00  0.00    -0.211 NA
ATOM     26  O   UNL A   1      45.256  18.235  24.771  1.00  0.00    -0.451 OA
ATOM     27  C   UNL A   1      44.603  19.170  24.030  1.00  0.00     0.308 A 
ENDBRANCH  21  23
ENDBRANCH  13  21
ENDBRANCH   5   7
ENDBRANCH   3   5
ENDBRANCH   2   3
ENDBRANCH   1   2
BRANCH   1  28
ATOM     28  C   UNL A   1      43.532  25.280  25.112  1.00  0.00     0.275 C 
BRANCH  28  29
ATOM     29  O   UNL A   1      42.325  25.956  25.504  1.00  0.00    -0.458 OA
BRANCH  29  30
ATOM     30  C   UNL A   1      42.384  27.302  25.482  1.00  0.00     0.338 C 
ATOM     31  O   UNL A   1      42.484  28.036  24.503  1.00  0.00    -0.246 OA
BRANCH  30  32
ATOM     32  C   UNL A   1      42.225  27.813  26.844  1.00  0.00     0.060 A 
ATOM     33  C   UNL A   1      41.321  27.181  27.700  1.00  0.00     0.016 A 
ATOM     34  C   UNL A   1      42.872  28.983  27.234  1.00  0.00     0.016 A 
ATOM     35  C   UNL A   1      40.997  27.758  28.920  1.00  0.00     0.010 A 
ATOM     36  C   UNL A   1      42.608  29.516  28.497  1.00  0.00     0.010 A 
ATOM     37  C   UNL A   1      41.648  28.924  29.337  1.00  0.00    -0.014 A 
BRANCH  37  38
ATOM     38  C   UNL A   1      41.297  29.542  30.638  1.00  0.00     0.031 A 
ATOM     39  C   UNL A   1      40.100  30.445  30.737  1.00  0.00     0.074 A 
ATOM     40  C   UNL A   1      42.047  29.285  31.727  1.00  0.00     0.049 A 
ATOM     41  N   UNL A   1      39.733  31.221  31.723  1.00  0.00    -0.248 NA
ATOM     42  C   UNL A   1      39.202  30.484  29.571  1.00  0.00     0.031 C 
ATOM     43  C   UNL A   1      43.195  28.377  31.774  1.00  0.00     0.029 A 
ATOM     44  N   UNL A   1      41.952  29.766  33.008  1.00  0.00    -0.354 N 
ATOM     45  C   UNL A   1      38.595  31.882  31.278  1.00  0.00     0.074 A 
ATOM     46  C   UNL A   1      38.326  31.410  29.936  1.00  0.00     0.031 C 
ATOM     47  C   UNL A   1      43.683  28.348  33.024  1.00  0.00     0.029 A 
ATOM     48  C   UNL A   1      42.936  29.294  33.844  1.00  0.00     0.049 A 
ATOM     49  H   UNL A   1      41.246  30.387  33.301  1.00  0.00     0.167 HD
ATOM     50  C   UNL A   1      37.848  32.806  31.929  1.00  0.00     0.031 A 
ATOM     51  C   UNL A   1      43.233  29.621  35.115  1.00  0.00     0.031 A 
ATOM     52  C   UNL A   1      38.113  33.250  33.271  1.00  0.00     0.049 A 
ATOM     53  C   UNL A   1      42.416  30.672  35.805  1.00  0.00     0.074 A 
ATOM     54  C   UNL A   1      37.434  34.198  34.018  1.00  0.00     0.029 A 
ATOM     55  N   UNL A   1      39.133  32.764  34.075  1.00  0.00    -0.354 N 
ATOM     56  N   UNL A   1      41.387  31.345  35.346  1.00  0.00    -0.248 NA
ATOM     57  C   UNL A   1      42.808  31.024  37.176  1.00  0.00     0.031 C 
ATOM     58  C   UNL A   1      38.062  34.302  35.264  1.00  0.00     0.029 A 
ATOM     59  C   UNL A   1      39.107  33.393  35.307  1.00  0.00     0.049 A 
ATOM     60  H   UNL A   1      39.781  32.071  33.808  1.00  0.00     0.167 HD
ATOM     61  C   UNL A   1      41.008  32.201  36.372  1.00  0.00     0.074 A 
ATOM     62  C   UNL A   1      41.904  31.944  37.484  1.00  0.00     0.031 C 
ATOM     63  C   UNL A   1      40.014  33.122  36.392  1.00  0.00     0.031 A 
BRANCH  50  64
ATOM     64  C   UNL A   1      36.710  33.430  31.172  1.00  0.00    -0.014 A 
ATOM     65  C   UNL A   1      35.404  33.443  31.691  1.00  0.00     0.010 A 
ATOM     66  C   UNL A   1      36.957  34.021  29.918  1.00  0.00     0.010 A 
ATOM     67  C   UNL A   1      34.356  34.001  30.951  1.00  0.00     0.020 A 
ATOM     68  C   UNL A   1      35.915  34.597  29.186  1.00  0.00     0.020 A 
ATOM     69  C   UNL A   1      34.616  34.564  29.699  1.00  0.00     0.054 A 
BRANCH  69  70
ATOM     70  S   UNL A   1      33.243  35.284  28.756  1.00  0.00     0.124 S 
ATOM     71  O   UNL A   1      32.421  35.859  29.817  1.00  0.00    -0.237 OA
ATOM     72  O   UNL A   1      33.915  36.250  27.890  1.00  0.00    -0.237 OA
ATOM     73  O   UNL A   1      32.659  34.136  28.067  1.00  0.00    -0.744 OA
ENDBRANCH  69  70
ENDBRANCH  50  64
BRANCH  51  74
ATOM     74  C   UNL A   1      44.395  28.980  35.785  1.00  0.00    -0.014 A 
ATOM     75  C   UNL A   1      45.673  29.558  35.708  1.00  0.00     0.010 A 
ATOM     76  C   UNL A   1      44.216  27.809  36.544  1.00  0.00     0.010 A 
ATOM     77  C   UNL A   1      46.753  28.974  36.378  1.00  0.00     0.020 A 
ATOM     78  C   UNL A   1      45.287  27.236  37.233  1.00  0.00     0.020 A 
ATOM     79  C   UNL A   1      46.552  27.818  37.139  1.00  0.00     0.054 A 
BRANCH  79  80
ATOM     80  S   UNL A   1      47.945  27.117  38.067  1.00  0.00     0.124 S 
ATOM     81  O   UNL A   1      48.430  26.089  37.153  1.00  0.00    -0.237 OA
ATOM     82  O   UNL A   1      48.825  28.270  38.246  1.00  0.00    -0.237 OA
ATOM     83  O   UNL A   1      47.322  26.625  39.294  1.00  0.00    -0.744 OA
ENDBRANCH  79  80
ENDBRANCH  51  74
BRANCH  63  84
ATOM     84  C   UNL A   1      39.837  33.903  37.663  1.00  0.00    -0.014 A 
ATOM     85  C   UNL A   1      38.957  33.458  38.664  1.00  0.00     0.010 A 
ATOM     86  C   UNL A   1      40.589  35.072  37.870  1.00  0.00     0.010 A 
ATOM     87  C   UNL A   1      38.813  34.187  39.847  1.00  0.00     0.020 A 
ATOM     88  C   UNL A   1      40.460  35.793  39.060  1.00  0.00     0.020 A 
ATOM     89  C   UNL A   1      39.562  35.353  40.035  1.00  0.00     0.054 A 
BRANCH  89  90
ATOM     90  S   UNL A   1      39.392  36.264  41.594  1.00  0.00     0.124 S 
ATOM     91  O   UNL A   1      38.293  35.552  42.241  1.00  0.00    -0.237 OA
ATOM     92  O   UNL A   1      40.703  36.094  42.215  1.00  0.00    -0.237 OA
ATOM     93  O   UNL A   1      39.087  37.627  41.163  1.00  0.00    -0.744 OA
ENDBRANCH  89  90
ENDBRANCH  63  84
ENDBRANCH  37  38
ENDBRANCH  30  32
ENDBRANCH  29  30
ENDBRANCH  28  29
ENDBRANCH   1  28
TORSDOF 17
ENDMDL
MODEL 2
REMARK VINA RESULT:     -10.4      6.581      8.026
REMARK SMILES C[C@H](C(=O)OCCOC(=O)c1ccc(-c2c3nc(c(-c4ccc(S(=O)(=O)[O-])cc4)c4ccc([nH]4)c(-c4ccc(S(=O)(=O)[O-])cc4)c4nc(c(-c5ccc(S(=O)(=O)[O-])cc5)c5ccc2[nH]5)C=C4)C=C3)cc1)c1ccc2c3cc(Cl)ccc3n(C(=O)c3cocn3)c2c1
REMARK SMILES IDX 6 1 5 2 3 3 4 4 2 5 1 6 71 7 72 8 91 9 73 10 90 11 74 12
REMARK SMILES IDX 82 13 75 14 81 15 76 16 80 17 77 18 79 19 78 20 83 21 84 22
REMARK SMILES IDX 85 23 86 24 89 25 87 26 88 27 7 28 8 29 9 30 10 31 11 32
REMARK SMILES IDX 12 33 70 34 13 35 69 36 14 37 15 38 16 39 63 40 17 41 68 42
REMARK SMILES IDX 62 43 64 44 18 45 67 46 61 47 60 48 19 50 49 51 30 52 48 53
REMARK SMILES IDX 31 54 34 55 47 56 65 57 32 58 33 59 46 61 66 62 35 63 20 64
REMARK SMILES IDX 21 65 29 66 22 67 28 68 23 69 24 70 25 71 26 72 27 73 50 74
REMARK SMILES IDX 51 75 59 76 52 77 58 78 53 79 54 80 55 81 56 82 57 83 36 84
REMARK SMILES IDX 37 85 45 86 38 87 44 88 39 89 40 90 41 91 42 92 43 93
REMARK H PARENT 64 49 34 60
REMARK Flexibility Score: inf
ROOT
ATOM      1  C   UNL A   1      44.735  24.305  25.944  1.00  0.00     0.274 C 
ENDROOT
BRANCH   1   2
ATOM      2  O   UNL A   1      44.745  24.840  27.282  1.00  0.00    -0.462 OA
BRANCH   2   3
ATOM      3  C   UNL A   1      43.880  25.860  27.547  1.00  0.00     0.313 C 
ATOM      4  O   UNL A   1      43.931  26.971  27.035  1.00  0.00    -0.252 OA
BRANCH   3   5
ATOM      5  C   UNL A   1      42.848  25.477  28.610  1.00  0.00     0.126 C 
ATOM      6  C   UNL A   1      42.500  26.617  29.570  1.00  0.00     0.025 C 
BRANCH   5   7
ATOM      7  C   UNL A   1      41.582  24.920  27.985  1.00  0.00    -0.032 A 
ATOM      8  C   UNL A   1      40.476  25.739  27.751  1.00  0.00     0.005 A 
ATOM      9  C   UNL A   1      41.536  23.574  27.600  1.00  0.00     0.032 A 
ATOM     10  C   UNL A   1      39.336  25.236  27.111  1.00  0.00     0.011 A 
ATOM     11  C   UNL A   1      40.370  23.061  27.020  1.00  0.00     0.058 A 
ATOM     12  C   UNL A   1      39.290  23.879  26.724  1.00  0.00     0.008 A 
ATOM     13  N   UNL A   1      40.079  21.759  26.617  1.00  0.00    -0.274 N 
ATOM     14  C   UNL A   1      38.339  23.076  26.035  1.00  0.00     0.009 A 
ATOM     15  C   UNL A   1      38.833  21.764  25.980  1.00  0.00     0.057 A 
ATOM     16  C   UNL A   1      37.081  23.368  25.465  1.00  0.00     0.031 A 
ATOM     17  C   UNL A   1      38.059  20.724  25.431  1.00  0.00     0.029 A 
ATOM     18  C   UNL A   1      36.341  22.345  24.876  1.00  0.00     0.041 A 
ATOM     19  C   UNL A   1      36.817  21.040  24.867  1.00  0.00     0.023 A 
ATOM     20  Cl  UNL A   1      34.811  22.701  24.174  1.00  0.00    -0.084 Cl
BRANCH  13  21
ATOM     21  C   UNL A   1      40.928  20.653  26.878  1.00  0.00     0.284 C 
ATOM     22  O   UNL A   1      40.679  20.011  27.897  1.00  0.00    -0.266 OA
BRANCH  21  23
ATOM     23  C   UNL A   1      42.075  20.290  26.054  1.00  0.00     0.167 A 
ATOM     24  C   UNL A   1      43.070  21.106  25.563  1.00  0.00     0.231 A 
ATOM     25  N   UNL A   1      42.397  18.973  25.755  1.00  0.00    -0.211 NA
ATOM     26  O   UNL A   1      44.004  20.327  24.947  1.00  0.00    -0.451 OA
ATOM     27  C   UNL A   1      43.540  19.060  25.119  1.00  0.00     0.308 A 
ENDBRANCH  21  23
ENDBRANCH  13  21
ENDBRANCH   5   7
ENDBRANCH   3   5
ENDBRANCH   2   3
ENDBRANCH   1   2
BRANCH   1  28
ATOM     28  C   UNL A   1      46.165  24.189  25.429  1.00  0.00     0.275 C 
BRANCH  28  29
ATOM     29  O   UNL A   1      46.492  25.369  24.676  1.00  0.00    -0.458 OA
BRANCH  29  30
ATOM     30  C   UNL A   1      47.700  25.906  24.941  1.00  0.00     0.338 C 
ATOM     31  O   UNL A   1      48.805  25.449  24.663  1.00  0.00    -0.246 OA
BRANCH  30  32
ATOM     32  C   UNL A   1      47.517  27.217  25.566  1.00  0.00     0.060 A 
ATOM     33  C   UNL A   1      48.130  27.469  26.796  1.00  0.00     0.016 A 
ATOM     34  C   UNL A   1      46.648  28.148  25.003  1.00  0.00     0.016 A 
ATOM     35  C   UNL A   1      47.815  28.617  27.508  1.00  0.00     0.010 A 
ATOM     36  C   UNL A   1      46.398  29.341  25.682  1.00  0.00     0.010 A 
ATOM     37  C   UNL A   1      46.957  29.572  26.952  1.00  0.00    -0.014 A 
BRANCH  37  38
ATOM     38  C   UNL A   1      46.617  30.795  27.717  1.00  0.00     0.031 A 
ATOM     39  C   UNL A   1      45.389  30.818  28.581  1.00  0.00     0.074 A 
ATOM     40  C   UNL A   1      47.414  31.878  27.641  1.00  0.00     0.049 A 
ATOM     41  N   UNL A   1      44.819  31.833  29.177  1.00  0.00    -0.248 NA
ATOM     42  C   UNL A   1      44.707  29.531  28.799  1.00  0.00     0.031 C 
ATOM     43  C   UNL A   1      48.668  31.959  26.887  1.00  0.00     0.029 A 
ATOM     44  N   UNL A   1      47.289  33.120  28.209  1.00  0.00    -0.354 N 
ATOM     45  C   UNL A   1      43.685  31.320  29.794  1.00  0.00     0.074 A 
ATOM     46  C   UNL A   1      43.649  29.902  29.507  1.00  0.00     0.031 C 
ATOM     47  C   UNL A   1      49.206  33.176  27.057  1.00  0.00     0.029 A 
ATOM     48  C   UNL A   1      48.299  33.984  27.863  1.00  0.00     0.049 A 
ATOM     49  H   UNL A   1      46.547  33.367  28.807  1.00  0.00     0.167 HD
ATOM     50  C   UNL A   1      42.753  31.977  30.526  1.00  0.00     0.031 A 
ATOM     51  C   UNL A   1      48.456  35.296  28.125  1.00  0.00     0.031 A 
ATOM     52  C   UNL A   1      42.811  33.383  30.823  1.00  0.00     0.049 A 
ATOM     53  C   UNL A   1      47.394  36.012  28.906  1.00  0.00     0.074 A 
ATOM     54  C   UNL A   1      41.909  34.154  31.535  1.00  0.00     0.029 A 
ATOM     55  N   UNL A   1      43.840  34.228  30.434  1.00  0.00    -0.354 N 
ATOM     56  N   UNL A   1      46.286  35.530  29.420  1.00  0.00    -0.248 NA
ATOM     57  C   UNL A   1      47.591  37.450  29.129  1.00  0.00     0.031 C 
ATOM     58  C   UNL A   1      42.382  35.471  31.554  1.00  0.00     0.029 A 
ATOM     59  C   UNL A   1      43.596  35.513  30.886  1.00  0.00     0.049 A 
ATOM     60  H   UNL A   1      44.630  33.953  29.913  1.00  0.00     0.167 HD
ATOM     61  C   UNL A   1      45.653  36.607  30.027  1.00  0.00     0.074 A 
ATOM     62  C   UNL A   1      46.512  37.759  29.836  1.00  0.00     0.031 C 
ATOM     63  C   UNL A   1      44.464  36.642  30.677  1.00  0.00     0.031 A 
BRANCH  50  64
ATOM     64  C   UNL A   1      41.569  31.185  31.005  1.00  0.00    -0.014 A 
ATOM     65  C   UNL A   1      40.420  31.032  30.210  1.00  0.00     0.010 A 
ATOM     66  C   UNL A   1      41.613  30.576  32.273  1.00  0.00     0.010 A 
ATOM     67  C   UNL A   1      39.318  30.318  30.691  1.00  0.00     0.020 A 
ATOM     68  C   UNL A   1      40.521  29.845  32.749  1.00  0.00     0.020 A 
ATOM     69  C   UNL A   1      39.372  29.738  31.962  1.00  0.00     0.054 A 
BRANCH  69  70
ATOM     70  S   UNL A   1      37.932  28.814  32.569  1.00  0.00     0.124 S 
ATOM     71  O   UNL A   1      36.970  29.018  31.489  1.00  0.00    -0.237 OA
ATOM     72  O   UNL A   1      38.450  27.454  32.698  1.00  0.00    -0.237 OA
ATOM     73  O   UNL A   1      37.604  29.475  33.830  1.00  0.00    -0.744 OA
ENDBRANCH  69  70
ENDBRANCH  50  64
BRANCH  51  74
ATOM     74  C   UNL A   1      49.640  36.015  27.589  1.00  0.00    -0.014 A 
ATOM     75  C   UNL A   1      50.847  36.042  28.309  1.00  0.00     0.010 A 
ATOM     76  C   UNL A   1      49.578  36.640  26.330  1.00  0.00     0.010 A 
ATOM     77  C   UNL A   1      51.971  36.683  27.778  1.00  0.00     0.020 A 
ATOM     78  C   UNL A   1      50.705  37.261  25.787  1.00  0.00     0.020 A 
ATOM     79  C   UNL A   1      51.893  37.286  26.519  1.00  0.00     0.054 A 
BRANCH  79  80
ATOM     80  S   UNL A   1      53.381  38.044  25.809  1.00  0.00     0.124 S 
ATOM     81  O   UNL A   1      54.446  37.279  26.449  1.00  0.00    -0.237 OA
ATOM     82  O   UNL A   1      53.209  37.813  24.377  1.00  0.00    -0.237 OA
ATOM     83  O   UNL A   1      53.277  39.443  26.220  1.00  0.00    -0.744 OA
ENDBRANCH  79  80
ENDBRANCH  51  74
BRANCH  63  84
ATOM     84  C   UNL A   1      44.038  37.966  31.242  1.00  0.00    -0.014 A 
ATOM     85  C   UNL A   1      44.144  38.229  32.618  1.00  0.00     0.010 A 
ATOM     86  C   UNL A   1      43.563  38.969  30.379  1.00  0.00     0.010 A 
ATOM     87  C   UNL A   1      43.758  39.471  33.128  1.00  0.00     0.020 A 
ATOM     88  C   UNL A   1      43.192  40.218  30.884  1.00  0.00     0.020 A 
ATOM     89  C   UNL A   1      43.279  40.455  32.257  1.00  0.00     0.054 A 
BRANCH  89  90
ATOM     90  S   UNL A   1      42.819  42.075  32.932  1.00  0.00     0.124 S 
ATOM     91  O   UNL A   1      42.274  42.748  31.756  1.00  0.00    -0.237 OA
ATOM     92  O   UNL A   1      41.848  41.733  33.968  1.00  0.00    -0.237 OA
ATOM     93  O   UNL A   1      44.084  42.612  33.428  1.00  0.00    -0.744 OA
ENDBRANCH  89  90
ENDBRANCH  63  84
ENDBRANCH  37  38
ENDBRANCH  30  32
ENDBRANCH  29  30
ENDBRANCH  28  29
ENDBRANCH   1  28
TORSDOF 17
ENDMDL
MODEL 3
REMARK VINA RESULT:     -10.0      5.882     13.842
REMARK SMILES C[C@H](C(=O)OCCOC(=O)c1ccc(-c2c3nc(c(-c4ccc(S(=O)(=O)[O-])cc4)c4ccc([nH]4)c(-c4ccc(S(=O)(=O)[O-])cc4)c4nc(c(-c5ccc(S(=O)(=O)[O-])cc5)c5ccc2[nH]5)C=C4)C=C3)cc1)c1ccc2c3cc(Cl)ccc3n(C(=O)c3cocn3)c2c1
REMARK SMILES IDX 6 1 5 2 3 3 4 4 2 5 1 6 71 7 72 8 91 9 73 10 90 11 74 12
REMARK SMILES IDX 82 13 75 14 81 15 76 16 80 17 77 18 79 19 78 20 83 21 84 22
REMARK SMILES IDX 85 23 86 24 89 25 87 26 88 27 7 28 8 29 9 30 10 31 11 32
REMARK SMILES IDX 12 33 70 34 13 35 69 36 14 37 15 38 16 39 63 40 17 41 68 42
REMARK SMILES IDX 62 43 64 44 18 45 67 46 61 47 60 48 19 50 49 51 30 52 48 53
REMARK SMILES IDX 31 54 34 55 47 56 65 57 32 58 33 59 46 61 66 62 35 63 20 64
REMARK SMILES IDX 21 65 29 66 22 67 28 68 23 69 24 70 25 71 26 72 27 73 50 74
REMARK SMILES IDX 51 75 59 76 52 77 58 78 53 79 54 80 55 81 56 82 57 83 36 84
REMARK SMILES IDX 37 85 45 86 38 87 44 88 39 89 40 90 41 91 42 92 43 93
REMARK H PARENT 64 49 34 60
REMARK Flexibility Score: inf
ROOT
ATOM      1  C   UNL A   1      35.580  31.579  31.625  1.00  0.00     0.274 C 
ENDROOT
BRANCH   1   2
ATOM      2  O   UNL A   1      35.675  31.895  33.028  1.00  0.00    -0.462 OA
BRANCH   2   3
ATOM      3  C   UNL A   1      36.902  32.252  33.500  1.00  0.00     0.313 C 
ATOM      4  O   UNL A   1      37.690  31.491  34.048  1.00  0.00    -0.252 OA
BRANCH   3   5
ATOM      5  C   UNL A   1      37.177  33.747  33.316  1.00  0.00     0.126 C 
ATOM      6  C   UNL A   1      37.592  34.460  34.604  1.00  0.00     0.025 C 
BRANCH   5   7
ATOM      7  C   UNL A   1      38.207  33.996  32.230  1.00  0.00    -0.032 A 
ATOM      8  C   UNL A   1      37.850  33.967  30.880  1.00  0.00     0.005 A 
ATOM      9  C   UNL A   1      39.526  34.302  32.586  1.00  0.00     0.032 A 
ATOM     10  C   UNL A   1      38.789  34.266  29.885  1.00  0.00     0.011 A 
ATOM     11  C   UNL A   1      40.476  34.535  31.585  1.00  0.00     0.058 A 
ATOM     12  C   UNL A   1      40.119  34.572  30.245  1.00  0.00     0.008 A 
ATOM     13  N   UNL A   1      41.840  34.796  31.700  1.00  0.00    -0.274 N 
ATOM     14  C   UNL A   1      41.281  34.956  29.519  1.00  0.00     0.009 A 
ATOM     15  C   UNL A   1      42.342  35.085  30.426  1.00  0.00     0.057 A 
ATOM     16  C   UNL A   1      41.510  35.189  28.145  1.00  0.00     0.031 A 
ATOM     17  C   UNL A   1      43.645  35.371  29.977  1.00  0.00     0.029 A 
ATOM     18  C   UNL A   1      42.791  35.522  27.711  1.00  0.00     0.041 A 
ATOM     19  C   UNL A   1      43.846  35.603  28.611  1.00  0.00     0.023 A 
ATOM     20  Cl  UNL A   1      43.070  35.814  26.038  1.00  0.00    -0.084 Cl
BRANCH  13  21
ATOM     21  C   UNL A   1      42.548  34.722  32.927  1.00  0.00     0.284 C 
ATOM     22  O   UNL A   1      43.043  33.629  33.199  1.00  0.00    -0.266 OA
BRANCH  21  23
ATOM     23  C   UNL A   1      42.663  35.826  33.873  1.00  0.00     0.167 A 
ATOM     24  C   UNL A   1      42.247  35.878  35.185  1.00  0.00     0.231 A 
ATOM     25  N   UNL A   1      43.370  36.986  33.589  1.00  0.00    -0.211 NA
ATOM     26  O   UNL A   1      42.667  37.057  35.726  1.00  0.00    -0.451 OA
ATOM     27  C   UNL A   1      43.348  37.659  34.714  1.00  0.00     0.308 A 
ENDBRANCH  21  23
ENDBRANCH  13  21
ENDBRANCH   5   7
ENDBRANCH   3   5
ENDBRANCH   2   3
ENDBRANCH   1   2
BRANCH   1  28
ATOM     28  C   UNL A   1      36.275  30.249  31.353  1.00  0.00     0.275 C 
BRANCH  28  29
ATOM     29  O   UNL A   1      36.019  29.853  29.995  1.00  0.00    -0.458 OA
BRANCH  29  30
ATOM     30  C   UNL A   1      36.489  30.692  29.051  1.00  0.00     0.338 C 
ATOM     31  O   UNL A   1      35.892  31.607  28.490  1.00  0.00    -0.246 OA
BRANCH  30  32
ATOM     32  C   UNL A   1      37.908  30.412  28.822  1.00  0.00     0.060 A 
ATOM     33  C   UNL A   1      38.289  29.793  27.630  1.00  0.00     0.016 A 
ATOM     34  C   UNL A   1      38.840  30.647  29.829  1.00  0.00     0.016 A 
ATOM     35  C   UNL A   1      39.588  29.332  27.469  1.00  0.00     0.010 A 
ATOM     36  C   UNL A   1      40.166  30.258  29.631  1.00  0.00     0.010 A 
ATOM     37  C   UNL A   1      40.543  29.572  28.462  1.00  0.00    -0.014 A 
BRANCH  37  38
ATOM     38  C   UNL A   1      41.929  29.075  28.292  1.00  0.00     0.031 A 
ATOM     39  C   UNL A   1      43.085  30.026  28.415  1.00  0.00     0.074 A 
ATOM     40  C   UNL A   1      42.147  27.770  28.037  1.00  0.00     0.049 A 
ATOM     41  N   UNL A   1      44.345  29.835  28.124  1.00  0.00    -0.248 NA
ATOM     42  C   UNL A   1      42.782  31.373  28.927  1.00  0.00     0.031 C 
ATOM     43  C   UNL A   1      41.114  26.735  27.958  1.00  0.00     0.029 A 
ATOM     44  N   UNL A   1      43.315  27.091  27.801  1.00  0.00    -0.354 N 
ATOM     45  C   UNL A   1      44.976  31.049  28.364  1.00  0.00     0.074 A 
ATOM     46  C   UNL A   1      43.962  31.970  28.833  1.00  0.00     0.031 C 
ATOM     47  C   UNL A   1      41.695  25.550  27.713  1.00  0.00     0.029 A 
ATOM     48  C   UNL A   1      43.128  25.755  27.540  1.00  0.00     0.049 A 
ATOM     49  H   UNL A   1      44.201  27.519  27.817  1.00  0.00     0.167 HD
ATOM     50  C   UNL A   1      46.282  31.367  28.198  1.00  0.00     0.031 A 
ATOM     51  C   UNL A   1      44.005  24.808  27.156  1.00  0.00     0.031 A 
ATOM     52  C   UNL A   1      47.284  30.437  27.752  1.00  0.00     0.049 A 
ATOM     53  C   UNL A   1      45.440  25.190  26.944  1.00  0.00     0.074 A 
ATOM     54  C   UNL A   1      48.632  30.659  27.528  1.00  0.00     0.029 A 
ATOM     55  N   UNL A   1      47.049  29.098  27.477  1.00  0.00    -0.354 N 
ATOM     56  N   UNL A   1      46.009  26.362  27.102  1.00  0.00    -0.248 NA
ATOM     57  C   UNL A   1      46.347  24.131  26.485  1.00  0.00     0.031 C 
ATOM     58  C   UNL A   1      49.205  29.460  27.092  1.00  0.00     0.029 A 
ATOM     59  C   UNL A   1      48.223  28.482  27.080  1.00  0.00     0.049 A 
ATOM     60  H   UNL A   1      46.173  28.651  27.552  1.00  0.00     0.167 HD
ATOM     61  C   UNL A   1      47.343  26.181  26.760  1.00  0.00     0.074 A 
ATOM     62  C   UNL A   1      47.500  24.782  26.411  1.00  0.00     0.031 C 
ATOM     63  C   UNL A   1      48.348  27.090  26.732  1.00  0.00     0.031 A 
BRANCH  50  64
ATOM     64  C   UNL A   1      46.681  32.794  28.451  1.00  0.00    -0.014 A 
ATOM     65  C   UNL A   1      46.776  33.725  27.402  1.00  0.00     0.010 A 
ATOM     66  C   UNL A   1      46.958  33.211  29.767  1.00  0.00     0.010 A 
ATOM     67  C   UNL A   1      47.181  35.039  27.658  1.00  0.00     0.020 A 
ATOM     68  C   UNL A   1      47.344  34.529  30.028  1.00  0.00     0.020 A 
ATOM     69  C   UNL A   1      47.473  35.429  28.969  1.00  0.00     0.054 A 
BRANCH  69  70
ATOM     70  S   UNL A   1      47.996  37.139  29.281  1.00  0.00     0.124 S 
ATOM     71  O   UNL A   1      48.610  37.501  28.006  1.00  0.00    -0.237 OA
ATOM     72  O   UNL A   1      46.736  37.813  29.584  1.00  0.00    -0.237 OA
ATOM     73  O   UNL A   1      48.921  37.017  30.405  1.00  0.00    -0.744 OA
ENDBRANCH  69  70
ENDBRANCH  50  64
BRANCH  51  74
ATOM     74  C   UNL A   1      43.525  23.425  26.896  1.00  0.00    -0.014 A 
ATOM     75  C   UNL A   1      43.508  22.908  25.590  1.00  0.00     0.010 A 
ATOM     76  C   UNL A   1      43.126  22.603  27.966  1.00  0.00     0.010 A 
ATOM     77  C   UNL A   1      43.098  21.592  25.358  1.00  0.00     0.020 A 
ATOM     78  C   UNL A   1      42.738  21.280  27.740  1.00  0.00     0.020 A 
ATOM     79  C   UNL A   1      42.719  20.785  26.435  1.00  0.00     0.054 A 
BRANCH  79  80
ATOM     80  S   UNL A   1      42.265  19.055  26.127  1.00  0.00     0.124 S 
ATOM     81  O   UNL A   1      42.531  18.437  27.422  1.00  0.00    -0.237 OA
ATOM     82  O   UNL A   1      40.857  19.153  25.751  1.00  0.00    -0.237 OA
ATOM     83  O   UNL A   1      43.163  18.657  25.045  1.00  0.00    -0.744 OA
ENDBRANCH  79  80
ENDBRANCH  51  74
BRANCH  63  84
ATOM     84  C   UNL A   1      49.704  26.592  26.325  1.00  0.00    -0.014 A 
ATOM     85  C   UNL A   1      50.153  26.725  25.000  1.00  0.00     0.010 A 
ATOM     86  C   UNL A   1      50.552  26.019  27.289  1.00  0.00     0.010 A 
ATOM     87  C   UNL A   1      51.423  26.270  24.638  1.00  0.00     0.020 A 
ATOM     88  C   UNL A   1      51.830  25.579  26.934  1.00  0.00     0.020 A 
ATOM     89  C   UNL A   1      52.251  25.695  25.608  1.00  0.00     0.054 A 
BRANCH  89  90
ATOM     90  S   UNL A   1      53.912  25.146  25.129  1.00  0.00     0.124 S 
ATOM     91  O   UNL A   1      54.716  25.591  26.264  1.00  0.00    -0.237 OA
ATOM     92  O   UNL A   1      53.753  23.700  25.000  1.00  0.00    -0.237 OA
ATOM     93  O   UNL A   1      54.158  25.852  23.873  1.00  0.00    -0.744 OA
ENDBRANCH  89  90
ENDBRANCH  63  84
ENDBRANCH  37  38
ENDBRANCH  30  32
ENDBRANCH  29  30
ENDBRANCH  28  29
ENDBRANCH   1  28
TORSDOF 17
ENDMDL
