MODEL 1
REMARK VINA RESULT:      -9.8      0.000      0.000
REMARK SMILES O=C(CS[C@@H]1CCS(=O)(=O)C1)Nc1nc(CC(=O)OCCOC(=O)c2ccc(-c3c4nc(c(-c5ccc(S(=O)(=O)[O-])cc5)c5ccc([nH]5)c(-c5ccc(S(=O)(=O)[O-])cc5)c5nc(c(-c6ccc(S(=O)(=O)[O-])cc6)c6ccc3[nH]6)C=C5)C=C4)cc2)cs1
REMARK SMILES IDX 20 1 19 2 17 3 18 4 16 5 15 6 13 7 14 8 86 9 85 10 12 11
REMARK SMILES IDX 1 12 2 13 3 15 4 16 5 17 6 18 11 19 7 20 8 21 9 22 10 23
REMARK SMILES IDX 21 24 22 25 23 26 24 27 25 28 26 29 84 30 27 31 83 32 28 33
REMARK SMILES IDX 29 34 30 35 77 36 31 37 82 38 76 39 78 40 32 41 81 42 75 43
REMARK SMILES IDX 74 44 33 46 63 47 44 48 62 49 45 50 48 51 61 52 79 53 46 54
REMARK SMILES IDX 47 55 60 57 80 58 49 59 34 60 35 61 43 62 36 63 42 64 37 65
REMARK SMILES IDX 38 66 39 67 40 68 41 69 64 70 65 71 73 72 66 73 72 74 67 75
REMARK SMILES IDX 68 76 69 77 70 78 71 79 50 80 51 81 59 82 52 83 58 84 53 85
REMARK SMILES IDX 54 86 55 87 56 88 57 89
REMARK H PARENT 12 14 78 45 48 56
REMARK Flexibility Score: inf
ROOT
ATOM      1  C   UNL A   1      38.936  22.731  26.481  1.00  0.00     0.274 C 
ENDROOT
BRANCH   1   2
ATOM      2  O   UNL A   1      39.933  21.835  25.959  1.00  0.00    -0.462 OA
BRANCH   2   3
ATOM      3  C   UNL A   1      40.440  20.917  26.826  1.00  0.00     0.312 C 
ATOM      4  O   UNL A   1      40.547  21.096  28.035  1.00  0.00    -0.252 OA
BRANCH   3   5
ATOM      5  C   UNL A   1      40.890  19.636  26.162  1.00  0.00     0.179 C 
BRANCH   5   6
ATOM      6  C   UNL A   1      42.342  19.578  25.826  1.00  0.00     0.065 A 
ATOM      7  C   UNL A   1      44.249  20.533  25.279  1.00  0.00     0.189 A 
ATOM      8  N   UNL A   1      42.991  20.771  25.542  1.00  0.00    -0.224 NA
ATOM      9  S   UNL A   1      44.695  18.892  25.179  1.00  0.00    -0.105 S 
ATOM     10  C   UNL A   1      43.170  18.470  25.828  1.00  0.00     0.093 A 
BRANCH   7  11
ATOM     11  N   UNL A   1      45.278  21.421  25.121  1.00  0.00    -0.301 N 
ATOM     12  O   UNL A   1      44.481  22.386  23.160  1.00  0.00    -0.274 OA
ATOM     13  C   UNL A   1      45.301  22.314  24.074  1.00  0.00     0.236 C 
ATOM     14  H   UNL A   1      46.018  21.421  25.770  1.00  0.00     0.172 HD
BRANCH  13  15
ATOM     15  C   UNL A   1      46.478  23.275  24.063  1.00  0.00     0.170 C 
BRANCH  15  16
ATOM     16  S   UNL A   1      46.406  24.627  25.283  1.00  0.00    -0.148 SA
BRANCH  16  17
ATOM     17  C   UNL A   1      44.599  25.012  25.319  1.00  0.00     0.063 C 
ATOM     18  C   UNL A   1      44.404  26.537  25.460  1.00  0.00     0.031 C 
ATOM     19  C   UNL A   1      43.840  24.429  26.506  1.00  0.00     0.151 C 
ATOM     20  C   UNL A   1      44.618  26.932  26.924  1.00  0.00     0.138 C 
ATOM     21  S   UNL A   1      44.293  25.467  27.881  1.00  0.00     0.151 S 
ATOM     22  O   UNL A   1      45.562  25.007  28.405  1.00  0.00    -0.229 OA
ATOM     23  O   UNL A   1      43.133  25.672  28.719  1.00  0.00    -0.229 OA
ENDBRANCH  16  17
ENDBRANCH  15  16
ENDBRANCH  13  15
ENDBRANCH   7  11
ENDBRANCH   5   6
ENDBRANCH   3   5
ENDBRANCH   2   3
ENDBRANCH   1   2
BRANCH   1  24
ATOM     24  C   UNL A   1      39.577  23.793  27.372  1.00  0.00     0.275 C 
BRANCH  24  25
ATOM     25  O   UNL A   1      39.056  25.092  27.038  1.00  0.00    -0.458 OA
BRANCH  25  26
ATOM     26  C   UNL A   1      39.977  26.051  26.802  1.00  0.00     0.338 C 
ATOM     27  O   UNL A   1      40.673  26.188  25.812  1.00  0.00    -0.246 OA
BRANCH  26  28
ATOM     28  C   UNL A   1      40.030  26.974  27.944  1.00  0.00     0.060 A 
ATOM     29  C   UNL A   1      40.773  28.153  27.861  1.00  0.00     0.016 A 
ATOM     30  C   UNL A   1      39.418  26.604  29.141  1.00  0.00     0.016 A 
ATOM     31  C   UNL A   1      40.926  28.960  28.988  1.00  0.00     0.010 A 
ATOM     32  C   UNL A   1      39.530  27.440  30.254  1.00  0.00     0.010 A 
ATOM     33  C   UNL A   1      40.297  28.616  30.194  1.00  0.00    -0.014 A 
BRANCH  33  34
ATOM     34  C   UNL A   1      40.430  29.478  31.397  1.00  0.00     0.031 A 
ATOM     35  C   UNL A   1      41.540  29.235  32.383  1.00  0.00     0.074 A 
ATOM     36  C   UNL A   1      39.519  30.445  31.628  1.00  0.00     0.049 A 
ATOM     37  N   UNL A   1      41.731  29.776  33.560  1.00  0.00    -0.248 NA
ATOM     38  C   UNL A   1      42.563  28.246  32.005  1.00  0.00     0.031 C 
ATOM     39  C   UNL A   1      38.405  30.789  30.740  1.00  0.00     0.029 A 
ATOM     40  N   UNL A   1      39.373  31.302  32.690  1.00  0.00    -0.354 N 
ATOM     41  C   UNL A   1      42.869  29.169  34.078  1.00  0.00     0.074 A 
ATOM     42  C   UNL A   1      43.324  28.213  33.091  1.00  0.00     0.031 C 
ATOM     43  C   UNL A   1      37.690  31.779  31.296  1.00  0.00     0.029 A 
ATOM     44  C   UNL A   1      38.254  32.097  32.604  1.00  0.00     0.049 A 
ATOM     45  H   UNL A   1      40.009  31.345  33.441  1.00  0.00     0.167 HD
ATOM     46  C   UNL A   1      43.475  29.388  35.269  1.00  0.00     0.031 A 
ATOM     47  C   UNL A   1      37.713  32.954  33.492  1.00  0.00     0.031 A 
ATOM     48  C   UNL A   1      43.027  30.355  36.238  1.00  0.00     0.049 A 
ATOM     49  C   UNL A   1      38.388  33.152  34.822  1.00  0.00     0.074 A 
ATOM     50  C   UNL A   1      43.605  30.685  37.452  1.00  0.00     0.029 A 
ATOM     51  N   UNL A   1      41.893  31.143  36.108  1.00  0.00    -0.354 N 
ATOM     52  N   UNL A   1      39.482  32.593  35.282  1.00  0.00    -0.248 NA
ATOM     53  C   UNL A   1      37.756  34.097  35.753  1.00  0.00     0.031 C 
ATOM     54  C   UNL A   1      42.788  31.628  38.083  1.00  0.00     0.029 A 
ATOM     55  C   UNL A   1      41.736  31.933  37.235  1.00  0.00     0.049 A 
ATOM     56  H   UNL A   1      41.290  31.141  35.331  1.00  0.00     0.167 HD
ATOM     57  C   UNL A   1      39.680  33.135  36.547  1.00  0.00     0.074 A 
ATOM     58  C   UNL A   1      38.606  34.080  36.770  1.00  0.00     0.031 C 
ATOM     59  C   UNL A   1      40.662  32.872  37.444  1.00  0.00     0.031 A 
BRANCH  46  60
ATOM     60  C   UNL A   1      44.674  28.545  35.623  1.00  0.00    -0.014 A 
ATOM     61  C   UNL A   1      44.532  27.227  36.093  1.00  0.00     0.010 A 
ATOM     62  C   UNL A   1      45.966  29.056  35.399  1.00  0.00     0.010 A 
ATOM     63  C   UNL A   1      45.663  26.444  36.350  1.00  0.00     0.020 A 
ATOM     64  C   UNL A   1      47.097  28.267  35.630  1.00  0.00     0.020 A 
ATOM     65  C   UNL A   1      46.938  26.968  36.113  1.00  0.00     0.054 A 
BRANCH  65  66
ATOM     66  S   UNL A   1      48.383  25.909  36.401  1.00  0.00     0.124 S 
ATOM     67  O   UNL A   1      47.787  24.575  36.398  1.00  0.00    -0.237 OA
ATOM     68  O   UNL A   1      49.238  26.216  35.257  1.00  0.00    -0.237 OA
ATOM     69  O   UNL A   1      48.892  26.359  37.695  1.00  0.00    -0.744 OA
ENDBRANCH  65  66
ENDBRANCH  46  60
BRANCH  47  70
ATOM     70  C   UNL A   1      36.436  33.648  33.174  1.00  0.00    -0.014 A 
ATOM     71  C   UNL A   1      35.197  33.041  33.442  1.00  0.00     0.010 A 
ATOM     72  C   UNL A   1      36.454  34.930  32.591  1.00  0.00     0.010 A 
ATOM     73  C   UNL A   1      34.003  33.688  33.110  1.00  0.00     0.020 A 
ATOM     74  C   UNL A   1      35.263  35.595  32.287  1.00  0.00     0.020 A 
ATOM     75  C   UNL A   1      34.044  34.961  32.533  1.00  0.00     0.054 A 
BRANCH  75  76
ATOM     76  S   UNL A   1      32.483  35.797  32.137  1.00  0.00     0.124 S 
ATOM     77  O   UNL A   1      32.647  37.079  32.812  1.00  0.00    -0.237 OA
ATOM     78  O   UNL A   1      32.511  35.841  30.677  1.00  0.00    -0.237 OA
ATOM     79  O   UNL A   1      31.468  34.913  32.707  1.00  0.00    -0.744 OA
ENDBRANCH  75  76
ENDBRANCH  47  70
BRANCH  59  80
ATOM     80  C   UNL A   1      40.643  33.642  38.738  1.00  0.00    -0.014 A 
ATOM     81  C   UNL A   1      41.286  34.886  38.856  1.00  0.00     0.010 A 
ATOM     82  C   UNL A   1      39.925  33.132  39.836  1.00  0.00     0.010 A 
ATOM     83  C   UNL A   1      41.239  35.592  40.061  1.00  0.00     0.020 A 
ATOM     84  C   UNL A   1      39.851  33.850  41.032  1.00  0.00     0.020 A 
ATOM     85  C   UNL A   1      40.522  35.070  41.142  1.00  0.00     0.054 A 
BRANCH  85  86
ATOM     86  S   UNL A   1      40.441  36.025  42.681  1.00  0.00     0.124 S 
ATOM     87  O   UNL A   1      40.025  35.012  43.647  1.00  0.00    -0.237 OA
ATOM     88  O   UNL A   1      41.811  36.512  42.830  1.00  0.00    -0.237 OA
ATOM     89  O   UNL A   1      39.448  37.059  42.395  1.00  0.00    -0.744 OA
ENDBRANCH  85  86
ENDBRANCH  59  80
ENDBRANCH  33  34
ENDBRANCH  26  28
ENDBRANCH  25  26
ENDBRANCH  24  25
ENDBRANCH   1  24
TORSDOF 19
ENDMDL
MODEL 2
REMARK VINA RESULT:      -9.7      6.282     13.501
REMARK SMILES O=C(CS[C@@H]1CCS(=O)(=O)C1)Nc1nc(CC(=O)OCCOC(=O)c2ccc(-c3c4nc(c(-c5ccc(S(=O)(=O)[O-])cc5)c5ccc([nH]5)c(-c5ccc(S(=O)(=O)[O-])cc5)c5nc(c(-c6ccc(S(=O)(=O)[O-])cc6)c6ccc3[nH]6)C=C5)C=C4)cc2)cs1
REMARK SMILES IDX 20 1 19 2 17 3 18 4 16 5 15 6 13 7 14 8 86 9 85 10 12 11
REMARK SMILES IDX 1 12 2 13 3 15 4 16 5 17 6 18 11 19 7 20 8 21 9 22 10 23
REMARK SMILES IDX 21 24 22 25 23 26 24 27 25 28 26 29 84 30 27 31 83 32 28 33
REMARK SMILES IDX 29 34 30 35 77 36 31 37 82 38 76 39 78 40 32 41 81 42 75 43
REMARK SMILES IDX 74 44 33 46 63 47 44 48 62 49 45 50 48 51 61 52 79 53 46 54
REMARK SMILES IDX 47 55 60 57 80 58 49 59 34 60 35 61 43 62 36 63 42 64 37 65
REMARK SMILES IDX 38 66 39 67 40 68 41 69 64 70 65 71 73 72 66 73 72 74 67 75
REMARK SMILES IDX 68 76 69 77 70 78 71 79 50 80 51 81 59 82 52 83 58 84 53 85
REMARK SMILES IDX 54 86 55 87 56 88 57 89
REMARK H PARENT 12 14 78 45 48 56
REMARK Flexibility Score: inf
ROOT
ATOM      1  C   UNL A   1      35.151  33.694  31.341  1.00  0.00     0.274 C 
ENDROOT
BRANCH   1   2
ATOM      2  O   UNL A   1      34.099  33.874  30.376  1.00  0.00    -0.462 OA
BRANCH   2   3
ATOM      3  C   UNL A   1      34.482  34.009  29.077  1.00  0.00     0.312 C 
ATOM      4  O   UNL A   1      35.488  34.609  28.714  1.00  0.00    -0.252 OA
BRANCH   3   5
ATOM      5  C   UNL A   1      33.535  33.362  28.093  1.00  0.00     0.179 C 
BRANCH   5   6
ATOM      6  C   UNL A   1      33.829  31.934  27.781  1.00  0.00     0.065 A 
ATOM      7  C   UNL A   1      33.259  29.964  26.981  1.00  0.00     0.189 A 
ATOM      8  N   UNL A   1      32.828  31.179  27.187  1.00  0.00    -0.224 NA
ATOM      9  S   UNL A   1      34.792  29.594  27.627  1.00  0.00    -0.105 S 
ATOM     10  C   UNL A   1      35.025  31.259  27.945  1.00  0.00     0.093 A 
BRANCH   7  11
ATOM     11  N   UNL A   1      32.675  28.951  26.270  1.00  0.00    -0.301 N 
ATOM     12  O   UNL A   1      31.415  28.101  28.032  1.00  0.00    -0.274 OA
ATOM     13  C   UNL A   1      31.760  28.102  26.851  1.00  0.00     0.236 C 
ATOM     14  H   UNL A   1      32.913  28.827  25.324  1.00  0.00     0.172 HD
BRANCH  13  15
ATOM     15  C   UNL A   1      31.153  27.064  25.923  1.00  0.00     0.170 C 
BRANCH  15  16
ATOM     16  S   UNL A   1      32.343  26.023  25.015  1.00  0.00    -0.148 SA
BRANCH  16  17
ATOM     17  C   UNL A   1      31.389  25.594  23.492  1.00  0.00     0.063 C 
ATOM     18  C   UNL A   1      30.952  24.115  23.562  1.00  0.00     0.031 C 
ATOM     19  C   UNL A   1      32.179  25.685  22.191  1.00  0.00     0.151 C 
ATOM     20  C   UNL A   1      32.141  23.227  23.188  1.00  0.00     0.138 C 
ATOM     21  S   UNL A   1      33.216  24.237  22.192  1.00  0.00     0.151 S 
ATOM     22  O   UNL A   1      34.394  24.518  22.984  1.00  0.00    -0.229 OA
ATOM     23  O   UNL A   1      33.287  23.708  20.849  1.00  0.00    -0.229 OA
ENDBRANCH  16  17
ENDBRANCH  15  16
ENDBRANCH  13  15
ENDBRANCH   7  11
ENDBRANCH   5   6
ENDBRANCH   3   5
ENDBRANCH   2   3
ENDBRANCH   1   2
BRANCH   1  24
ATOM     24  C   UNL A   1      35.321  32.215  31.683  1.00  0.00     0.275 C 
BRANCH  24  25
ATOM     25  O   UNL A   1      36.557  31.725  31.133  1.00  0.00    -0.458 OA
BRANCH  25  26
ATOM     26  C   UNL A   1      37.133  30.704  31.804  1.00  0.00     0.338 C 
ATOM     27  O   UNL A   1      36.744  30.172  32.829  1.00  0.00    -0.246 OA
BRANCH  26  28
ATOM     28  C   UNL A   1      38.348  30.274  31.098  1.00  0.00     0.060 A 
ATOM     29  C   UNL A   1      39.424  29.742  31.812  1.00  0.00     0.016 A 
ATOM     30  C   UNL A   1      38.451  30.506  29.728  1.00  0.00     0.016 A 
ATOM     31  C   UNL A   1      40.622  29.457  31.155  1.00  0.00     0.010 A 
ATOM     32  C   UNL A   1      39.634  30.173  29.063  1.00  0.00     0.010 A 
ATOM     33  C   UNL A   1      40.734  29.661  29.772  1.00  0.00    -0.014 A 
BRANCH  33  34
ATOM     34  C   UNL A   1      41.995  29.341  29.053  1.00  0.00     0.031 A 
ATOM     35  C   UNL A   1      42.217  27.962  28.493  1.00  0.00     0.074 A 
ATOM     36  C   UNL A   1      42.960  30.276  28.951  1.00  0.00     0.049 A 
ATOM     37  N   UNL A   1      43.303  27.449  27.973  1.00  0.00    -0.248 NA
ATOM     38  C   UNL A   1      41.075  27.034  28.534  1.00  0.00     0.031 C 
ATOM     39  C   UNL A   1      42.860  31.654  29.439  1.00  0.00     0.029 A 
ATOM     40  N   UNL A   1      44.225  30.204  28.422  1.00  0.00    -0.354 N 
ATOM     41  C   UNL A   1      42.989  26.130  27.661  1.00  0.00     0.074 A 
ATOM     42  C   UNL A   1      41.613  25.920  28.055  1.00  0.00     0.031 C 
ATOM     43  C   UNL A   1      44.013  32.294  29.192  1.00  0.00     0.029 A 
ATOM     44  C   UNL A   1      44.955  31.358  28.586  1.00  0.00     0.049 A 
ATOM     45  H   UNL A   1      44.576  29.404  27.969  1.00  0.00     0.167 HD
ATOM     46  C   UNL A   1      43.779  25.184  27.100  1.00  0.00     0.031 A 
ATOM     47  C   UNL A   1      46.249  31.625  28.322  1.00  0.00     0.031 A 
ATOM     48  C   UNL A   1      45.143  25.408  26.692  1.00  0.00     0.049 A 
ATOM     49  C   UNL A   1      47.114  30.544  27.731  1.00  0.00     0.074 A 
ATOM     50  C   UNL A   1      46.008  24.525  26.068  1.00  0.00     0.029 A 
ATOM     51  N   UNL A   1      45.841  26.593  26.871  1.00  0.00    -0.354 N 
ATOM     52  N   UNL A   1      46.791  29.314  27.413  1.00  0.00    -0.248 NA
ATOM     53  C   UNL A   1      48.517  30.888  27.464  1.00  0.00     0.031 C 
ATOM     54  C   UNL A   1      47.247  25.156  25.924  1.00  0.00     0.029 A 
ATOM     55  C   UNL A   1      47.136  26.453  26.400  1.00  0.00     0.049 A 
ATOM     56  H   UNL A   1      45.472  27.412  27.272  1.00  0.00     0.167 HD
ATOM     57  C   UNL A   1      47.946  28.744  26.888  1.00  0.00     0.074 A 
ATOM     58  C   UNL A   1      48.967  29.771  26.912  1.00  0.00     0.031 C 
ATOM     59  C   UNL A   1      48.143  27.483  26.429  1.00  0.00     0.031 A 
BRANCH  46  60
ATOM     60  C   UNL A   1      43.212  23.799  26.921  1.00  0.00    -0.014 A 
ATOM     61  C   UNL A   1      42.665  23.381  25.695  1.00  0.00     0.010 A 
ATOM     62  C   UNL A   1      43.309  22.874  27.977  1.00  0.00     0.010 A 
ATOM     63  C   UNL A   1      42.207  22.069  25.536  1.00  0.00     0.020 A 
ATOM     64  C   UNL A   1      42.876  21.554  27.813  1.00  0.00     0.020 A 
ATOM     65  C   UNL A   1      42.319  21.163  26.596  1.00  0.00     0.054 A 
BRANCH  65  66
ATOM     66  S   UNL A   1      41.770  19.452  26.342  1.00  0.00     0.124 S 
ATOM     67  O   UNL A   1      40.337  19.625  26.112  1.00  0.00    -0.237 OA
ATOM     68  O   UNL A   1      42.546  19.035  25.177  1.00  0.00    -0.237 OA
ATOM     69  O   UNL A   1      42.121  18.784  27.593  1.00  0.00    -0.744 OA
ENDBRANCH  65  66
ENDBRANCH  46  60
BRANCH  47  70
ATOM     70  C   UNL A   1      46.820  32.956  28.665  1.00  0.00    -0.014 A 
ATOM     71  C   UNL A   1      46.788  34.015  27.742  1.00  0.00     0.010 A 
ATOM     72  C   UNL A   1      47.409  33.169  29.926  1.00  0.00     0.010 A 
ATOM     73  C   UNL A   1      47.356  35.252  28.061  1.00  0.00     0.020 A 
ATOM     74  C   UNL A   1      47.949  34.413  30.262  1.00  0.00     0.020 A 
ATOM     75  C   UNL A   1      47.934  35.443  29.320  1.00  0.00     0.054 A 
BRANCH  75  76
ATOM     76  S   UNL A   1      48.639  37.064  29.726  1.00  0.00     0.124 S 
ATOM     77  O   UNL A   1      47.660  37.974  29.142  1.00  0.00    -0.237 OA
ATOM     78  O   UNL A   1      48.684  37.032  31.186  1.00  0.00    -0.237 OA
ATOM     79  O   UNL A   1      49.945  37.043  29.070  1.00  0.00    -0.744 OA
ENDBRANCH  75  76
ENDBRANCH  47  70
BRANCH  59  80
ATOM     80  C   UNL A   1      49.505  27.151  25.881  1.00  0.00    -0.014 A 
ATOM     81  C   UNL A   1      49.764  27.179  24.499  1.00  0.00     0.010 A 
ATOM     82  C   UNL A   1      50.556  26.857  26.770  1.00  0.00     0.010 A 
ATOM     83  C   UNL A   1      51.041  26.886  24.015  1.00  0.00     0.020 A 
ATOM     84  C   UNL A   1      51.841  26.593  26.291  1.00  0.00     0.020 A 
ATOM     85  C   UNL A   1      52.072  26.595  24.913  1.00  0.00     0.054 A 
BRANCH  85  86
ATOM     86  S   UNL A   1      53.731  26.259  24.261  1.00  0.00     0.124 S 
ATOM     87  O   UNL A   1      53.997  24.920  24.781  1.00  0.00    -0.237 OA
ATOM     88  O   UNL A   1      53.532  26.345  22.816  1.00  0.00    -0.237 OA
ATOM     89  O   UNL A   1      54.551  27.324  24.835  1.00  0.00    -0.744 OA
ENDBRANCH  85  86
ENDBRANCH  59  80
ENDBRANCH  33  34
ENDBRANCH  26  28
ENDBRANCH  25  26
ENDBRANCH  24  25
ENDBRANCH   1  24
TORSDOF 19
ENDMDL
MODEL 3
REMARK VINA RESULT:      -9.7      2.973      9.270
REMARK SMILES O=C(CS[C@@H]1CCS(=O)(=O)C1)Nc1nc(CC(=O)OCCOC(=O)c2ccc(-c3c4nc(c(-c5ccc(S(=O)(=O)[O-])cc5)c5ccc([nH]5)c(-c5ccc(S(=O)(=O)[O-])cc5)c5nc(c(-c6ccc(S(=O)(=O)[O-])cc6)c6ccc3[nH]6)C=C5)C=C4)cc2)cs1
REMARK SMILES IDX 20 1 19 2 17 3 18 4 16 5 15 6 13 7 14 8 86 9 85 10 12 11
REMARK SMILES IDX 1 12 2 13 3 15 4 16 5 17 6 18 11 19 7 20 8 21 9 22 10 23
REMARK SMILES IDX 21 24 22 25 23 26 24 27 25 28 26 29 84 30 27 31 83 32 28 33
REMARK SMILES IDX 29 34 30 35 77 36 31 37 82 38 76 39 78 40 32 41 81 42 75 43
REMARK SMILES IDX 74 44 33 46 63 47 44 48 62 49 45 50 48 51 61 52 79 53 46 54
REMARK SMILES IDX 47 55 60 57 80 58 49 59 34 60 35 61 43 62 36 63 42 64 37 65
REMARK SMILES IDX 38 66 39 67 40 68 41 69 64 70 65 71 73 72 66 73 72 74 67 75
REMARK SMILES IDX 68 76 69 77 70 78 71 79 50 80 51 81 59 82 52 83 58 84 53 85
REMARK SMILES IDX 54 86 55 87 56 88 57 89
REMARK H PARENT 12 14 78 45 48 56
REMARK Flexibility Score: inf
ROOT
ATOM      1  C   UNL A   1      44.714  23.659  24.934  1.00  0.00     0.274 C 
ENDROOT
BRANCH   1   2
ATOM      2  O   UNL A   1      44.711  22.459  25.729  1.00  0.00    -0.462 OA
BRANCH   2   3
ATOM      3  C   UNL A   1      44.299  21.320  25.108  1.00  0.00     0.312 C 
ATOM      4  O   UNL A   1      44.627  20.997  23.971  1.00  0.00    -0.252 OA
BRANCH   3   5
ATOM      5  C   UNL A   1      43.365  20.476  25.944  1.00  0.00     0.179 C 
BRANCH   5   6
ATOM      6  C   UNL A   1      42.129  21.172  26.405  1.00  0.00     0.065 A 
ATOM      7  C   UNL A   1      40.113  21.984  26.057  1.00  0.00     0.189 A 
ATOM      8  N   UNL A   1      41.113  21.371  25.482  1.00  0.00    -0.224 NA
ATOM      9  S   UNL A   1      40.378  22.513  27.654  1.00  0.00    -0.105 S 
ATOM     10  C   UNL A   1      41.822  21.596  27.685  1.00  0.00     0.093 A 
BRANCH   7  11
ATOM     11  N   UNL A   1      38.854  22.220  25.574  1.00  0.00    -0.301 N 
ATOM     12  O   UNL A   1      38.297  19.989  25.220  1.00  0.00    -0.274 OA
ATOM     13  C   UNL A   1      38.018  21.187  25.215  1.00  0.00     0.236 C 
ATOM     14  H   UNL A   1      38.540  23.148  25.482  1.00  0.00     0.172 HD
BRANCH  13  15
ATOM     15  C   UNL A   1      36.632  21.601  24.752  1.00  0.00     0.170 C 
BRANCH  15  16
ATOM     16  S   UNL A   1      35.480  22.119  26.067  1.00  0.00    -0.148 SA
BRANCH  16  17
ATOM     17  C   UNL A   1      33.902  22.331  25.129  1.00  0.00     0.063 C 
ATOM     18  C   UNL A   1      33.581  23.835  25.002  1.00  0.00     0.031 C 
ATOM     19  C   UNL A   1      32.668  21.743  25.804  1.00  0.00     0.151 C 
ATOM     20  C   UNL A   1      32.979  24.328  26.320  1.00  0.00     0.138 C 
ATOM     21  S   UNL A   1      32.281  22.893  27.109  1.00  0.00     0.151 S 
ATOM     22  O   UNL A   1      33.113  22.585  28.253  1.00  0.00    -0.229 OA
ATOM     23  O   UNL A   1      30.845  23.031  27.204  1.00  0.00    -0.229 OA
ENDBRANCH  16  17
ENDBRANCH  15  16
ENDBRANCH  13  15
ENDBRANCH   7  11
ENDBRANCH   5   6
ENDBRANCH   3   5
ENDBRANCH   2   3
ENDBRANCH   1   2
BRANCH   1  24
ATOM     24  C   UNL A   1      43.311  24.260  24.861  1.00  0.00     0.275 C 
BRANCH  24  25
ATOM     25  O   UNL A   1      43.042  25.020  26.053  1.00  0.00    -0.458 OA
BRANCH  25  26
ATOM     26  C   UNL A   1      42.595  26.280  25.857  1.00  0.00     0.338 C 
ATOM     27  O   UNL A   1      42.429  26.854  24.795  1.00  0.00    -0.246 OA
BRANCH  26  28
ATOM     28  C   UNL A   1      42.299  26.904  27.153  1.00  0.00     0.060 A 
ATOM     29  C   UNL A   1      41.415  26.291  28.043  1.00  0.00     0.016 A 
ATOM     30  C   UNL A   1      42.826  28.164  27.433  1.00  0.00     0.016 A 
ATOM     31  C   UNL A   1      41.037  26.949  29.214  1.00  0.00     0.010 A 
ATOM     32  C   UNL A   1      42.486  28.799  28.630  1.00  0.00     0.010 A 
ATOM     33  C   UNL A   1      41.577  28.206  29.523  1.00  0.00    -0.014 A 
BRANCH  33  34
ATOM     34  C   UNL A   1      41.203  28.910  30.777  1.00  0.00     0.031 A 
ATOM     35  C   UNL A   1      40.029  29.851  30.796  1.00  0.00     0.074 A 
ATOM     36  C   UNL A   1      41.952  28.741  31.885  1.00  0.00     0.049 A 
ATOM     37  N   UNL A   1      39.642  30.667  31.743  1.00  0.00    -0.248 NA
ATOM     38  C   UNL A   1      39.188  29.892  29.588  1.00  0.00     0.031 C 
ATOM     39  C   UNL A   1      43.105  27.843  31.999  1.00  0.00     0.029 A 
ATOM     40  N   UNL A   1      41.869  29.332  33.121  1.00  0.00    -0.354 N 
ATOM     41  C   UNL A   1      38.539  31.345  31.234  1.00  0.00     0.074 A 
ATOM     42  C   UNL A   1      38.322  30.849  29.893  1.00  0.00     0.031 C 
ATOM     43  C   UNL A   1      43.624  27.948  33.232  1.00  0.00     0.029 A 
ATOM     44  C   UNL A   1      42.882  28.961  33.975  1.00  0.00     0.049 A 
ATOM     45  H   UNL A   1      41.154  29.959  33.372  1.00  0.00     0.167 HD
ATOM     46  C   UNL A   1      37.781  32.294  31.833  1.00  0.00     0.031 A 
ATOM     47  C   UNL A   1      43.207  29.414  35.202  1.00  0.00     0.031 A 
ATOM     48  C   UNL A   1      37.993  32.767  33.178  1.00  0.00     0.049 A 
ATOM     49  C   UNL A   1      42.369  30.495  35.829  1.00  0.00     0.074 A 
ATOM     50  C   UNL A   1      37.246  33.690  33.890  1.00  0.00     0.029 A 
ATOM     51  N   UNL A   1      39.026  32.361  34.009  1.00  0.00    -0.354 N 
ATOM     52  N   UNL A   1      41.311  31.100  35.347  1.00  0.00    -0.248 NA
ATOM     53  C   UNL A   1      42.769  30.953  37.167  1.00  0.00     0.031 C 
ATOM     54  C   UNL A   1      37.862  33.888  35.129  1.00  0.00     0.029 A 
ATOM     55  C   UNL A   1      38.955  33.041  35.215  1.00  0.00     0.049 A 
ATOM     56  H   UNL A   1      39.707  31.690  33.779  1.00  0.00     0.167 HD
ATOM     57  C   UNL A   1      40.906  31.995  36.331  1.00  0.00     0.074 A 
ATOM     58  C   UNL A   1      41.820  31.837  37.443  1.00  0.00     0.031 C 
ATOM     59  C   UNL A   1      39.871  32.872  36.314  1.00  0.00     0.031 A 
BRANCH  46  60
ATOM     60  C   UNL A   1      36.668  32.923  31.036  1.00  0.00    -0.014 A 
ATOM     61  C   UNL A   1      35.319  32.757  31.399  1.00  0.00     0.010 A 
ATOM     62  C   UNL A   1      36.986  33.764  29.953  1.00  0.00     0.010 A 
ATOM     63  C   UNL A   1      34.310  33.407  30.681  1.00  0.00     0.020 A 
ATOM     64  C   UNL A   1      35.982  34.435  29.250  1.00  0.00     0.020 A 
ATOM     65  C   UNL A   1      34.648  34.245  29.612  1.00  0.00     0.054 A 
BRANCH  65  66
ATOM     66  S   UNL A   1      33.321  35.119  28.736  1.00  0.00     0.124 S 
ATOM     67  O   UNL A   1      32.724  34.047  27.943  1.00  0.00    -0.237 OA
ATOM     68  O   UNL A   1      32.495  35.626  29.829  1.00  0.00    -0.237 OA
ATOM     69  O   UNL A   1      34.027  36.141  27.966  1.00  0.00    -0.744 OA
ENDBRANCH  65  66
ENDBRANCH  46  60
BRANCH  47  70
ATOM     70  C   UNL A   1      44.414  28.886  35.895  1.00  0.00    -0.014 A 
ATOM     71  C   UNL A   1      44.336  27.746  36.712  1.00  0.00     0.010 A 
ATOM     72  C   UNL A   1      45.656  29.532  35.742  1.00  0.00     0.010 A 
ATOM     73  C   UNL A   1      45.469  27.276  37.385  1.00  0.00     0.020 A 
ATOM     74  C   UNL A   1      46.798  29.048  36.386  1.00  0.00     0.020 A 
ATOM     75  C   UNL A   1      46.693  27.932  37.218  1.00  0.00     0.054 A 
BRANCH  75  76
ATOM     76  S   UNL A   1      48.157  27.290  38.076  1.00  0.00     0.124 S 
ATOM     77  O   UNL A   1      49.048  28.445  38.058  1.00  0.00    -0.237 OA
ATOM     78  O   UNL A   1      47.620  26.923  39.384  1.00  0.00    -0.237 OA
ATOM     79  O   UNL A   1      48.574  26.164  37.243  1.00  0.00    -0.744 OA
ENDBRANCH  75  76
ENDBRANCH  47  70
BRANCH  59  80
ATOM     80  C   UNL A   1      39.649  33.704  37.549  1.00  0.00    -0.014 A 
ATOM     81  C   UNL A   1      38.877  33.225  38.623  1.00  0.00     0.010 A 
ATOM     82  C   UNL A   1      40.265  34.964  37.655  1.00  0.00     0.010 A 
ATOM     83  C   UNL A   1      38.700  34.006  39.767  1.00  0.00     0.020 A 
ATOM     84  C   UNL A   1      40.114  35.735  38.810  1.00  0.00     0.020 A 
ATOM     85  C   UNL A   1      39.320  35.257  39.854  1.00  0.00     0.054 A 
BRANCH  85  86
ATOM     86  S   UNL A   1      39.109  36.234  41.368  1.00  0.00     0.124 S 
ATOM     87  O   UNL A   1      38.882  37.575  40.835  1.00  0.00    -0.237 OA
ATOM     88  O   UNL A   1      37.951  35.604  41.998  1.00  0.00    -0.237 OA
ATOM     89  O   UNL A   1      40.373  36.051  42.078  1.00  0.00    -0.744 OA
ENDBRANCH  85  86
ENDBRANCH  59  80
ENDBRANCH  33  34
ENDBRANCH  26  28
ENDBRANCH  25  26
ENDBRANCH  24  25
ENDBRANCH   1  24
TORSDOF 19
ENDMDL
