MODEL 1
REMARK VINA RESULT:     -11.0      0.000      0.000
REMARK SMILES CCc1cc(OC(F)(F)F)cc2c1O[C@@H](C(F)(F)F)C(C(=O)OCCOC(=O)c1ccc(-c3c4nc(c(-c5ccc(S(=O)(=O)[O-])cc5)c5ccc([nH]5)c(-c5ccc(S(=O)(=O)[O-])cc5)c5nc(c(-c6ccc(S(=O)(=O)[O-])cc6)c6ccc3[nH]6)C=C5)C=C4)cc1)=C2
REMARK SMILES IDX 25 1 24 2 23 3 21 4 22 5 20 6 3 7 4 8 13 9 5 10 12 11 14 12
REMARK SMILES IDX 11 13 89 14 15 15 2 16 1 17 6 18 7 19 8 20 9 21 10 22 16 23
REMARK SMILES IDX 17 24 18 25 19 26 26 27 27 28 28 29 29 30 30 31 88 32 31 33
REMARK SMILES IDX 87 34 32 35 33 36 34 37 81 38 35 39 86 40 80 41 82 42 36 43
REMARK SMILES IDX 85 44 79 45 78 46 37 48 67 49 48 50 66 51 49 52 52 53 65 54
REMARK SMILES IDX 83 55 50 56 51 57 64 59 84 60 53 61 38 62 39 63 47 64 40 65
REMARK SMILES IDX 46 66 41 67 42 68 43 69 44 70 45 71 68 72 69 73 77 74 70 75
REMARK SMILES IDX 76 76 71 77 72 78 73 79 74 80 75 81 54 82 55 83 63 84 56 85
REMARK SMILES IDX 62 86 57 87 58 88 59 89 60 90 61 91
REMARK H PARENT 82 47 52 58
REMARK Flexibility Score: inf
ROOT
ATOM      1  C   UNL A   1      32.289  29.197  27.320  1.00  0.00     0.275 C 
ENDROOT
BRANCH   1   2
ATOM      2  C   UNL A   1      31.745  29.119  25.890  1.00  0.00     0.275 C 
BRANCH   2   3
ATOM      3  O   UNL A   1      31.654  27.757  25.421  1.00  0.00    -0.459 OA
BRANCH   3   4
ATOM      4  C   UNL A   1      32.524  27.416  24.434  1.00  0.00     0.338 C 
ATOM      5  O   UNL A   1      33.018  28.192  23.640  1.00  0.00    -0.246 OA
BRANCH   4   6
ATOM      6  C   UNL A   1      32.846  25.971  24.449  1.00  0.00     0.087 C 
ATOM      7  C   UNL A   1      33.405  21.825  24.478  1.00  0.00    -0.002 A 
ATOM      8  C   UNL A   1      34.630  21.307  24.938  1.00  0.00     0.054 A 
ATOM      9  C   UNL A   1      33.197  23.204  24.598  1.00  0.00     0.131 A 
ATOM     10  C   UNL A   1      35.616  22.138  25.475  1.00  0.00     0.130 A 
ATOM     11  C   UNL A   1      34.210  24.069  25.040  1.00  0.00     0.021 A 
ATOM     12  O   UNL A   1      31.938  23.695  24.382  1.00  0.00    -0.475 OA
ATOM     13  C   UNL A   1      35.419  23.526  25.481  1.00  0.00     0.058 A 
ATOM     14  C   UNL A   1      33.955  25.515  25.064  1.00  0.00     0.027 C 
ATOM     15  C   UNL A   1      31.902  25.003  23.760  1.00  0.00     0.316 C 
BRANCH   7  16
ATOM     16  C   UNL A   1      32.402  20.838  23.913  1.00  0.00     0.036 C 
ATOM     17  C   UNL A   1      32.031  20.944  22.437  1.00  0.00     0.009 C 
ENDBRANCH   7  16
BRANCH  10  18
ATOM     18  O   UNL A   1      36.803  21.720  26.012  1.00  0.00    -0.406 OA
BRANCH  18  19
ATOM     19  C   UNL A   1      37.846  21.398  25.103  1.00  0.00     0.573 C 
ATOM     20  F   UNL A   1      37.666  21.992  23.903  1.00  0.00    -0.132 F 
ATOM     21  F   UNL A   1      39.049  21.750  25.604  1.00  0.00    -0.132 F 
ATOM     22  F   UNL A   1      37.850  20.060  24.903  1.00  0.00    -0.132 F 
ENDBRANCH  18  19
ENDBRANCH  10  18
BRANCH  15  23
ATOM     23  C   UNL A   1      30.417  25.377  23.586  1.00  0.00     0.430 C 
ATOM     24  F   UNL A   1      29.824  25.675  24.762  1.00  0.00    -0.167 F 
ATOM     25  F   UNL A   1      30.311  26.502  22.828  1.00  0.00    -0.167 F 
ATOM     26  F   UNL A   1      29.708  24.412  22.963  1.00  0.00    -0.167 F 
ENDBRANCH  15  23
ENDBRANCH   4   6
ENDBRANCH   3   4
ENDBRANCH   2   3
ENDBRANCH   1   2
BRANCH   1  27
ATOM     27  O   UNL A   1      33.724  29.093  27.361  1.00  0.00    -0.458 OA
BRANCH  27  28
ATOM     28  C   UNL A   1      34.363  30.206  27.797  1.00  0.00     0.338 C 
ATOM     29  O   UNL A   1      33.861  31.301  28.002  1.00  0.00    -0.246 OA
BRANCH  28  30
ATOM     30  C   UNL A   1      35.750  29.879  28.187  1.00  0.00     0.060 A 
ATOM     31  C   UNL A   1      36.719  29.957  27.183  1.00  0.00     0.016 A 
ATOM     32  C   UNL A   1      36.111  29.487  29.477  1.00  0.00     0.016 A 
ATOM     33  C   UNL A   1      38.064  29.737  27.473  1.00  0.00     0.010 A 
ATOM     34  C   UNL A   1      37.455  29.200  29.755  1.00  0.00     0.010 A 
ATOM     35  C   UNL A   1      38.439  29.340  28.760  1.00  0.00    -0.014 A 
BRANCH  35  36
ATOM     36  C   UNL A   1      39.843  28.943  29.020  1.00  0.00     0.031 A 
ATOM     37  C   UNL A   1      40.783  29.954  29.612  1.00  0.00     0.074 A 
ATOM     38  C   UNL A   1      40.269  27.692  28.764  1.00  0.00     0.049 A 
ATOM     39  N   UNL A   1      42.065  29.856  29.845  1.00  0.00    -0.248 NA
ATOM     40  C   UNL A   1      40.194  31.244  30.007  1.00  0.00     0.031 C 
ATOM     41  C   UNL A   1      39.430  26.591  28.294  1.00  0.00     0.029 A 
ATOM     42  N   UNL A   1      41.523  27.139  28.862  1.00  0.00    -0.354 N 
ATOM     43  C   UNL A   1      42.439  31.068  30.410  1.00  0.00     0.074 A 
ATOM     44  C   UNL A   1      41.251  31.891  30.474  1.00  0.00     0.031 C 
ATOM     45  C   UNL A   1      40.198  25.499  28.123  1.00  0.00     0.029 A 
ATOM     46  C   UNL A   1      41.588  25.835  28.427  1.00  0.00     0.049 A 
ATOM     47  H   UNL A   1      42.302  27.630  29.211  1.00  0.00     0.167 HD
ATOM     48  C   UNL A   1      43.664  31.463  30.829  1.00  0.00     0.031 A 
ATOM     49  C   UNL A   1      42.652  25.023  28.260  1.00  0.00     0.031 A 
ATOM     50  C   UNL A   1      44.849  30.656  30.721  1.00  0.00     0.049 A 
ATOM     51  C   UNL A   1      44.031  25.538  28.601  1.00  0.00     0.074 A 
ATOM     52  C   UNL A   1      46.146  30.982  31.077  1.00  0.00     0.029 A 
ATOM     53  N   UNL A   1      44.887  29.367  30.211  1.00  0.00    -0.354 N 
ATOM     54  N   UNL A   1      44.378  26.696  29.111  1.00  0.00    -0.248 NA
ATOM     55  C   UNL A   1      45.165  24.636  28.342  1.00  0.00     0.031 C 
ATOM     56  C   UNL A   1      46.976  29.915  30.725  1.00  0.00     0.029 A 
ATOM     57  C   UNL A   1      46.187  28.893  30.222  1.00  0.00     0.049 A 
ATOM     58  H   UNL A   1      44.104  28.864  29.888  1.00  0.00     0.167 HD
ATOM     59  C   UNL A   1      45.759  26.641  29.279  1.00  0.00     0.074 A 
ATOM     60  C   UNL A   1      46.186  25.339  28.814  1.00  0.00     0.031 C 
ATOM     61  C   UNL A   1      46.595  27.583  29.782  1.00  0.00     0.031 A 
BRANCH  48  62
ATOM     62  C   UNL A   1      43.793  32.854  31.388  1.00  0.00    -0.014 A 
ATOM     63  C   UNL A   1      43.708  33.096  32.770  1.00  0.00     0.010 A 
ATOM     64  C   UNL A   1      44.041  33.930  30.516  1.00  0.00     0.010 A 
ATOM     65  C   UNL A   1      43.837  34.397  33.267  1.00  0.00     0.020 A 
ATOM     66  C   UNL A   1      44.199  35.227  31.012  1.00  0.00     0.020 A 
ATOM     67  C   UNL A   1      44.082  35.453  32.384  1.00  0.00     0.054 A 
BRANCH  67  68
ATOM     68  S   UNL A   1      44.269  37.125  33.061  1.00  0.00     0.124 S 
ATOM     69  O   UNL A   1      43.102  37.230  33.932  1.00  0.00    -0.237 OA
ATOM     70  O   UNL A   1      45.558  37.049  33.746  1.00  0.00    -0.237 OA
ATOM     71  O   UNL A   1      44.244  37.984  31.880  1.00  0.00    -0.744 OA
ENDBRANCH  67  68
ENDBRANCH  48  62
BRANCH  49  72
ATOM     72  C   UNL A   1      42.477  23.651  27.699  1.00  0.00    -0.014 A 
ATOM     73  C   UNL A   1      42.264  22.547  28.543  1.00  0.00     0.010 A 
ATOM     74  C   UNL A   1      42.570  23.436  26.311  1.00  0.00     0.010 A 
ATOM     75  C   UNL A   1      42.178  21.254  28.015  1.00  0.00     0.020 A 
ATOM     76  C   UNL A   1      42.452  22.149  25.775  1.00  0.00     0.020 A 
ATOM     77  C   UNL A   1      42.274  21.063  26.633  1.00  0.00     0.054 A 
BRANCH  77  78
ATOM     78  S   UNL A   1      42.143  19.380  25.970  1.00  0.00     0.124 S 
ATOM     79  O   UNL A   1      40.710  19.263  25.717  1.00  0.00    -0.237 OA
ATOM     80  O   UNL A   1      42.992  19.442  24.782  1.00  0.00    -0.237 OA
ATOM     81  O   UNL A   1      42.657  18.543  27.052  1.00  0.00    -0.744 OA
ENDBRANCH  77  78
ENDBRANCH  49  72
BRANCH  61  82
ATOM     82  C   UNL A   1      48.053  27.229  29.938  1.00  0.00    -0.014 A 
ATOM     83  C   UNL A   1      49.009  27.578  28.969  1.00  0.00     0.010 A 
ATOM     84  C   UNL A   1      48.483  26.624  31.135  1.00  0.00     0.010 A 
ATOM     85  C   UNL A   1      50.365  27.319  29.189  1.00  0.00     0.020 A 
ATOM     86  C   UNL A   1      49.839  26.392  31.372  1.00  0.00     0.020 A 
ATOM     87  C   UNL A   1      50.773  26.736  30.394  1.00  0.00     0.054 A 
BRANCH  87  88
ATOM     88  S   UNL A   1      52.546  26.488  30.690  1.00  0.00     0.124 S 
ATOM     89  O   UNL A   1      53.036  26.162  29.353  1.00  0.00    -0.237 OA
ATOM     90  O   UNL A   1      52.966  27.785  31.216  1.00  0.00    -0.237 OA
ATOM     91  O   UNL A   1      52.587  25.390  31.653  1.00  0.00    -0.744 OA
ENDBRANCH  87  88
ENDBRANCH  61  82
ENDBRANCH  35  36
ENDBRANCH  28  30
ENDBRANCH  27  28
ENDBRANCH   1  27
TORSDOF 18
ENDMDL
MODEL 2
REMARK VINA RESULT:     -10.5      2.827      9.248
REMARK SMILES CCc1cc(OC(F)(F)F)cc2c1O[C@@H](C(F)(F)F)C(C(=O)OCCOC(=O)c1ccc(-c3c4nc(c(-c5ccc(S(=O)(=O)[O-])cc5)c5ccc([nH]5)c(-c5ccc(S(=O)(=O)[O-])cc5)c5nc(c(-c6ccc(S(=O)(=O)[O-])cc6)c6ccc3[nH]6)C=C5)C=C4)cc1)=C2
REMARK SMILES IDX 25 1 24 2 23 3 21 4 22 5 20 6 3 7 4 8 13 9 5 10 12 11 14 12
REMARK SMILES IDX 11 13 89 14 15 15 2 16 1 17 6 18 7 19 8 20 9 21 10 22 16 23
REMARK SMILES IDX 17 24 18 25 19 26 26 27 27 28 28 29 29 30 30 31 88 32 31 33
REMARK SMILES IDX 87 34 32 35 33 36 34 37 81 38 35 39 86 40 80 41 82 42 36 43
REMARK SMILES IDX 85 44 79 45 78 46 37 48 67 49 48 50 66 51 49 52 52 53 65 54
REMARK SMILES IDX 83 55 50 56 51 57 64 59 84 60 53 61 38 62 39 63 47 64 40 65
REMARK SMILES IDX 46 66 41 67 42 68 43 69 44 70 45 71 68 72 69 73 77 74 70 75
REMARK SMILES IDX 76 76 71 77 72 78 73 79 74 80 75 81 54 82 55 83 63 84 56 85
REMARK SMILES IDX 62 86 57 87 58 88 59 89 60 90 61 91
REMARK H PARENT 82 47 52 58
REMARK Flexibility Score: inf
ROOT
ATOM      1  C   UNL A   1      37.347  21.932  24.803  1.00  0.00     0.275 C 
ENDROOT
BRANCH   1   2
ATOM      2  C   UNL A   1      36.079  21.515  25.556  1.00  0.00     0.275 C 
BRANCH   2   3
ATOM      3  O   UNL A   1      35.272  22.652  25.926  1.00  0.00    -0.459 OA
BRANCH   3   4
ATOM      4  C   UNL A   1      33.935  22.515  25.724  1.00  0.00     0.338 C 
ATOM      5  O   UNL A   1      33.312  21.479  25.849  1.00  0.00    -0.246 OA
BRANCH   4   6
ATOM      6  C   UNL A   1      33.290  23.798  25.362  1.00  0.00     0.087 C 
ATOM      7  C   UNL A   1      31.543  27.345  23.996  1.00  0.00    -0.002 A 
ATOM      8  C   UNL A   1      31.358  28.405  24.903  1.00  0.00     0.054 A 
ATOM      9  C   UNL A   1      32.243  26.220  24.446  1.00  0.00     0.131 A 
ATOM     10  C   UNL A   1      31.834  28.333  26.215  1.00  0.00     0.130 A 
ATOM     11  C   UNL A   1      32.641  26.084  25.785  1.00  0.00     0.021 A 
ATOM     12  O   UNL A   1      32.641  25.289  23.527  1.00  0.00    -0.475 OA
ATOM     13  C   UNL A   1      32.435  27.150  26.665  1.00  0.00     0.058 A 
ATOM     14  C   UNL A   1      33.300  24.843  26.212  1.00  0.00     0.027 C 
ATOM     15  C   UNL A   1      32.616  23.922  24.007  1.00  0.00     0.316 C 
BRANCH   7  16
ATOM     16  C   UNL A   1      30.988  27.524  22.596  1.00  0.00     0.036 C 
ATOM     17  C   UNL A   1      30.364  28.866  22.228  1.00  0.00     0.009 C 
ENDBRANCH   7  16
BRANCH  10  18
ATOM     18  O   UNL A   1      31.765  29.336  27.142  1.00  0.00    -0.406 OA
BRANCH  18  19
ATOM     19  C   UNL A   1      32.546  30.497  26.899  1.00  0.00     0.573 C 
ATOM     20  F   UNL A   1      33.207  30.896  28.008  1.00  0.00    -0.132 F 
ATOM     21  F   UNL A   1      33.428  30.286  25.899  1.00  0.00    -0.132 F 
ATOM     22  F   UNL A   1      31.723  31.504  26.526  1.00  0.00    -0.132 F 
ENDBRANCH  18  19
ENDBRANCH  10  18
BRANCH  15  23
ATOM     23  C   UNL A   1      33.076  23.027  22.839  1.00  0.00     0.430 C 
ATOM     24  F   UNL A   1      32.441  21.835  22.828  1.00  0.00    -0.167 F 
ATOM     25  F   UNL A   1      32.762  23.618  21.655  1.00  0.00    -0.167 F 
ATOM     26  F   UNL A   1      34.409  22.820  22.837  1.00  0.00    -0.167 F 
ENDBRANCH  15  23
ENDBRANCH   4   6
ENDBRANCH   3   4
ENDBRANCH   2   3
ENDBRANCH   1   2
BRANCH   1  27
ATOM     27  O   UNL A   1      37.929  23.132  25.346  1.00  0.00    -0.458 OA
BRANCH  27  28
ATOM     28  C   UNL A   1      39.024  22.933  26.120  1.00  0.00     0.338 C 
ATOM     29  O   UNL A   1      39.746  21.948  26.120  1.00  0.00    -0.246 OA
BRANCH  28  30
ATOM     30  C   UNL A   1      39.359  24.168  26.857  1.00  0.00     0.060 A 
ATOM     31  C   UNL A   1      40.138  25.112  26.181  1.00  0.00     0.016 A 
ATOM     32  C   UNL A   1      38.957  24.409  28.172  1.00  0.00     0.016 A 
ATOM     33  C   UNL A   1      40.444  26.337  26.770  1.00  0.00     0.010 A 
ATOM     34  C   UNL A   1      39.321  25.613  28.791  1.00  0.00     0.010 A 
ATOM     35  C   UNL A   1      40.050  26.589  28.088  1.00  0.00    -0.014 A 
BRANCH  35  36
ATOM     36  C   UNL A   1      40.522  27.819  28.766  1.00  0.00     0.031 A 
ATOM     37  C   UNL A   1      41.913  27.844  29.332  1.00  0.00     0.074 A 
ATOM     38  C   UNL A   1      39.737  28.910  28.849  1.00  0.00     0.049 A 
ATOM     39  N   UNL A   1      42.504  28.775  30.035  1.00  0.00    -0.248 NA
ATOM     40  C   UNL A   1      42.754  26.669  29.056  1.00  0.00     0.031 C 
ATOM     41  C   UNL A   1      38.413  29.050  28.245  1.00  0.00     0.029 A 
ATOM     42  N   UNL A   1      39.945  30.111  29.483  1.00  0.00    -0.354 N 
ATOM     43  C   UNL A   1      43.784  28.298  30.289  1.00  0.00     0.074 A 
ATOM     44  C   UNL A   1      43.880  26.991  29.676  1.00  0.00     0.031 C 
ATOM     45  C   UNL A   1      37.917  30.261  28.557  1.00  0.00     0.029 A 
ATOM     46  C   UNL A   1      38.866  30.963  29.419  1.00  0.00     0.049 A 
ATOM     47  H   UNL A   1      40.786  30.341  29.940  1.00  0.00     0.167 HD
ATOM     48  C   UNL A   1      44.785  28.893  30.979  1.00  0.00     0.031 A 
ATOM     49  C   UNL A   1      38.659  32.155  30.017  1.00  0.00     0.031 A 
ATOM     50  C   UNL A   1      44.667  30.173  31.624  1.00  0.00     0.049 A 
ATOM     51  C   UNL A   1      39.739  32.732  30.901  1.00  0.00     0.074 A 
ATOM     52  C   UNL A   1      45.611  30.842  32.384  1.00  0.00     0.029 A 
ATOM     53  N   UNL A   1      43.536  30.974  31.595  1.00  0.00    -0.354 N 
ATOM     54  N   UNL A   1      40.938  32.262  31.157  1.00  0.00    -0.248 NA
ATOM     55  C   UNL A   1      39.439  34.003  31.581  1.00  0.00     0.031 C 
ATOM     56  C   UNL A   1      45.028  32.017  32.865  1.00  0.00     0.029 A 
ATOM     57  C   UNL A   1      43.750  32.119  32.341  1.00  0.00     0.049 A 
ATOM     58  H   UNL A   1      42.704  30.759  31.114  1.00  0.00     0.167 HD
ATOM     59  C   UNL A   1      41.548  33.201  31.983  1.00  0.00     0.074 A 
ATOM     60  C   UNL A   1      40.589  34.265  32.189  1.00  0.00     0.031 C 
ATOM     61  C   UNL A   1      42.795  33.185  32.516  1.00  0.00     0.031 A 
BRANCH  48  62
ATOM     62  C   UNL A   1      46.076  28.135  31.122  1.00  0.00    -0.014 A 
ATOM     63  C   UNL A   1      46.303  27.276  32.212  1.00  0.00     0.010 A 
ATOM     64  C   UNL A   1      47.064  28.256  30.127  1.00  0.00     0.010 A 
ATOM     65  C   UNL A   1      47.510  26.578  32.321  1.00  0.00     0.020 A 
ATOM     66  C   UNL A   1      48.259  27.537  30.217  1.00  0.00     0.020 A 
ATOM     67  C   UNL A   1      48.479  26.713  31.322  1.00  0.00     0.054 A 
BRANCH  67  68
ATOM     68  S   UNL A   1      50.023  25.775  31.477  1.00  0.00     0.124 S 
ATOM     69  O   UNL A   1      49.709  24.856  32.568  1.00  0.00    -0.237 OA
ATOM     70  O   UNL A   1      50.155  25.159  30.158  1.00  0.00    -0.237 OA
ATOM     71  O   UNL A   1      51.021  26.794  31.788  1.00  0.00    -0.744 OA
ENDBRANCH  67  68
ENDBRANCH  48  62
BRANCH  49  72
ATOM     72  C   UNL A   1      37.360  32.870  29.850  1.00  0.00    -0.014 A 
ATOM     73  C   UNL A   1      36.319  32.707  30.782  1.00  0.00     0.010 A 
ATOM     74  C   UNL A   1      37.140  33.687  28.725  1.00  0.00     0.010 A 
ATOM     75  C   UNL A   1      35.078  33.319  30.577  1.00  0.00     0.020 A 
ATOM     76  C   UNL A   1      35.912  34.329  28.533  1.00  0.00     0.020 A 
ATOM     77  C   UNL A   1      34.882  34.126  29.452  1.00  0.00     0.054 A 
BRANCH  77  78
ATOM     78  S   UNL A   1      33.270  34.924  29.215  1.00  0.00     0.124 S 
ATOM     79  O   UNL A   1      32.616  34.017  28.277  1.00  0.00    -0.237 OA
ATOM     80  O   UNL A   1      32.722  34.936  30.569  1.00  0.00    -0.237 OA
ATOM     81  O   UNL A   1      33.613  36.239  28.678  1.00  0.00    -0.744 OA
ENDBRANCH  77  78
ENDBRANCH  49  72
BRANCH  61  82
ATOM     82  C   UNL A   1      43.243  34.385  33.312  1.00  0.00    -0.014 A 
ATOM     83  C   UNL A   1      43.105  34.441  34.709  1.00  0.00     0.010 A 
ATOM     84  C   UNL A   1      43.912  35.432  32.649  1.00  0.00     0.010 A 
ATOM     85  C   UNL A   1      43.618  35.526  35.427  1.00  0.00     0.020 A 
ATOM     86  C   UNL A   1      44.451  36.503  33.365  1.00  0.00     0.020 A 
ATOM     87  C   UNL A   1      44.296  36.546  34.750  1.00  0.00     0.054 A 
BRANCH  87  88
ATOM     88  S   UNL A   1      45.024  37.901  35.714  1.00  0.00     0.124 S 
ATOM     89  O   UNL A   1      45.106  37.316  37.050  1.00  0.00    -0.237 OA
ATOM     90  O   UNL A   1      46.303  38.119  35.042  1.00  0.00    -0.237 OA
ATOM     91  O   UNL A   1      44.058  38.988  35.570  1.00  0.00    -0.744 OA
ENDBRANCH  87  88
ENDBRANCH  61  82
ENDBRANCH  35  36
ENDBRANCH  28  30
ENDBRANCH  27  28
ENDBRANCH   1  27
TORSDOF 18
ENDMDL
MODEL 3
REMARK VINA RESULT:     -10.5      4.617     10.450
REMARK SMILES CCc1cc(OC(F)(F)F)cc2c1O[C@@H](C(F)(F)F)C(C(=O)OCCOC(=O)c1ccc(-c3c4nc(c(-c5ccc(S(=O)(=O)[O-])cc5)c5ccc([nH]5)c(-c5ccc(S(=O)(=O)[O-])cc5)c5nc(c(-c6ccc(S(=O)(=O)[O-])cc6)c6ccc3[nH]6)C=C5)C=C4)cc1)=C2
REMARK SMILES IDX 25 1 24 2 23 3 21 4 22 5 20 6 3 7 4 8 13 9 5 10 12 11 14 12
REMARK SMILES IDX 11 13 89 14 15 15 2 16 1 17 6 18 7 19 8 20 9 21 10 22 16 23
REMARK SMILES IDX 17 24 18 25 19 26 26 27 27 28 28 29 29 30 30 31 88 32 31 33
REMARK SMILES IDX 87 34 32 35 33 36 34 37 81 38 35 39 86 40 80 41 82 42 36 43
REMARK SMILES IDX 85 44 79 45 78 46 37 48 67 49 48 50 66 51 49 52 52 53 65 54
REMARK SMILES IDX 83 55 50 56 51 57 64 59 84 60 53 61 38 62 39 63 47 64 40 65
REMARK SMILES IDX 46 66 41 67 42 68 43 69 44 70 45 71 68 72 69 73 77 74 70 75
REMARK SMILES IDX 76 76 71 77 72 78 73 79 74 80 75 81 54 82 55 83 63 84 56 85
REMARK SMILES IDX 62 86 57 87 58 88 59 89 60 90 61 91
REMARK H PARENT 82 47 52 58
REMARK Flexibility Score: inf
ROOT
ATOM      1  C   UNL A   1      39.126  22.622  26.407  1.00  0.00     0.275 C 
ENDROOT
BRANCH   1   2
ATOM      2  C   UNL A   1      37.843  22.179  25.696  1.00  0.00     0.275 C 
BRANCH   2   3
ATOM      3  O   UNL A   1      36.964  23.291  25.426  1.00  0.00    -0.459 OA
BRANCH   3   4
ATOM      4  C   UNL A   1      35.664  23.111  25.778  1.00  0.00     0.338 C 
ATOM      5  O   UNL A   1      35.248  22.211  26.482  1.00  0.00    -0.246 OA
BRANCH   4   6
ATOM      6  C   UNL A   1      34.786  24.171  25.232  1.00  0.00     0.087 C 
ATOM      7  C   UNL A   1      32.302  26.984  23.382  1.00  0.00    -0.002 A 
ATOM      8  C   UNL A   1      32.208  28.275  23.933  1.00  0.00     0.054 A 
ATOM      9  C   UNL A   1      33.234  26.104  23.944  1.00  0.00     0.131 A 
ATOM     10  C   UNL A   1      33.000  28.663  25.018  1.00  0.00     0.130 A 
ATOM     11  C   UNL A   1      33.966  26.437  25.095  1.00  0.00     0.021 A 
ATOM     12  O   UNL A   1      33.512  24.939  23.283  1.00  0.00    -0.475 OA
ATOM     13  C   UNL A   1      33.844  27.724  25.625  1.00  0.00     0.058 A 
ATOM     14  C   UNL A   1      34.867  25.438  25.683  1.00  0.00     0.027 C 
ATOM     15  C   UNL A   1      33.787  23.809  24.148  1.00  0.00     0.316 C 
BRANCH   7  16
ATOM     16  C   UNL A   1      31.400  26.663  22.206  1.00  0.00     0.036 C 
ATOM     17  C   UNL A   1      32.028  26.072  20.949  1.00  0.00     0.009 C 
ENDBRANCH   7  16
BRANCH  10  18
ATOM     18  O   UNL A   1      33.030  29.913  25.573  1.00  0.00    -0.406 OA
BRANCH  18  19
ATOM     19  C   UNL A   1      31.850  30.361  26.224  1.00  0.00     0.573 C 
ATOM     20  F   UNL A   1      30.919  30.782  25.339  1.00  0.00    -0.132 F 
ATOM     21  F   UNL A   1      31.327  29.389  27.000  1.00  0.00    -0.132 F 
ATOM     22  F   UNL A   1      32.165  31.409  27.020  1.00  0.00    -0.132 F 
ENDBRANCH  18  19
ENDBRANCH  10  18
BRANCH  15  23
ATOM     23  C   UNL A   1      34.058  22.599  23.232  1.00  0.00     0.430 C 
ATOM     24  F   UNL A   1      35.360  22.500  22.888  1.00  0.00    -0.167 F 
ATOM     25  F   UNL A   1      33.768  21.447  23.895  1.00  0.00    -0.167 F 
ATOM     26  F   UNL A   1      33.303  22.613  22.115  1.00  0.00    -0.167 F 
ENDBRANCH  15  23
ENDBRANCH   4   6
ENDBRANCH   3   4
ENDBRANCH   2   3
ENDBRANCH   1   2
BRANCH   1  27
ATOM     27  O   UNL A   1      39.300  24.051  26.371  1.00  0.00    -0.458 OA
BRANCH  27  28
ATOM     28  C   UNL A   1      40.521  24.485  26.769  1.00  0.00     0.338 C 
ATOM     29  O   UNL A   1      41.598  24.177  26.281  1.00  0.00    -0.246 OA
BRANCH  28  30
ATOM     30  C   UNL A   1      40.379  25.555  27.777  1.00  0.00     0.060 A 
ATOM     31  C   UNL A   1      41.360  26.550  27.780  1.00  0.00     0.016 A 
ATOM     32  C   UNL A   1      39.343  25.594  28.712  1.00  0.00     0.016 A 
ATOM     33  C   UNL A   1      41.270  27.637  28.647  1.00  0.00     0.010 A 
ATOM     34  C   UNL A   1      39.288  26.652  29.630  1.00  0.00     0.010 A 
ATOM     35  C   UNL A   1      40.240  27.687  29.591  1.00  0.00    -0.014 A 
BRANCH  35  36
ATOM     36  C   UNL A   1      40.245  28.754  30.619  1.00  0.00     0.031 A 
ATOM     37  C   UNL A   1      41.215  28.652  31.762  1.00  0.00     0.074 A 
ATOM     38  C   UNL A   1      39.422  29.814  30.522  1.00  0.00     0.049 A 
ATOM     39  N   UNL A   1      41.340  29.419  32.812  1.00  0.00    -0.248 NA
ATOM     40  C   UNL A   1      42.184  27.546  31.702  1.00  0.00     0.031 C 
ATOM     41  C   UNL A   1      38.515  30.084  29.408  1.00  0.00     0.029 A 
ATOM     42  N   UNL A   1      39.216  30.864  31.384  1.00  0.00    -0.354 N 
ATOM     43  C   UNL A   1      42.396  28.888  33.542  1.00  0.00     0.074 A 
ATOM     44  C   UNL A   1      42.871  27.728  32.820  1.00  0.00     0.031 C 
ATOM     45  C   UNL A   1      37.832  31.215  29.665  1.00  0.00     0.029 A 
ATOM     46  C   UNL A   1      38.220  31.723  30.980  1.00  0.00     0.049 A 
ATOM     47  H   UNL A   1      39.732  30.990  32.213  1.00  0.00     0.167 HD
ATOM     48  C   UNL A   1      42.917  29.325  34.713  1.00  0.00     0.031 A 
ATOM     49  C   UNL A   1      37.663  32.775  31.616  1.00  0.00     0.031 A 
ATOM     50  C   UNL A   1      42.411  30.453  35.447  1.00  0.00     0.049 A 
ATOM     51  C   UNL A   1      38.167  33.155  32.989  1.00  0.00     0.074 A 
ATOM     52  C   UNL A   1      42.843  30.949  36.665  1.00  0.00     0.029 A 
ATOM     53  N   UNL A   1      41.357  31.256  35.039  1.00  0.00    -0.354 N 
ATOM     54  N   UNL A   1      39.150  32.631  33.683  1.00  0.00    -0.248 NA
ATOM     55  C   UNL A   1      37.485  34.269  33.667  1.00  0.00     0.031 C 
ATOM     56  C   UNL A   1      42.010  32.012  37.022  1.00  0.00     0.029 A 
ATOM     57  C   UNL A   1      41.110  32.229  35.991  1.00  0.00     0.049 A 
ATOM     58  H   UNL A   1      40.858  31.149  34.197  1.00  0.00     0.167 HD
ATOM     59  C   UNL A   1      39.235  33.382  34.852  1.00  0.00     0.074 A 
ATOM     60  C   UNL A   1      38.203  34.394  34.776  1.00  0.00     0.031 C 
ATOM     61  C   UNL A   1      40.096  33.249  35.891  1.00  0.00     0.031 A 
BRANCH  48  62
ATOM     62  C   UNL A   1      44.058  28.540  35.301  1.00  0.00    -0.014 A 
ATOM     63  C   UNL A   1      45.394  28.871  35.019  1.00  0.00     0.010 A 
ATOM     64  C   UNL A   1      43.786  27.477  36.182  1.00  0.00     0.010 A 
ATOM     65  C   UNL A   1      46.439  28.131  35.582  1.00  0.00     0.020 A 
ATOM     66  C   UNL A   1      44.827  26.754  36.769  1.00  0.00     0.020 A 
ATOM     67  C   UNL A   1      46.147  27.078  36.453  1.00  0.00     0.054 A 
BRANCH  67  68
ATOM     68  S   UNL A   1      47.523  26.152  37.188  1.00  0.00     0.124 S 
ATOM     69  O   UNL A   1      48.641  26.546  36.335  1.00  0.00    -0.237 OA
ATOM     70  O   UNL A   1      47.562  26.671  38.554  1.00  0.00    -0.237 OA
ATOM     71  O   UNL A   1      47.109  24.757  37.066  1.00  0.00    -0.744 OA
ENDBRANCH  67  68
ENDBRANCH  48  62
BRANCH  49  72
ATOM     72  C   UNL A   1      36.531  33.523  30.996  1.00  0.00    -0.014 A 
ATOM     73  C   UNL A   1      35.311  33.684  31.677  1.00  0.00     0.010 A 
ATOM     74  C   UNL A   1      36.652  34.040  29.692  1.00  0.00     0.010 A 
ATOM     75  C   UNL A   1      34.228  34.318  31.058  1.00  0.00     0.020 A 
ATOM     76  C   UNL A   1      35.584  34.705  29.082  1.00  0.00     0.020 A 
ATOM     77  C   UNL A   1      34.372  34.824  29.763  1.00  0.00     0.054 A 
BRANCH  77  78
ATOM     78  S   UNL A   1      32.960  35.659  28.986  1.00  0.00     0.124 S 
ATOM     79  O   UNL A   1      32.375  34.586  28.187  1.00  0.00    -0.237 OA
ATOM     80  O   UNL A   1      32.174  36.088  30.140  1.00  0.00    -0.237 OA
ATOM     81  O   UNL A   1      33.578  36.741  28.223  1.00  0.00    -0.744 OA
ENDBRANCH  77  78
ENDBRANCH  49  72
BRANCH  61  82
ATOM     82  C   UNL A   1      40.028  34.263  37.005  1.00  0.00    -0.014 A 
ATOM     83  C   UNL A   1      40.681  35.504  36.919  1.00  0.00     0.010 A 
ATOM     84  C   UNL A   1      39.203  34.001  38.116  1.00  0.00     0.010 A 
ATOM     85  C   UNL A   1      40.519  36.459  37.927  1.00  0.00     0.020 A 
ATOM     86  C   UNL A   1      39.015  34.963  39.110  1.00  0.00     0.020 A 
ATOM     87  C   UNL A   1      39.679  36.185  39.013  1.00  0.00     0.054 A 
BRANCH  87  88
ATOM     88  S   UNL A   1      39.420  37.473  40.265  1.00  0.00     0.124 S 
ATOM     89  O   UNL A   1      40.784  37.928  40.522  1.00  0.00    -0.237 OA
ATOM     90  O   UNL A   1      38.558  38.426  39.569  1.00  0.00    -0.237 OA
ATOM     91  O   UNL A   1      38.783  36.760  41.371  1.00  0.00    -0.744 OA
ENDBRANCH  87  88
ENDBRANCH  61  82
ENDBRANCH  35  36
ENDBRANCH  28  30
ENDBRANCH  27  28
ENDBRANCH   1  27
TORSDOF 18
ENDMDL
