MODEL 1
REMARK VINA RESULT:     -10.5      0.000      0.000
REMARK SMILES Cc1cc(C)cc(N(C)S(=O)(=O)c2ccc(F)c(C(=O)OCCOC(=O)c3ccc(-c4c5nc(c(-c6ccc(S(=O)(=O)[O-])cc6)c6ccc([nH]6)c(-c6ccc(S(=O)(=O)[O-])cc6)c6nc(c(-c7ccc(S(=O)(=O)[O-])cc7)c7ccc4[nH]7)C=C6)C=C5)cc3)c2)c1
REMARK SMILES IDX 22 1 21 2 19 3 20 4 18 5 13 6 14 7 87 8 15 9 16 10 17 11
REMARK SMILES IDX 10 12 11 13 12 14 8 15 9 16 7 17 1 18 2 19 3 20 88 21 4 22
REMARK SMILES IDX 5 23 6 24 23 25 24 26 25 27 26 28 27 29 28 30 86 31 29 32
REMARK SMILES IDX 85 33 30 34 31 35 32 36 79 37 33 38 84 39 78 40 80 41 34 42
REMARK SMILES IDX 83 43 77 44 76 45 35 47 65 48 46 49 64 50 47 51 50 52 63 53
REMARK SMILES IDX 81 54 48 55 49 56 62 58 82 59 51 60 36 61 37 62 45 63 38 64
REMARK SMILES IDX 44 65 39 66 40 67 41 68 42 69 43 70 66 71 67 72 75 73 68 74
REMARK SMILES IDX 74 75 69 76 70 77 71 78 72 79 73 80 52 81 53 82 61 83 54 84
REMARK SMILES IDX 60 85 55 86 56 87 57 88 58 89 59 90
REMARK H PARENT 80 46 50 57
REMARK Flexibility Score: inf
ROOT
ATOM      1  C   UNL A   1      40.705  21.363  26.848  1.00  0.00     0.275 C 
ENDROOT
BRANCH   1   2
ATOM      2  O   UNL A   1      41.538  20.915  25.759  1.00  0.00    -0.458 OA
BRANCH   2   3
ATOM      3  C   UNL A   1      42.471  19.986  26.066  1.00  0.00     0.341 C 
ATOM      4  O   UNL A   1      42.272  18.904  26.601  1.00  0.00    -0.246 OA
BRANCH   3   5
ATOM      5  C   UNL A   1      43.821  20.383  25.619  1.00  0.00     0.097 A 
ATOM      6  C   UNL A   1      45.464  22.144  25.347  1.00  0.00     0.089 A 
ATOM      7  C   UNL A   1      46.253  21.272  24.580  1.00  0.00     0.025 A 
ATOM      8  C   UNL A   1      44.259  21.697  25.874  1.00  0.00     0.041 A 
ATOM      9  C   UNL A   1      45.826  19.964  24.338  1.00  0.00     0.041 A 
ATOM     10  C   UNL A   1      44.608  19.526  24.851  1.00  0.00     0.137 A 
ATOM     11  F   UNL A   1      44.193  18.290  24.539  1.00  0.00    -0.206 F 
BRANCH   6  12
ATOM     12  S   UNL A   1      46.078  23.810  25.547  1.00  0.00     0.264 S 
ATOM     13  O   UNL A   1      46.402  24.242  24.199  1.00  0.00    -0.201 OA
ATOM     14  O   UNL A   1      47.110  23.700  26.558  1.00  0.00    -0.201 OA
BRANCH  12  15
ATOM     15  N   UNL A   1      44.823  24.840  26.139  1.00  0.00    -0.269 N 
ATOM     16  C   UNL A   1      44.599  26.096  25.364  1.00  0.00     0.164 C 
BRANCH  15  17
ATOM     17  C   UNL A   1      44.858  25.081  27.597  1.00  0.00     0.052 A 
ATOM     18  C   UNL A   1      45.506  27.863  30.151  1.00  0.00     0.044 C 
ATOM     19  C   UNL A   1      45.116  26.550  29.545  1.00  0.00    -0.049 A 
ATOM     20  C   UNL A   1      44.634  25.544  30.375  1.00  0.00     0.007 A 
ATOM     21  C   UNL A   1      45.199  26.321  28.163  1.00  0.00     0.030 A 
ATOM     22  C   UNL A   1      44.261  24.312  29.843  1.00  0.00    -0.049 A 
ATOM     23  C   UNL A   1      43.684  23.283  30.760  1.00  0.00     0.044 C 
ATOM     24  C   UNL A   1      44.372  24.086  28.459  1.00  0.00     0.030 A 
ENDBRANCH  15  17
ENDBRANCH  12  15
ENDBRANCH   6  12
ENDBRANCH   3   5
ENDBRANCH   2   3
ENDBRANCH   1   2
BRANCH   1  25
ATOM     25  C   UNL A   1      39.749  22.472  26.406  1.00  0.00     0.275 C 
BRANCH  25  26
ATOM     26  O   UNL A   1      39.778  23.583  27.321  1.00  0.00    -0.458 OA
BRANCH  26  27
ATOM     27  C   UNL A   1      40.700  24.531  27.040  1.00  0.00     0.338 C 
ATOM     28  O   UNL A   1      41.507  24.534  26.127  1.00  0.00    -0.246 OA
BRANCH  27  29
ATOM     29  C   UNL A   1      40.515  25.679  27.939  1.00  0.00     0.060 A 
ATOM     30  C   UNL A   1      41.563  26.588  28.029  1.00  0.00     0.016 A 
ATOM     31  C   UNL A   1      39.417  25.792  28.789  1.00  0.00     0.016 A 
ATOM     32  C   UNL A   1      41.571  27.556  29.023  1.00  0.00     0.010 A 
ATOM     33  C   UNL A   1      39.388  26.825  29.741  1.00  0.00     0.010 A 
ATOM     34  C   UNL A   1      40.481  27.699  29.888  1.00  0.00    -0.014 A 
BRANCH  34  35
ATOM     35  C   UNL A   1      40.545  28.719  30.974  1.00  0.00     0.031 A 
ATOM     36  C   UNL A   1      39.500  29.808  31.034  1.00  0.00     0.074 A 
ATOM     37  C   UNL A   1      41.427  28.576  31.988  1.00  0.00     0.049 A 
ATOM     38  N   UNL A   1      39.373  30.785  31.897  1.00  0.00    -0.248 NA
ATOM     39  C   UNL A   1      38.442  29.776  30.011  1.00  0.00     0.031 C 
ATOM     40  C   UNL A   1      42.343  27.443  32.154  1.00  0.00     0.029 A 
ATOM     41  N   UNL A   1      41.631  29.325  33.123  1.00  0.00    -0.354 N 
ATOM     42  C   UNL A   1      38.243  31.498  31.504  1.00  0.00     0.074 A 
ATOM     43  C   UNL A   1      37.728  30.852  30.318  1.00  0.00     0.031 C 
ATOM     44  C   UNL A   1      42.896  27.501  33.376  1.00  0.00     0.029 A 
ATOM     45  C   UNL A   1      42.465  28.725  34.042  1.00  0.00     0.049 A 
ATOM     46  H   UNL A   1      41.220  30.208  33.264  1.00  0.00     0.167 HD
ATOM     47  C   UNL A   1      37.684  32.589  32.082  1.00  0.00     0.031 A 
ATOM     48  C   UNL A   1      42.824  29.105  35.287  1.00  0.00     0.031 A 
ATOM     49  C   UNL A   1      38.150  33.184  33.307  1.00  0.00     0.049 A 
ATOM     50  C   UNL A   1      42.270  30.388  35.852  1.00  0.00     0.074 A 
ATOM     51  C   UNL A   1      37.688  34.327  33.937  1.00  0.00     0.029 A 
ATOM     52  N   UNL A   1      39.164  32.672  34.101  1.00  0.00    -0.354 N 
ATOM     53  N   UNL A   1      41.314  31.151  35.377  1.00  0.00    -0.248 NA
ATOM     54  C   UNL A   1      42.846  30.865  37.118  1.00  0.00     0.031 C 
ATOM     55  C   UNL A   1      38.458  34.534  35.086  1.00  0.00     0.029 A 
ATOM     56  C   UNL A   1      39.354  33.483  35.207  1.00  0.00     0.049 A 
ATOM     57  H   UNL A   1      39.672  31.852  33.908  1.00  0.00     0.167 HD
ATOM     58  C   UNL A   1      41.163  32.186  36.295  1.00  0.00     0.074 A 
ATOM     59  C   UNL A   1      42.109  31.940  37.363  1.00  0.00     0.031 C 
ATOM     60  C   UNL A   1      40.315  33.243  36.255  1.00  0.00     0.031 A 
BRANCH  47  61
ATOM     61  C   UNL A   1      36.565  33.274  31.342  1.00  0.00    -0.014 A 
ATOM     62  C   UNL A   1      35.248  33.316  31.829  1.00  0.00     0.010 A 
ATOM     63  C   UNL A   1      36.867  33.922  30.129  1.00  0.00     0.010 A 
ATOM     64  C   UNL A   1      34.244  33.958  31.092  1.00  0.00     0.020 A 
ATOM     65  C   UNL A   1      35.875  34.585  29.404  1.00  0.00     0.020 A 
ATOM     66  C   UNL A   1      34.565  34.581  29.880  1.00  0.00     0.054 A 
BRANCH  66  67
ATOM     67  S   UNL A   1      33.249  35.403  28.938  1.00  0.00     0.124 S 
ATOM     68  O   UNL A   1      32.653  34.283  28.212  1.00  0.00    -0.237 OA
ATOM     69  O   UNL A   1      32.417  35.986  29.986  1.00  0.00    -0.237 OA
ATOM     70  O   UNL A   1      33.967  36.367  28.108  1.00  0.00    -0.744 OA
ENDBRANCH  66  67
ENDBRANCH  47  61
BRANCH  48  71
ATOM     71  C   UNL A   1      43.754  28.261  36.096  1.00  0.00    -0.014 A 
ATOM     72  C   UNL A   1      43.259  27.276  36.973  1.00  0.00     0.010 A 
ATOM     73  C   UNL A   1      45.145  28.449  36.009  1.00  0.00     0.010 A 
ATOM     74  C   UNL A   1      44.134  26.518  37.758  1.00  0.00     0.020 A 
ATOM     75  C   UNL A   1      46.024  27.667  36.761  1.00  0.00     0.020 A 
ATOM     76  C   UNL A   1      45.513  26.718  37.647  1.00  0.00     0.054 A 
BRANCH  76  77
ATOM     77  S   UNL A   1      46.638  25.709  38.649  1.00  0.00     0.124 S 
ATOM     78  O   UNL A   1      47.070  24.697  37.691  1.00  0.00    -0.237 OA
ATOM     79  O   UNL A   1      47.656  26.676  39.055  1.00  0.00    -0.237 OA
ATOM     80  O   UNL A   1      45.785  25.224  39.733  1.00  0.00    -0.744 OA
ENDBRANCH  76  77
ENDBRANCH  48  71
BRANCH  60  81
ATOM     81  C   UNL A   1      40.375  34.239  37.384  1.00  0.00    -0.014 A 
ATOM     82  C   UNL A   1      41.233  35.351  37.315  1.00  0.00     0.010 A 
ATOM     83  C   UNL A   1      39.492  34.124  38.474  1.00  0.00     0.010 A 
ATOM     84  C   UNL A   1      41.213  36.325  38.318  1.00  0.00     0.020 A 
ATOM     85  C   UNL A   1      39.450  35.109  39.465  1.00  0.00     0.020 A 
ATOM     86  C   UNL A   1      40.315  36.202  39.383  1.00  0.00     0.054 A 
BRANCH  86  87
ATOM     87  S   UNL A   1      40.249  37.526  40.621  1.00  0.00     0.124 S 
ATOM     88  O   UNL A   1      38.919  37.342  41.195  1.00  0.00    -0.237 OA
ATOM     89  O   UNL A   1      41.365  37.196  41.504  1.00  0.00    -0.237 OA
ATOM     90  O   UNL A   1      40.425  38.746  39.835  1.00  0.00    -0.744 OA
ENDBRANCH  86  87
ENDBRANCH  60  81
ENDBRANCH  34  35
ENDBRANCH  27  29
ENDBRANCH  26  27
ENDBRANCH  25  26
ENDBRANCH   1  25
TORSDOF 17
ENDMDL
MODEL 2
REMARK VINA RESULT:     -10.4      5.765     11.246
REMARK SMILES Cc1cc(C)cc(N(C)S(=O)(=O)c2ccc(F)c(C(=O)OCCOC(=O)c3ccc(-c4c5nc(c(-c6ccc(S(=O)(=O)[O-])cc6)c6ccc([nH]6)c(-c6ccc(S(=O)(=O)[O-])cc6)c6nc(c(-c7ccc(S(=O)(=O)[O-])cc7)c7ccc4[nH]7)C=C6)C=C5)cc3)c2)c1
REMARK SMILES IDX 22 1 21 2 19 3 20 4 18 5 13 6 14 7 87 8 15 9 16 10 17 11
REMARK SMILES IDX 10 12 11 13 12 14 8 15 9 16 7 17 1 18 2 19 3 20 88 21 4 22
REMARK SMILES IDX 5 23 6 24 23 25 24 26 25 27 26 28 27 29 28 30 86 31 29 32
REMARK SMILES IDX 85 33 30 34 31 35 32 36 79 37 33 38 84 39 78 40 80 41 34 42
REMARK SMILES IDX 83 43 77 44 76 45 35 47 65 48 46 49 64 50 47 51 50 52 63 53
REMARK SMILES IDX 81 54 48 55 49 56 62 58 82 59 51 60 36 61 37 62 45 63 38 64
REMARK SMILES IDX 44 65 39 66 40 67 41 68 42 69 43 70 66 71 67 72 75 73 68 74
REMARK SMILES IDX 74 75 69 76 70 77 71 78 72 79 73 80 52 81 53 82 61 83 54 84
REMARK SMILES IDX 60 85 55 86 56 87 57 88 58 89 59 90
REMARK H PARENT 80 46 50 57
REMARK Flexibility Score: inf
ROOT
ATOM      1  C   UNL A   1      36.071  21.730  25.015  1.00  0.00     0.275 C 
ENDROOT
BRANCH   1   2
ATOM      2  O   UNL A   1      35.079  20.875  25.619  1.00  0.00    -0.458 OA
BRANCH   2   3
ATOM      3  C   UNL A   1      34.089  21.499  26.296  1.00  0.00     0.341 C 
ATOM      4  O   UNL A   1      33.898  21.461  27.504  1.00  0.00    -0.246 OA
BRANCH   3   5
ATOM      5  C   UNL A   1      33.245  22.328  25.412  1.00  0.00     0.097 A 
ATOM      6  C   UNL A   1      32.018  24.391  25.080  1.00  0.00     0.089 A 
ATOM      7  C   UNL A   1      31.451  23.852  23.915  1.00  0.00     0.025 A 
ATOM      8  C   UNL A   1      32.920  23.636  25.820  1.00  0.00     0.041 A 
ATOM      9  C   UNL A   1      31.783  22.559  23.503  1.00  0.00     0.041 A 
ATOM     10  C   UNL A   1      32.673  21.798  24.257  1.00  0.00     0.137 A 
ATOM     11  F   UNL A   1      32.915  20.535  23.875  1.00  0.00    -0.206 F 
BRANCH   6  12
ATOM     12  S   UNL A   1      31.479  26.030  25.545  1.00  0.00     0.264 S 
ATOM     13  O   UNL A   1      31.603  26.057  26.992  1.00  0.00    -0.201 OA
ATOM     14  O   UNL A   1      30.186  26.184  24.909  1.00  0.00    -0.201 OA
BRANCH  12  15
ATOM     15  N   UNL A   1      32.562  27.216  24.904  1.00  0.00    -0.269 N 
ATOM     16  C   UNL A   1      33.794  26.680  24.253  1.00  0.00     0.164 C 
BRANCH  15  17
ATOM     17  C   UNL A   1      32.855  28.341  25.817  1.00  0.00     0.052 A 
ATOM     18  C   UNL A   1      35.615  29.691  28.106  1.00  0.00     0.044 C 
ATOM     19  C   UNL A   1      34.350  29.586  27.312  1.00  0.00    -0.049 A 
ATOM     20  C   UNL A   1      33.460  30.655  27.321  1.00  0.00     0.007 A 
ATOM     21  C   UNL A   1      34.054  28.451  26.540  1.00  0.00     0.030 A 
ATOM     22  C   UNL A   1      32.276  30.589  26.592  1.00  0.00    -0.049 A 
ATOM     23  C   UNL A   1      31.382  31.786  26.574  1.00  0.00     0.044 C 
ATOM     24  C   UNL A   1      31.978  29.437  25.842  1.00  0.00     0.030 A 
ENDBRANCH  15  17
ENDBRANCH  12  15
ENDBRANCH   6  12
ENDBRANCH   3   5
ENDBRANCH   2   3
ENDBRANCH   1   2
BRANCH   1  25
ATOM     25  C   UNL A   1      37.477  21.142  25.147  1.00  0.00     0.275 C 
BRANCH  25  26
ATOM     26  O   UNL A   1      38.455  22.173  25.380  1.00  0.00    -0.458 OA
BRANCH  26  27
ATOM     27  C   UNL A   1      39.477  21.820  26.192  1.00  0.00     0.338 C 
ATOM     28  O   UNL A   1      40.033  20.737  26.256  1.00  0.00    -0.246 OA
BRANCH  27  29
ATOM     29  C   UNL A   1      39.946  22.998  26.935  1.00  0.00     0.060 A 
ATOM     30  C   UNL A   1      39.447  24.234  26.541  1.00  0.00     0.016 A 
ATOM     31  C   UNL A   1      40.958  22.924  27.889  1.00  0.00     0.016 A 
ATOM     32  C   UNL A   1      40.013  25.406  27.021  1.00  0.00     0.010 A 
ATOM     33  C   UNL A   1      41.474  24.111  28.437  1.00  0.00     0.010 A 
ATOM     34  C   UNL A   1      41.027  25.366  27.984  1.00  0.00    -0.014 A 
BRANCH  34  35
ATOM     35  C   UNL A   1      41.644  26.645  28.442  1.00  0.00     0.031 A 
ATOM     36  C   UNL A   1      43.092  26.928  28.120  1.00  0.00     0.074 A 
ATOM     37  C   UNL A   1      40.875  27.611  28.991  1.00  0.00     0.049 A 
ATOM     38  N   UNL A   1      43.815  27.978  28.420  1.00  0.00    -0.248 NA
ATOM     39  C   UNL A   1      43.812  25.916  27.331  1.00  0.00     0.031 C 
ATOM     40  C   UNL A   1      39.419  27.538  29.154  1.00  0.00     0.029 A 
ATOM     41  N   UNL A   1      41.184  28.879  29.420  1.00  0.00    -0.354 N 
ATOM     42  C   UNL A   1      45.078  27.739  27.885  1.00  0.00     0.074 A 
ATOM     43  C   UNL A   1      45.028  26.440  27.253  1.00  0.00     0.031 C 
ATOM     44  C   UNL A   1      38.956  28.747  29.507  1.00  0.00     0.029 A 
ATOM     45  C   UNL A   1      40.081  29.656  29.703  1.00  0.00     0.049 A 
ATOM     46  H   UNL A   1      42.109  29.203  29.518  1.00  0.00     0.167 HD
ATOM     47  C   UNL A   1      46.177  28.532  27.913  1.00  0.00     0.031 A 
ATOM     48  C   UNL A   1      39.982  30.955  30.057  1.00  0.00     0.031 A 
ATOM     49  C   UNL A   1      46.203  29.858  28.472  1.00  0.00     0.049 A 
ATOM     50  C   UNL A   1      41.240  31.776  30.191  1.00  0.00     0.074 A 
ATOM     51  C   UNL A   1      47.283  30.713  28.604  1.00  0.00     0.029 A 
ATOM     52  N   UNL A   1      45.098  30.531  28.967  1.00  0.00    -0.354 N 
ATOM     53  N   UNL A   1      42.466  31.468  29.839  1.00  0.00    -0.248 NA
ATOM     54  C   UNL A   1      41.102  33.118  30.776  1.00  0.00     0.031 C 
ATOM     55  C   UNL A   1      46.840  31.885  29.226  1.00  0.00     0.029 A 
ATOM     56  C   UNL A   1      45.471  31.785  29.421  1.00  0.00     0.049 A 
ATOM     57  H   UNL A   1      44.182  30.172  28.992  1.00  0.00     0.167 HD
ATOM     58  C   UNL A   1      43.240  32.583  30.142  1.00  0.00     0.074 A 
ATOM     59  C   UNL A   1      42.342  33.581  30.687  1.00  0.00     0.031 C 
ATOM     60  C   UNL A   1      44.574  32.765  29.982  1.00  0.00     0.031 A 
BRANCH  47  61
ATOM     61  C   UNL A   1      47.472  27.947  27.414  1.00  0.00    -0.014 A 
ATOM     62  C   UNL A   1      47.980  28.215  26.131  1.00  0.00     0.010 A 
ATOM     63  C   UNL A   1      48.212  27.125  28.285  1.00  0.00     0.010 A 
ATOM     64  C   UNL A   1      49.184  27.634  25.715  1.00  0.00     0.020 A 
ATOM     65  C   UNL A   1      49.426  26.565  27.882  1.00  0.00     0.020 A 
ATOM     66  C   UNL A   1      49.895  26.806  26.592  1.00  0.00     0.054 A 
BRANCH  66  67
ATOM     67  S   UNL A   1      51.451  26.059  26.032  1.00  0.00     0.124 S 
ATOM     68  O   UNL A   1      51.424  24.764  26.710  1.00  0.00    -0.237 OA
ATOM     69  O   UNL A   1      51.284  26.013  24.582  1.00  0.00    -0.237 OA
ATOM     70  O   UNL A   1      52.474  26.986  26.509  1.00  0.00    -0.744 OA
ENDBRANCH  66  67
ENDBRANCH  47  61
BRANCH  48  71
ATOM     71  C   UNL A   1      38.645  31.572  30.306  1.00  0.00    -0.014 A 
ATOM     72  C   UNL A   1      37.953  31.338  31.509  1.00  0.00     0.010 A 
ATOM     73  C   UNL A   1      38.045  32.387  29.329  1.00  0.00     0.010 A 
ATOM     74  C   UNL A   1      36.683  31.886  31.718  1.00  0.00     0.020 A 
ATOM     75  C   UNL A   1      36.794  32.969  29.549  1.00  0.00     0.020 A 
ATOM     76  C   UNL A   1      36.111  32.699  30.735  1.00  0.00     0.054 A 
BRANCH  76  77
ATOM     77  S   UNL A   1      34.476  33.427  31.030  1.00  0.00     0.124 S 
ATOM     78  O   UNL A   1      33.805  33.185  29.757  1.00  0.00    -0.237 OA
ATOM     79  O   UNL A   1      33.983  32.650  32.166  1.00  0.00    -0.237 OA
ATOM     80  O   UNL A   1      34.774  34.826  31.328  1.00  0.00    -0.744 OA
ENDBRANCH  76  77
ENDBRANCH  48  71
BRANCH  60  81
ATOM     81  C   UNL A   1      45.166  34.079  30.419  1.00  0.00    -0.014 A 
ATOM     82  C   UNL A   1      45.211  35.174  29.537  1.00  0.00     0.010 A 
ATOM     83  C   UNL A   1      45.585  34.256  31.751  1.00  0.00     0.010 A 
ATOM     84  C   UNL A   1      45.670  36.419  29.977  1.00  0.00     0.020 A 
ATOM     85  C   UNL A   1      46.019  35.507  32.202  1.00  0.00     0.020 A 
ATOM     86  C   UNL A   1      46.064  36.580  31.310  1.00  0.00     0.054 A 
BRANCH  86  87
ATOM     87  S   UNL A   1      46.568  38.228  31.875  1.00  0.00     0.124 S 
ATOM     88  O   UNL A   1      47.510  37.910  32.944  1.00  0.00    -0.237 OA
ATOM     89  O   UNL A   1      47.157  38.812  30.672  1.00  0.00    -0.237 OA
ATOM     90  O   UNL A   1      45.316  38.845  32.309  1.00  0.00    -0.744 OA
ENDBRANCH  86  87
ENDBRANCH  60  81
ENDBRANCH  34  35
ENDBRANCH  27  29
ENDBRANCH  26  27
ENDBRANCH  25  26
ENDBRANCH   1  25
TORSDOF 17
ENDMDL
MODEL 3
REMARK VINA RESULT:     -10.3      4.139      6.487
REMARK SMILES Cc1cc(C)cc(N(C)S(=O)(=O)c2ccc(F)c(C(=O)OCCOC(=O)c3ccc(-c4c5nc(c(-c6ccc(S(=O)(=O)[O-])cc6)c6ccc([nH]6)c(-c6ccc(S(=O)(=O)[O-])cc6)c6nc(c(-c7ccc(S(=O)(=O)[O-])cc7)c7ccc4[nH]7)C=C6)C=C5)cc3)c2)c1
REMARK SMILES IDX 22 1 21 2 19 3 20 4 18 5 13 6 14 7 87 8 15 9 16 10 17 11
REMARK SMILES IDX 10 12 11 13 12 14 8 15 9 16 7 17 1 18 2 19 3 20 88 21 4 22
REMARK SMILES IDX 5 23 6 24 23 25 24 26 25 27 26 28 27 29 28 30 86 31 29 32
REMARK SMILES IDX 85 33 30 34 31 35 32 36 79 37 33 38 84 39 78 40 80 41 34 42
REMARK SMILES IDX 83 43 77 44 76 45 35 47 65 48 46 49 64 50 47 51 50 52 63 53
REMARK SMILES IDX 81 54 48 55 49 56 62 58 82 59 51 60 36 61 37 62 45 63 38 64
REMARK SMILES IDX 44 65 39 66 40 67 41 68 42 69 43 70 66 71 67 72 75 73 68 74
REMARK SMILES IDX 74 75 69 76 70 77 71 78 72 79 73 80 52 81 53 82 61 83 54 84
REMARK SMILES IDX 60 85 55 86 56 87 57 88 58 89 59 90
REMARK H PARENT 80 46 50 57
REMARK Flexibility Score: inf
ROOT
ATOM      1  C   UNL A   1      38.230  22.618  25.869  1.00  0.00     0.275 C 
ENDROOT
BRANCH   1   2
ATOM      2  O   UNL A   1      36.819  22.332  25.941  1.00  0.00    -0.458 OA
BRANCH   2   3
ATOM      3  C   UNL A   1      36.181  22.181  24.758  1.00  0.00     0.341 C 
ATOM      4  O   UNL A   1      36.642  22.411  23.649  1.00  0.00    -0.246 OA
BRANCH   3   5
ATOM      5  C   UNL A   1      34.823  21.625  24.924  1.00  0.00     0.097 A 
ATOM      6  C   UNL A   1      32.523  21.978  25.601  1.00  0.00     0.089 A 
ATOM      7  C   UNL A   1      32.294  20.597  25.500  1.00  0.00     0.025 A 
ATOM      8  C   UNL A   1      33.779  22.491  25.302  1.00  0.00     0.041 A 
ATOM      9  C   UNL A   1      33.326  19.738  25.112  1.00  0.00     0.041 A 
ATOM     10  C   UNL A   1      34.589  20.254  24.833  1.00  0.00     0.137 A 
ATOM     11  F   UNL A   1      35.576  19.397  24.534  1.00  0.00    -0.206 F 
BRANCH   6  12
ATOM     12  S   UNL A   1      31.150  22.976  26.160  1.00  0.00     0.264 S 
ATOM     13  O   UNL A   1      31.637  23.620  27.367  1.00  0.00    -0.201 OA
ATOM     14  O   UNL A   1      30.029  22.059  26.211  1.00  0.00    -0.201 OA
BRANCH  12  15
ATOM     15  N   UNL A   1      30.807  24.216  25.007  1.00  0.00    -0.269 N 
ATOM     16  C   UNL A   1      30.795  23.784  23.578  1.00  0.00     0.164 C 
BRANCH  15  17
ATOM     17  C   UNL A   1      31.563  25.470  25.206  1.00  0.00     0.052 A 
ATOM     18  C   UNL A   1      34.009  27.804  23.401  1.00  0.00     0.044 C 
ATOM     19  C   UNL A   1      33.055  27.250  24.415  1.00  0.00    -0.049 A 
ATOM     20  C   UNL A   1      32.757  28.009  25.541  1.00  0.00     0.007 A 
ATOM     21  C   UNL A   1      32.437  26.002  24.243  1.00  0.00     0.030 A 
ATOM     22  C   UNL A   1      31.873  27.524  26.501  1.00  0.00    -0.049 A 
ATOM     23  C   UNL A   1      31.527  28.401  27.661  1.00  0.00     0.044 C 
ATOM     24  C   UNL A   1      31.278  26.260  26.330  1.00  0.00     0.030 A 
ENDBRANCH  15  17
ENDBRANCH  12  15
ENDBRANCH   6  12
ENDBRANCH   3   5
ENDBRANCH   2   3
ENDBRANCH   1   2
BRANCH   1  25
ATOM     25  C   UNL A   1      38.526  24.078  26.216  1.00  0.00     0.275 C 
BRANCH  25  26
ATOM     26  O   UNL A   1      39.850  24.228  26.762  1.00  0.00    -0.458 OA
BRANCH  26  27
ATOM     27  C   UNL A   1      40.493  25.361  26.402  1.00  0.00     0.338 C 
ATOM     28  O   UNL A   1      40.754  25.740  25.273  1.00  0.00    -0.246 OA
BRANCH  27  29
ATOM     29  C   UNL A   1      40.738  26.188  27.592  1.00  0.00     0.060 A 
ATOM     30  C   UNL A   1      39.863  26.034  28.660  1.00  0.00     0.016 A 
ATOM     31  C   UNL A   1      41.700  27.195  27.616  1.00  0.00     0.016 A 
ATOM     32  C   UNL A   1      39.874  26.935  29.715  1.00  0.00     0.010 A 
ATOM     33  C   UNL A   1      41.766  28.057  28.724  1.00  0.00     0.010 A 
ATOM     34  C   UNL A   1      40.831  27.954  29.772  1.00  0.00    -0.014 A 
BRANCH  34  35
ATOM     35  C   UNL A   1      40.784  28.933  30.896  1.00  0.00     0.031 A 
ATOM     36  C   UNL A   1      39.677  29.960  30.942  1.00  0.00     0.074 A 
ATOM     37  C   UNL A   1      41.621  28.799  31.948  1.00  0.00     0.049 A 
ATOM     38  N   UNL A   1      39.452  30.894  31.832  1.00  0.00    -0.248 NA
ATOM     39  C   UNL A   1      38.674  29.909  29.865  1.00  0.00     0.031 C 
ATOM     40  C   UNL A   1      42.590  27.712  32.120  1.00  0.00     0.029 A 
ATOM     41  N   UNL A   1      41.726  29.513  33.118  1.00  0.00    -0.354 N 
ATOM     42  C   UNL A   1      38.305  31.558  31.407  1.00  0.00     0.074 A 
ATOM     43  C   UNL A   1      37.886  30.931  30.174  1.00  0.00     0.031 C 
ATOM     44  C   UNL A   1      43.078  27.753  33.370  1.00  0.00     0.029 A 
ATOM     45  C   UNL A   1      42.546  28.924  34.057  1.00  0.00     0.049 A 
ATOM     46  H   UNL A   1      41.259  30.366  33.271  1.00  0.00     0.167 HD
ATOM     47  C   UNL A   1      37.656  32.593  31.995  1.00  0.00     0.031 A 
ATOM     48  C   UNL A   1      42.822  29.274  35.332  1.00  0.00     0.031 A 
ATOM     49  C   UNL A   1      38.027  33.165  33.263  1.00  0.00     0.049 A 
ATOM     50  C   UNL A   1      42.168  30.502  35.913  1.00  0.00     0.074 A 
ATOM     51  C   UNL A   1      37.471  34.255  33.909  1.00  0.00     0.029 A 
ATOM     52  N   UNL A   1      39.027  32.679  34.089  1.00  0.00    -0.354 N 
ATOM     53  N   UNL A   1      41.195  31.230  35.418  1.00  0.00    -0.248 NA
ATOM     54  C   UNL A   1      42.653  30.960  37.224  1.00  0.00     0.031 C 
ATOM     55  C   UNL A   1      38.170  34.459  35.103  1.00  0.00     0.029 A 
ATOM     56  C   UNL A   1      39.117  33.456  35.232  1.00  0.00     0.049 A 
ATOM     57  H   UNL A   1      39.591  31.896  33.893  1.00  0.00     0.167 HD
ATOM     58  C   UNL A   1      40.941  32.218  36.363  1.00  0.00     0.074 A 
ATOM     59  C   UNL A   1      41.846  31.983  37.469  1.00  0.00     0.031 C 
ATOM     60  C   UNL A   1      40.037  33.227  36.319  1.00  0.00     0.031 A 
BRANCH  47  61
ATOM     61  C   UNL A   1      36.538  33.245  31.224  1.00  0.00    -0.014 A 
ATOM     62  C   UNL A   1      35.195  33.173  31.630  1.00  0.00     0.010 A 
ATOM     63  C   UNL A   1      36.865  33.978  30.067  1.00  0.00     0.010 A 
ATOM     64  C   UNL A   1      34.195  33.788  30.866  1.00  0.00     0.020 A 
ATOM     65  C   UNL A   1      35.874  34.614  29.318  1.00  0.00     0.020 A 
ATOM     66  C   UNL A   1      34.541  34.499  29.711  1.00  0.00     0.054 A 
BRANCH  66  67
ATOM     67  S   UNL A   1      33.230  35.284  28.733  1.00  0.00     0.124 S 
ATOM     68  O   UNL A   1      32.422  35.923  29.770  1.00  0.00    -0.237 OA
ATOM     69  O   UNL A   1      33.975  36.194  27.867  1.00  0.00    -0.237 OA
ATOM     70  O   UNL A   1      32.588  34.164  28.049  1.00  0.00    -0.744 OA
ENDBRANCH  66  67
ENDBRANCH  47  61
BRANCH  48  71
ATOM     71  C   UNL A   1      43.757  28.452  36.156  1.00  0.00    -0.014 A 
ATOM     72  C   UNL A   1      45.132  28.749  36.204  1.00  0.00     0.010 A 
ATOM     73  C   UNL A   1      43.279  27.350  36.889  1.00  0.00     0.010 A 
ATOM     74  C   UNL A   1      46.008  27.949  36.946  1.00  0.00     0.020 A 
ATOM     75  C   UNL A   1      44.142  26.572  37.663  1.00  0.00     0.020 A 
ATOM     76  C   UNL A   1      45.507  26.864  37.672  1.00  0.00     0.054 A 
BRANCH  76  77
ATOM     77  S   UNL A   1      46.649  25.852  38.652  1.00  0.00     0.124 S 
ATOM     78  O   UNL A   1      46.370  26.312  40.009  1.00  0.00    -0.237 OA
ATOM     79  O   UNL A   1      46.215  24.492  38.341  1.00  0.00    -0.237 OA
ATOM     80  O   UNL A   1      47.963  26.213  38.124  1.00  0.00    -0.744 OA
ENDBRANCH  76  77
ENDBRANCH  48  71
BRANCH  60  81
ATOM     81  C   UNL A   1      39.984  34.181  37.485  1.00  0.00    -0.014 A 
ATOM     82  C   UNL A   1      40.559  35.461  37.391  1.00  0.00     0.010 A 
ATOM     83  C   UNL A   1      39.264  33.838  38.644  1.00  0.00     0.010 A 
ATOM     84  C   UNL A   1      40.422  36.377  38.439  1.00  0.00     0.020 A 
ATOM     85  C   UNL A   1      39.102  34.761  39.682  1.00  0.00     0.020 A 
ATOM     86  C   UNL A   1      39.686  36.024  39.574  1.00  0.00     0.054 A 
BRANCH  86  87
ATOM     87  S   UNL A   1      39.449  37.265  40.876  1.00  0.00     0.124 S 
ATOM     88  O   UNL A   1      38.481  38.170  40.263  1.00  0.00    -0.237 OA
ATOM     89  O   UNL A   1      38.944  36.466  41.991  1.00  0.00    -0.237 OA
ATOM     90  O   UNL A   1      40.785  37.822  41.073  1.00  0.00    -0.744 OA
ENDBRANCH  86  87
ENDBRANCH  60  81
ENDBRANCH  34  35
ENDBRANCH  27  29
ENDBRANCH  26  27
ENDBRANCH  25  26
ENDBRANCH   1  25
TORSDOF 17
ENDMDL
