MODEL 1
REMARK VINA RESULT:     -12.9      0.000      0.000
REMARK SMILES Cc1nc2sc3c(c2c2nc(CCC(=O)OCCOC(=O)c4ccc(-c5c6nc(c(-c7ccc(S(=O)(=O)[O-])cc7)c7ccc([nH]7)c(-c7ccc(S(=O)(=O)[O-])cc7)c7nc(c(-c8ccc(S(=O)(=O)[O-])cc8)c8ccc5[nH]8)C=C7)C=C6)cc4)nn12)[C@@H](C)CCC3
REMARK SMILES IDX 18 1 17 2 16 3 14 4 15 5 13 6 12 7 11 8 1 9 2 10 3 11 83 12
REMARK SMILES IDX 4 13 9 14 82 15 5 16 8 17 10 18 6 19 7 20 88 21 84 22 87 23
REMARK SMILES IDX 85 24 86 25 19 26 20 27 21 28 22 29 23 30 81 31 24 32 80 33
REMARK SMILES IDX 25 34 26 35 27 36 74 37 28 38 79 39 73 40 75 41 29 42 78 43
REMARK SMILES IDX 72 44 71 45 30 47 60 48 41 49 59 50 42 51 45 52 58 53 76 54
REMARK SMILES IDX 43 55 44 56 57 58 77 59 46 60 31 61 32 62 40 63 33 64 39 65
REMARK SMILES IDX 34 66 35 67 36 68 37 69 38 70 61 71 62 72 70 73 63 74 69 75
REMARK SMILES IDX 64 76 65 77 66 78 67 79 68 80 47 81 48 82 56 83 49 84 55 85
REMARK SMILES IDX 50 86 51 87 52 88 53 89 54 90
REMARK H PARENT 75 46 45 57
REMARK Flexibility Score: inf
ROOT
ATOM      1  C   UNL A   1      37.378  21.053  25.296  1.00  0.00     0.275 C 
ENDROOT
BRANCH   1   2
ATOM      2  C   UNL A   1      36.054  21.298  24.580  1.00  0.00     0.274 C 
BRANCH   2   3
ATOM      3  O   UNL A   1      34.933  20.697  25.254  1.00  0.00    -0.462 OA
BRANCH   3   4
ATOM      4  C   UNL A   1      34.498  19.507  24.763  1.00  0.00     0.306 C 
ATOM      5  O   UNL A   1      35.221  18.566  24.457  1.00  0.00    -0.252 OA
BRANCH   4   6
ATOM      6  C   UNL A   1      33.008  19.508  24.540  1.00  0.00     0.131 C 
BRANCH   6   7
ATOM      7  C   UNL A   1      32.533  20.544  23.534  1.00  0.00     0.091 C 
BRANCH   7   8
ATOM      8  C   UNL A   1      32.129  21.836  24.161  1.00  0.00     0.152 A 
ATOM      9  C   UNL A   1      29.665  22.886  27.294  1.00  0.00     0.090 C 
ATOM     10  C   UNL A   1      30.478  23.819  26.456  1.00  0.00     0.131 A 
ATOM     11  N   UNL A   1      30.468  25.117  26.629  1.00  0.00    -0.222 NA
ATOM     12  N   UNL A   1      31.231  23.195  25.455  1.00  0.00    -0.199 N 
ATOM     13  C   UNL A   1      31.230  25.841  25.743  1.00  0.00     0.129 A 
ATOM     14  C   UNL A   1      31.993  23.894  24.562  1.00  0.00     0.168 A 
ATOM     15  N   UNL A   1      31.270  21.872  25.197  1.00  0.00    -0.150 NA
ATOM     16  S   UNL A   1      31.322  27.545  25.832  1.00  0.00    -0.120 S 
ATOM     17  C   UNL A   1      31.992  25.370  24.680  1.00  0.00     0.060 A 
ATOM     18  N   UNL A   1      32.576  23.066  23.732  1.00  0.00    -0.211 NA
ATOM     19  C   UNL A   1      32.317  27.630  24.451  1.00  0.00     0.011 A 
ATOM     20  C   UNL A   1      32.578  26.393  23.884  1.00  0.00    -0.018 A 
ATOM     21  C   UNL A   1      32.809  28.936  23.914  1.00  0.00     0.047 C 
ATOM     22  C   UNL A   1      33.368  26.251  22.605  1.00  0.00     0.018 C 
ATOM     23  C   UNL A   1      34.072  28.701  23.078  1.00  0.00     0.006 C 
ATOM     24  C   UNL A   1      32.530  25.565  21.524  1.00  0.00     0.013 C 
ATOM     25  C   UNL A   1      33.833  27.616  22.026  1.00  0.00     0.008 C 
ENDBRANCH   7   8
ENDBRANCH   6   7
ENDBRANCH   4   6
ENDBRANCH   3   4
ENDBRANCH   2   3
ENDBRANCH   1   2
BRANCH   1  26
ATOM     26  O   UNL A   1      37.967  22.244  25.806  1.00  0.00    -0.458 OA
BRANCH  26  27
ATOM     27  C   UNL A   1      39.256  22.081  26.183  1.00  0.00     0.338 C 
ATOM     28  O   UNL A   1      39.913  21.058  26.203  1.00  0.00    -0.246 OA
BRANCH  27  29
ATOM     29  C   UNL A   1      39.735  23.322  26.766  1.00  0.00     0.060 A 
ATOM     30  C   UNL A   1      40.825  23.292  27.634  1.00  0.00     0.016 A 
ATOM     31  C   UNL A   1      38.976  24.476  26.546  1.00  0.00     0.016 A 
ATOM     32  C   UNL A   1      41.169  24.458  28.294  1.00  0.00     0.010 A 
ATOM     33  C   UNL A   1      39.315  25.632  27.212  1.00  0.00     0.010 A 
ATOM     34  C   UNL A   1      40.403  25.614  28.088  1.00  0.00    -0.014 A 
BRANCH  34  35
ATOM     35  C   UNL A   1      40.851  26.854  28.702  1.00  0.00     0.031 A 
ATOM     36  C   UNL A   1      42.170  27.349  28.235  1.00  0.00     0.074 A 
ATOM     37  C   UNL A   1      40.048  27.631  29.450  1.00  0.00     0.049 A 
ATOM     38  N   UNL A   1      43.221  27.621  28.936  1.00  0.00    -0.248 NA
ATOM     39  C   UNL A   1      42.357  27.500  26.780  1.00  0.00     0.031 C 
ATOM     40  C   UNL A   1      38.608  27.459  29.656  1.00  0.00     0.029 A 
ATOM     41  N   UNL A   1      40.322  28.818  30.062  1.00  0.00    -0.354 N 
ATOM     42  C   UNL A   1      44.145  28.145  28.037  1.00  0.00     0.074 A 
ATOM     43  C   UNL A   1      43.619  27.920  26.715  1.00  0.00     0.031 C 
ATOM     44  C   UNL A   1      38.097  28.611  30.139  1.00  0.00     0.029 A 
ATOM     45  C   UNL A   1      39.187  29.536  30.404  1.00  0.00     0.049 A 
ATOM     46  H   UNL A   1      41.237  29.135  30.244  1.00  0.00     0.167 HD
ATOM     47  C   UNL A   1      45.175  28.938  28.434  1.00  0.00     0.031 A 
ATOM     48  C   UNL A   1      39.132  30.826  30.809  1.00  0.00     0.031 A 
ATOM     49  C   UNL A   1      45.375  28.920  29.855  1.00  0.00     0.049 A 
ATOM     50  C   UNL A   1      40.462  31.213  31.338  1.00  0.00     0.074 A 
ATOM     51  C   UNL A   1      45.949  28.071  30.774  1.00  0.00     0.029 A 
ATOM     52  N   UNL A   1      44.634  29.839  30.551  1.00  0.00    -0.354 N 
ATOM     53  N   UNL A   1      41.014  30.654  32.381  1.00  0.00    -0.248 NA
ATOM     54  C   UNL A   1      41.347  32.069  30.555  1.00  0.00     0.031 C 
ATOM     55  C   UNL A   1      45.347  28.381  32.029  1.00  0.00     0.029 A 
ATOM     56  C   UNL A   1      44.418  29.401  31.834  1.00  0.00     0.049 A 
ATOM     57  H   UNL A   1      44.304  30.690  30.183  1.00  0.00     0.167 HD
ATOM     58  C   UNL A   1      42.373  30.759  32.157  1.00  0.00     0.074 A 
ATOM     59  C   UNL A   1      42.517  31.781  31.133  1.00  0.00     0.031 C 
ATOM     60  C   UNL A   1      43.237  29.794  32.581  1.00  0.00     0.031 A 
BRANCH  47  61
ATOM     61  C   UNL A   1      45.733  30.055  27.590  1.00  0.00    -0.014 A 
ATOM     62  C   UNL A   1      47.120  30.297  27.601  1.00  0.00     0.010 A 
ATOM     63  C   UNL A   1      44.907  31.050  27.022  1.00  0.00     0.010 A 
ATOM     64  C   UNL A   1      47.650  31.497  27.108  1.00  0.00     0.020 A 
ATOM     65  C   UNL A   1      45.430  32.231  26.491  1.00  0.00     0.020 A 
ATOM     66  C   UNL A   1      46.797  32.462  26.571  1.00  0.00     0.054 A 
BRANCH  66  67
ATOM     67  S   UNL A   1      47.476  34.058  26.051  1.00  0.00     0.124 S 
ATOM     68  O   UNL A   1      46.462  34.523  25.111  1.00  0.00    -0.237 OA
ATOM     69  O   UNL A   1      47.557  34.790  27.312  1.00  0.00    -0.237 OA
ATOM     70  O   UNL A   1      48.765  33.704  25.460  1.00  0.00    -0.744 OA
ENDBRANCH  66  67
ENDBRANCH  47  61
BRANCH  48  71
ATOM     71  C   UNL A   1      38.050  31.800  30.536  1.00  0.00    -0.014 A 
ATOM     72  C   UNL A   1      38.119  32.664  29.430  1.00  0.00     0.010 A 
ATOM     73  C   UNL A   1      36.822  31.713  31.227  1.00  0.00     0.010 A 
ATOM     74  C   UNL A   1      36.984  33.366  28.994  1.00  0.00     0.020 A 
ATOM     75  C   UNL A   1      35.693  32.424  30.812  1.00  0.00     0.020 A 
ATOM     76  C   UNL A   1      35.773  33.225  29.677  1.00  0.00     0.054 A 
BRANCH  76  77
ATOM     77  S   UNL A   1      34.276  33.996  29.002  1.00  0.00     0.124 S 
ATOM     78  O   UNL A   1      34.819  35.128  28.256  1.00  0.00    -0.237 OA
ATOM     79  O   UNL A   1      33.707  32.921  28.195  1.00  0.00    -0.237 OA
ATOM     80  O   UNL A   1      33.503  34.350  30.192  1.00  0.00    -0.744 OA
ENDBRANCH  76  77
ENDBRANCH  48  71
BRANCH  60  81
ATOM     81  C   UNL A   1      42.816  28.918  33.729  1.00  0.00    -0.014 A 
ATOM     82  C   UNL A   1      42.095  27.721  33.563  1.00  0.00     0.010 A 
ATOM     83  C   UNL A   1      43.260  29.266  35.017  1.00  0.00     0.010 A 
ATOM     84  C   UNL A   1      41.820  26.896  34.663  1.00  0.00     0.020 A 
ATOM     85  C   UNL A   1      43.004  28.439  36.115  1.00  0.00     0.020 A 
ATOM     86  C   UNL A   1      42.282  27.259  35.932  1.00  0.00     0.054 A 
BRANCH  86  87
ATOM     87  S   UNL A   1      41.989  26.144  37.334  1.00  0.00     0.124 S 
ATOM     88  O   UNL A   1      43.039  26.529  38.271  1.00  0.00    -0.237 OA
ATOM     89  O   UNL A   1      40.626  26.483  37.740  1.00  0.00    -0.237 OA
ATOM     90  O   UNL A   1      42.136  24.809  36.753  1.00  0.00    -0.744 OA
ENDBRANCH  86  87
ENDBRANCH  60  81
ENDBRANCH  34  35
ENDBRANCH  27  29
ENDBRANCH  26  27
ENDBRANCH   1  26
TORSDOF 16
ENDMDL
MODEL 2
REMARK VINA RESULT:     -12.8      2.886      9.406
REMARK SMILES Cc1nc2sc3c(c2c2nc(CCC(=O)OCCOC(=O)c4ccc(-c5c6nc(c(-c7ccc(S(=O)(=O)[O-])cc7)c7ccc([nH]7)c(-c7ccc(S(=O)(=O)[O-])cc7)c7nc(c(-c8ccc(S(=O)(=O)[O-])cc8)c8ccc5[nH]8)C=C7)C=C6)cc4)nn12)[C@@H](C)CCC3
REMARK SMILES IDX 18 1 17 2 16 3 14 4 15 5 13 6 12 7 11 8 1 9 2 10 3 11 83 12
REMARK SMILES IDX 4 13 9 14 82 15 5 16 8 17 10 18 6 19 7 20 88 21 84 22 87 23
REMARK SMILES IDX 85 24 86 25 19 26 20 27 21 28 22 29 23 30 81 31 24 32 80 33
REMARK SMILES IDX 25 34 26 35 27 36 74 37 28 38 79 39 73 40 75 41 29 42 78 43
REMARK SMILES IDX 72 44 71 45 30 47 60 48 41 49 59 50 42 51 45 52 58 53 76 54
REMARK SMILES IDX 43 55 44 56 57 58 77 59 46 60 31 61 32 62 40 63 33 64 39 65
REMARK SMILES IDX 34 66 35 67 36 68 37 69 38 70 61 71 62 72 70 73 63 74 69 75
REMARK SMILES IDX 64 76 65 77 66 78 67 79 68 80 47 81 48 82 56 83 49 84 55 85
REMARK SMILES IDX 50 86 51 87 52 88 53 89 54 90
REMARK H PARENT 75 46 45 57
REMARK Flexibility Score: inf
ROOT
ATOM      1  C   UNL A   1      32.598  30.444  26.739  1.00  0.00     0.275 C 
ENDROOT
BRANCH   1   2
ATOM      2  C   UNL A   1      31.858  29.146  26.434  1.00  0.00     0.274 C 
BRANCH   2   3
ATOM      3  O   UNL A   1      32.138  28.638  25.116  1.00  0.00    -0.462 OA
BRANCH   3   4
ATOM      4  C   UNL A   1      33.345  28.040  24.942  1.00  0.00     0.306 C 
ATOM      5  O   UNL A   1      34.096  28.235  23.993  1.00  0.00    -0.252 OA
BRANCH   4   6
ATOM      6  C   UNL A   1      33.620  27.017  26.013  1.00  0.00     0.131 C 
BRANCH   6   7
ATOM      7  C   UNL A   1      32.912  25.688  25.798  1.00  0.00     0.091 C 
BRANCH   7   8
ATOM      8  C   UNL A   1      33.848  24.536  25.658  1.00  0.00     0.152 A 
ATOM      9  C   UNL A   1      37.928  24.060  26.009  1.00  0.00     0.090 C 
ATOM     10  C   UNL A   1      36.932  22.984  25.713  1.00  0.00     0.131 A 
ATOM     11  N   UNL A   1      37.279  21.739  25.506  1.00  0.00    -0.222 NA
ATOM     12  N   UNL A   1      35.605  23.422  25.651  1.00  0.00    -0.199 N 
ATOM     13  C   UNL A   1      36.251  20.880  25.195  1.00  0.00     0.129 A 
ATOM     14  C   UNL A   1      34.568  22.588  25.340  1.00  0.00     0.168 A 
ATOM     15  N   UNL A   1      35.175  24.688  25.822  1.00  0.00    -0.150 NA
ATOM     16  S   UNL A   1      36.536  19.222  24.894  1.00  0.00    -0.120 S 
ATOM     17  C   UNL A   1      34.899  21.173  25.057  1.00  0.00     0.060 A 
ATOM     18  N   UNL A   1      33.444  23.258  25.338  1.00  0.00    -0.211 NA
ATOM     19  C   UNL A   1      34.893  18.936  24.543  1.00  0.00     0.011 A 
ATOM     20  C   UNL A   1      34.108  20.074  24.619  1.00  0.00    -0.018 A 
ATOM     21  C   UNL A   1      34.395  17.580  24.158  1.00  0.00     0.047 C 
ATOM     22  C   UNL A   1      32.640  20.059  24.262  1.00  0.00     0.018 C 
ATOM     23  C   UNL A   1      32.893  17.485  24.450  1.00  0.00     0.006 C 
ATOM     24  C   UNL A   1      32.352  21.028  23.113  1.00  0.00     0.013 C 
ATOM     25  C   UNL A   1      32.142  18.657  23.814  1.00  0.00     0.008 C 
ENDBRANCH   7   8
ENDBRANCH   6   7
ENDBRANCH   4   6
ENDBRANCH   3   4
ENDBRANCH   2   3
ENDBRANCH   1   2
BRANCH   1  26
ATOM     26  O   UNL A   1      33.643  30.281  27.693  1.00  0.00    -0.458 OA
BRANCH  26  27
ATOM     27  C   UNL A   1      34.468  31.350  27.766  1.00  0.00     0.338 C 
ATOM     28  O   UNL A   1      34.240  32.502  27.449  1.00  0.00    -0.246 OA
BRANCH  27  29
ATOM     29  C   UNL A   1      35.798  30.893  28.126  1.00  0.00     0.060 A 
ATOM     30  C   UNL A   1      36.733  31.815  28.592  1.00  0.00     0.016 A 
ATOM     31  C   UNL A   1      36.126  29.564  27.839  1.00  0.00     0.016 A 
ATOM     32  C   UNL A   1      38.035  31.388  28.785  1.00  0.00     0.010 A 
ATOM     33  C   UNL A   1      37.424  29.145  28.021  1.00  0.00     0.010 A 
ATOM     34  C   UNL A   1      38.372  30.060  28.485  1.00  0.00    -0.014 A 
BRANCH  34  35
ATOM     35  C   UNL A   1      39.715  29.603  28.803  1.00  0.00     0.031 A 
ATOM     36  C   UNL A   1      40.051  29.586  30.249  1.00  0.00     0.074 A 
ATOM     37  C   UNL A   1      40.519  29.012  27.901  1.00  0.00     0.049 A 
ATOM     38  N   UNL A   1      41.030  30.175  30.854  1.00  0.00    -0.248 NA
ATOM     39  C   UNL A   1      39.131  28.865  31.146  1.00  0.00     0.031 C 
ATOM     40  C   UNL A   1      40.158  28.605  26.541  1.00  0.00     0.029 A 
ATOM     41  N   UNL A   1      41.780  28.517  28.062  1.00  0.00    -0.354 N 
ATOM     42  C   UNL A   1      40.955  29.758  32.179  1.00  0.00     0.074 A 
ATOM     43  C   UNL A   1      39.699  29.070  32.333  1.00  0.00     0.031 C 
ATOM     44  C   UNL A   1      41.081  27.730  26.089  1.00  0.00     0.029 A 
ATOM     45  C   UNL A   1      42.155  27.631  27.065  1.00  0.00     0.049 A 
ATOM     46  H   UNL A   1      42.366  28.765  28.813  1.00  0.00     0.167 HD
ATOM     47  C   UNL A   1      42.027  29.796  33.014  1.00  0.00     0.031 A 
ATOM     48  C   UNL A   1      43.234  26.816  27.066  1.00  0.00     0.031 A 
ATOM     49  C   UNL A   1      43.114  30.570  32.488  1.00  0.00     0.049 A 
ATOM     50  C   UNL A   1      44.237  27.358  28.014  1.00  0.00     0.074 A 
ATOM     51  C   UNL A   1      43.425  31.906  32.367  1.00  0.00     0.029 A 
ATOM     52  N   UNL A   1      43.984  29.872  31.692  1.00  0.00    -0.354 N 
ATOM     53  N   UNL A   1      44.811  28.521  27.870  1.00  0.00    -0.248 NA
ATOM     54  C   UNL A   1      44.442  26.725  29.313  1.00  0.00     0.031 C 
ATOM     55  C   UNL A   1      44.367  31.999  31.301  1.00  0.00     0.029 A 
ATOM     56  C   UNL A   1      44.593  30.719  30.798  1.00  0.00     0.049 A 
ATOM     57  H   UNL A   1      44.148  28.904  31.752  1.00  0.00     0.167 HD
ATOM     58  C   UNL A   1      45.095  28.935  29.157  1.00  0.00     0.074 A 
ATOM     59  C   UNL A   1      45.017  27.734  29.973  1.00  0.00     0.031 C 
ATOM     60  C   UNL A   1      45.052  30.252  29.503  1.00  0.00     0.031 A 
BRANCH  47  61
ATOM     61  C   UNL A   1      42.256  28.790  34.113  1.00  0.00    -0.014 A 
ATOM     62  C   UNL A   1      42.683  27.491  33.776  1.00  0.00     0.010 A 
ATOM     63  C   UNL A   1      41.785  28.994  35.428  1.00  0.00     0.010 A 
ATOM     64  C   UNL A   1      42.599  26.438  34.698  1.00  0.00     0.020 A 
ATOM     65  C   UNL A   1      41.736  27.962  36.366  1.00  0.00     0.020 A 
ATOM     66  C   UNL A   1      42.110  26.680  35.982  1.00  0.00     0.054 A 
BRANCH  66  67
ATOM     67  S   UNL A   1      41.889  25.294  37.125  1.00  0.00     0.124 S 
ATOM     68  O   UNL A   1      41.643  24.186  36.209  1.00  0.00    -0.237 OA
ATOM     69  O   UNL A   1      43.167  25.262  37.831  1.00  0.00    -0.237 OA
ATOM     70  O   UNL A   1      40.746  25.702  37.939  1.00  0.00    -0.744 OA
ENDBRANCH  66  67
ENDBRANCH  47  61
BRANCH  48  71
ATOM     71  C   UNL A   1      43.332  25.466  26.461  1.00  0.00    -0.014 A 
ATOM     72  C   UNL A   1      43.925  25.282  25.200  1.00  0.00     0.010 A 
ATOM     73  C   UNL A   1      43.063  24.317  27.235  1.00  0.00     0.010 A 
ATOM     74  C   UNL A   1      44.293  24.002  24.759  1.00  0.00     0.020 A 
ATOM     75  C   UNL A   1      43.407  23.037  26.795  1.00  0.00     0.020 A 
ATOM     76  C   UNL A   1      44.049  22.889  25.569  1.00  0.00     0.054 A 
BRANCH  76  77
ATOM     77  S   UNL A   1      44.685  21.266  25.066  1.00  0.00     0.124 S 
ATOM     78  O   UNL A   1      46.030  21.271  25.633  1.00  0.00    -0.237 OA
ATOM     79  O   UNL A   1      43.736  20.350  25.694  1.00  0.00    -0.237 OA
ATOM     80  O   UNL A   1      44.627  21.309  23.606  1.00  0.00    -0.744 OA
ENDBRANCH  76  77
ENDBRANCH  48  71
BRANCH  60  81
ATOM     81  C   UNL A   1      45.233  31.278  28.417  1.00  0.00    -0.014 A 
ATOM     82  C   UNL A   1      44.163  31.828  27.688  1.00  0.00     0.010 A 
ATOM     83  C   UNL A   1      46.527  31.784  28.202  1.00  0.00     0.010 A 
ATOM     84  C   UNL A   1      44.385  32.855  26.759  1.00  0.00     0.020 A 
ATOM     85  C   UNL A   1      46.753  32.819  27.290  1.00  0.00     0.020 A 
ATOM     86  C   UNL A   1      45.680  33.347  26.571  1.00  0.00     0.054 A 
BRANCH  86  87
ATOM     87  S   UNL A   1      45.945  34.730  25.425  1.00  0.00     0.124 S 
ATOM     88  O   UNL A   1      47.370  34.627  25.126  1.00  0.00    -0.237 OA
ATOM     89  O   UNL A   1      45.044  34.412  24.318  1.00  0.00    -0.237 OA
ATOM     90  O   UNL A   1      45.559  35.906  26.205  1.00  0.00    -0.744 OA
ENDBRANCH  86  87
ENDBRANCH  60  81
ENDBRANCH  34  35
ENDBRANCH  27  29
ENDBRANCH  26  27
ENDBRANCH   1  26
TORSDOF 16
ENDMDL
MODEL 3
REMARK VINA RESULT:     -12.7      4.468      7.848
REMARK SMILES Cc1nc2sc3c(c2c2nc(CCC(=O)OCCOC(=O)c4ccc(-c5c6nc(c(-c7ccc(S(=O)(=O)[O-])cc7)c7ccc([nH]7)c(-c7ccc(S(=O)(=O)[O-])cc7)c7nc(c(-c8ccc(S(=O)(=O)[O-])cc8)c8ccc5[nH]8)C=C7)C=C6)cc4)nn12)[C@@H](C)CCC3
REMARK SMILES IDX 18 1 17 2 16 3 14 4 15 5 13 6 12 7 11 8 1 9 2 10 3 11 83 12
REMARK SMILES IDX 4 13 9 14 82 15 5 16 8 17 10 18 6 19 7 20 88 21 84 22 87 23
REMARK SMILES IDX 85 24 86 25 19 26 20 27 21 28 22 29 23 30 81 31 24 32 80 33
REMARK SMILES IDX 25 34 26 35 27 36 74 37 28 38 79 39 73 40 75 41 29 42 78 43
REMARK SMILES IDX 72 44 71 45 30 47 60 48 41 49 59 50 42 51 45 52 58 53 76 54
REMARK SMILES IDX 43 55 44 56 57 58 77 59 46 60 31 61 32 62 40 63 33 64 39 65
REMARK SMILES IDX 34 66 35 67 36 68 37 69 38 70 61 71 62 72 70 73 63 74 69 75
REMARK SMILES IDX 64 76 65 77 66 78 67 79 68 80 47 81 48 82 56 83 49 84 55 85
REMARK SMILES IDX 50 86 51 87 52 88 53 89 54 90
REMARK H PARENT 75 46 45 57
REMARK Flexibility Score: inf
ROOT
ATOM      1  C   UNL A   1      42.185  20.188  25.832  1.00  0.00     0.275 C 
ENDROOT
BRANCH   1   2
ATOM      2  C   UNL A   1      43.699  20.262  25.998  1.00  0.00     0.274 C 
BRANCH   2   3
ATOM      3  O   UNL A   1      44.185  21.612  26.113  1.00  0.00    -0.462 OA
BRANCH   3   4
ATOM      4  C   UNL A   1      45.022  22.040  25.133  1.00  0.00     0.306 C 
ATOM      5  O   UNL A   1      46.170  21.646  24.966  1.00  0.00    -0.252 OA
BRANCH   4   6
ATOM      6  C   UNL A   1      44.404  23.147  24.318  1.00  0.00     0.131 C 
BRANCH   6   7
ATOM      7  C   UNL A   1      44.022  24.375  25.130  1.00  0.00     0.091 C 
BRANCH   7   8
ATOM      8  C   UNL A   1      45.055  24.767  26.131  1.00  0.00     0.152 A 
ATOM      9  C   UNL A   1      49.012  25.902  25.917  1.00  0.00     0.090 C 
ATOM     10  C   UNL A   1      48.181  25.814  27.158  1.00  0.00     0.131 A 
ATOM     11  N   UNL A   1      48.658  26.078  28.348  1.00  0.00    -0.222 NA
ATOM     12  N   UNL A   1      46.862  25.401  26.945  1.00  0.00    -0.199 N 
ATOM     13  C   UNL A   1      47.782  25.901  29.392  1.00  0.00     0.129 A 
ATOM     14  C   UNL A   1      45.974  25.215  27.967  1.00  0.00     0.168 A 
ATOM     15  N   UNL A   1      46.308  25.083  25.757  1.00  0.00    -0.150 NA
ATOM     16  S   UNL A   1      48.249  26.201  31.008  1.00  0.00    -0.120 S 
ATOM     17  C   UNL A   1      46.464  25.460  29.342  1.00  0.00     0.060 A 
ATOM     18  N   UNL A   1      44.823  24.817  27.488  1.00  0.00    -0.211 NA
ATOM     19  C   UNL A   1      46.734  25.703  31.608  1.00  0.00     0.011 A 
ATOM     20  C   UNL A   1      45.862  25.280  30.619  1.00  0.00    -0.018 A 
ATOM     21  C   UNL A   1      46.429  25.702  33.072  1.00  0.00     0.047 C 
ATOM     22  C   UNL A   1      44.498  24.717  30.941  1.00  0.00     0.018 C 
ATOM     23  C   UNL A   1      44.911  25.764  33.277  1.00  0.00     0.006 C 
ATOM     24  C   UNL A   1      44.364  23.287  30.415  1.00  0.00     0.013 C 
ATOM     25  C   UNL A   1      44.208  24.673  32.468  1.00  0.00     0.008 C 
ENDBRANCH   7   8
ENDBRANCH   6   7
ENDBRANCH   4   6
ENDBRANCH   3   4
ENDBRANCH   2   3
ENDBRANCH   1   2
BRANCH   1  26
ATOM     26  O   UNL A   1      41.595  21.444  25.514  1.00  0.00    -0.458 OA
BRANCH  26  27
ATOM     27  C   UNL A   1      40.460  21.690  26.206  1.00  0.00     0.338 C 
ATOM     28  O   UNL A   1      39.426  21.050  26.211  1.00  0.00    -0.246 OA
BRANCH  27  29
ATOM     29  C   UNL A   1      40.572  22.988  26.846  1.00  0.00     0.060 A 
ATOM     30  C   UNL A   1      39.893  24.078  26.302  1.00  0.00     0.016 A 
ATOM     31  C   UNL A   1      41.487  23.116  27.897  1.00  0.00     0.016 A 
ATOM     32  C   UNL A   1      40.134  25.332  26.836  1.00  0.00     0.010 A 
ATOM     33  C   UNL A   1      41.731  24.366  28.418  1.00  0.00     0.010 A 
ATOM     34  C   UNL A   1      41.060  25.467  27.880  1.00  0.00    -0.014 A 
BRANCH  34  35
ATOM     35  C   UNL A   1      41.211  26.773  28.500  1.00  0.00     0.031 A 
ATOM     36  C   UNL A   1      42.430  27.523  28.105  1.00  0.00     0.074 A 
ATOM     37  C   UNL A   1      40.224  27.375  29.188  1.00  0.00     0.049 A 
ATOM     38  N   UNL A   1      43.359  28.002  28.863  1.00  0.00    -0.248 NA
ATOM     39  C   UNL A   1      42.672  27.703  26.662  1.00  0.00     0.031 C 
ATOM     40  C   UNL A   1      38.838  26.917  29.310  1.00  0.00     0.029 A 
ATOM     41  N   UNL A   1      40.216  28.595  29.797  1.00  0.00    -0.354 N 
ATOM     42  C   UNL A   1      44.214  28.699  28.014  1.00  0.00     0.074 A 
ATOM     43  C   UNL A   1      43.825  28.369  26.666  1.00  0.00     0.031 C 
ATOM     44  C   UNL A   1      38.077  27.944  29.744  1.00  0.00     0.029 A 
ATOM     45  C   UNL A   1      38.941  29.071  30.059  1.00  0.00     0.049 A 
ATOM     46  H   UNL A   1      41.035  29.090  30.027  1.00  0.00     0.167 HD
ATOM     47  C   UNL A   1      45.037  29.684  28.459  1.00  0.00     0.031 A 
ATOM     48  C   UNL A   1      38.604  30.324  30.440  1.00  0.00     0.031 A 
ATOM     49  C   UNL A   1      45.149  29.711  29.889  1.00  0.00     0.049 A 
ATOM     50  C   UNL A   1      39.794  30.973  31.042  1.00  0.00     0.074 A 
ATOM     51  C   UNL A   1      45.823  28.998  30.854  1.00  0.00     0.029 A 
ATOM     52  N   UNL A   1      44.197  30.464  30.525  1.00  0.00    -0.354 N 
ATOM     53  N   UNL A   1      40.381  30.539  32.124  1.00  0.00    -0.248 NA
ATOM     54  C   UNL A   1      40.536  31.987  30.301  1.00  0.00     0.031 C 
ATOM     55  C   UNL A   1      45.095  29.184  32.066  1.00  0.00     0.029 A 
ATOM     56  C   UNL A   1      43.994  29.995  31.800  1.00  0.00     0.049 A 
ATOM     57  H   UNL A   1      43.726  31.230  30.126  1.00  0.00     0.167 HD
ATOM     58  C   UNL A   1      41.703  30.915  31.980  1.00  0.00     0.074 A 
ATOM     59  C   UNL A   1      41.702  31.942  30.951  1.00  0.00     0.031 C 
ATOM     60  C   UNL A   1      42.715  30.145  32.469  1.00  0.00     0.031 A 
BRANCH  47  61
ATOM     61  C   UNL A   1      45.409  30.888  27.632  1.00  0.00    -0.014 A 
ATOM     62  C   UNL A   1      46.752  31.068  27.249  1.00  0.00     0.010 A 
ATOM     63  C   UNL A   1      44.539  31.989  27.475  1.00  0.00     0.010 A 
ATOM     64  C   UNL A   1      47.211  32.304  26.773  1.00  0.00     0.020 A 
ATOM     65  C   UNL A   1      44.977  33.211  26.962  1.00  0.00     0.020 A 
ATOM     66  C   UNL A   1      46.321  33.371  26.649  1.00  0.00     0.054 A 
BRANCH  66  67
ATOM     67  S   UNL A   1      46.945  34.996  26.151  1.00  0.00     0.124 S 
ATOM     68  O   UNL A   1      47.586  35.460  27.377  1.00  0.00    -0.237 OA
ATOM     69  O   UNL A   1      47.845  34.663  25.051  1.00  0.00    -0.237 OA
ATOM     70  O   UNL A   1      45.737  35.721  25.762  1.00  0.00    -0.744 OA
ENDBRANCH  66  67
ENDBRANCH  47  61
BRANCH  48  71
ATOM     71  C   UNL A   1      37.367  31.060  30.089  1.00  0.00    -0.014 A 
ATOM     72  C   UNL A   1      36.478  31.494  31.087  1.00  0.00     0.010 A 
ATOM     73  C   UNL A   1      37.179  31.555  28.780  1.00  0.00     0.010 A 
ATOM     74  C   UNL A   1      35.479  32.438  30.799  1.00  0.00     0.020 A 
ATOM     75  C   UNL A   1      36.174  32.479  28.481  1.00  0.00     0.020 A 
ATOM     76  C   UNL A   1      35.347  32.938  29.501  1.00  0.00     0.054 A 
BRANCH  76  77
ATOM     77  S   UNL A   1      34.171  34.282  29.181  1.00  0.00     0.124 S 
ATOM     78  O   UNL A   1      33.244  33.665  28.237  1.00  0.00    -0.237 OA
ATOM     79  O   UNL A   1      33.634  34.552  30.512  1.00  0.00    -0.237 OA
ATOM     80  O   UNL A   1      35.006  35.347  28.625  1.00  0.00    -0.744 OA
ENDBRANCH  76  77
ENDBRANCH  48  71
BRANCH  60  81
ATOM     81  C   UNL A   1      42.408  29.206  33.604  1.00  0.00    -0.014 A 
ATOM     82  C   UNL A   1      41.840  27.932  33.419  1.00  0.00     0.010 A 
ATOM     83  C   UNL A   1      42.811  29.584  34.897  1.00  0.00     0.010 A 
ATOM     84  C   UNL A   1      41.672  27.061  34.505  1.00  0.00     0.020 A 
ATOM     85  C   UNL A   1      42.662  28.715  35.981  1.00  0.00     0.020 A 
ATOM     86  C   UNL A   1      42.090  27.458  35.779  1.00  0.00     0.054 A 
BRANCH  86  87
ATOM     87  S   UNL A   1      41.940  26.293  37.164  1.00  0.00     0.124 S 
ATOM     88  O   UNL A   1      42.112  24.999  36.510  1.00  0.00    -0.237 OA
ATOM     89  O   UNL A   1      43.029  26.701  38.051  1.00  0.00    -0.237 OA
ATOM     90  O   UNL A   1      40.599  26.548  37.689  1.00  0.00    -0.744 OA
ENDBRANCH  86  87
ENDBRANCH  60  81
ENDBRANCH  34  35
ENDBRANCH  27  29
ENDBRANCH  26  27
ENDBRANCH   1  26
TORSDOF 16
ENDMDL
