MODEL 1
REMARK VINA RESULT:     -11.0      0.000      0.000
REMARK SMILES CC1(C)C[C@@](Cc2ccccc2)(C(=O)OCCOC(=O)c2ccc(-c3c4nc(c(-c5ccc(S(=O)(=O)[O-])cc5)c5ccc([nH]5)c(-c5ccc(S(=O)(=O)[O-])cc5)c5nc(c(-c6ccc(S(=O)(=O)[O-])cc6)c6ccc3[nH]6)C=C5)C=C4)cc2)CCO1
REMARK SMILES IDX 17 1 16 2 15 3 13 4 14 5 5 6 1 7 2 8 3 9 4 10 83 11 82 12
REMARK SMILES IDX 81 13 6 14 7 15 8 16 12 17 9 18 11 19 10 20 18 21 19 22
REMARK SMILES IDX 20 23 21 24 22 25 80 26 23 27 79 28 24 29 25 30 26 31 73 32
REMARK SMILES IDX 27 33 78 34 72 35 74 36 28 37 77 38 71 39 70 40 29 42 59 43
REMARK SMILES IDX 40 44 58 45 41 46 44 47 57 48 75 49 42 50 43 51 56 53 76 54
REMARK SMILES IDX 45 55 30 56 31 57 39 58 32 59 38 60 33 61 34 62 35 63 36 64
REMARK SMILES IDX 37 65 60 66 61 67 69 68 62 69 68 70 63 71 64 72 65 73 66 74
REMARK SMILES IDX 67 75 46 76 47 77 55 78 48 79 54 80 49 81 50 82 51 83 52 84
REMARK SMILES IDX 53 85
REMARK H PARENT 74 41 44 52
REMARK Flexibility Score: inf
ROOT
ATOM      1  C   UNL A   1      33.186  30.367  27.033  1.00  0.00     0.275 C 
ENDROOT
BRANCH   1   2
ATOM      2  C   UNL A   1      33.118  29.657  25.674  1.00  0.00     0.274 C 
BRANCH   2   3
ATOM      3  O   UNL A   1      31.770  29.573  25.161  1.00  0.00    -0.462 OA
BRANCH   3   4
ATOM      4  C   UNL A   1      31.354  28.302  24.901  1.00  0.00     0.312 C 
ATOM      5  O   UNL A   1      31.363  27.428  25.757  1.00  0.00    -0.252 OA
BRANCH   4   6
ATOM      6  C   UNL A   1      30.988  28.044  23.434  1.00  0.00     0.077 C 
ATOM      7  C   UNL A   1      33.659  25.938  23.978  1.00  0.00     0.042 C 
ATOM      8  C   UNL A   1      32.758  26.181  22.754  1.00  0.00     0.064 C 
ATOM      9  C   UNL A   1      32.744  24.840  21.992  1.00  0.00     0.042 C 
ATOM     10  C   UNL A   1      31.283  26.578  23.020  1.00  0.00     0.054 C 
ATOM     11  O   UNL A   1      33.342  27.160  21.885  1.00  0.00    -0.376 OA
ATOM     12  C   UNL A   1      33.290  28.494  22.383  1.00  0.00     0.162 C 
ATOM     13  C   UNL A   1      31.854  28.977  22.554  1.00  0.00     0.047 C 
BRANCH   6  14
ATOM     14  C   UNL A   1      29.489  28.402  23.155  1.00  0.00     0.054 C 
BRANCH  14  15
ATOM     15  C   UNL A   1      29.127  29.810  22.730  1.00  0.00    -0.047 A 
ATOM     16  C   UNL A   1      29.050  30.852  23.667  1.00  0.00     0.004 A 
ATOM     17  C   UNL A   1      28.758  30.081  21.404  1.00  0.00     0.004 A 
ATOM     18  C   UNL A   1      28.631  32.129  23.286  1.00  0.00     0.000 A 
ATOM     19  C   UNL A   1      28.335  31.358  21.025  1.00  0.00     0.000 A 
ATOM     20  C   UNL A   1      28.272  32.382  21.965  1.00  0.00     0.000 A 
ENDBRANCH  14  15
ENDBRANCH   6  14
ENDBRANCH   4   6
ENDBRANCH   3   4
ENDBRANCH   2   3
ENDBRANCH   1   2
BRANCH   1  21
ATOM     21  O   UNL A   1      34.158  29.745  27.888  1.00  0.00    -0.458 OA
BRANCH  21  22
ATOM     22  C   UNL A   1      34.948  30.592  28.596  1.00  0.00     0.338 C 
ATOM     23  O   UNL A   1      34.589  31.640  29.107  1.00  0.00    -0.246 OA
BRANCH  22  24
ATOM     24  C   UNL A   1      36.338  30.066  28.682  1.00  0.00     0.060 A 
ATOM     25  C   UNL A   1      36.861  29.575  29.878  1.00  0.00     0.016 A 
ATOM     26  C   UNL A   1      37.169  30.124  27.561  1.00  0.00     0.016 A 
ATOM     27  C   UNL A   1      38.211  29.228  29.988  1.00  0.00     0.010 A 
ATOM     28  C   UNL A   1      38.502  29.698  27.647  1.00  0.00     0.010 A 
ATOM     29  C   UNL A   1      39.050  29.270  28.869  1.00  0.00    -0.014 A 
BRANCH  29  30
ATOM     30  C   UNL A   1      40.489  28.885  28.960  1.00  0.00     0.031 A 
ATOM     31  C   UNL A   1      41.525  29.906  29.360  1.00  0.00     0.074 A 
ATOM     32  C   UNL A   1      40.889  27.628  28.672  1.00  0.00     0.049 A 
ATOM     33  N   UNL A   1      42.831  29.836  29.280  1.00  0.00    -0.248 NA
ATOM     34  C   UNL A   1      41.026  31.170  29.924  1.00  0.00     0.031 C 
ATOM     35  C   UNL A   1      40.006  26.507  28.345  1.00  0.00     0.029 A 
ATOM     36  N   UNL A   1      42.151  27.085  28.601  1.00  0.00    -0.354 N 
ATOM     37  C   UNL A   1      43.307  31.060  29.737  1.00  0.00     0.074 A 
ATOM     38  C   UNL A   1      42.150  31.852  30.100  1.00  0.00     0.031 C 
ATOM     39  C   UNL A   1      40.748  25.410  28.125  1.00  0.00     0.029 A 
ATOM     40  C   UNL A   1      42.161  25.769  28.201  1.00  0.00     0.049 A 
ATOM     41  H   UNL A   1      42.968  27.590  28.814  1.00  0.00     0.167 HD
ATOM     42  C   UNL A   1      44.589  31.492  29.831  1.00  0.00     0.031 A 
ATOM     43  C   UNL A   1      43.181  24.952  27.870  1.00  0.00     0.031 A 
ATOM     44  C   UNL A   1      45.742  30.703  29.480  1.00  0.00     0.049 A 
ATOM     45  C   UNL A   1      44.589  25.477  27.894  1.00  0.00     0.074 A 
ATOM     46  C   UNL A   1      47.078  31.064  29.520  1.00  0.00     0.029 A 
ATOM     47  N   UNL A   1      45.698  29.392  29.030  1.00  0.00    -0.354 N 
ATOM     48  N   UNL A   1      45.019  26.663  28.252  1.00  0.00    -0.248 NA
ATOM     49  C   UNL A   1      45.647  24.561  27.444  1.00  0.00     0.031 C 
ATOM     50  C   UNL A   1      47.840  29.986  29.053  1.00  0.00     0.029 A 
ATOM     51  C   UNL A   1      46.981  28.936  28.770  1.00  0.00     0.049 A 
ATOM     52  H   UNL A   1      44.876  28.863  28.913  1.00  0.00     0.167 HD
ATOM     53  C   UNL A   1      46.397  26.632  28.078  1.00  0.00     0.074 A 
ATOM     54  C   UNL A   1      46.732  25.306  27.602  1.00  0.00     0.031 C 
ATOM     55  C   UNL A   1      47.303  27.618  28.290  1.00  0.00     0.031 A 
BRANCH  42  56
ATOM     56  C   UNL A   1      44.816  32.910  30.281  1.00  0.00    -0.014 A 
ATOM     57  C   UNL A   1      44.828  33.978  29.368  1.00  0.00     0.010 A 
ATOM     58  C   UNL A   1      44.977  33.181  31.653  1.00  0.00     0.010 A 
ATOM     59  C   UNL A   1      45.034  35.287  29.815  1.00  0.00     0.020 A 
ATOM     60  C   UNL A   1      45.163  34.489  32.106  1.00  0.00     0.020 A 
ATOM     61  C   UNL A   1      45.208  35.533  31.182  1.00  0.00     0.054 A 
BRANCH  61  62
ATOM     62  S   UNL A   1      45.466  37.241  31.740  1.00  0.00     0.124 S 
ATOM     63  O   UNL A   1      46.561  37.082  32.693  1.00  0.00    -0.237 OA
ATOM     64  O   UNL A   1      45.808  37.937  30.502  1.00  0.00    -0.237 OA
ATOM     65  O   UNL A   1      44.180  37.612  32.324  1.00  0.00    -0.744 OA
ENDBRANCH  61  62
ENDBRANCH  42  56
BRANCH  43  66
ATOM     66  C   UNL A   1      42.895  23.566  27.406  1.00  0.00    -0.014 A 
ATOM     67  C   UNL A   1      43.033  23.219  26.052  1.00  0.00     0.010 A 
ATOM     68  C   UNL A   1      42.501  22.579  28.330  1.00  0.00     0.010 A 
ATOM     69  C   UNL A   1      42.780  21.910  25.628  1.00  0.00     0.020 A 
ATOM     70  C   UNL A   1      42.275  21.265  27.915  1.00  0.00     0.020 A 
ATOM     71  C   UNL A   1      42.407  20.940  26.565  1.00  0.00     0.054 A 
BRANCH  71  72
ATOM     72  S   UNL A   1      42.151  19.231  26.011  1.00  0.00     0.124 S 
ATOM     73  O   UNL A   1      40.708  19.198  25.788  1.00  0.00    -0.237 OA
ATOM     74  O   UNL A   1      42.978  19.157  24.810  1.00  0.00    -0.237 OA
ATOM     75  O   UNL A   1      42.630  18.434  27.138  1.00  0.00    -0.744 OA
ENDBRANCH  71  72
ENDBRANCH  43  66
BRANCH  55  76
ATOM     76  C   UNL A   1      48.750  27.292  28.032  1.00  0.00    -0.014 A 
ATOM     77  C   UNL A   1      49.366  27.642  26.818  1.00  0.00     0.010 A 
ATOM     78  C   UNL A   1      49.509  26.660  29.032  1.00  0.00     0.010 A 
ATOM     79  C   UNL A   1      50.712  27.340  26.597  1.00  0.00     0.020 A 
ATOM     80  C   UNL A   1      50.862  26.375  28.824  1.00  0.00     0.020 A 
ATOM     81  C   UNL A   1      51.451  26.704  27.601  1.00  0.00     0.054 A 
BRANCH  81  82
ATOM     82  S   UNL A   1      53.208  26.354  27.310  1.00  0.00     0.124 S 
ATOM     83  O   UNL A   1      53.151  25.067  26.622  1.00  0.00    -0.237 OA
ATOM     84  O   UNL A   1      53.631  27.487  26.489  1.00  0.00    -0.237 OA
ATOM     85  O   UNL A   1      53.780  26.319  28.654  1.00  0.00    -0.744 OA
ENDBRANCH  81  82
ENDBRANCH  55  76
ENDBRANCH  29  30
ENDBRANCH  22  24
ENDBRANCH  21  22
ENDBRANCH   1  21
TORSDOF 16
ENDMDL
MODEL 2
REMARK VINA RESULT:     -10.8      1.458      3.476
REMARK SMILES CC1(C)C[C@@](Cc2ccccc2)(C(=O)OCCOC(=O)c2ccc(-c3c4nc(c(-c5ccc(S(=O)(=O)[O-])cc5)c5ccc([nH]5)c(-c5ccc(S(=O)(=O)[O-])cc5)c5nc(c(-c6ccc(S(=O)(=O)[O-])cc6)c6ccc3[nH]6)C=C5)C=C4)cc2)CCO1
REMARK SMILES IDX 17 1 16 2 15 3 13 4 14 5 5 6 1 7 2 8 3 9 4 10 83 11 82 12
REMARK SMILES IDX 81 13 6 14 7 15 8 16 12 17 9 18 11 19 10 20 18 21 19 22
REMARK SMILES IDX 20 23 21 24 22 25 80 26 23 27 79 28 24 29 25 30 26 31 73 32
REMARK SMILES IDX 27 33 78 34 72 35 74 36 28 37 77 38 71 39 70 40 29 42 59 43
REMARK SMILES IDX 40 44 58 45 41 46 44 47 57 48 75 49 42 50 43 51 56 53 76 54
REMARK SMILES IDX 45 55 30 56 31 57 39 58 32 59 38 60 33 61 34 62 35 63 36 64
REMARK SMILES IDX 37 65 60 66 61 67 69 68 62 69 68 70 63 71 64 72 65 73 66 74
REMARK SMILES IDX 67 75 46 76 47 77 55 78 48 79 54 80 49 81 50 82 51 83 52 84
REMARK SMILES IDX 53 85
REMARK H PARENT 74 41 44 52
REMARK Flexibility Score: inf
ROOT
ATOM      1  C   UNL A   1      32.546  30.001  27.240  1.00  0.00     0.275 C 
ENDROOT
BRANCH   1   2
ATOM      2  C   UNL A   1      31.945  29.381  25.971  1.00  0.00     0.274 C 
BRANCH   2   3
ATOM      3  O   UNL A   1      32.717  28.260  25.485  1.00  0.00    -0.462 OA
BRANCH   3   4
ATOM      4  C   UNL A   1      32.191  27.044  25.806  1.00  0.00     0.312 C 
ATOM      5  O   UNL A   1      31.337  26.914  26.673  1.00  0.00    -0.252 OA
BRANCH   4   6
ATOM      6  C   UNL A   1      32.839  25.862  25.073  1.00  0.00     0.077 C 
ATOM      7  C   UNL A   1      30.752  27.235  22.700  1.00  0.00     0.042 C 
ATOM      8  C   UNL A   1      31.742  26.056  22.660  1.00  0.00     0.064 C 
ATOM      9  C   UNL A   1      32.222  25.985  21.195  1.00  0.00     0.042 C 
ATOM     10  C   UNL A   1      33.002  26.151  23.557  1.00  0.00     0.054 C 
ATOM     11  O   UNL A   1      31.069  24.824  22.948  1.00  0.00    -0.376 OA
ATOM     12  C   UNL A   1      30.695  24.664  24.314  1.00  0.00     0.162 C 
ATOM     13  C   UNL A   1      31.912  24.634  25.233  1.00  0.00     0.047 C 
BRANCH   6  14
ATOM     14  C   UNL A   1      34.219  25.490  25.713  1.00  0.00     0.054 C 
BRANCH  14  15
ATOM     15  C   UNL A   1      34.788  24.102  25.497  1.00  0.00    -0.047 A 
ATOM     16  C   UNL A   1      35.239  23.694  24.232  1.00  0.00     0.004 A 
ATOM     17  C   UNL A   1      34.781  23.160  26.535  1.00  0.00     0.004 A 
ATOM     18  C   UNL A   1      35.682  22.387  24.016  1.00  0.00     0.000 A 
ATOM     19  C   UNL A   1      35.221  21.851  26.317  1.00  0.00     0.000 A 
ATOM     20  C   UNL A   1      35.672  21.465  25.059  1.00  0.00     0.000 A 
ENDBRANCH  14  15
ENDBRANCH   6  14
ENDBRANCH   4   6
ENDBRANCH   3   4
ENDBRANCH   2   3
ENDBRANCH   1   2
BRANCH   1  21
ATOM     21  O   UNL A   1      33.975  29.863  27.250  1.00  0.00    -0.458 OA
BRANCH  21  22
ATOM     22  C   UNL A   1      34.628  30.569  28.208  1.00  0.00     0.338 C 
ATOM     23  O   UNL A   1      34.159  31.489  28.858  1.00  0.00    -0.246 OA
BRANCH  22  24
ATOM     24  C   UNL A   1      36.017  30.062  28.379  1.00  0.00     0.060 A 
ATOM     25  C   UNL A   1      36.480  29.600  29.611  1.00  0.00     0.016 A 
ATOM     26  C   UNL A   1      36.908  30.112  27.305  1.00  0.00     0.016 A 
ATOM     27  C   UNL A   1      37.826  29.271  29.801  1.00  0.00     0.010 A 
ATOM     28  C   UNL A   1      38.239  29.704  27.471  1.00  0.00     0.010 A 
ATOM     29  C   UNL A   1      38.724  29.305  28.729  1.00  0.00    -0.014 A 
BRANCH  29  30
ATOM     30  C   UNL A   1      40.161  28.940  28.905  1.00  0.00     0.031 A 
ATOM     31  C   UNL A   1      41.156  29.973  29.371  1.00  0.00     0.074 A 
ATOM     32  C   UNL A   1      40.595  27.691  28.637  1.00  0.00     0.049 A 
ATOM     33  N   UNL A   1      42.465  29.923  29.370  1.00  0.00    -0.248 NA
ATOM     34  C   UNL A   1      40.605  31.228  29.908  1.00  0.00     0.031 C 
ATOM     35  C   UNL A   1      39.751  26.558  28.254  1.00  0.00     0.029 A 
ATOM     36  N   UNL A   1      41.867  27.166  28.640  1.00  0.00    -0.354 N 
ATOM     37  C   UNL A   1      42.895  31.151  29.859  1.00  0.00     0.074 A 
ATOM     38  C   UNL A   1      41.707  31.926  30.154  1.00  0.00     0.031 C 
ATOM     39  C   UNL A   1      40.520  25.473  28.075  1.00  0.00     0.029 A 
ATOM     40  C   UNL A   1      41.921  25.852  28.237  1.00  0.00     0.049 A 
ATOM     41  H   UNL A   1      42.662  27.681  28.905  1.00  0.00     0.167 HD
ATOM     42  C   UNL A   1      44.162  31.601  30.033  1.00  0.00     0.031 A 
ATOM     43  C   UNL A   1      42.971  25.050  27.965  1.00  0.00     0.031 A 
ATOM     44  C   UNL A   1      45.345  30.830  29.748  1.00  0.00     0.049 A 
ATOM     45  C   UNL A   1      44.366  25.596  28.076  1.00  0.00     0.074 A 
ATOM     46  C   UNL A   1      46.672  31.210  29.871  1.00  0.00     0.029 A 
ATOM     47  N   UNL A   1      45.348  29.521  29.292  1.00  0.00    -0.354 N 
ATOM     48  N   UNL A   1      44.757  26.786  28.464  1.00  0.00    -0.248 NA
ATOM     49  C   UNL A   1      45.463  24.697  27.688  1.00  0.00     0.031 C 
ATOM     50  C   UNL A   1      47.476  30.146  29.447  1.00  0.00     0.029 A 
ATOM     51  C   UNL A   1      46.651  29.085  29.108  1.00  0.00     0.049 A 
ATOM     52  H   UNL A   1      44.543  28.981  29.123  1.00  0.00     0.167 HD
ATOM     53  C   UNL A   1      46.144  26.776  28.374  1.00  0.00     0.074 A 
ATOM     54  C   UNL A   1      46.526  25.457  27.913  1.00  0.00     0.031 C 
ATOM     55  C   UNL A   1      47.021  27.774  28.643  1.00  0.00     0.031 A 
BRANCH  42  56
ATOM     56  C   UNL A   1      44.341  33.020  30.500  1.00  0.00    -0.014 A 
ATOM     57  C   UNL A   1      44.519  33.331  31.859  1.00  0.00     0.010 A 
ATOM     58  C   UNL A   1      44.372  34.060  29.551  1.00  0.00     0.010 A 
ATOM     59  C   UNL A   1      44.689  34.659  32.264  1.00  0.00     0.020 A 
ATOM     60  C   UNL A   1      44.562  35.385  29.949  1.00  0.00     0.020 A 
ATOM     61  C   UNL A   1      44.702  35.679  31.305  1.00  0.00     0.054 A 
BRANCH  61  62
ATOM     62  S   UNL A   1      44.932  37.394  31.854  1.00  0.00     0.124 S 
ATOM     63  O   UNL A   1      43.621  37.705  32.418  1.00  0.00    -0.237 OA
ATOM     64  O   UNL A   1      46.020  37.281  32.821  1.00  0.00    -0.237 OA
ATOM     65  O   UNL A   1      45.267  38.108  30.624  1.00  0.00    -0.744 OA
ENDBRANCH  61  62
ENDBRANCH  42  56
BRANCH  43  66
ATOM     66  C   UNL A   1      42.734  23.663  27.480  1.00  0.00    -0.014 A 
ATOM     67  C   UNL A   1      42.758  23.369  26.106  1.00  0.00     0.010 A 
ATOM     68  C   UNL A   1      42.501  22.623  28.400  1.00  0.00     0.010 A 
ATOM     69  C   UNL A   1      42.552  22.058  25.661  1.00  0.00     0.020 A 
ATOM     70  C   UNL A   1      42.323  21.310  27.960  1.00  0.00     0.020 A 
ATOM     71  C   UNL A   1      42.340  21.036  26.592  1.00  0.00     0.054 A 
BRANCH  71  72
ATOM     72  S   UNL A   1      42.146  19.332  26.002  1.00  0.00     0.124 S 
ATOM     73  O   UNL A   1      40.721  19.282  25.686  1.00  0.00    -0.237 OA
ATOM     74  O   UNL A   1      43.050  19.284  24.856  1.00  0.00    -0.237 OA
ATOM     75  O   UNL A   1      42.563  18.527  27.147  1.00  0.00    -0.744 OA
ENDBRANCH  71  72
ENDBRANCH  43  66
BRANCH  55  76
ATOM     76  C   UNL A   1      48.485  27.469  28.472  1.00  0.00    -0.014 A 
ATOM     77  C   UNL A   1      49.164  26.641  29.382  1.00  0.00     0.010 A 
ATOM     78  C   UNL A   1      49.179  27.991  27.366  1.00  0.00     0.010 A 
ATOM     79  C   UNL A   1      50.521  26.361  29.204  1.00  0.00     0.020 A 
ATOM     80  C   UNL A   1      50.531  27.696  27.173  1.00  0.00     0.020 A 
ATOM     81  C   UNL A   1      51.197  26.894  28.102  1.00  0.00     0.054 A 
BRANCH  81  82
ATOM     82  S   UNL A   1      52.951  26.489  27.867  1.00  0.00     0.124 S 
ATOM     83  O   UNL A   1      53.440  27.660  27.145  1.00  0.00    -0.237 OA
ATOM     84  O   UNL A   1      53.436  26.349  29.239  1.00  0.00    -0.237 OA
ATOM     85  O   UNL A   1      52.918  25.248  27.096  1.00  0.00    -0.744 OA
ENDBRANCH  81  82
ENDBRANCH  55  76
ENDBRANCH  29  30
ENDBRANCH  22  24
ENDBRANCH  21  22
ENDBRANCH   1  21
TORSDOF 16
ENDMDL
MODEL 3
REMARK VINA RESULT:     -10.8      4.011      9.846
REMARK SMILES CC1(C)C[C@@](Cc2ccccc2)(C(=O)OCCOC(=O)c2ccc(-c3c4nc(c(-c5ccc(S(=O)(=O)[O-])cc5)c5ccc([nH]5)c(-c5ccc(S(=O)(=O)[O-])cc5)c5nc(c(-c6ccc(S(=O)(=O)[O-])cc6)c6ccc3[nH]6)C=C5)C=C4)cc2)CCO1
REMARK SMILES IDX 17 1 16 2 15 3 13 4 14 5 5 6 1 7 2 8 3 9 4 10 83 11 82 12
REMARK SMILES IDX 81 13 6 14 7 15 8 16 12 17 9 18 11 19 10 20 18 21 19 22
REMARK SMILES IDX 20 23 21 24 22 25 80 26 23 27 79 28 24 29 25 30 26 31 73 32
REMARK SMILES IDX 27 33 78 34 72 35 74 36 28 37 77 38 71 39 70 40 29 42 59 43
REMARK SMILES IDX 40 44 58 45 41 46 44 47 57 48 75 49 42 50 43 51 56 53 76 54
REMARK SMILES IDX 45 55 30 56 31 57 39 58 32 59 38 60 33 61 34 62 35 63 36 64
REMARK SMILES IDX 37 65 60 66 61 67 69 68 62 69 68 70 63 71 64 72 65 73 66 74
REMARK SMILES IDX 67 75 46 76 47 77 55 78 48 79 54 80 49 81 50 82 51 83 52 84
REMARK SMILES IDX 53 85
REMARK H PARENT 74 41 44 52
REMARK Flexibility Score: inf
ROOT
ATOM      1  C   UNL A   1      36.259  22.656  25.522  1.00  0.00     0.275 C 
ENDROOT
BRANCH   1   2
ATOM      2  C   UNL A   1      35.061  23.527  25.926  1.00  0.00     0.274 C 
BRANCH   2   3
ATOM      3  O   UNL A   1      34.853  24.636  25.023  1.00  0.00    -0.462 OA
BRANCH   3   4
ATOM      4  C   UNL A   1      33.861  25.486  25.409  1.00  0.00     0.312 C 
ATOM      5  O   UNL A   1      33.386  25.461  26.536  1.00  0.00    -0.252 OA
BRANCH   4   6
ATOM      6  C   UNL A   1      33.327  26.384  24.286  1.00  0.00     0.077 C 
ATOM      7  C   UNL A   1      30.696  24.255  24.935  1.00  0.00     0.042 C 
ATOM      8  C   UNL A   1      30.863  25.440  23.966  1.00  0.00     0.064 C 
ATOM      9  C   UNL A   1      29.444  26.026  23.801  1.00  0.00     0.042 C 
ATOM     10  C   UNL A   1      31.794  26.598  24.406  1.00  0.00     0.054 C 
ATOM     11  O   UNL A   1      31.286  24.980  22.676  1.00  0.00    -0.376 OA
ATOM     12  C   UNL A   1      32.643  24.547  22.623  1.00  0.00     0.162 C 
ATOM     13  C   UNL A   1      33.611  25.682  22.937  1.00  0.00     0.047 C 
BRANCH   6  14
ATOM     14  C   UNL A   1      34.072  27.760  24.260  1.00  0.00     0.054 C 
BRANCH  14  15
ATOM     15  C   UNL A   1      33.760  28.796  25.322  1.00  0.00    -0.047 A 
ATOM     16  C   UNL A   1      34.528  28.886  26.493  1.00  0.00     0.004 A 
ATOM     17  C   UNL A   1      32.630  29.618  25.204  1.00  0.00     0.004 A 
ATOM     18  C   UNL A   1      34.185  29.782  27.508  1.00  0.00     0.000 A 
ATOM     19  C   UNL A   1      32.285  30.511  26.222  1.00  0.00     0.000 A 
ATOM     20  C   UNL A   1      33.062  30.594  27.373  1.00  0.00     0.000 A 
ENDBRANCH  14  15
ENDBRANCH   6  14
ENDBRANCH   4   6
ENDBRANCH   3   4
ENDBRANCH   2   3
ENDBRANCH   1   2
BRANCH   1  21
ATOM     21  O   UNL A   1      37.397  23.470  25.199  1.00  0.00    -0.458 OA
BRANCH  21  22
ATOM     22  C   UNL A   1      38.566  23.106  25.784  1.00  0.00     0.338 C 
ATOM     23  O   UNL A   1      39.131  22.034  25.639  1.00  0.00    -0.246 OA
BRANCH  22  24
ATOM     24  C   UNL A   1      39.093  24.207  26.636  1.00  0.00     0.060 A 
ATOM     25  C   UNL A   1      38.745  24.319  27.982  1.00  0.00     0.016 A 
ATOM     26  C   UNL A   1      39.900  25.194  26.068  1.00  0.00     0.016 A 
ATOM     27  C   UNL A   1      39.118  25.438  28.734  1.00  0.00     0.010 A 
ATOM     28  C   UNL A   1      40.345  26.276  26.842  1.00  0.00     0.010 A 
ATOM     29  C   UNL A   1      39.937  26.428  28.179  1.00  0.00    -0.014 A 
BRANCH  29  30
ATOM     30  C   UNL A   1      40.363  27.619  28.970  1.00  0.00     0.031 A 
ATOM     31  C   UNL A   1      41.677  27.609  29.711  1.00  0.00     0.074 A 
ATOM     32  C   UNL A   1      39.578  28.714  29.049  1.00  0.00     0.049 A 
ATOM     33  N   UNL A   1      42.120  28.438  30.624  1.00  0.00    -0.248 NA
ATOM     34  C   UNL A   1      42.615  26.524  29.381  1.00  0.00     0.031 C 
ATOM     35  C   UNL A   1      38.318  28.914  28.331  1.00  0.00     0.029 A 
ATOM     36  N   UNL A   1      39.725  29.870  29.782  1.00  0.00    -0.354 N 
ATOM     37  C   UNL A   1      43.363  27.950  31.011  1.00  0.00     0.074 A 
ATOM     38  C   UNL A   1      43.608  26.756  30.229  1.00  0.00     0.031 C 
ATOM     39  C   UNL A   1      37.817  30.119  28.645  1.00  0.00     0.029 A 
ATOM     40  C   UNL A   1      38.667  30.739  29.656  1.00  0.00     0.049 A 
ATOM     41  H   UNL A   1      40.512  30.055  30.343  1.00  0.00     0.167 HD
ATOM     42  C   UNL A   1      44.216  28.441  31.944  1.00  0.00     0.031 A 
ATOM     43  C   UNL A   1      38.372  31.877  30.317  1.00  0.00     0.031 A 
ATOM     44  C   UNL A   1      43.979  29.633  32.717  1.00  0.00     0.049 A 
ATOM     45  C   UNL A   1      39.284  32.356  31.410  1.00  0.00     0.074 A 
ATOM     46  C   UNL A   1      44.775  30.196  33.701  1.00  0.00     0.029 A 
ATOM     47  N   UNL A   1      42.867  30.452  32.589  1.00  0.00    -0.354 N 
ATOM     48  N   UNL A   1      40.418  31.841  31.821  1.00  0.00    -0.248 NA
ATOM     49  C   UNL A   1      38.865  33.557  32.146  1.00  0.00     0.031 C 
ATOM     50  C   UNL A   1      44.123  31.330  34.199  1.00  0.00     0.029 A 
ATOM     51  C   UNL A   1      42.946  31.503  33.490  1.00  0.00     0.049 A 
ATOM     52  H   UNL A   1      42.130  30.308  31.953  1.00  0.00     0.167 HD
ATOM     53  C   UNL A   1      40.850  32.659  32.858  1.00  0.00     0.074 A 
ATOM     54  C   UNL A   1      39.867  33.714  32.999  1.00  0.00     0.031 C 
ATOM     55  C   UNL A   1      41.960  32.543  33.628  1.00  0.00     0.031 A 
BRANCH  42  56
ATOM     56  C   UNL A   1      45.467  27.655  32.228  1.00  0.00    -0.014 A 
ATOM     57  C   UNL A   1      45.466  26.565  33.116  1.00  0.00     0.010 A 
ATOM     58  C   UNL A   1      46.659  27.990  31.556  1.00  0.00     0.010 A 
ATOM     59  C   UNL A   1      46.643  25.848  33.355  1.00  0.00     0.020 A 
ATOM     60  C   UNL A   1      47.831  27.263  31.777  1.00  0.00     0.020 A 
ATOM     61  C   UNL A   1      47.820  26.207  32.689  1.00  0.00     0.054 A 
BRANCH  61  62
ATOM     62  S   UNL A   1      49.334  25.257  33.010  1.00  0.00     0.124 S 
ATOM     63  O   UNL A   1      50.157  26.236  33.715  1.00  0.00    -0.237 OA
ATOM     64  O   UNL A   1      48.849  24.143  33.821  1.00  0.00    -0.237 OA
ATOM     65  O   UNL A   1      49.803  24.893  31.675  1.00  0.00    -0.744 OA
ENDBRANCH  61  62
ENDBRANCH  42  56
BRANCH  43  66
ATOM     66  C   UNL A   1      37.106  32.599  30.013  1.00  0.00    -0.014 A 
ATOM     67  C   UNL A   1      35.938  32.343  30.751  1.00  0.00     0.010 A 
ATOM     68  C   UNL A   1      37.072  33.566  28.990  1.00  0.00     0.010 A 
ATOM     69  C   UNL A   1      34.758  33.040  30.470  1.00  0.00     0.020 A 
ATOM     70  C   UNL A   1      35.904  34.283  28.725  1.00  0.00     0.020 A 
ATOM     71  C   UNL A   1      34.750  34.009  29.461  1.00  0.00     0.054 A 
BRANCH  71  72
ATOM     72  S   UNL A   1      33.231  34.954  29.157  1.00  0.00     0.124 S 
ATOM     73  O   UNL A   1      33.759  36.231  28.686  1.00  0.00    -0.237 OA
ATOM     74  O   UNL A   1      32.547  34.144  28.152  1.00  0.00    -0.237 OA
ATOM     75  O   UNL A   1      32.584  34.986  30.466  1.00  0.00    -0.744 OA
ENDBRANCH  71  72
ENDBRANCH  43  66
BRANCH  55  76
ATOM     76  C   UNL A   1      42.185  33.598  34.677  1.00  0.00    -0.014 A 
ATOM     77  C   UNL A   1      42.836  34.804  34.363  1.00  0.00     0.010 A 
ATOM     78  C   UNL A   1      41.706  33.394  35.983  1.00  0.00     0.010 A 
ATOM     79  C   UNL A   1      43.030  35.777  35.347  1.00  0.00     0.020 A 
ATOM     80  C   UNL A   1      41.878  34.375  36.964  1.00  0.00     0.020 A 
ATOM     81  C   UNL A   1      42.553  35.554  36.643  1.00  0.00     0.054 A 
BRANCH  81  82
ATOM     82  S   UNL A   1      42.781  36.847  37.897  1.00  0.00     0.124 S 
ATOM     83  O   UNL A   1      41.402  37.206  38.217  1.00  0.00    -0.237 OA
ATOM     84  O   UNL A   1      43.509  36.147  38.953  1.00  0.00    -0.237 OA
ATOM     85  O   UNL A   1      43.548  37.875  37.197  1.00  0.00    -0.744 OA
ENDBRANCH  81  82
ENDBRANCH  55  76
ENDBRANCH  29  30
ENDBRANCH  22  24
ENDBRANCH  21  22
ENDBRANCH   1  21
TORSDOF 16
ENDMDL
