MODEL 1
REMARK VINA RESULT:     -10.2      0.000      0.000
REMARK SMILES CC1(C)CCCC[C@@]1(C(=O)OCCOC(=O)c1ccc(-c2c3nc(c(-c4ccc(S(=O)(=O)[O-])cc4)c4ccc([nH]4)c(-c4ccc(S(=O)(=O)[O-])cc4)c4nc(c(-c5ccc(S(=O)(=O)[O-])cc5)c5ccc2[nH]5)C=C4)C=C3)cc1)[NH+]1CC[NH2+]CC1
REMARK SMILES IDX 13 1 12 2 11 3 9 4 10 5 8 6 1 7 2 8 3 9 4 10 5 11 7 12 6 13
REMARK SMILES IDX 77 14 78 15 82 16 79 18 81 19 80 20 14 23 15 24 16 25 17 26
REMARK SMILES IDX 18 27 76 28 19 29 75 30 20 31 21 32 22 33 69 34 23 35 74 36
REMARK SMILES IDX 68 37 70 38 24 39 73 40 67 41 66 42 25 44 55 45 36 46 54 47
REMARK SMILES IDX 37 48 40 49 53 50 71 51 38 52 39 53 52 55 72 56 41 57 26 58
REMARK SMILES IDX 27 59 35 60 28 61 34 62 29 63 30 64 31 65 32 66 33 67 56 68
REMARK SMILES IDX 57 69 65 70 58 71 64 72 59 73 60 74 61 75 62 76 63 77 42 78
REMARK SMILES IDX 43 79 51 80 44 81 50 82 45 83 46 84 47 85 48 86 49 87
REMARK H PARENT 77 17 80 21 80 22 70 43 40 54
REMARK Flexibility Score: inf
ROOT
ATOM      1  C   UNL A   1      33.468  31.864  27.743  1.00  0.00     0.275 C 
ENDROOT
BRANCH   1   2
ATOM      2  C   UNL A   1      34.277  33.042  28.287  1.00  0.00     0.274 C 
BRANCH   2   3
ATOM      3  O   UNL A   1      34.873  32.751  29.571  1.00  0.00    -0.457 OA
BRANCH   3   4
ATOM      4  C   UNL A   1      35.818  33.622  30.009  1.00  0.00     0.368 C 
ATOM      5  O   UNL A   1      36.689  34.070  29.268  1.00  0.00    -0.245 OA
BRANCH   4   6
ATOM      6  C   UNL A   1      35.847  33.840  31.586  1.00  0.00     0.201 C 
ATOM      7  C   UNL A   1      37.437  33.892  33.733  1.00  0.00     0.018 C 
ATOM      8  C   UNL A   1      37.350  33.714  32.188  1.00  0.00     0.031 C 
ATOM      9  C   UNL A   1      38.350  34.745  31.608  1.00  0.00     0.018 C 
ATOM     10  C   UNL A   1      37.914  32.286  31.894  1.00  0.00     0.013 C 
ATOM     11  C   UNL A   1      37.061  31.183  32.510  1.00  0.00     0.001 C 
ATOM     12  C   UNL A   1      35.001  32.643  32.177  1.00  0.00     0.082 C 
ATOM     13  C   UNL A   1      35.639  31.263  31.998  1.00  0.00     0.007 C 
BRANCH   6  14
ATOM     14  N   UNL A   1      35.142  35.194  31.810  1.00  0.00    -0.311 N 
ATOM     15  C   UNL A   1      34.815  35.523  33.210  1.00  0.00     0.325 C 
ATOM     16  C   UNL A   1      33.910  35.352  30.971  1.00  0.00     0.325 C 
ATOM     17  H   UNL A   1      35.854  35.859  31.513  1.00  0.00     0.349 HD
ATOM     18  C   UNL A   1      33.958  36.797  33.406  1.00  0.00     0.322 C 
ATOM     19  C   UNL A   1      33.045  36.604  31.239  1.00  0.00     0.322 C 
ATOM     20  N   UNL A   1      32.701  36.768  32.653  1.00  0.00    -0.337 N 
ATOM     21  H   UNL A   1      32.191  37.641  32.790  1.00  0.00     0.346 HD
ATOM     22  H   UNL A   1      32.106  36.003  32.972  1.00  0.00     0.346 HD
ENDBRANCH   6  14
ENDBRANCH   4   6
ENDBRANCH   3   4
ENDBRANCH   2   3
ENDBRANCH   1   2
BRANCH   1  23
ATOM     23  O   UNL A   1      34.342  30.952  27.064  1.00  0.00    -0.458 OA
BRANCH  23  24
ATOM     24  C   UNL A   1      34.612  29.787  27.700  1.00  0.00     0.338 C 
ATOM     25  O   UNL A   1      33.813  28.892  27.924  1.00  0.00    -0.246 OA
BRANCH  24  26
ATOM     26  C   UNL A   1      36.055  29.704  28.050  1.00  0.00     0.060 A 
ATOM     27  C   UNL A   1      37.049  30.044  27.133  1.00  0.00     0.016 A 
ATOM     28  C   UNL A   1      36.433  29.157  29.275  1.00  0.00     0.016 A 
ATOM     29  C   UNL A   1      38.379  29.698  27.361  1.00  0.00     0.010 A 
ATOM     30  C   UNL A   1      37.789  28.941  29.561  1.00  0.00     0.010 A 
ATOM     31  C   UNL A   1      38.781  29.163  28.588  1.00  0.00    -0.014 A 
BRANCH  31  32
ATOM     32  C   UNL A   1      40.207  28.801  28.848  1.00  0.00     0.031 A 
ATOM     33  C   UNL A   1      41.145  29.827  29.438  1.00  0.00     0.074 A 
ATOM     34  C   UNL A   1      40.688  27.571  28.565  1.00  0.00     0.049 A 
ATOM     35  N   UNL A   1      42.453  29.848  29.432  1.00  0.00    -0.248 NA
ATOM     36  C   UNL A   1      40.533  30.992  30.098  1.00  0.00     0.031 C 
ATOM     37  C   UNL A   1      39.908  26.436  28.065  1.00  0.00     0.029 A 
ATOM     38  N   UNL A   1      41.964  27.069  28.663  1.00  0.00    -0.354 N 
ATOM     39  C   UNL A   1      42.816  31.070  29.985  1.00  0.00     0.074 A 
ATOM     40  C   UNL A   1      41.592  31.748  30.353  1.00  0.00     0.031 C 
ATOM     41  C   UNL A   1      40.705  25.362  27.956  1.00  0.00     0.029 A 
ATOM     42  C   UNL A   1      42.075  25.761  28.250  1.00  0.00     0.049 A 
ATOM     43  H   UNL A   1      42.726  27.594  28.999  1.00  0.00     0.167 HD
ATOM     44  C   UNL A   1      44.058  31.586  30.148  1.00  0.00     0.031 A 
ATOM     45  C   UNL A   1      43.155  24.981  28.052  1.00  0.00     0.031 A 
ATOM     46  C   UNL A   1      45.272  30.870  29.861  1.00  0.00     0.049 A 
ATOM     47  C   UNL A   1      44.523  25.567  28.241  1.00  0.00     0.074 A 
ATOM     48  C   UNL A   1      46.581  31.304  29.986  1.00  0.00     0.029 A 
ATOM     49  N   UNL A   1      45.328  29.555  29.427  1.00  0.00    -0.354 N 
ATOM     50  N   UNL A   1      44.853  26.776  28.627  1.00  0.00    -0.248 NA
ATOM     51  C   UNL A   1      45.664  24.695  27.931  1.00  0.00     0.031 C 
ATOM     52  C   UNL A   1      47.428  30.256  29.609  1.00  0.00     0.029 A 
ATOM     53  C   UNL A   1      46.646  29.160  29.285  1.00  0.00     0.049 A 
ATOM     54  H   UNL A   1      44.545  28.985  29.247  1.00  0.00     0.167 HD
ATOM     55  C   UNL A   1      46.241  26.813  28.597  1.00  0.00     0.074 A 
ATOM     56  C   UNL A   1      46.690  25.498  28.185  1.00  0.00     0.031 C 
ATOM     57  C   UNL A   1      47.071  27.847  28.874  1.00  0.00     0.031 A 
BRANCH  44  58
ATOM     58  C   UNL A   1      44.174  33.014  30.606  1.00  0.00    -0.014 A 
ATOM     59  C   UNL A   1      44.091  34.091  29.709  1.00  0.00     0.010 A 
ATOM     60  C   UNL A   1      44.302  33.277  31.985  1.00  0.00     0.010 A 
ATOM     61  C   UNL A   1      44.156  35.407  30.180  1.00  0.00     0.020 A 
ATOM     62  C   UNL A   1      44.347  34.589  32.461  1.00  0.00     0.020 A 
ATOM     63  C   UNL A   1      44.286  35.648  31.552  1.00  0.00     0.054 A 
BRANCH  63  64
ATOM     64  S   UNL A   1      44.319  37.363  32.146  1.00  0.00     0.124 S 
ATOM     65  O   UNL A   1      43.900  38.100  30.957  1.00  0.00    -0.237 OA
ATOM     66  O   UNL A   1      43.356  37.343  33.245  1.00  0.00    -0.237 OA
ATOM     67  O   UNL A   1      45.709  37.563  32.547  1.00  0.00    -0.744 OA
ENDBRANCH  63  64
ENDBRANCH  44  58
BRANCH  45  68
ATOM     68  C   UNL A   1      42.982  23.588  27.560  1.00  0.00    -0.014 A 
ATOM     69  C   UNL A   1      42.654  22.552  28.450  1.00  0.00     0.010 A 
ATOM     70  C   UNL A   1      43.111  23.299  26.189  1.00  0.00     0.010 A 
ATOM     71  C   UNL A   1      42.456  21.250  27.978  1.00  0.00     0.020 A 
ATOM     72  C   UNL A   1      42.885  22.007  25.709  1.00  0.00     0.020 A 
ATOM     73  C   UNL A   1      42.567  20.988  26.609  1.00  0.00     0.054 A 
BRANCH  73  74
ATOM     74  S   UNL A   1      42.223  19.315  25.993  1.00  0.00     0.124 S 
ATOM     75  O   UNL A   1      43.037  19.265  24.784  1.00  0.00    -0.237 OA
ATOM     76  O   UNL A   1      42.670  18.467  27.095  1.00  0.00    -0.237 OA
ATOM     77  O   UNL A   1      40.777  19.328  25.778  1.00  0.00    -0.744 OA
ENDBRANCH  73  74
ENDBRANCH  45  68
BRANCH  57  78
ATOM     78  C   UNL A   1      48.544  27.587  28.767  1.00  0.00    -0.014 A 
ATOM     79  C   UNL A   1      49.262  27.045  29.847  1.00  0.00     0.010 A 
ATOM     80  C   UNL A   1      49.210  27.854  27.558  1.00  0.00     0.010 A 
ATOM     81  C   UNL A   1      50.633  26.802  29.729  1.00  0.00     0.020 A 
ATOM     82  C   UNL A   1      50.577  27.597  27.432  1.00  0.00     0.020 A 
ATOM     83  C   UNL A   1      51.282  27.086  28.524  1.00  0.00     0.054 A 
BRANCH  83  84
ATOM     84  S   UNL A   1      53.056  26.736  28.379  1.00  0.00     0.124 S 
ATOM     85  O   UNL A   1      53.397  26.335  29.741  1.00  0.00    -0.237 OA
ATOM     86  O   UNL A   1      53.096  25.669  27.382  1.00  0.00    -0.237 OA
ATOM     87  O   UNL A   1      53.624  28.009  27.943  1.00  0.00    -0.744 OA
ENDBRANCH  83  84
ENDBRANCH  57  78
ENDBRANCH  31  32
ENDBRANCH  24  26
ENDBRANCH  23  24
ENDBRANCH   1  23
TORSDOF 15
ENDMDL
MODEL 2
REMARK VINA RESULT:     -10.1      3.385      5.917
REMARK SMILES CC1(C)CCCC[C@@]1(C(=O)OCCOC(=O)c1ccc(-c2c3nc(c(-c4ccc(S(=O)(=O)[O-])cc4)c4ccc([nH]4)c(-c4ccc(S(=O)(=O)[O-])cc4)c4nc(c(-c5ccc(S(=O)(=O)[O-])cc5)c5ccc2[nH]5)C=C4)C=C3)cc1)[NH+]1CC[NH2+]CC1
REMARK SMILES IDX 13 1 12 2 11 3 9 4 10 5 8 6 1 7 2 8 3 9 4 10 5 11 7 12 6 13
REMARK SMILES IDX 77 14 78 15 82 16 79 18 81 19 80 20 14 23 15 24 16 25 17 26
REMARK SMILES IDX 18 27 76 28 19 29 75 30 20 31 21 32 22 33 69 34 23 35 74 36
REMARK SMILES IDX 68 37 70 38 24 39 73 40 67 41 66 42 25 44 55 45 36 46 54 47
REMARK SMILES IDX 37 48 40 49 53 50 71 51 38 52 39 53 52 55 72 56 41 57 26 58
REMARK SMILES IDX 27 59 35 60 28 61 34 62 29 63 30 64 31 65 32 66 33 67 56 68
REMARK SMILES IDX 57 69 65 70 58 71 64 72 59 73 60 74 61 75 62 76 63 77 42 78
REMARK SMILES IDX 43 79 51 80 44 81 50 82 45 83 46 84 47 85 48 86 49 87
REMARK H PARENT 77 17 80 21 80 22 70 43 40 54
REMARK Flexibility Score: inf
ROOT
ATOM      1  C   UNL A   1      33.711  28.700  27.493  1.00  0.00     0.275 C 
ENDROOT
BRANCH   1   2
ATOM      2  C   UNL A   1      33.018  28.051  26.294  1.00  0.00     0.274 C 
BRANCH   2   3
ATOM      3  O   UNL A   1      33.471  26.698  26.065  1.00  0.00    -0.457 OA
BRANCH   3   4
ATOM      4  C   UNL A   1      32.512  25.739  26.021  1.00  0.00     0.368 C 
ATOM      5  O   UNL A   1      31.550  25.740  26.786  1.00  0.00    -0.245 OA
BRANCH   4   6
ATOM      6  C   UNL A   1      32.840  24.507  25.067  1.00  0.00     0.201 C 
ATOM      7  C   UNL A   1      32.630  21.856  24.809  1.00  0.00     0.018 C 
ATOM      8  C   UNL A   1      32.313  23.102  25.689  1.00  0.00     0.031 C 
ATOM      9  C   UNL A   1      30.783  23.051  25.921  1.00  0.00     0.018 C 
ATOM     10  C   UNL A   1      33.013  22.842  27.061  1.00  0.00     0.013 C 
ATOM     11  C   UNL A   1      34.531  22.768  26.938  1.00  0.00     0.001 C 
ATOM     12  C   UNL A   1      34.418  24.440  25.020  1.00  0.00     0.082 C 
ATOM     13  C   UNL A   1      35.078  24.048  26.345  1.00  0.00     0.007 C 
BRANCH   6  14
ATOM     14  N   UNL A   1      32.251  24.902  23.697  1.00  0.00    -0.311 N 
ATOM     15  C   UNL A   1      33.163  24.773  22.545  1.00  0.00     0.325 C 
ATOM     16  C   UNL A   1      31.655  26.277  23.696  1.00  0.00     0.325 C 
ATOM     17  H   UNL A   1      31.519  24.204  23.568  1.00  0.00     0.349 HD
ATOM     18  C   UNL A   1      32.621  25.332  21.207  1.00  0.00     0.322 C 
ATOM     19  C   UNL A   1      31.183  26.827  22.332  1.00  0.00     0.322 C 
ATOM     20  N   UNL A   1      32.212  26.737  21.293  1.00  0.00    -0.337 N 
ATOM     21  H   UNL A   1      31.832  27.045  20.398  1.00  0.00     0.346 HD
ATOM     22  H   UNL A   1      33.008  27.332  21.520  1.00  0.00     0.346 HD
ENDBRANCH   6  14
ENDBRANCH   4   6
ENDBRANCH   3   4
ENDBRANCH   2   3
ENDBRANCH   1   2
BRANCH   1  23
ATOM     23  O   UNL A   1      33.779  30.120  27.301  1.00  0.00    -0.458 OA
BRANCH  23  24
ATOM     24  C   UNL A   1      34.557  30.811  28.167  1.00  0.00     0.338 C 
ATOM     25  O   UNL A   1      34.227  31.809  28.787  1.00  0.00    -0.246 OA
BRANCH  24  26
ATOM     26  C   UNL A   1      35.883  30.153  28.319  1.00  0.00     0.060 A 
ATOM     27  C   UNL A   1      36.292  29.610  29.536  1.00  0.00     0.016 A 
ATOM     28  C   UNL A   1      36.791  30.188  27.262  1.00  0.00     0.016 A 
ATOM     29  C   UNL A   1      37.623  29.257  29.749  1.00  0.00     0.010 A 
ATOM     30  C   UNL A   1      38.093  29.699  27.437  1.00  0.00     0.010 A 
ATOM     31  C   UNL A   1      38.545  29.270  28.699  1.00  0.00    -0.014 A 
BRANCH  31  32
ATOM     32  C   UNL A   1      39.971  28.881  28.912  1.00  0.00     0.031 A 
ATOM     33  C   UNL A   1      40.947  29.887  29.477  1.00  0.00     0.074 A 
ATOM     34  C   UNL A   1      40.421  27.644  28.609  1.00  0.00     0.049 A 
ATOM     35  N   UNL A   1      42.254  29.884  29.430  1.00  0.00    -0.248 NA
ATOM     36  C   UNL A   1      40.376  31.060  30.161  1.00  0.00     0.031 C 
ATOM     37  C   UNL A   1      39.606  26.525  28.129  1.00  0.00     0.029 A 
ATOM     38  N   UNL A   1      41.691  27.118  28.665  1.00  0.00    -0.354 N 
ATOM     39  C   UNL A   1      42.656  31.097  29.977  1.00  0.00     0.074 A 
ATOM     40  C   UNL A   1      41.456  31.796  30.386  1.00  0.00     0.031 C 
ATOM     41  C   UNL A   1      40.379  25.438  27.991  1.00  0.00     0.029 A 
ATOM     42  C   UNL A   1      41.765  25.811  28.243  1.00  0.00     0.049 A 
ATOM     43  H   UNL A   1      42.472  27.628  28.980  1.00  0.00     0.167 HD
ATOM     44  C   UNL A   1      43.911  31.590  30.103  1.00  0.00     0.031 A 
ATOM     45  C   UNL A   1      42.824  25.013  28.008  1.00  0.00     0.031 A 
ATOM     46  C   UNL A   1      45.103  30.854  29.774  1.00  0.00     0.049 A 
ATOM     47  C   UNL A   1      44.208  25.573  28.156  1.00  0.00     0.074 A 
ATOM     48  C   UNL A   1      46.423  31.264  29.860  1.00  0.00     0.029 A 
ATOM     49  N   UNL A   1      45.121  29.540  29.333  1.00  0.00    -0.354 N 
ATOM     50  N   UNL A   1      44.571  26.774  28.537  1.00  0.00    -0.248 NA
ATOM     51  C   UNL A   1      45.323  24.683  27.806  1.00  0.00     0.031 C 
ATOM     52  C   UNL A   1      47.238  30.202  29.452  1.00  0.00     0.029 A 
ATOM     53  C   UNL A   1      46.427  29.122  29.148  1.00  0.00     0.049 A 
ATOM     54  H   UNL A   1      44.322  28.986  29.175  1.00  0.00     0.167 HD
ATOM     55  C   UNL A   1      45.958  26.786  28.463  1.00  0.00     0.074 A 
ATOM     56  C   UNL A   1      46.370  25.466  28.031  1.00  0.00     0.031 C 
ATOM     57  C   UNL A   1      46.815  27.805  28.719  1.00  0.00     0.031 A 
BRANCH  44  58
ATOM     58  C   UNL A   1      44.068  33.014  30.563  1.00  0.00    -0.014 A 
ATOM     59  C   UNL A   1      43.947  34.098  29.679  1.00  0.00     0.010 A 
ATOM     60  C   UNL A   1      44.274  33.265  31.934  1.00  0.00     0.010 A 
ATOM     61  C   UNL A   1      44.051  35.410  30.154  1.00  0.00     0.020 A 
ATOM     62  C   UNL A   1      44.358  34.574  32.416  1.00  0.00     0.020 A 
ATOM     63  C   UNL A   1      44.259  35.640  31.519  1.00  0.00     0.054 A 
BRANCH  63  64
ATOM     64  S   UNL A   1      44.343  37.349  32.121  1.00  0.00     0.124 S 
ATOM     65  O   UNL A   1      43.981  38.107  30.926  1.00  0.00    -0.237 OA
ATOM     66  O   UNL A   1      43.352  37.363  33.196  1.00  0.00    -0.237 OA
ATOM     67  O   UNL A   1      45.729  37.495  32.557  1.00  0.00    -0.744 OA
ENDBRANCH  63  64
ENDBRANCH  44  58
BRANCH  45  68
ATOM     68  C   UNL A   1      42.610  23.625  27.516  1.00  0.00    -0.014 A 
ATOM     69  C   UNL A   1      42.660  23.339  26.142  1.00  0.00     0.010 A 
ATOM     70  C   UNL A   1      42.388  22.576  28.427  1.00  0.00     0.010 A 
ATOM     71  C   UNL A   1      42.495  22.027  25.686  1.00  0.00     0.020 A 
ATOM     72  C   UNL A   1      42.252  21.260  27.978  1.00  0.00     0.020 A 
ATOM     73  C   UNL A   1      42.297  20.995  26.609  1.00  0.00     0.054 A 
BRANCH  73  74
ATOM     74  S   UNL A   1      42.171  19.285  26.016  1.00  0.00     0.124 S 
ATOM     75  O   UNL A   1      42.672  18.531  27.160  1.00  0.00    -0.237 OA
ATOM     76  O   UNL A   1      40.743  19.143  25.740  1.00  0.00    -0.237 OA
ATOM     77  O   UNL A   1      43.027  19.275  24.832  1.00  0.00    -0.744 OA
ENDBRANCH  73  74
ENDBRANCH  45  68
BRANCH  57  78
ATOM     78  C   UNL A   1      48.279  27.518  28.564  1.00  0.00    -0.014 A 
ATOM     79  C   UNL A   1      48.926  27.717  27.332  1.00  0.00     0.010 A 
ATOM     80  C   UNL A   1      49.022  27.079  29.673  1.00  0.00     0.010 A 
ATOM     81  C   UNL A   1      50.292  27.452  27.206  1.00  0.00     0.020 A 
ATOM     82  C   UNL A   1      50.390  26.829  29.554  1.00  0.00     0.020 A 
ATOM     83  C   UNL A   1      51.014  27.003  28.315  1.00  0.00     0.054 A 
BRANCH  83  84
ATOM     84  S   UNL A   1      52.792  26.693  28.140  1.00  0.00     0.124 S 
ATOM     85  O   UNL A   1      53.167  26.308  29.498  1.00  0.00    -0.237 OA
ATOM     86  O   UNL A   1      52.839  25.621  27.148  1.00  0.00    -0.237 OA
ATOM     87  O   UNL A   1      53.323  27.976  27.687  1.00  0.00    -0.744 OA
ENDBRANCH  83  84
ENDBRANCH  57  78
ENDBRANCH  31  32
ENDBRANCH  24  26
ENDBRANCH  23  24
ENDBRANCH   1  23
TORSDOF 15
ENDMDL
MODEL 3
REMARK VINA RESULT:     -10.0      3.331      5.586
REMARK SMILES CC1(C)CCCC[C@@]1(C(=O)OCCOC(=O)c1ccc(-c2c3nc(c(-c4ccc(S(=O)(=O)[O-])cc4)c4ccc([nH]4)c(-c4ccc(S(=O)(=O)[O-])cc4)c4nc(c(-c5ccc(S(=O)(=O)[O-])cc5)c5ccc2[nH]5)C=C4)C=C3)cc1)[NH+]1CC[NH2+]CC1
REMARK SMILES IDX 13 1 12 2 11 3 9 4 10 5 8 6 1 7 2 8 3 9 4 10 5 11 7 12 6 13
REMARK SMILES IDX 77 14 78 15 82 16 79 18 81 19 80 20 14 23 15 24 16 25 17 26
REMARK SMILES IDX 18 27 76 28 19 29 75 30 20 31 21 32 22 33 69 34 23 35 74 36
REMARK SMILES IDX 68 37 70 38 24 39 73 40 67 41 66 42 25 44 55 45 36 46 54 47
REMARK SMILES IDX 37 48 40 49 53 50 71 51 38 52 39 53 52 55 72 56 41 57 26 58
REMARK SMILES IDX 27 59 35 60 28 61 34 62 29 63 30 64 31 65 32 66 33 67 56 68
REMARK SMILES IDX 57 69 65 70 58 71 64 72 59 73 60 74 61 75 62 76 63 77 42 78
REMARK SMILES IDX 43 79 51 80 44 81 50 82 45 83 46 84 47 85 48 86 49 87
REMARK H PARENT 77 17 80 21 80 22 70 43 40 54
REMARK Flexibility Score: inf
ROOT
ATOM      1  C   UNL A   1      32.579  30.190  27.104  1.00  0.00     0.275 C 
ENDROOT
BRANCH   1   2
ATOM      2  C   UNL A   1      31.804  28.882  26.935  1.00  0.00     0.274 C 
BRANCH   2   3
ATOM      3  O   UNL A   1      31.231  28.751  25.616  1.00  0.00    -0.457 OA
BRANCH   3   4
ATOM      4  C   UNL A   1      31.024  27.486  25.170  1.00  0.00     0.368 C 
ATOM      5  O   UNL A   1      30.691  26.573  25.921  1.00  0.00    -0.245 OA
BRANCH   4   6
ATOM      6  C   UNL A   1      31.459  27.230  23.659  1.00  0.00     0.201 C 
ATOM      7  C   UNL A   1      32.119  25.339  21.890  1.00  0.00     0.018 C 
ATOM      8  C   UNL A   1      31.668  25.649  23.349  1.00  0.00     0.031 C 
ATOM      9  C   UNL A   1      30.397  24.791  23.566  1.00  0.00     0.018 C 
ATOM     10  C   UNL A   1      32.792  25.078  24.271  1.00  0.00     0.013 C 
ATOM     11  C   UNL A   1      34.129  25.784  24.068  1.00  0.00     0.001 C 
ATOM     12  C   UNL A   1      32.869  27.928  23.519  1.00  0.00     0.082 C 
ATOM     13  C   UNL A   1      33.990  27.268  24.327  1.00  0.00     0.007 C 
BRANCH   6  14
ATOM     14  N   UNL A   1      30.387  27.948  22.813  1.00  0.00    -0.311 N 
ATOM     15  C   UNL A   1      30.715  29.323  22.394  1.00  0.00     0.325 C 
ATOM     16  C   UNL A   1      29.036  27.944  23.464  1.00  0.00     0.325 C 
ATOM     17  H   UNL A   1      30.367  27.382  21.965  1.00  0.00     0.349 HD
ATOM     18  C   UNL A   1      29.567  30.093  21.697  1.00  0.00     0.322 C 
ATOM     19  C   UNL A   1      27.932  28.775  22.773  1.00  0.00     0.322 C 
ATOM     20  N   UNL A   1      28.343  30.155  22.500  1.00  0.00    -0.337 N 
ATOM     21  H   UNL A   1      27.610  30.641  21.983  1.00  0.00     0.346 HD
ATOM     22  H   UNL A   1      28.505  30.662  23.369  1.00  0.00     0.346 HD
ENDBRANCH   6  14
ENDBRANCH   4   6
ENDBRANCH   3   4
ENDBRANCH   2   3
ENDBRANCH   1   2
BRANCH   1  23
ATOM     23  O   UNL A   1      33.987  29.916  27.127  1.00  0.00    -0.458 OA
BRANCH  23  24
ATOM     24  C   UNL A   1      34.723  30.607  28.030  1.00  0.00     0.338 C 
ATOM     25  O   UNL A   1      34.349  31.580  28.664  1.00  0.00    -0.246 OA
BRANCH  24  26
ATOM     26  C   UNL A   1      36.061  29.981  28.203  1.00  0.00     0.060 A 
ATOM     27  C   UNL A   1      36.436  29.381  29.403  1.00  0.00     0.016 A 
ATOM     28  C   UNL A   1      37.011  30.104  27.190  1.00  0.00     0.016 A 
ATOM     29  C   UNL A   1      37.768  29.056  29.654  1.00  0.00     0.010 A 
ATOM     30  C   UNL A   1      38.321  29.646  27.394  1.00  0.00     0.010 A 
ATOM     31  C   UNL A   1      38.733  29.158  28.648  1.00  0.00    -0.014 A 
BRANCH  31  32
ATOM     32  C   UNL A   1      40.160  28.800  28.902  1.00  0.00     0.031 A 
ATOM     33  C   UNL A   1      41.099  29.829  29.488  1.00  0.00     0.074 A 
ATOM     34  C   UNL A   1      40.645  27.572  28.617  1.00  0.00     0.049 A 
ATOM     35  N   UNL A   1      42.407  29.854  29.476  1.00  0.00    -0.248 NA
ATOM     36  C   UNL A   1      40.485  30.992  30.150  1.00  0.00     0.031 C 
ATOM     37  C   UNL A   1      39.866  26.434  28.121  1.00  0.00     0.029 A 
ATOM     38  N   UNL A   1      41.923  27.073  28.710  1.00  0.00    -0.354 N 
ATOM     39  C   UNL A   1      42.768  31.078  30.028  1.00  0.00     0.074 A 
ATOM     40  C   UNL A   1      41.543  31.752  30.401  1.00  0.00     0.031 C 
ATOM     41  C   UNL A   1      40.666  25.363  28.009  1.00  0.00     0.029 A 
ATOM     42  C   UNL A   1      42.036  25.766  28.296  1.00  0.00     0.049 A 
ATOM     43  H   UNL A   1      42.684  27.601  29.042  1.00  0.00     0.167 HD
ATOM     44  C   UNL A   1      44.009  31.598  30.185  1.00  0.00     0.031 A 
ATOM     45  C   UNL A   1      43.118  24.990  28.094  1.00  0.00     0.031 A 
ATOM     46  C   UNL A   1      45.224  30.885  29.892  1.00  0.00     0.049 A 
ATOM     47  C   UNL A   1      44.485  25.580  28.276  1.00  0.00     0.074 A 
ATOM     48  C   UNL A   1      46.532  31.324  30.011  1.00  0.00     0.029 A 
ATOM     49  N   UNL A   1      45.282  29.570  29.458  1.00  0.00    -0.354 N 
ATOM     50  N   UNL A   1      44.812  26.789  28.660  1.00  0.00    -0.248 NA
ATOM     51  C   UNL A   1      45.627  24.712  27.960  1.00  0.00     0.031 C 
ATOM     52  C   UNL A   1      47.381  30.278  29.631  1.00  0.00     0.029 A 
ATOM     53  C   UNL A   1      46.601  29.179  29.309  1.00  0.00     0.049 A 
ATOM     54  H   UNL A   1      44.500  28.999  29.281  1.00  0.00     0.167 HD
ATOM     55  C   UNL A   1      46.200  26.831  28.624  1.00  0.00     0.074 A 
ATOM     56  C   UNL A   1      46.652  25.518  28.210  1.00  0.00     0.031 C 
ATOM     57  C   UNL A   1      47.028  27.868  28.898  1.00  0.00     0.031 A 
BRANCH  44  58
ATOM     58  C   UNL A   1      44.123  33.026  30.642  1.00  0.00    -0.014 A 
ATOM     59  C   UNL A   1      44.184  34.095  29.733  1.00  0.00     0.010 A 
ATOM     60  C   UNL A   1      44.098  33.301  32.024  1.00  0.00     0.010 A 
ATOM     61  C   UNL A   1      44.241  35.413  30.198  1.00  0.00     0.020 A 
ATOM     62  C   UNL A   1      44.135  34.616  32.492  1.00  0.00     0.020 A 
ATOM     63  C   UNL A   1      44.218  35.666  31.574  1.00  0.00     0.054 A 
BRANCH  63  64
ATOM     64  S   UNL A   1      44.244  37.385  32.155  1.00  0.00     0.124 S 
ATOM     65  O   UNL A   1      45.660  37.578  32.457  1.00  0.00    -0.237 OA
ATOM     66  O   UNL A   1      43.743  38.125  30.999  1.00  0.00    -0.237 OA
ATOM     67  O   UNL A   1      43.354  37.372  33.313  1.00  0.00    -0.744 OA
ENDBRANCH  63  64
ENDBRANCH  44  58
BRANCH  45  68
ATOM     68  C   UNL A   1      42.946  23.596  27.603  1.00  0.00    -0.014 A 
ATOM     69  C   UNL A   1      42.652  22.554  28.498  1.00  0.00     0.010 A 
ATOM     70  C   UNL A   1      43.044  23.312  26.227  1.00  0.00     0.010 A 
ATOM     71  C   UNL A   1      42.456  21.252  28.027  1.00  0.00     0.020 A 
ATOM     72  C   UNL A   1      42.819  22.018  25.751  1.00  0.00     0.020 A 
ATOM     73  C   UNL A   1      42.535  20.993  26.655  1.00  0.00     0.054 A 
BRANCH  73  74
ATOM     74  S   UNL A   1      42.193  19.319  26.044  1.00  0.00     0.124 S 
ATOM     75  O   UNL A   1      40.758  19.378  25.789  1.00  0.00    -0.237 OA
ATOM     76  O   UNL A   1      43.043  19.227  24.860  1.00  0.00    -0.237 OA
ATOM     77  O   UNL A   1      42.599  18.465  27.158  1.00  0.00    -0.744 OA
ENDBRANCH  73  74
ENDBRANCH  45  68
BRANCH  57  78
ATOM     78  C   UNL A   1      48.502  27.613  28.783  1.00  0.00    -0.014 A 
ATOM     79  C   UNL A   1      49.171  27.787  27.560  1.00  0.00     0.010 A 
ATOM     80  C   UNL A   1      49.230  27.228  29.922  1.00  0.00     0.010 A 
ATOM     81  C   UNL A   1      50.545  27.550  27.471  1.00  0.00     0.020 A 
ATOM     82  C   UNL A   1      50.606  27.008  29.840  1.00  0.00     0.020 A 
ATOM     83  C   UNL A   1      51.252  27.156  28.610  1.00  0.00     0.054 A 
BRANCH  83  84
ATOM     84  S   UNL A   1      53.041  26.883  28.483  1.00  0.00     0.124 S 
ATOM     85  O   UNL A   1      53.139  26.078  27.269  1.00  0.00    -0.237 OA
ATOM     86  O   UNL A   1      53.570  28.241  28.380  1.00  0.00    -0.237 OA
ATOM     87  O   UNL A   1      53.372  26.185  29.723  1.00  0.00    -0.744 OA
ENDBRANCH  83  84
ENDBRANCH  57  78
ENDBRANCH  31  32
ENDBRANCH  24  26
ENDBRANCH  23  24
ENDBRANCH   1  23
TORSDOF 15
ENDMDL
