MODEL 1
REMARK VINA RESULT:     -12.1      0.000      0.000
REMARK SMILES O=C(OCCOC(=O)C1CC[NH+]([C@H]2CC(=O)N(c3ccc4c(c3)OCCO4)C2=O)CC1)c1ccc(-c2c3nc(c(-c4ccc(S(=O)(=O)[O-])cc4)c4ccc([nH]4)c(-c4ccc(S(=O)(=O)[O-])cc4)c4nc(c(-c5ccc(S(=O)(=O)[O-])cc5)c5ccc2[nH]5)C=C4)C=C3)cc1
REMARK SMILES IDX 4 1 3 2 2 3 1 4 32 5 33 6 91 7 34 8 90 9 35 10 36 11 37 12
REMARK SMILES IDX 84 13 38 14 89 15 83 16 85 17 39 18 88 19 82 20 81 21 40 23
REMARK SMILES IDX 70 24 51 25 69 26 52 27 55 28 68 29 86 30 53 31 54 32 67 34
REMARK SMILES IDX 87 35 56 36 41 37 42 38 50 39 43 40 49 41 44 42 45 43 46 44
REMARK SMILES IDX 47 45 48 46 71 47 72 48 80 49 73 50 79 51 74 52 75 53 76 54
REMARK SMILES IDX 77 55 78 56 57 57 58 58 66 59 59 60 65 61 60 62 61 63 62 64
REMARK SMILES IDX 63 65 64 66 5 67 6 68 7 69 8 70 9 71 10 72 31 73 11 74 30 75
REMARK SMILES IDX 12 76 13 78 14 79 28 80 15 81 17 82 29 83 16 84 18 85 19 86
REMARK SMILES IDX 23 87 20 88 22 89 21 90 24 91 27 92 25 93 26 94
REMARK H PARENT 85 22 55 33 12 77
REMARK Flexibility Score: inf
ROOT
ATOM      1  C   UNL A   1      32.967  29.259  26.168  1.00  0.00     0.275 C 
ENDROOT
BRANCH   1   2
ATOM      2  O   UNL A   1      33.277  30.043  27.320  1.00  0.00    -0.458 OA
BRANCH   2   3
ATOM      3  C   UNL A   1      34.222  30.997  27.445  1.00  0.00     0.338 C 
ATOM      4  O   UNL A   1      33.889  32.158  27.208  1.00  0.00    -0.246 OA
BRANCH   3   5
ATOM      5  C   UNL A   1      35.665  30.736  27.794  1.00  0.00     0.060 A 
ATOM      6  C   UNL A   1      36.681  31.657  28.065  1.00  0.00     0.016 A 
ATOM      7  C   UNL A   1      35.969  29.389  28.006  1.00  0.00     0.016 A 
ATOM      8  C   UNL A   1      37.887  31.264  28.662  1.00  0.00     0.010 A 
ATOM      9  C   UNL A   1      37.106  29.020  28.726  1.00  0.00     0.010 A 
ATOM     10  C   UNL A   1      38.087  29.947  29.071  1.00  0.00    -0.014 A 
BRANCH  10  11
ATOM     11  C   UNL A   1      39.327  29.550  29.793  1.00  0.00     0.031 A 
ATOM     12  C   UNL A   1      39.495  29.965  31.234  1.00  0.00     0.074 A 
ATOM     13  C   UNL A   1      40.285  28.812  29.184  1.00  0.00     0.049 A 
ATOM     14  N   UNL A   1      40.402  29.581  32.094  1.00  0.00    -0.248 NA
ATOM     15  C   UNL A   1      38.552  30.960  31.780  1.00  0.00     0.031 C 
ATOM     16  C   UNL A   1      40.322  28.444  27.762  1.00  0.00     0.029 A 
ATOM     17  N   UNL A   1      41.415  28.211  29.691  1.00  0.00    -0.354 N 
ATOM     18  C   UNL A   1      40.098  30.256  33.268  1.00  0.00     0.074 A 
ATOM     19  C   UNL A   1      39.063  31.209  32.970  1.00  0.00     0.031 C 
ATOM     20  C   UNL A   1      41.382  27.650  27.527  1.00  0.00     0.029 A 
ATOM     21  C   UNL A   1      42.097  27.433  28.778  1.00  0.00     0.049 A 
ATOM     22  H   UNL A   1      41.710  28.326  30.624  1.00  0.00     0.167 HD
ATOM     23  C   UNL A   1      40.537  30.023  34.523  1.00  0.00     0.031 A 
ATOM     24  C   UNL A   1      43.144  26.598  28.943  1.00  0.00     0.031 A 
ATOM     25  C   UNL A   1      41.545  29.060  34.833  1.00  0.00     0.049 A 
ATOM     26  C   UNL A   1      43.660  26.380  30.345  1.00  0.00     0.074 A 
ATOM     27  C   UNL A   1      42.061  28.715  36.065  1.00  0.00     0.029 A 
ATOM     28  N   UNL A   1      42.191  28.286  33.883  1.00  0.00    -0.354 N 
ATOM     29  N   UNL A   1      43.239  26.912  31.471  1.00  0.00    -0.248 NA
ATOM     30  C   UNL A   1      44.756  25.416  30.510  1.00  0.00     0.031 C 
ATOM     31  C   UNL A   1      43.064  27.764  35.853  1.00  0.00     0.029 A 
ATOM     32  C   UNL A   1      43.123  27.476  34.497  1.00  0.00     0.049 A 
ATOM     33  H   UNL A   1      42.011  28.309  32.915  1.00  0.00     0.167 HD
ATOM     34  C   UNL A   1      43.994  26.318  32.476  1.00  0.00     0.074 A 
ATOM     35  C   UNL A   1      44.876  25.368  31.828  1.00  0.00     0.031 C 
ATOM     36  C   UNL A   1      43.971  26.534  33.815  1.00  0.00     0.031 A 
BRANCH  23  37
ATOM     37  C   UNL A   1      39.853  30.783  35.625  1.00  0.00    -0.014 A 
ATOM     38  C   UNL A   1      38.589  30.366  36.091  1.00  0.00     0.010 A 
ATOM     39  C   UNL A   1      40.440  31.936  36.167  1.00  0.00     0.010 A 
ATOM     40  C   UNL A   1      37.902  31.116  37.043  1.00  0.00     0.020 A 
ATOM     41  C   UNL A   1      39.768  32.673  37.147  1.00  0.00     0.020 A 
ATOM     42  C   UNL A   1      38.498  32.266  37.567  1.00  0.00     0.054 A 
BRANCH  42  43
ATOM     43  S   UNL A   1      37.595  33.202  38.828  1.00  0.00     0.124 S 
ATOM     44  O   UNL A   1      36.270  33.324  38.223  1.00  0.00    -0.237 OA
ATOM     45  O   UNL A   1      37.674  32.324  39.992  1.00  0.00    -0.237 OA
ATOM     46  O   UNL A   1      38.347  34.450  38.938  1.00  0.00    -0.744 OA
ENDBRANCH  42  43
ENDBRANCH  23  37
BRANCH  24  47
ATOM     47  C   UNL A   1      43.743  25.854  27.791  1.00  0.00    -0.014 A 
ATOM     48  C   UNL A   1      43.345  24.537  27.488  1.00  0.00     0.010 A 
ATOM     49  C   UNL A   1      44.771  26.435  27.027  1.00  0.00     0.010 A 
ATOM     50  C   UNL A   1      44.000  23.799  26.493  1.00  0.00     0.020 A 
ATOM     51  C   UNL A   1      45.409  25.713  26.009  1.00  0.00     0.020 A 
ATOM     52  C   UNL A   1      45.034  24.390  25.764  1.00  0.00     0.054 A 
BRANCH  52  53
ATOM     53  S   UNL A   1      45.879  23.411  24.489  1.00  0.00     0.124 S 
ATOM     54  O   UNL A   1      46.853  24.364  23.967  1.00  0.00    -0.237 OA
ATOM     55  O   UNL A   1      46.430  22.299  25.259  1.00  0.00    -0.237 OA
ATOM     56  O   UNL A   1      44.804  23.049  23.568  1.00  0.00    -0.744 OA
ENDBRANCH  52  53
ENDBRANCH  24  47
BRANCH  36  57
ATOM     57  C   UNL A   1      44.896  25.712  34.665  1.00  0.00    -0.014 A 
ATOM     58  C   UNL A   1      46.180  26.177  34.999  1.00  0.00     0.010 A 
ATOM     59  C   UNL A   1      44.441  24.492  35.198  1.00  0.00     0.010 A 
ATOM     60  C   UNL A   1      47.009  25.413  35.821  1.00  0.00     0.020 A 
ATOM     61  C   UNL A   1      45.253  23.745  36.051  1.00  0.00     0.020 A 
ATOM     62  C   UNL A   1      46.540  24.203  36.342  1.00  0.00     0.054 A 
BRANCH  62  63
ATOM     63  S   UNL A   1      47.622  23.253  37.441  1.00  0.00     0.124 S 
ATOM     64  O   UNL A   1      48.599  24.260  37.845  1.00  0.00    -0.237 OA
ATOM     65  O   UNL A   1      46.705  22.809  38.488  1.00  0.00    -0.237 OA
ATOM     66  O   UNL A   1      48.139  22.191  36.582  1.00  0.00    -0.744 OA
ENDBRANCH  62  63
ENDBRANCH  36  57
ENDBRANCH  10  11
ENDBRANCH   3   5
ENDBRANCH   2   3
ENDBRANCH   1   2
BRANCH   1  67
ATOM     67  C   UNL A   1      31.564  28.635  26.176  1.00  0.00     0.274 C 
BRANCH  67  68
ATOM     68  O   UNL A   1      31.405  27.411  26.935  1.00  0.00    -0.462 OA
BRANCH  68  69
ATOM     69  C   UNL A   1      30.865  26.356  26.252  1.00  0.00     0.309 C 
ATOM     70  O   UNL A   1      29.796  25.839  26.555  1.00  0.00    -0.252 OA
BRANCH  69  71
ATOM     71  C   UNL A   1      31.828  25.748  25.216  1.00  0.00     0.110 C 
ATOM     72  C   UNL A   1      31.225  25.073  23.987  1.00  0.00     0.077 C 
ATOM     73  C   UNL A   1      32.819  24.785  25.883  1.00  0.00     0.077 C 
ATOM     74  C   UNL A   1      30.862  23.592  24.146  1.00  0.00     0.263 C 
ATOM     75  C   UNL A   1      32.175  23.431  26.177  1.00  0.00     0.263 C 
ATOM     76  N   UNL A   1      31.708  22.763  24.974  1.00  0.00    -0.324 N 
ATOM     77  H   UNL A   1      31.152  22.059  25.458  1.00  0.00     0.348 HD
BRANCH  76  78
ATOM     78  C   UNL A   1      32.463  21.716  24.281  1.00  0.00     0.284 C 
ATOM     79  C   UNL A   1      32.968  22.099  22.906  1.00  0.00     0.176 C 
ATOM     80  C   UNL A   1      33.749  21.365  25.017  1.00  0.00     0.292 C 
ATOM     81  C   UNL A   1      34.328  22.638  23.213  1.00  0.00     0.240 C 
ATOM     82  N   UNL A   1      34.750  22.096  24.404  1.00  0.00    -0.245 N 
ATOM     83  O   UNL A   1      33.819  20.664  26.013  1.00  0.00    -0.267 OA
ATOM     84  O   UNL A   1      34.946  23.368  22.442  1.00  0.00    -0.274 OA
BRANCH  82  85
ATOM     85  C   UNL A   1      36.002  22.354  24.994  1.00  0.00     0.056 A 
ATOM     86  C   UNL A   1      36.301  23.602  25.555  1.00  0.00     0.031 A 
ATOM     87  C   UNL A   1      36.984  21.353  24.992  1.00  0.00     0.077 A 
ATOM     88  C   UNL A   1      37.540  23.824  26.163  1.00  0.00     0.052 A 
ATOM     89  C   UNL A   1      38.231  21.591  25.558  1.00  0.00     0.163 A 
ATOM     90  C   UNL A   1      38.508  22.822  26.155  1.00  0.00     0.161 A 
ATOM     91  O   UNL A   1      39.141  20.571  25.470  1.00  0.00    -0.486 OA
ATOM     92  O   UNL A   1      39.703  23.110  26.761  1.00  0.00    -0.486 OA
ATOM     93  C   UNL A   1      40.203  20.746  26.408  1.00  0.00     0.271 C 
ATOM     94  C   UNL A   1      40.720  22.176  26.382  1.00  0.00     0.271 C 
ENDBRANCH  82  85
ENDBRANCH  76  78
ENDBRANCH  69  71
ENDBRANCH  68  69
ENDBRANCH  67  68
ENDBRANCH   1  67
TORSDOF 16
ENDMDL
MODEL 2
REMARK VINA RESULT:     -12.1      4.082      7.945
REMARK SMILES O=C(OCCOC(=O)C1CC[NH+]([C@H]2CC(=O)N(c3ccc4c(c3)OCCO4)C2=O)CC1)c1ccc(-c2c3nc(c(-c4ccc(S(=O)(=O)[O-])cc4)c4ccc([nH]4)c(-c4ccc(S(=O)(=O)[O-])cc4)c4nc(c(-c5ccc(S(=O)(=O)[O-])cc5)c5ccc2[nH]5)C=C4)C=C3)cc1
REMARK SMILES IDX 4 1 3 2 2 3 1 4 32 5 33 6 91 7 34 8 90 9 35 10 36 11 37 12
REMARK SMILES IDX 84 13 38 14 89 15 83 16 85 17 39 18 88 19 82 20 81 21 40 23
REMARK SMILES IDX 70 24 51 25 69 26 52 27 55 28 68 29 86 30 53 31 54 32 67 34
REMARK SMILES IDX 87 35 56 36 41 37 42 38 50 39 43 40 49 41 44 42 45 43 46 44
REMARK SMILES IDX 47 45 48 46 71 47 72 48 80 49 73 50 79 51 74 52 75 53 76 54
REMARK SMILES IDX 77 55 78 56 57 57 58 58 66 59 59 60 65 61 60 62 61 63 62 64
REMARK SMILES IDX 63 65 64 66 5 67 6 68 7 69 8 70 9 71 10 72 31 73 11 74 30 75
REMARK SMILES IDX 12 76 13 78 14 79 28 80 15 81 17 82 29 83 16 84 18 85 19 86
REMARK SMILES IDX 23 87 20 88 22 89 21 90 24 91 27 92 25 93 26 94
REMARK H PARENT 85 22 55 33 12 77
REMARK Flexibility Score: inf
ROOT
ATOM      1  C   UNL A   1      33.581  32.385  27.998  1.00  0.00     0.275 C 
ENDROOT
BRANCH   1   2
ATOM      2  O   UNL A   1      33.924  31.232  27.230  1.00  0.00    -0.458 OA
BRANCH   2   3
ATOM      3  C   UNL A   1      34.474  30.079  27.663  1.00  0.00     0.338 C 
ATOM      4  O   UNL A   1      33.776  29.067  27.621  1.00  0.00    -0.246 OA
BRANCH   3   5
ATOM      5  C   UNL A   1      35.858  29.955  28.248  1.00  0.00     0.060 A 
ATOM      6  C   UNL A   1      36.236  29.504  29.516  1.00  0.00     0.016 A 
ATOM      7  C   UNL A   1      36.889  30.196  27.337  1.00  0.00     0.016 A 
ATOM      8  C   UNL A   1      37.565  29.165  29.808  1.00  0.00     0.010 A 
ATOM      9  C   UNL A   1      38.181  29.727  27.581  1.00  0.00     0.010 A 
ATOM     10  C   UNL A   1      38.546  29.200  28.819  1.00  0.00    -0.014 A 
BRANCH  10  11
ATOM     11  C   UNL A   1      39.935  28.748  29.103  1.00  0.00     0.031 A 
ATOM     12  C   UNL A   1      40.840  29.643  29.913  1.00  0.00     0.074 A 
ATOM     13  C   UNL A   1      40.385  27.548  28.664  1.00  0.00     0.049 A 
ATOM     14  N   UNL A   1      42.013  29.372  30.423  1.00  0.00    -0.248 NA
ATOM     15  C   UNL A   1      40.398  31.028  30.163  1.00  0.00     0.031 C 
ATOM     16  C   UNL A   1      39.670  26.631  27.766  1.00  0.00     0.029 A 
ATOM     17  N   UNL A   1      41.552  26.872  28.936  1.00  0.00    -0.354 N 
ATOM     18  C   UNL A   1      42.404  30.534  31.074  1.00  0.00     0.074 A 
ATOM     19  C   UNL A   1      41.457  31.563  30.739  1.00  0.00     0.031 C 
ATOM     20  C   UNL A   1      40.388  25.506  27.602  1.00  0.00     0.029 A 
ATOM     21  C   UNL A   1      41.607  25.604  28.393  1.00  0.00     0.049 A 
ATOM     22  H   UNL A   1      42.283  27.258  29.470  1.00  0.00     0.167 HD
ATOM     23  C   UNL A   1      43.387  30.713  31.982  1.00  0.00     0.031 A 
ATOM     24  C   UNL A   1      42.510  24.615  28.560  1.00  0.00     0.031 A 
ATOM     25  C   UNL A   1      44.316  29.690  32.341  1.00  0.00     0.049 A 
ATOM     26  C   UNL A   1      43.634  24.843  29.543  1.00  0.00     0.074 A 
ATOM     27  C   UNL A   1      45.342  29.739  33.262  1.00  0.00     0.029 A 
ATOM     28  N   UNL A   1      44.322  28.422  31.782  1.00  0.00    -0.354 N 
ATOM     29  N   UNL A   1      43.886  25.903  30.277  1.00  0.00    -0.248 NA
ATOM     30  C   UNL A   1      44.567  23.728  29.758  1.00  0.00     0.031 C 
ATOM     31  C   UNL A   1      46.008  28.510  33.220  1.00  0.00     0.029 A 
ATOM     32  C   UNL A   1      45.353  27.681  32.320  1.00  0.00     0.049 A 
ATOM     33  H   UNL A   1      43.686  28.099  31.104  1.00  0.00     0.167 HD
ATOM     34  C   UNL A   1      44.981  25.566  31.065  1.00  0.00     0.074 A 
ATOM     35  C   UNL A   1      45.324  24.197  30.738  1.00  0.00     0.031 C 
ATOM     36  C   UNL A   1      45.651  26.316  31.976  1.00  0.00     0.031 A 
BRANCH  23  37
ATOM     37  C   UNL A   1      43.422  32.045  32.678  1.00  0.00    -0.014 A 
ATOM     38  C   UNL A   1      44.066  33.142  32.070  1.00  0.00     0.010 A 
ATOM     39  C   UNL A   1      42.860  32.198  33.954  1.00  0.00     0.010 A 
ATOM     40  C   UNL A   1      44.189  34.355  32.745  1.00  0.00     0.020 A 
ATOM     41  C   UNL A   1      42.953  33.422  34.622  1.00  0.00     0.020 A 
ATOM     42  C   UNL A   1      43.630  34.488  34.019  1.00  0.00     0.054 A 
BRANCH  42  43
ATOM     43  S   UNL A   1      43.777  36.087  34.859  1.00  0.00     0.124 S 
ATOM     44  O   UNL A   1      43.959  35.680  36.251  1.00  0.00    -0.237 OA
ATOM     45  O   UNL A   1      44.950  36.674  34.219  1.00  0.00    -0.237 OA
ATOM     46  O   UNL A   1      42.510  36.751  34.564  1.00  0.00    -0.744 OA
ENDBRANCH  42  43
ENDBRANCH  23  37
BRANCH  24  47
ATOM     47  C   UNL A   1      42.379  23.304  27.850  1.00  0.00    -0.014 A 
ATOM     48  C   UNL A   1      41.535  22.290  28.344  1.00  0.00     0.010 A 
ATOM     49  C   UNL A   1      43.152  23.035  26.706  1.00  0.00     0.010 A 
ATOM     50  C   UNL A   1      41.514  21.020  27.750  1.00  0.00     0.020 A 
ATOM     51  C   UNL A   1      43.112  21.776  26.089  1.00  0.00     0.020 A 
ATOM     52  C   UNL A   1      42.310  20.770  26.630  1.00  0.00     0.054 A 
BRANCH  52  53
ATOM     53  S   UNL A   1      42.279  19.113  25.886  1.00  0.00     0.124 S 
ATOM     54  O   UNL A   1      43.093  19.300  24.690  1.00  0.00    -0.237 OA
ATOM     55  O   UNL A   1      42.871  18.286  26.933  1.00  0.00    -0.237 OA
ATOM     56  O   UNL A   1      40.858  18.874  25.644  1.00  0.00    -0.744 OA
ENDBRANCH  52  53
ENDBRANCH  24  47
BRANCH  36  57
ATOM     57  C   UNL A   1      46.793  25.665  32.702  1.00  0.00    -0.014 A 
ATOM     58  C   UNL A   1      48.115  25.800  32.245  1.00  0.00     0.010 A 
ATOM     59  C   UNL A   1      46.542  24.973  33.902  1.00  0.00     0.010 A 
ATOM     60  C   UNL A   1      49.165  25.218  32.956  1.00  0.00     0.020 A 
ATOM     61  C   UNL A   1      47.593  24.423  34.634  1.00  0.00     0.020 A 
ATOM     62  C   UNL A   1      48.896  24.534  34.147  1.00  0.00     0.054 A 
BRANCH  62  63
ATOM     63  S   UNL A   1      50.283  23.825  35.072  1.00  0.00     0.124 S 
ATOM     64  O   UNL A   1      51.385  24.696  34.676  1.00  0.00    -0.237 OA
ATOM     65  O   UNL A   1      49.843  23.956  36.458  1.00  0.00    -0.237 OA
ATOM     66  O   UNL A   1      50.363  22.453  34.576  1.00  0.00    -0.744 OA
ENDBRANCH  62  63
ENDBRANCH  36  57
ENDBRANCH  10  11
ENDBRANCH   3   5
ENDBRANCH   2   3
ENDBRANCH   1   2
BRANCH   1  67
ATOM     67  C   UNL A   1      34.662  32.839  28.991  1.00  0.00     0.274 C 
BRANCH  67  68
ATOM     68  O   UNL A   1      34.373  32.638  30.396  1.00  0.00    -0.462 OA
BRANCH  68  69
ATOM     69  C   UNL A   1      34.426  33.759  31.179  1.00  0.00     0.309 C 
ATOM     70  O   UNL A   1      33.470  34.510  31.338  1.00  0.00    -0.252 OA
BRANCH  69  71
ATOM     71  C   UNL A   1      35.849  34.097  31.657  1.00  0.00     0.110 C 
ATOM     72  C   UNL A   1      36.784  32.939  31.998  1.00  0.00     0.077 C 
ATOM     73  C   UNL A   1      35.816  35.078  32.836  1.00  0.00     0.077 C 
ATOM     74  C   UNL A   1      36.699  32.408  33.433  1.00  0.00     0.263 C 
ATOM     75  C   UNL A   1      35.472  34.372  34.147  1.00  0.00     0.263 C 
ATOM     76  N   UNL A   1      36.441  33.349  34.499  1.00  0.00    -0.324 N 
ATOM     77  H   UNL A   1      35.872  32.915  35.225  1.00  0.00     0.348 HD
BRANCH  76  78
ATOM     78  C   UNL A   1      37.533  33.558  35.454  1.00  0.00     0.284 C 
ATOM     79  C   UNL A   1      37.324  32.919  36.810  1.00  0.00     0.176 C 
ATOM     80  C   UNL A   1      38.827  32.910  34.982  1.00  0.00     0.292 C 
ATOM     81  C   UNL A   1      37.967  31.583  36.628  1.00  0.00     0.240 C 
ATOM     82  N   UNL A   1      38.891  31.682  35.614  1.00  0.00    -0.245 N 
ATOM     83  O   UNL A   1      39.572  33.368  34.131  1.00  0.00    -0.267 OA
ATOM     84  O   UNL A   1      37.731  30.623  37.356  1.00  0.00    -0.274 OA
BRANCH  82  85
ATOM     85  C   UNL A   1      39.713  30.623  35.183  1.00  0.00     0.056 A 
ATOM     86  C   UNL A   1      39.534  30.022  33.930  1.00  0.00     0.031 A 
ATOM     87  C   UNL A   1      40.712  30.136  36.037  1.00  0.00     0.077 A 
ATOM     88  C   UNL A   1      40.383  28.994  33.513  1.00  0.00     0.052 A 
ATOM     89  C   UNL A   1      41.527  29.082  35.636  1.00  0.00     0.163 A 
ATOM     90  C   UNL A   1      41.373  28.518  34.369  1.00  0.00     0.161 A 
ATOM     91  O   UNL A   1      42.445  28.644  36.554  1.00  0.00    -0.486 OA
ATOM     92  O   UNL A   1      42.164  27.502  33.899  1.00  0.00    -0.486 OA
ATOM     93  C   UNL A   1      43.471  27.875  35.927  1.00  0.00     0.271 C 
ATOM     94  C   UNL A   1      42.878  26.861  34.962  1.00  0.00     0.271 C 
ENDBRANCH  82  85
ENDBRANCH  76  78
ENDBRANCH  69  71
ENDBRANCH  68  69
ENDBRANCH  67  68
ENDBRANCH   1  67
TORSDOF 16
ENDMDL
MODEL 3
REMARK VINA RESULT:     -11.9      5.104     11.272
REMARK SMILES O=C(OCCOC(=O)C1CC[NH+]([C@H]2CC(=O)N(c3ccc4c(c3)OCCO4)C2=O)CC1)c1ccc(-c2c3nc(c(-c4ccc(S(=O)(=O)[O-])cc4)c4ccc([nH]4)c(-c4ccc(S(=O)(=O)[O-])cc4)c4nc(c(-c5ccc(S(=O)(=O)[O-])cc5)c5ccc2[nH]5)C=C4)C=C3)cc1
REMARK SMILES IDX 4 1 3 2 2 3 1 4 32 5 33 6 91 7 34 8 90 9 35 10 36 11 37 12
REMARK SMILES IDX 84 13 38 14 89 15 83 16 85 17 39 18 88 19 82 20 81 21 40 23
REMARK SMILES IDX 70 24 51 25 69 26 52 27 55 28 68 29 86 30 53 31 54 32 67 34
REMARK SMILES IDX 87 35 56 36 41 37 42 38 50 39 43 40 49 41 44 42 45 43 46 44
REMARK SMILES IDX 47 45 48 46 71 47 72 48 80 49 73 50 79 51 74 52 75 53 76 54
REMARK SMILES IDX 77 55 78 56 57 57 58 58 66 59 59 60 65 61 60 62 61 63 62 64
REMARK SMILES IDX 63 65 64 66 5 67 6 68 7 69 8 70 9 71 10 72 31 73 11 74 30 75
REMARK SMILES IDX 12 76 13 78 14 79 28 80 15 81 17 82 29 83 16 84 18 85 19 86
REMARK SMILES IDX 23 87 20 88 22 89 21 90 24 91 27 92 25 93 26 94
REMARK H PARENT 85 22 55 33 12 77
REMARK Flexibility Score: inf
ROOT
ATOM      1  C   UNL A   1      39.022  21.695  26.153  1.00  0.00     0.275 C 
ENDROOT
BRANCH   1   2
ATOM      2  O   UNL A   1      39.848  20.536  26.044  1.00  0.00    -0.458 OA
BRANCH   2   3
ATOM      3  C   UNL A   1      41.190  20.459  26.154  1.00  0.00     0.338 C 
ATOM      4  O   UNL A   1      41.700  19.340  26.097  1.00  0.00    -0.246 OA
BRANCH   3   5
ATOM      5  C   UNL A   1      42.099  21.635  26.402  1.00  0.00     0.060 A 
ATOM      6  C   UNL A   1      42.497  22.638  25.512  1.00  0.00     0.016 A 
ATOM      7  C   UNL A   1      42.470  21.802  27.738  1.00  0.00     0.016 A 
ATOM      8  C   UNL A   1      43.099  23.821  25.962  1.00  0.00     0.010 A 
ATOM      9  C   UNL A   1      42.938  23.033  28.200  1.00  0.00     0.010 A 
ATOM     10  C   UNL A   1      43.261  24.068  27.325  1.00  0.00    -0.014 A 
BRANCH  10  11
ATOM     11  C   UNL A   1      43.811  25.364  27.807  1.00  0.00     0.031 A 
ATOM     12  C   UNL A   1      45.284  25.641  27.628  1.00  0.00     0.074 A 
ATOM     13  C   UNL A   1      43.012  26.295  28.380  1.00  0.00     0.049 A 
ATOM     14  N   UNL A   1      45.933  26.761  27.810  1.00  0.00    -0.248 NA
ATOM     15  C   UNL A   1      46.153  24.518  27.224  1.00  0.00     0.031 C 
ATOM     16  C   UNL A   1      41.596  26.121  28.733  1.00  0.00     0.029 A 
ATOM     17  N   UNL A   1      43.268  27.596  28.748  1.00  0.00    -0.354 N 
ATOM     18  C   UNL A   1      47.255  26.470  27.502  1.00  0.00     0.074 A 
ATOM     19  C   UNL A   1      47.358  25.048  27.314  1.00  0.00     0.031 C 
ATOM     20  C   UNL A   1      41.106  27.276  29.219  1.00  0.00     0.029 A 
ATOM     21  C   UNL A   1      42.159  28.283  29.198  1.00  0.00     0.049 A 
ATOM     22  H   UNL A   1      44.164  28.001  28.695  1.00  0.00     0.167 HD
ATOM     23  C   UNL A   1      48.279  27.315  27.259  1.00  0.00     0.031 A 
ATOM     24  C   UNL A   1      41.997  29.587  29.505  1.00  0.00     0.031 A 
ATOM     25  C   UNL A   1      48.179  28.731  27.416  1.00  0.00     0.049 A 
ATOM     26  C   UNL A   1      43.165  30.517  29.276  1.00  0.00     0.074 A 
ATOM     27  C   UNL A   1      49.137  29.696  27.182  1.00  0.00     0.029 A 
ATOM     28  N   UNL A   1      47.036  29.381  27.854  1.00  0.00    -0.354 N 
ATOM     29  N   UNL A   1      44.365  30.237  28.820  1.00  0.00    -0.248 NA
ATOM     30  C   UNL A   1      42.945  31.943  29.554  1.00  0.00     0.031 C 
ATOM     31  C   UNL A   1      48.586  30.933  27.532  1.00  0.00     0.029 A 
ATOM     32  C   UNL A   1      47.269  30.738  27.922  1.00  0.00     0.049 A 
ATOM     33  H   UNL A   1      46.186  28.939  28.081  1.00  0.00     0.167 HD
ATOM     34  C   UNL A   1      45.027  31.457  28.723  1.00  0.00     0.074 A 
ATOM     35  C   UNL A   1      44.084  32.476  29.139  1.00  0.00     0.031 C 
ATOM     36  C   UNL A   1      46.298  31.719  28.329  1.00  0.00     0.031 A 
BRANCH  23  37
ATOM     37  C   UNL A   1      49.544  26.701  26.729  1.00  0.00    -0.014 A 
ATOM     38  C   UNL A   1      50.505  26.182  27.622  1.00  0.00     0.010 A 
ATOM     39  C   UNL A   1      49.803  26.679  25.351  1.00  0.00     0.010 A 
ATOM     40  C   UNL A   1      51.723  25.697  27.150  1.00  0.00     0.020 A 
ATOM     41  C   UNL A   1      51.011  26.163  24.871  1.00  0.00     0.020 A 
ATOM     42  C   UNL A   1      51.968  25.690  25.774  1.00  0.00     0.054 A 
BRANCH  42  43
ATOM     43  S   UNL A   1      53.547  25.023  25.187  1.00  0.00     0.124 S 
ATOM     44  O   UNL A   1      53.612  25.554  23.827  1.00  0.00    -0.237 OA
ATOM     45  O   UNL A   1      54.503  25.595  26.130  1.00  0.00    -0.237 OA
ATOM     46  O   UNL A   1      53.369  23.576  25.283  1.00  0.00    -0.744 OA
ENDBRANCH  42  43
ENDBRANCH  23  37
BRANCH  24  47
ATOM     47  C   UNL A   1      40.688  30.121  29.997  1.00  0.00    -0.014 A 
ATOM     48  C   UNL A   1      40.401  30.190  31.374  1.00  0.00     0.010 A 
ATOM     49  C   UNL A   1      39.688  30.501  29.083  1.00  0.00     0.010 A 
ATOM     50  C   UNL A   1      39.128  30.567  31.825  1.00  0.00     0.020 A 
ATOM     51  C   UNL A   1      38.423  30.909  29.529  1.00  0.00     0.020 A 
ATOM     52  C   UNL A   1      38.144  30.917  30.897  1.00  0.00     0.054 A 
BRANCH  52  53
ATOM     53  S   UNL A   1      36.497  31.388  31.502  1.00  0.00     0.124 S 
ATOM     54  O   UNL A   1      35.716  31.413  30.270  1.00  0.00    -0.237 OA
ATOM     55  O   UNL A   1      36.182  30.306  32.431  1.00  0.00    -0.237 OA
ATOM     56  O   UNL A   1      36.723  32.689  32.127  1.00  0.00    -0.744 OA
ENDBRANCH  52  53
ENDBRANCH  24  47
BRANCH  36  57
ATOM     57  C   UNL A   1      46.730  33.157  28.300  1.00  0.00    -0.014 A 
ATOM     58  C   UNL A   1      47.384  33.741  29.398  1.00  0.00     0.010 A 
ATOM     59  C   UNL A   1      46.546  33.908  27.124  1.00  0.00     0.010 A 
ATOM     60  C   UNL A   1      47.810  35.068  29.336  1.00  0.00     0.020 A 
ATOM     61  C   UNL A   1      47.005  35.222  27.045  1.00  0.00     0.020 A 
ATOM     62  C   UNL A   1      47.619  35.799  28.158  1.00  0.00     0.054 A 
BRANCH  62  63
ATOM     63  S   UNL A   1      48.221  37.506  28.090  1.00  0.00     0.124 S 
ATOM     64  O   UNL A   1      47.316  38.182  29.015  1.00  0.00    -0.237 OA
ATOM     65  O   UNL A   1      49.603  37.376  28.542  1.00  0.00    -0.237 OA
ATOM     66  O   UNL A   1      48.063  37.871  26.683  1.00  0.00    -0.744 OA
ENDBRANCH  62  63
ENDBRANCH  36  57
ENDBRANCH  10  11
ENDBRANCH   3   5
ENDBRANCH   2   3
ENDBRANCH   1   2
BRANCH   1  67
ATOM     67  C   UNL A   1      37.971  21.841  25.043  1.00  0.00     0.274 C 
BRANCH  67  68
ATOM     68  O   UNL A   1      37.321  23.131  24.936  1.00  0.00    -0.462 OA
BRANCH  68  69
ATOM     69  C   UNL A   1      36.455  23.273  23.886  1.00  0.00     0.309 C 
ATOM     70  O   UNL A   1      36.715  22.897  22.749  1.00  0.00    -0.252 OA
BRANCH  69  71
ATOM     71  C   UNL A   1      35.229  24.139  24.225  1.00  0.00     0.110 C 
ATOM     72  C   UNL A   1      34.736  24.148  25.670  1.00  0.00     0.077 C 
ATOM     73  C   UNL A   1      34.052  23.815  23.296  1.00  0.00     0.077 C 
ATOM     74  C   UNL A   1      33.745  23.040  26.048  1.00  0.00     0.263 C 
ATOM     75  C   UNL A   1      33.342  22.528  23.713  1.00  0.00     0.263 C 
ATOM     76  N   UNL A   1      32.789  22.608  25.054  1.00  0.00    -0.324 N 
ATOM     77  H   UNL A   1      32.607  21.609  25.148  1.00  0.00     0.348 HD
BRANCH  76  78
ATOM     78  C   UNL A   1      31.383  22.909  25.337  1.00  0.00     0.284 C 
ATOM     79  C   UNL A   1      31.142  23.683  26.615  1.00  0.00     0.176 C 
ATOM     80  C   UNL A   1      30.778  23.824  24.281  1.00  0.00     0.292 C 
ATOM     81  C   UNL A   1      31.171  25.097  26.134  1.00  0.00     0.240 C 
ATOM     82  N   UNL A   1      30.860  25.104  24.795  1.00  0.00    -0.245 N 
ATOM     83  O   UNL A   1      30.410  23.470  23.173  1.00  0.00    -0.267 OA
ATOM     84  O   UNL A   1      31.358  26.053  26.882  1.00  0.00    -0.274 OA
BRANCH  82  85
ATOM     85  C   UNL A   1      30.762  26.269  24.009  1.00  0.00     0.056 A 
ATOM     86  C   UNL A   1      31.882  26.812  23.366  1.00  0.00     0.031 A 
ATOM     87  C   UNL A   1      29.526  26.920  23.892  1.00  0.00     0.077 A 
ATOM     88  C   UNL A   1      31.754  27.951  22.567  1.00  0.00     0.052 A 
ATOM     89  C   UNL A   1      29.411  28.078  23.133  1.00  0.00     0.163 A 
ATOM     90  C   UNL A   1      30.521  28.589  22.458  1.00  0.00     0.161 A 
ATOM     91  O   UNL A   1      28.175  28.670  23.114  1.00  0.00    -0.486 OA
ATOM     92  O   UNL A   1      30.468  29.705  21.665  1.00  0.00    -0.486 OA
ATOM     93  C   UNL A   1      28.055  29.575  22.017  1.00  0.00     0.271 C 
ATOM     94  C   UNL A   1      29.282  30.468  21.913  1.00  0.00     0.271 C 
ENDBRANCH  82  85
ENDBRANCH  76  78
ENDBRANCH  69  71
ENDBRANCH  68  69
ENDBRANCH  67  68
ENDBRANCH   1  67
TORSDOF 16
ENDMDL
