MODEL 1
REMARK VINA RESULT:      -8.9      0.000      0.000
REMARK SMILES C[C@@H](C(=O)OCCOC(=O)c1ccc(-c2c3nc(c(-c4ccc(S(=O)(=O)[O-])cc4)c4ccc([nH]4)c(-c4ccc(S(=O)(=O)[O-])cc4)c4nc(c(-c5ccc(S(=O)(=O)[O-])cc5)c5ccc2[nH]5)C=C4)C=C3)cc1)c1ccc(=O)n(C(F)F)c1
REMARK SMILES IDX 7 1 6 2 5 3 3 4 4 5 2 6 1 7 71 8 72 9 80 10 73 11 76 12
REMARK SMILES IDX 74 13 75 14 77 15 78 16 79 17 8 18 9 19 10 20 11 21 12 22
REMARK SMILES IDX 70 23 13 24 69 25 14 26 15 27 16 28 63 29 17 30 68 31 62 32
REMARK SMILES IDX 64 33 18 34 67 35 61 36 60 37 19 39 49 40 30 41 48 42 31 43
REMARK SMILES IDX 34 44 47 45 65 46 32 47 33 48 46 50 66 51 35 52 20 53 21 54
REMARK SMILES IDX 29 55 22 56 28 57 23 58 24 59 25 60 26 61 27 62 50 63 51 64
REMARK SMILES IDX 59 65 52 66 58 67 53 68 54 69 55 70 56 71 57 72 36 73 37 74
REMARK SMILES IDX 45 75 38 76 44 77 39 78 40 79 41 80 42 81 43 82
REMARK H PARENT 64 38 34 49
REMARK Flexibility Score: inf
ROOT
ATOM      1  C   UNL A   1      33.566  33.445  28.586  1.00  0.00     0.275 C 
ENDROOT
BRANCH   1   2
ATOM      2  C   UNL A   1      34.453  34.203  29.580  1.00  0.00     0.274 C 
BRANCH   2   3
ATOM      3  O   UNL A   1      33.882  34.273  30.903  1.00  0.00    -0.462 OA
BRANCH   3   4
ATOM      4  C   UNL A   1      34.452  33.465  31.848  1.00  0.00     0.313 C 
ATOM      5  O   UNL A   1      34.393  32.244  31.799  1.00  0.00    -0.252 OA
BRANCH   4   6
ATOM      6  C   UNL A   1      35.047  34.284  33.026  1.00  0.00     0.127 C 
ATOM      7  C   UNL A   1      34.324  35.637  33.151  1.00  0.00     0.025 C 
BRANCH   6   8
ATOM      8  C   UNL A   1      36.583  34.419  32.966  1.00  0.00    -0.017 A 
ATOM      9  C   UNL A   1      37.321  34.496  34.221  1.00  0.00     0.012 A 
ATOM     10  C   UNL A   1      37.309  34.473  31.830  1.00  0.00     0.099 A 
ATOM     11  C   UNL A   1      38.659  34.504  34.256  1.00  0.00     0.072 A 
ATOM     12  N   UNL A   1      38.693  34.540  31.834  1.00  0.00    -0.258 N 
ATOM     13  C   UNL A   1      39.444  34.516  32.997  1.00  0.00     0.254 A 
ATOM     14  O   UNL A   1      40.667  34.521  33.059  1.00  0.00    -0.269 OA
BRANCH  12  15
ATOM     15  C   UNL A   1      39.432  34.568  30.596  1.00  0.00     0.451 C 
ATOM     16  F   UNL A   1      39.926  33.346  30.283  1.00  0.00    -0.185 F 
ATOM     17  F   UNL A   1      38.648  34.989  29.576  1.00  0.00    -0.185 F 
ENDBRANCH  12  15
ENDBRANCH   6   8
ENDBRANCH   4   6
ENDBRANCH   3   4
ENDBRANCH   2   3
ENDBRANCH   1   2
BRANCH   1  18
ATOM     18  O   UNL A   1      34.328  32.863  27.513  1.00  0.00    -0.458 OA
BRANCH  18  19
ATOM     19  C   UNL A   1      34.399  31.512  27.531  1.00  0.00     0.338 C 
ATOM     20  O   UNL A   1      33.628  30.738  26.977  1.00  0.00    -0.246 OA
BRANCH  19  21
ATOM     21  C   UNL A   1      35.666  31.073  28.144  1.00  0.00     0.060 A 
ATOM     22  C   UNL A   1      35.644  29.848  28.814  1.00  0.00     0.016 A 
ATOM     23  C   UNL A   1      36.839  31.829  28.101  1.00  0.00     0.016 A 
ATOM     24  C   UNL A   1      36.796  29.347  29.410  1.00  0.00     0.010 A 
ATOM     25  C   UNL A   1      37.992  31.342  28.733  1.00  0.00     0.010 A 
ATOM     26  C   UNL A   1      37.974  30.097  29.386  1.00  0.00    -0.014 A 
BRANCH  26  27
ATOM     27  C   UNL A   1      39.150  29.585  30.126  1.00  0.00     0.031 A 
ATOM     28  C   UNL A   1      39.383  30.037  31.539  1.00  0.00     0.074 A 
ATOM     29  C   UNL A   1      39.946  28.653  29.573  1.00  0.00     0.049 A 
ATOM     30  N   UNL A   1      40.341  29.707  32.365  1.00  0.00    -0.248 NA
ATOM     31  C   UNL A   1      38.396  30.975  32.099  1.00  0.00     0.031 C 
ATOM     32  C   UNL A   1      39.754  28.051  28.253  1.00  0.00     0.029 A 
ATOM     33  N   UNL A   1      41.067  28.032  30.066  1.00  0.00    -0.354 N 
ATOM     34  C   UNL A   1      40.074  30.391  33.544  1.00  0.00     0.074 A 
ATOM     35  C   UNL A   1      38.871  31.165  33.321  1.00  0.00     0.031 C 
ATOM     36  C   UNL A   1      40.721  27.142  28.044  1.00  0.00     0.029 A 
ATOM     37  C   UNL A   1      41.622  27.125  29.195  1.00  0.00     0.049 A 
ATOM     38  H   UNL A   1      41.438  28.219  30.958  1.00  0.00     0.167 HD
ATOM     39  C   UNL A   1      40.774  30.381  34.703  1.00  0.00     0.031 A 
ATOM     40  C   UNL A   1      42.742  26.383  29.308  1.00  0.00     0.031 A 
ATOM     41  C   UNL A   1      41.987  29.637  34.910  1.00  0.00     0.049 A 
ATOM     42  C   UNL A   1      43.572  26.489  30.562  1.00  0.00     0.074 A 
ATOM     43  C   UNL A   1      42.793  29.601  36.034  1.00  0.00     0.029 A 
ATOM     44  N   UNL A   1      42.575  28.803  33.969  1.00  0.00    -0.354 N 
ATOM     45  N   UNL A   1      43.332  27.170  31.657  1.00  0.00    -0.248 NA
ATOM     46  C   UNL A   1      44.832  25.732  30.589  1.00  0.00     0.031 C 
ATOM     47  C   UNL A   1      43.899  28.792  35.752  1.00  0.00     0.029 A 
ATOM     48  C   UNL A   1      43.751  28.277  34.474  1.00  0.00     0.049 A 
ATOM     49  H   UNL A   1      42.208  28.614  33.076  1.00  0.00     0.167 HD
ATOM     50  C   UNL A   1      44.397  26.905  32.512  1.00  0.00     0.074 A 
ATOM     51  C   UNL A   1      45.278  25.994  31.812  1.00  0.00     0.031 C 
ATOM     52  C   UNL A   1      44.623  27.374  33.764  1.00  0.00     0.031 A 
BRANCH  39  53
ATOM     53  C   UNL A   1      40.277  31.268  35.810  1.00  0.00    -0.014 A 
ATOM     54  C   UNL A   1      41.056  32.329  36.305  1.00  0.00     0.010 A 
ATOM     55  C   UNL A   1      39.000  31.040  36.355  1.00  0.00     0.010 A 
ATOM     56  C   UNL A   1      40.582  33.120  37.356  1.00  0.00     0.020 A 
ATOM     57  C   UNL A   1      38.515  31.842  37.389  1.00  0.00     0.020 A 
ATOM     58  C   UNL A   1      39.317  32.866  37.897  1.00  0.00     0.054 A 
BRANCH  58  59
ATOM     59  S   UNL A   1      38.724  33.903  39.261  1.00  0.00     0.124 S 
ATOM     60  O   UNL A   1      38.839  35.243  38.691  1.00  0.00    -0.237 OA
ATOM     61  O   UNL A   1      37.360  33.423  39.463  1.00  0.00    -0.237 OA
ATOM     62  O   UNL A   1      39.652  33.609  40.351  1.00  0.00    -0.744 OA
ENDBRANCH  58  59
ENDBRANCH  39  53
BRANCH  40  63
ATOM     63  C   UNL A   1      43.179  25.510  28.182  1.00  0.00    -0.014 A 
ATOM     64  C   UNL A   1      42.809  24.155  28.134  1.00  0.00     0.010 A 
ATOM     65  C   UNL A   1      43.993  26.033  27.160  1.00  0.00     0.010 A 
ATOM     66  C   UNL A   1      43.263  23.334  27.095  1.00  0.00     0.020 A 
ATOM     67  C   UNL A   1      44.425  25.223  26.107  1.00  0.00     0.020 A 
ATOM     68  C   UNL A   1      44.069  23.874  26.089  1.00  0.00     0.054 A 
BRANCH  68  69
ATOM     69  S   UNL A   1      44.620  22.803  24.731  1.00  0.00     0.124 S 
ATOM     70  O   UNL A   1      43.394  22.638  23.956  1.00  0.00    -0.237 OA
ATOM     71  O   UNL A   1      45.667  23.602  24.099  1.00  0.00    -0.237 OA
ATOM     72  O   UNL A   1      45.095  21.602  25.415  1.00  0.00    -0.744 OA
ENDBRANCH  68  69
ENDBRANCH  40  63
BRANCH  52  73
ATOM     73  C   UNL A   1      45.863  26.897  34.474  1.00  0.00    -0.014 A 
ATOM     74  C   UNL A   1      47.115  27.487  34.228  1.00  0.00     0.010 A 
ATOM     75  C   UNL A   1      45.760  25.887  35.449  1.00  0.00     0.010 A 
ATOM     76  C   UNL A   1      48.247  27.060  34.928  1.00  0.00     0.020 A 
ATOM     77  C   UNL A   1      46.885  25.476  36.169  1.00  0.00     0.020 A 
ATOM     78  C   UNL A   1      48.125  26.056  35.895  1.00  0.00     0.054 A 
BRANCH  78  79
ATOM     79  S   UNL A   1      49.599  25.557  36.830  1.00  0.00     0.124 S 
ATOM     80  O   UNL A   1      49.942  26.787  37.537  1.00  0.00    -0.237 OA
ATOM     81  O   UNL A   1      49.097  24.470  37.666  1.00  0.00    -0.237 OA
ATOM     82  O   UNL A   1      50.544  25.150  35.792  1.00  0.00    -0.744 OA
ENDBRANCH  78  79
ENDBRANCH  52  73
ENDBRANCH  26  27
ENDBRANCH  19  21
ENDBRANCH  18  19
ENDBRANCH   1  18
TORSDOF 16
ENDMDL
MODEL 2
REMARK VINA RESULT:      -8.8      7.273     11.234
REMARK SMILES C[C@@H](C(=O)OCCOC(=O)c1ccc(-c2c3nc(c(-c4ccc(S(=O)(=O)[O-])cc4)c4ccc([nH]4)c(-c4ccc(S(=O)(=O)[O-])cc4)c4nc(c(-c5ccc(S(=O)(=O)[O-])cc5)c5ccc2[nH]5)C=C4)C=C3)cc1)c1ccc(=O)n(C(F)F)c1
REMARK SMILES IDX 7 1 6 2 5 3 3 4 4 5 2 6 1 7 71 8 72 9 80 10 73 11 76 12
REMARK SMILES IDX 74 13 75 14 77 15 78 16 79 17 8 18 9 19 10 20 11 21 12 22
REMARK SMILES IDX 70 23 13 24 69 25 14 26 15 27 16 28 63 29 17 30 68 31 62 32
REMARK SMILES IDX 64 33 18 34 67 35 61 36 60 37 19 39 49 40 30 41 48 42 31 43
REMARK SMILES IDX 34 44 47 45 65 46 32 47 33 48 46 50 66 51 35 52 20 53 21 54
REMARK SMILES IDX 29 55 22 56 28 57 23 58 24 59 25 60 26 61 27 62 50 63 51 64
REMARK SMILES IDX 59 65 52 66 58 67 53 68 54 69 55 70 56 71 57 72 36 73 37 74
REMARK SMILES IDX 45 75 38 76 44 77 39 78 40 79 41 80 42 81 43 82
REMARK H PARENT 64 38 34 49
REMARK Flexibility Score: inf
ROOT
ATOM      1  C   UNL A   1      39.046  20.051  25.376  1.00  0.00     0.275 C 
ENDROOT
BRANCH   1   2
ATOM      2  C   UNL A   1      38.211  21.337  25.360  1.00  0.00     0.274 C 
BRANCH   2   3
ATOM      3  O   UNL A   1      36.809  21.099  25.605  1.00  0.00    -0.462 OA
BRANCH   3   4
ATOM      4  C   UNL A   1      35.934  21.868  24.890  1.00  0.00     0.313 C 
ATOM      5  O   UNL A   1      36.300  22.717  24.088  1.00  0.00    -0.252 OA
BRANCH   4   6
ATOM      6  C   UNL A   1      34.462  21.619  25.318  1.00  0.00     0.127 C 
ATOM      7  C   UNL A   1      34.378  21.422  26.842  1.00  0.00     0.025 C 
BRANCH   6   8
ATOM      8  C   UNL A   1      33.773  20.491  24.521  1.00  0.00    -0.017 A 
ATOM      9  C   UNL A   1      32.717  20.852  23.582  1.00  0.00     0.012 A 
ATOM     10  C   UNL A   1      34.072  19.180  24.624  1.00  0.00     0.099 A 
ATOM     11  C   UNL A   1      32.148  19.948  22.776  1.00  0.00     0.072 A 
ATOM     12  N   UNL A   1      33.458  18.213  23.844  1.00  0.00    -0.258 N 
ATOM     13  C   UNL A   1      32.522  18.516  22.870  1.00  0.00     0.254 A 
ATOM     14  O   UNL A   1      31.986  17.711  22.119  1.00  0.00    -0.269 OA
BRANCH  12  15
ATOM     15  C   UNL A   1      33.828  16.825  23.966  1.00  0.00     0.451 C 
ATOM     16  F   UNL A   1      34.438  16.371  22.845  1.00  0.00    -0.185 F 
ATOM     17  F   UNL A   1      34.663  16.639  25.015  1.00  0.00    -0.185 F 
ENDBRANCH  12  15
ENDBRANCH   6   8
ENDBRANCH   4   6
ENDBRANCH   3   4
ENDBRANCH   2   3
ENDBRANCH   1   2
BRANCH   1  18
ATOM     18  O   UNL A   1      39.878  19.960  26.547  1.00  0.00    -0.458 OA
BRANCH  18  19
ATOM     19  C   UNL A   1      41.209  19.969  26.302  1.00  0.00     0.338 C 
ATOM     20  O   UNL A   1      41.844  19.104  25.713  1.00  0.00    -0.246 OA
BRANCH  19  21
ATOM     21  C   UNL A   1      41.788  21.277  26.660  1.00  0.00     0.060 A 
ATOM     22  C   UNL A   1      41.948  22.195  25.620  1.00  0.00     0.016 A 
ATOM     23  C   UNL A   1      42.191  21.606  27.956  1.00  0.00     0.016 A 
ATOM     24  C   UNL A   1      42.472  23.459  25.867  1.00  0.00     0.010 A 
ATOM     25  C   UNL A   1      42.753  22.868  28.199  1.00  0.00     0.010 A 
ATOM     26  C   UNL A   1      42.891  23.800  27.155  1.00  0.00    -0.014 A 
BRANCH  26  27
ATOM     27  C   UNL A   1      43.546  25.111  27.359  1.00  0.00     0.031 A 
ATOM     28  C   UNL A   1      42.741  26.260  27.895  1.00  0.00     0.074 A 
ATOM     29  C   UNL A   1      44.869  25.248  27.156  1.00  0.00     0.049 A 
ATOM     30  N   UNL A   1      43.119  27.484  28.153  1.00  0.00    -0.248 NA
ATOM     31  C   UNL A   1      41.325  25.987  28.191  1.00  0.00     0.031 C 
ATOM     32  C   UNL A   1      45.776  24.175  26.748  1.00  0.00     0.029 A 
ATOM     33  N   UNL A   1      45.682  26.345  27.290  1.00  0.00    -0.354 N 
ATOM     34  C   UNL A   1      41.992  28.129  28.647  1.00  0.00     0.074 A 
ATOM     35  C   UNL A   1      40.913  27.164  28.639  1.00  0.00     0.031 C 
ATOM     36  C   UNL A   1      47.025  24.668  26.671  1.00  0.00     0.029 A 
ATOM     37  C   UNL A   1      46.999  26.096  26.985  1.00  0.00     0.049 A 
ATOM     38  H   UNL A   1      45.354  27.227  27.576  1.00  0.00     0.167 HD
ATOM     39  C   UNL A   1      41.867  29.413  29.061  1.00  0.00     0.031 A 
ATOM     40  C   UNL A   1      48.057  26.930  26.944  1.00  0.00     0.031 A 
ATOM     41  C   UNL A   1      42.931  30.379  29.037  1.00  0.00     0.049 A 
ATOM     42  C   UNL A   1      47.860  28.385  27.288  1.00  0.00     0.074 A 
ATOM     43  C   UNL A   1      42.889  31.716  29.391  1.00  0.00     0.029 A 
ATOM     44  N   UNL A   1      44.231  30.115  28.628  1.00  0.00    -0.354 N 
ATOM     45  N   UNL A   1      46.780  28.994  27.716  1.00  0.00    -0.248 NA
ATOM     46  C   UNL A   1      49.026  29.267  27.132  1.00  0.00     0.031 C 
ATOM     47  C   UNL A   1      44.146  32.275  29.140  1.00  0.00     0.029 A 
ATOM     48  C   UNL A   1      44.989  31.271  28.687  1.00  0.00     0.049 A 
ATOM     49  H   UNL A   1      44.563  29.234  28.340  1.00  0.00     0.167 HD
ATOM     50  C   UNL A   1      47.143  30.324  27.904  1.00  0.00     0.074 A 
ATOM     51  C   UNL A   1      48.543  30.429  27.552  1.00  0.00     0.031 C 
ATOM     52  C   UNL A   1      46.383  31.364  28.329  1.00  0.00     0.031 A 
BRANCH  39  53
ATOM     53  C   UNL A   1      40.500  29.859  29.502  1.00  0.00    -0.014 A 
ATOM     54  C   UNL A   1      40.184  30.018  30.863  1.00  0.00     0.010 A 
ATOM     55  C   UNL A   1      39.520  30.136  28.532  1.00  0.00     0.010 A 
ATOM     56  C   UNL A   1      38.897  30.407  31.246  1.00  0.00     0.020 A 
ATOM     57  C   UNL A   1      38.240  30.545  28.910  1.00  0.00     0.020 A 
ATOM     58  C   UNL A   1      37.931  30.659  30.267  1.00  0.00     0.054 A 
BRANCH  58  59
ATOM     59  S   UNL A   1      36.267  31.158  30.788  1.00  0.00     0.124 S 
ATOM     60  O   UNL A   1      35.914  30.093  31.724  1.00  0.00    -0.237 OA
ATOM     61  O   UNL A   1      36.496  32.470  31.389  1.00  0.00    -0.237 OA
ATOM     62  O   UNL A   1      35.501  31.171  29.544  1.00  0.00    -0.744 OA
ENDBRANCH  58  59
ENDBRANCH  39  53
BRANCH  40  63
ATOM     63  C   UNL A   1      49.391  26.427  26.512  1.00  0.00    -0.014 A 
ATOM     64  C   UNL A   1      50.332  25.976  27.454  1.00  0.00     0.010 A 
ATOM     65  C   UNL A   1      49.734  26.422  25.148  1.00  0.00     0.010 A 
ATOM     66  C   UNL A   1      51.599  25.549  27.040  1.00  0.00     0.020 A 
ATOM     67  C   UNL A   1      50.988  25.971  24.728  1.00  0.00     0.020 A 
ATOM     68  C   UNL A   1      51.919  25.550  25.680  1.00  0.00     0.054 A 
BRANCH  68  69
ATOM     69  S   UNL A   1      53.554  24.960  25.157  1.00  0.00     0.124 S 
ATOM     70  O   UNL A   1      54.410  25.438  26.239  1.00  0.00    -0.237 OA
ATOM     71  O   UNL A   1      53.365  23.513  25.090  1.00  0.00    -0.237 OA
ATOM     72  O   UNL A   1      53.755  25.612  23.865  1.00  0.00    -0.744 OA
ENDBRANCH  68  69
ENDBRANCH  40  63
BRANCH  52  73
ATOM     73  C   UNL A   1      47.051  32.708  28.460  1.00  0.00    -0.014 A 
ATOM     74  C   UNL A   1      47.705  33.083  29.645  1.00  0.00     0.010 A 
ATOM     75  C   UNL A   1      47.079  33.580  27.355  1.00  0.00     0.010 A 
ATOM     76  C   UNL A   1      48.356  34.317  29.733  1.00  0.00     0.020 A 
ATOM     77  C   UNL A   1      47.750  34.802  27.430  1.00  0.00     0.020 A 
ATOM     78  C   UNL A   1      48.376  35.170  28.624  1.00  0.00     0.054 A 
BRANCH  78  79
ATOM     79  S   UNL A   1      49.274  36.742  28.744  1.00  0.00     0.124 S 
ATOM     80  O   UNL A   1      48.528  37.592  27.821  1.00  0.00    -0.237 OA
ATOM     81  O   UNL A   1      49.142  37.081  30.159  1.00  0.00    -0.237 OA
ATOM     82  O   UNL A   1      50.630  36.398  28.317  1.00  0.00    -0.744 OA
ENDBRANCH  78  79
ENDBRANCH  52  73
ENDBRANCH  26  27
ENDBRANCH  19  21
ENDBRANCH  18  19
ENDBRANCH   1  18
TORSDOF 16
ENDMDL
MODEL 3
REMARK VINA RESULT:      -8.8      4.896      7.148
REMARK SMILES C[C@@H](C(=O)OCCOC(=O)c1ccc(-c2c3nc(c(-c4ccc(S(=O)(=O)[O-])cc4)c4ccc([nH]4)c(-c4ccc(S(=O)(=O)[O-])cc4)c4nc(c(-c5ccc(S(=O)(=O)[O-])cc5)c5ccc2[nH]5)C=C4)C=C3)cc1)c1ccc(=O)n(C(F)F)c1
REMARK SMILES IDX 7 1 6 2 5 3 3 4 4 5 2 6 1 7 71 8 72 9 80 10 73 11 76 12
REMARK SMILES IDX 74 13 75 14 77 15 78 16 79 17 8 18 9 19 10 20 11 21 12 22
REMARK SMILES IDX 70 23 13 24 69 25 14 26 15 27 16 28 63 29 17 30 68 31 62 32
REMARK SMILES IDX 64 33 18 34 67 35 61 36 60 37 19 39 49 40 30 41 48 42 31 43
REMARK SMILES IDX 34 44 47 45 65 46 32 47 33 48 46 50 66 51 35 52 20 53 21 54
REMARK SMILES IDX 29 55 22 56 28 57 23 58 24 59 25 60 26 61 27 62 50 63 51 64
REMARK SMILES IDX 59 65 52 66 58 67 53 68 54 69 55 70 56 71 57 72 36 73 37 74
REMARK SMILES IDX 45 75 38 76 44 77 39 78 40 79 41 80 42 81 43 82
REMARK H PARENT 64 38 34 49
REMARK Flexibility Score: inf
ROOT
ATOM      1  C   UNL A   1      32.632  29.210  26.978  1.00  0.00     0.275 C 
ENDROOT
BRANCH   1   2
ATOM      2  C   UNL A   1      31.820  28.133  27.707  1.00  0.00     0.274 C 
BRANCH   2   3
ATOM      3  O   UNL A   1      30.931  27.411  26.830  1.00  0.00    -0.462 OA
BRANCH   3   4
ATOM      4  C   UNL A   1      31.442  26.282  26.251  1.00  0.00     0.313 C 
ATOM      5  O   UNL A   1      32.477  25.752  26.633  1.00  0.00    -0.252 OA
BRANCH   4   6
ATOM      6  C   UNL A   1      30.629  25.855  24.999  1.00  0.00     0.127 C 
ATOM      7  C   UNL A   1      31.354  24.718  24.257  1.00  0.00     0.025 C 
BRANCH   6   8
ATOM      8  C   UNL A   1      30.253  27.036  24.079  1.00  0.00    -0.017 A 
ATOM      9  C   UNL A   1      31.315  27.689  23.322  1.00  0.00     0.012 A 
ATOM     10  C   UNL A   1      29.004  27.520  23.916  1.00  0.00     0.099 A 
ATOM     11  C   UNL A   1      31.056  28.646  22.423  1.00  0.00     0.072 A 
ATOM     12  N   UNL A   1      28.714  28.550  23.034  1.00  0.00    -0.258 N 
ATOM     13  C   UNL A   1      29.671  29.135  22.222  1.00  0.00     0.254 A 
ATOM     14  O   UNL A   1      29.463  30.010  21.391  1.00  0.00    -0.269 OA
BRANCH  12  15
ATOM     15  C   UNL A   1      27.361  29.019  22.870  1.00  0.00     0.451 C 
ATOM     16  F   UNL A   1      26.492  28.308  23.629  1.00  0.00    -0.185 F 
ATOM     17  F   UNL A   1      27.259  30.325  23.211  1.00  0.00    -0.185 F 
ENDBRANCH  12  15
ENDBRANCH   6   8
ENDBRANCH   4   6
ENDBRANCH   3   4
ENDBRANCH   2   3
ENDBRANCH   1   2
BRANCH   1  18
ATOM     18  O   UNL A   1      34.043  29.090  27.233  1.00  0.00    -0.458 OA
BRANCH  18  19
ATOM     19  C   UNL A   1      34.612  30.173  27.811  1.00  0.00     0.338 C 
ATOM     20  O   UNL A   1      34.049  31.220  28.104  1.00  0.00    -0.246 OA
BRANCH  19  21
ATOM     21  C   UNL A   1      35.987  29.860  28.243  1.00  0.00     0.060 A 
ATOM     22  C   UNL A   1      36.985  29.959  27.271  1.00  0.00     0.016 A 
ATOM     23  C   UNL A   1      36.308  29.457  29.540  1.00  0.00     0.016 A 
ATOM     24  C   UNL A   1      38.313  29.696  27.591  1.00  0.00     0.010 A 
ATOM     25  C   UNL A   1      37.642  29.157  29.855  1.00  0.00     0.010 A 
ATOM     26  C   UNL A   1      38.648  29.281  28.881  1.00  0.00    -0.014 A 
BRANCH  26  27
ATOM     27  C   UNL A   1      40.053  28.903  29.156  1.00  0.00     0.031 A 
ATOM     28  C   UNL A   1      40.938  29.858  29.903  1.00  0.00     0.074 A 
ATOM     29  C   UNL A   1      40.504  27.680  28.823  1.00  0.00     0.049 A 
ATOM     30  N   UNL A   1      42.191  29.723  30.254  1.00  0.00    -0.248 NA
ATOM     31  C   UNL A   1      40.325  31.129  30.323  1.00  0.00     0.031 C 
ATOM     32  C   UNL A   1      39.706  26.625  28.199  1.00  0.00     0.029 A 
ATOM     33  N   UNL A   1      41.743  27.112  28.988  1.00  0.00    -0.354 N 
ATOM     34  C   UNL A   1      42.517  30.886  30.939  1.00  0.00     0.074 A 
ATOM     35  C   UNL A   1      41.335  31.722  30.943  1.00  0.00     0.031 C 
ATOM     36  C   UNL A   1      40.474  25.534  28.039  1.00  0.00     0.029 A 
ATOM     37  C   UNL A   1      41.827  25.826  28.512  1.00  0.00     0.049 A 
ATOM     38  H   UNL A   1      42.500  27.582  29.406  1.00  0.00     0.167 HD
ATOM     39  C   UNL A   1      43.699  31.229  31.505  1.00  0.00     0.031 A 
ATOM     40  C   UNL A   1      42.882  24.989  28.447  1.00  0.00     0.031 A 
ATOM     41  C   UNL A   1      44.881  30.411  31.470  1.00  0.00     0.049 A 
ATOM     42  C   UNL A   1      44.218  25.447  28.971  1.00  0.00     0.074 A 
ATOM     43  C   UNL A   1      46.139  30.694  31.974  1.00  0.00     0.029 A 
ATOM     44  N   UNL A   1      44.956  29.152  30.892  1.00  0.00    -0.354 N 
ATOM     45  N   UNL A   1      44.527  26.566  29.582  1.00  0.00    -0.248 NA
ATOM     46  C   UNL A   1      45.353  24.530  28.786  1.00  0.00     0.031 C 
ATOM     47  C   UNL A   1      46.988  29.631  31.649  1.00  0.00     0.029 A 
ATOM     48  C   UNL A   1      46.246  28.660  30.995  1.00  0.00     0.049 A 
ATOM     49  H   UNL A   1      44.202  28.678  30.472  1.00  0.00     0.167 HD
ATOM     50  C   UNL A   1      45.884  26.477  29.876  1.00  0.00     0.074 A 
ATOM     51  C   UNL A   1      46.335  25.193  29.384  1.00  0.00     0.031 C 
ATOM     52  C   UNL A   1      46.684  27.380  30.497  1.00  0.00     0.031 A 
BRANCH  39  53
ATOM     53  C   UNL A   1      43.783  32.588  32.143  1.00  0.00    -0.014 A 
ATOM     54  C   UNL A   1      43.580  32.764  33.523  1.00  0.00     0.010 A 
ATOM     55  C   UNL A   1      44.084  33.706  31.344  1.00  0.00     0.010 A 
ATOM     56  C   UNL A   1      43.635  34.043  34.085  1.00  0.00     0.020 A 
ATOM     57  C   UNL A   1      44.162  34.981  31.905  1.00  0.00     0.020 A 
ATOM     58  C   UNL A   1      43.917  35.145  33.270  1.00  0.00     0.054 A 
BRANCH  58  59
ATOM     59  S   UNL A   1      43.980  36.794  34.021  1.00  0.00     0.124 S 
ATOM     60  O   UNL A   1      42.578  37.200  33.973  1.00  0.00    -0.237 OA
ATOM     61  O   UNL A   1      44.509  36.522  35.356  1.00  0.00    -0.237 OA
ATOM     62  O   UNL A   1      44.875  37.543  33.141  1.00  0.00    -0.744 OA
ENDBRANCH  58  59
ENDBRANCH  39  53
BRANCH  40  63
ATOM     63  C   UNL A   1      42.734  23.647  27.816  1.00  0.00    -0.014 A 
ATOM     64  C   UNL A   1      42.472  22.507  28.595  1.00  0.00     0.010 A 
ATOM     65  C   UNL A   1      42.883  23.503  26.424  1.00  0.00     0.010 A 
ATOM     66  C   UNL A   1      42.382  21.245  27.995  1.00  0.00     0.020 A 
ATOM     67  C   UNL A   1      42.766  22.249  25.818  1.00  0.00     0.020 A 
ATOM     68  C   UNL A   1      42.529  21.125  26.611  1.00  0.00     0.054 A 
BRANCH  68  69
ATOM     69  S   UNL A   1      42.375  19.486  25.846  1.00  0.00     0.124 S 
ATOM     70  O   UNL A   1      40.987  19.490  25.396  1.00  0.00    -0.237 OA
ATOM     71  O   UNL A   1      43.383  19.530  24.790  1.00  0.00    -0.237 OA
ATOM     72  O   UNL A   1      42.676  18.568  26.943  1.00  0.00    -0.744 OA
ENDBRANCH  68  69
ENDBRANCH  40  63
BRANCH  52  73
ATOM     73  C   UNL A   1      48.128  27.007  30.702  1.00  0.00    -0.014 A 
ATOM     74  C   UNL A   1      49.134  27.493  29.850  1.00  0.00     0.010 A 
ATOM     75  C   UNL A   1      48.489  26.210  31.806  1.00  0.00     0.010 A 
ATOM     76  C   UNL A   1      50.475  27.170  30.083  1.00  0.00     0.020 A 
ATOM     77  C   UNL A   1      49.830  25.906  32.056  1.00  0.00     0.020 A 
ATOM     78  C   UNL A   1      50.815  26.378  31.186  1.00  0.00     0.054 A 
BRANCH  78  79
ATOM     79  S   UNL A   1      52.566  26.019  31.498  1.00  0.00     0.124 S 
ATOM     80  O   UNL A   1      52.956  27.129  32.362  1.00  0.00    -0.237 OA
ATOM     81  O   UNL A   1      52.516  24.709  32.142  1.00  0.00    -0.237 OA
ATOM     82  O   UNL A   1      53.164  26.027  30.164  1.00  0.00    -0.744 OA
ENDBRANCH  78  79
ENDBRANCH  52  73
ENDBRANCH  26  27
ENDBRANCH  19  21
ENDBRANCH  18  19
ENDBRANCH   1  18
TORSDOF 16
ENDMDL
