MODEL 1
REMARK VINA RESULT:     -11.4      0.000      0.000
REMARK SMILES C[C@@H]1CCC[C@H](C)N1C(=O)Cn1cccc1C(=O)OCCOC(=O)c1ccc(-c2c3nc(c(-c4ccc(S(=O)(=O)[O-])cc4)c4ccc([nH]4)c(-c4ccc(S(=O)(=O)[O-])cc4)c4nc(c(-c5ccc(S(=O)(=O)[O-])cc5)c5ccc2[nH]5)C=C4)C=C3)cc1
REMARK SMILES IDX 20 1 19 2 17 3 18 4 16 5 12 6 13 7 14 8 15 9 11 10 9 11
REMARK SMILES IDX 10 12 8 13 1 14 2 15 3 16 4 17 6 18 5 19 7 20 21 21 22 22
REMARK SMILES IDX 23 23 24 24 25 25 26 26 84 27 27 28 83 29 28 30 29 31 30 32
REMARK SMILES IDX 77 33 31 34 82 35 76 36 78 37 32 38 81 39 75 40 74 41 33 43
REMARK SMILES IDX 63 44 44 45 62 46 45 47 48 48 61 49 79 50 46 51 47 52 60 54
REMARK SMILES IDX 80 55 49 56 34 57 35 58 43 59 36 60 42 61 37 62 38 63 39 64
REMARK SMILES IDX 40 65 41 66 64 67 65 68 73 69 66 70 72 71 67 72 68 73 69 74
REMARK SMILES IDX 70 75 71 76 50 77 51 78 59 79 52 80 58 81 53 82 54 83 55 84
REMARK SMILES IDX 56 85 57 86
REMARK H PARENT 78 42 48 53
REMARK Flexibility Score: inf
ROOT
ATOM      1  C   UNL A   1      33.600  28.861  26.608  1.00  0.00     0.275 C 
ENDROOT
BRANCH   1   2
ATOM      2  O   UNL A   1      33.110  27.510  26.652  1.00  0.00    -0.457 OA
BRANCH   2   3
ATOM      3  C   UNL A   1      31.761  27.409  26.816  1.00  0.00     0.355 C 
ATOM      4  O   UNL A   1      31.150  27.779  27.811  1.00  0.00    -0.244 OA
BRANCH   3   5
ATOM      5  C   UNL A   1      31.125  26.956  25.594  1.00  0.00     0.128 A 
ATOM      6  N   UNL A   1      30.375  25.816  25.356  1.00  0.00    -0.333 N 
ATOM      7  C   UNL A   1      29.740  25.942  24.134  1.00  0.00     0.087 A 
ATOM      8  C   UNL A   1      30.190  27.084  23.521  1.00  0.00     0.020 A 
ATOM      9  C   UNL A   1      31.070  27.710  24.426  1.00  0.00     0.035 A 
BRANCH   6  10
ATOM     10  C   UNL A   1      30.086  24.681  26.233  1.00  0.00     0.222 C 
BRANCH  10  11
ATOM     11  C   UNL A   1      31.239  23.738  26.465  1.00  0.00     0.242 C 
ATOM     12  O   UNL A   1      31.346  23.193  27.569  1.00  0.00    -0.273 OA
BRANCH  11  13
ATOM     13  N   UNL A   1      32.181  23.539  25.459  1.00  0.00    -0.336 N 
ATOM     14  C   UNL A   1      32.551  21.494  24.047  1.00  0.00     0.031 C 
ATOM     15  C   UNL A   1      31.927  22.890  24.143  1.00  0.00     0.082 C 
ATOM     16  C   UNL A   1      32.414  23.758  22.977  1.00  0.00     0.025 C 
ATOM     17  C   UNL A   1      33.855  24.207  23.189  1.00  0.00     0.004 C 
ATOM     18  C   UNL A   1      33.500  24.142  25.704  1.00  0.00     0.082 C 
ATOM     19  C   UNL A   1      33.941  24.963  24.497  1.00  0.00     0.025 C 
ATOM     20  C   UNL A   1      34.579  23.188  26.193  1.00  0.00     0.031 C 
ENDBRANCH  11  13
ENDBRANCH  10  11
ENDBRANCH   6  10
ENDBRANCH   3   5
ENDBRANCH   2   3
ENDBRANCH   1   2
BRANCH   1  21
ATOM     21  C   UNL A   1      34.952  29.047  27.317  1.00  0.00     0.275 C 
BRANCH  21  22
ATOM     22  O   UNL A   1      35.609  30.326  27.265  1.00  0.00    -0.458 OA
BRANCH  22  23
ATOM     23  C   UNL A   1      36.220  30.888  28.325  1.00  0.00     0.338 C 
ATOM     24  O   UNL A   1      35.999  31.986  28.819  1.00  0.00    -0.246 OA
BRANCH  23  25
ATOM     25  C   UNL A   1      37.364  30.007  28.670  1.00  0.00     0.060 A 
ATOM     26  C   UNL A   1      38.487  29.997  27.833  1.00  0.00     0.016 A 
ATOM     27  C   UNL A   1      37.292  29.122  29.760  1.00  0.00     0.016 A 
ATOM     28  C   UNL A   1      39.532  29.104  28.079  1.00  0.00     0.010 A 
ATOM     29  C   UNL A   1      38.338  28.235  30.016  1.00  0.00     0.010 A 
ATOM     30  C   UNL A   1      39.469  28.242  29.187  1.00  0.00    -0.014 A 
BRANCH  30  31
ATOM     31  C   UNL A   1      40.733  27.643  29.693  1.00  0.00     0.031 A 
ATOM     32  C   UNL A   1      41.035  26.324  28.879  1.00  0.00     0.074 A 
ATOM     33  C   UNL A   1      41.384  28.293  30.719  1.00  0.00     0.049 A 
ATOM     34  N   UNL A   1      41.916  25.390  29.069  1.00  0.00    -0.248 NA
ATOM     35  C   UNL A   1      40.213  25.994  27.666  1.00  0.00     0.031 C 
ATOM     36  C   UNL A   1      40.957  29.573  31.347  1.00  0.00     0.029 A 
ATOM     37  N   UNL A   1      42.532  28.037  31.448  1.00  0.00    -0.354 N 
ATOM     38  C   UNL A   1      41.882  24.505  27.955  1.00  0.00     0.074 A 
ATOM     39  C   UNL A   1      40.770  24.894  27.156  1.00  0.00     0.031 C 
ATOM     40  C   UNL A   1      41.753  29.907  32.396  1.00  0.00     0.029 A 
ATOM     41  C   UNL A   1      42.800  28.915  32.549  1.00  0.00     0.049 A 
ATOM     42  H   UNL A   1      43.132  27.291  31.223  1.00  0.00     0.167 HD
ATOM     43  C   UNL A   1      42.823  23.540  27.722  1.00  0.00     0.031 A 
ATOM     44  C   UNL A   1      43.776  28.809  33.516  1.00  0.00     0.031 A 
ATOM     45  C   UNL A   1      43.702  23.456  28.833  1.00  0.00     0.049 A 
ATOM     46  C   UNL A   1      44.621  27.707  33.038  1.00  0.00     0.074 A 
ATOM     47  C   UNL A   1      43.525  22.908  30.075  1.00  0.00     0.029 A 
ATOM     48  N   UNL A   1      44.756  24.334  28.861  1.00  0.00    -0.354 N 
ATOM     49  N   UNL A   1      45.420  27.782  32.020  1.00  0.00    -0.248 NA
ATOM     50  C   UNL A   1      44.501  26.393  33.679  1.00  0.00     0.031 C 
ATOM     51  C   UNL A   1      44.089  23.884  30.917  1.00  0.00     0.029 A 
ATOM     52  C   UNL A   1      44.832  24.793  30.153  1.00  0.00     0.049 A 
ATOM     53  H   UNL A   1      45.341  24.582  28.109  1.00  0.00     0.167 HD
ATOM     54  C   UNL A   1      45.569  26.468  31.670  1.00  0.00     0.074 A 
ATOM     55  C   UNL A   1      45.273  25.689  32.858  1.00  0.00     0.031 C 
ATOM     56  C   UNL A   1      45.421  26.087  30.375  1.00  0.00     0.031 A 
BRANCH  43  57
ATOM     57  C   UNL A   1      43.167  22.685  26.529  1.00  0.00    -0.014 A 
ATOM     58  C   UNL A   1      42.625  21.372  26.506  1.00  0.00     0.010 A 
ATOM     59  C   UNL A   1      44.230  22.957  25.657  1.00  0.00     0.010 A 
ATOM     60  C   UNL A   1      43.205  20.340  25.767  1.00  0.00     0.020 A 
ATOM     61  C   UNL A   1      44.799  21.927  24.878  1.00  0.00     0.020 A 
ATOM     62  C   UNL A   1      44.315  20.617  24.981  1.00  0.00     0.054 A 
BRANCH  62  63
ATOM     63  S   UNL A   1      45.147  19.220  24.171  1.00  0.00     0.124 S 
ATOM     64  O   UNL A   1      44.723  18.088  24.991  1.00  0.00    -0.237 OA
ATOM     65  O   UNL A   1      44.585  19.258  22.822  1.00  0.00    -0.237 OA
ATOM     66  O   UNL A   1      46.563  19.563  24.258  1.00  0.00    -0.744 OA
ENDBRANCH  62  63
ENDBRANCH  43  57
BRANCH  44  67
ATOM     67  C   UNL A   1      44.183  29.358  34.884  1.00  0.00    -0.014 A 
ATOM     68  C   UNL A   1      45.460  29.763  35.289  1.00  0.00     0.010 A 
ATOM     69  C   UNL A   1      43.138  29.654  35.819  1.00  0.00     0.010 A 
ATOM     70  C   UNL A   1      45.641  30.569  36.451  1.00  0.00     0.020 A 
ATOM     71  C   UNL A   1      43.290  30.495  36.929  1.00  0.00     0.020 A 
ATOM     72  C   UNL A   1      44.546  30.987  37.221  1.00  0.00     0.054 A 
BRANCH  72  73
ATOM     73  S   UNL A   1      44.721  32.289  38.484  1.00  0.00     0.124 S 
ATOM     74  O   UNL A   1      44.856  33.499  37.682  1.00  0.00    -0.237 OA
ATOM     75  O   UNL A   1      43.476  32.167  39.240  1.00  0.00    -0.237 OA
ATOM     76  O   UNL A   1      45.920  31.895  39.224  1.00  0.00    -0.744 OA
ENDBRANCH  72  73
ENDBRANCH  44  67
BRANCH  56  77
ATOM     77  C   UNL A   1      45.565  27.190  29.327  1.00  0.00    -0.014 A 
ATOM     78  C   UNL A   1      46.844  27.677  29.010  1.00  0.00     0.010 A 
ATOM     79  C   UNL A   1      44.471  27.810  28.685  1.00  0.00     0.010 A 
ATOM     80  C   UNL A   1      47.029  28.721  28.090  1.00  0.00     0.020 A 
ATOM     81  C   UNL A   1      44.642  28.860  27.760  1.00  0.00     0.020 A 
ATOM     82  C   UNL A   1      45.928  29.305  27.461  1.00  0.00     0.054 A 
BRANCH  82  83
ATOM     83  S   UNL A   1      46.214  30.628  26.247  1.00  0.00     0.124 S 
ATOM     84  O   UNL A   1      44.953  31.366  26.269  1.00  0.00    -0.237 OA
ATOM     85  O   UNL A   1      47.359  31.333  26.815  1.00  0.00    -0.237 OA
ATOM     86  O   UNL A   1      46.482  29.912  25.000  1.00  0.00    -0.744 OA
ENDBRANCH  82  83
ENDBRANCH  56  77
ENDBRANCH  30  31
ENDBRANCH  23  25
ENDBRANCH  22  23
ENDBRANCH  21  22
ENDBRANCH   1  21
TORSDOF 17
ENDMDL
MODEL 2
REMARK VINA RESULT:     -10.9      4.186      9.885
REMARK SMILES C[C@@H]1CCC[C@H](C)N1C(=O)Cn1cccc1C(=O)OCCOC(=O)c1ccc(-c2c3nc(c(-c4ccc(S(=O)(=O)[O-])cc4)c4ccc([nH]4)c(-c4ccc(S(=O)(=O)[O-])cc4)c4nc(c(-c5ccc(S(=O)(=O)[O-])cc5)c5ccc2[nH]5)C=C4)C=C3)cc1
REMARK SMILES IDX 20 1 19 2 17 3 18 4 16 5 12 6 13 7 14 8 15 9 11 10 9 11
REMARK SMILES IDX 10 12 8 13 1 14 2 15 3 16 4 17 6 18 5 19 7 20 21 21 22 22
REMARK SMILES IDX 23 23 24 24 25 25 26 26 84 27 27 28 83 29 28 30 29 31 30 32
REMARK SMILES IDX 77 33 31 34 82 35 76 36 78 37 32 38 81 39 75 40 74 41 33 43
REMARK SMILES IDX 63 44 44 45 62 46 45 47 48 48 61 49 79 50 46 51 47 52 60 54
REMARK SMILES IDX 80 55 49 56 34 57 35 58 43 59 36 60 42 61 37 62 38 63 39 64
REMARK SMILES IDX 40 65 41 66 64 67 65 68 73 69 66 70 72 71 67 72 68 73 69 74
REMARK SMILES IDX 70 75 71 76 50 77 51 78 59 79 52 80 58 81 53 82 54 83 55 84
REMARK SMILES IDX 56 85 57 86
REMARK H PARENT 78 42 48 53
REMARK Flexibility Score: inf
ROOT
ATOM      1  C   UNL A   1      36.435  23.443  25.747  1.00  0.00     0.275 C 
ENDROOT
BRANCH   1   2
ATOM      2  O   UNL A   1      35.931  24.166  24.610  1.00  0.00    -0.457 OA
BRANCH   2   3
ATOM      3  C   UNL A   1      35.637  23.382  23.534  1.00  0.00     0.355 C 
ATOM      4  O   UNL A   1      36.461  22.964  22.731  1.00  0.00    -0.244 OA
BRANCH   3   5
ATOM      5  C   UNL A   1      34.246  22.974  23.557  1.00  0.00     0.128 A 
ATOM      6  N   UNL A   1      33.155  23.509  22.892  1.00  0.00    -0.333 N 
ATOM      7  C   UNL A   1      32.092  22.631  22.991  1.00  0.00     0.087 A 
ATOM      8  C   UNL A   1      32.445  21.608  23.835  1.00  0.00     0.020 A 
ATOM      9  C   UNL A   1      33.786  21.831  24.203  1.00  0.00     0.035 A 
BRANCH   6  10
ATOM     10  C   UNL A   1      33.060  24.703  22.051  1.00  0.00     0.222 C 
BRANCH  10  11
ATOM     11  C   UNL A   1      33.106  26.016  22.792  1.00  0.00     0.242 C 
ATOM     12  O   UNL A   1      34.009  26.816  22.524  1.00  0.00    -0.273 OA
BRANCH  11  13
ATOM     13  N   UNL A   1      32.170  26.279  23.789  1.00  0.00    -0.336 N 
ATOM     14  C   UNL A   1      30.603  28.233  23.986  1.00  0.00     0.031 C 
ATOM     15  C   UNL A   1      30.780  26.768  23.572  1.00  0.00     0.082 C 
ATOM     16  C   UNL A   1      29.751  25.896  24.299  1.00  0.00     0.025 C 
ATOM     17  C   UNL A   1      30.128  25.701  25.763  1.00  0.00     0.004 C 
ATOM     18  C   UNL A   1      32.585  25.916  25.153  1.00  0.00     0.082 C 
ATOM     19  C   UNL A   1      31.505  25.078  25.831  1.00  0.00     0.025 C 
ATOM     20  C   UNL A   1      33.070  27.066  26.021  1.00  0.00     0.031 C 
ENDBRANCH  11  13
ENDBRANCH  10  11
ENDBRANCH   6  10
ENDBRANCH   3   5
ENDBRANCH   2   3
ENDBRANCH   1   2
BRANCH   1  21
ATOM     21  C   UNL A   1      37.969  23.457  25.850  1.00  0.00     0.275 C 
BRANCH  21  22
ATOM     22  O   UNL A   1      38.591  23.750  27.115  1.00  0.00    -0.458 OA
BRANCH  22  23
ATOM     23  C   UNL A   1      39.905  24.007  27.252  1.00  0.00     0.338 C 
ATOM     24  O   UNL A   1      40.828  23.203  27.245  1.00  0.00    -0.246 OA
BRANCH  23  25
ATOM     25  C   UNL A   1      40.019  25.442  27.618  1.00  0.00     0.060 A 
ATOM     26  C   UNL A   1      39.766  25.825  28.941  1.00  0.00     0.016 A 
ATOM     27  C   UNL A   1      40.280  26.418  26.641  1.00  0.00     0.016 A 
ATOM     28  C   UNL A   1      39.767  27.177  29.288  1.00  0.00     0.010 A 
ATOM     29  C   UNL A   1      40.293  27.770  26.984  1.00  0.00     0.010 A 
ATOM     30  C   UNL A   1      40.058  28.149  28.314  1.00  0.00    -0.014 A 
BRANCH  30  31
ATOM     31  C   UNL A   1      40.496  29.497  28.764  1.00  0.00     0.031 A 
ATOM     32  C   UNL A   1      39.218  30.377  29.057  1.00  0.00     0.074 A 
ATOM     33  C   UNL A   1      41.850  29.736  28.844  1.00  0.00     0.049 A 
ATOM     34  N   UNL A   1      39.099  31.645  29.305  1.00  0.00    -0.248 NA
ATOM     35  C   UNL A   1      37.859  29.738  29.062  1.00  0.00     0.031 C 
ATOM     36  C   UNL A   1      42.927  28.749  28.556  1.00  0.00     0.029 A 
ATOM     37  N   UNL A   1      42.617  30.837  29.183  1.00  0.00    -0.354 N 
ATOM     38  C   UNL A   1      37.747  31.910  29.663  1.00  0.00     0.074 A 
ATOM     39  C   UNL A   1      37.020  30.706  29.433  1.00  0.00     0.031 C 
ATOM     40  C   UNL A   1      44.160  29.315  28.630  1.00  0.00     0.029 A 
ATOM     41  C   UNL A   1      44.033  30.710  29.005  1.00  0.00     0.049 A 
ATOM     42  H   UNL A   1      42.210  31.664  29.528  1.00  0.00     0.167 HD
ATOM     43  C   UNL A   1      37.318  33.094  30.197  1.00  0.00     0.031 A 
ATOM     44  C   UNL A   1      45.005  31.680  29.123  1.00  0.00     0.031 A 
ATOM     45  C   UNL A   1      38.377  34.038  30.165  1.00  0.00     0.049 A 
ATOM     46  C   UNL A   1      44.285  32.828  29.689  1.00  0.00     0.074 A 
ATOM     47  C   UNL A   1      38.902  34.759  29.127  1.00  0.00     0.029 A 
ATOM     48  N   UNL A   1      39.270  34.009  31.206  1.00  0.00    -0.354 N 
ATOM     49  N   UNL A   1      43.851  32.895  30.908  1.00  0.00    -0.248 NA
ATOM     50  C   UNL A   1      43.935  33.947  28.808  1.00  0.00     0.031 C 
ATOM     51  C   UNL A   1      40.287  34.644  29.352  1.00  0.00     0.029 A 
ATOM     52  C   UNL A   1      40.514  34.145  30.641  1.00  0.00     0.049 A 
ATOM     53  H   UNL A   1      39.061  33.913  32.164  1.00  0.00     0.167 HD
ATOM     54  C   UNL A   1      42.864  33.839  30.815  1.00  0.00     0.074 A 
ATOM     55  C   UNL A   1      43.175  34.643  29.647  1.00  0.00     0.031 C 
ATOM     56  C   UNL A   1      41.641  33.602  31.352  1.00  0.00     0.031 A 
BRANCH  43  57
ATOM     57  C   UNL A   1      36.053  33.528  30.891  1.00  0.00    -0.014 A 
ATOM     58  C   UNL A   1      34.935  33.814  30.061  1.00  0.00     0.010 A 
ATOM     59  C   UNL A   1      36.010  33.996  32.212  1.00  0.00     0.010 A 
ATOM     60  C   UNL A   1      33.897  34.651  30.474  1.00  0.00     0.020 A 
ATOM     61  C   UNL A   1      34.945  34.813  32.648  1.00  0.00     0.020 A 
ATOM     62  C   UNL A   1      33.926  35.176  31.759  1.00  0.00     0.054 A 
BRANCH  62  63
ATOM     63  S   UNL A   1      32.655  36.395  32.203  1.00  0.00     0.124 S 
ATOM     64  O   UNL A   1      33.270  37.089  33.332  1.00  0.00    -0.237 OA
ATOM     65  O   UNL A   1      32.533  37.183  30.977  1.00  0.00    -0.237 OA
ATOM     66  O   UNL A   1      31.489  35.577  32.528  1.00  0.00    -0.744 OA
ENDBRANCH  62  63
ENDBRANCH  43  57
BRANCH  44  67
ATOM     67  C   UNL A   1      46.469  31.968  28.787  1.00  0.00    -0.014 A 
ATOM     68  C   UNL A   1      47.101  31.813  27.547  1.00  0.00     0.010 A 
ATOM     69  C   UNL A   1      47.264  32.621  29.784  1.00  0.00     0.010 A 
ATOM     70  C   UNL A   1      48.356  32.434  27.279  1.00  0.00     0.020 A 
ATOM     71  C   UNL A   1      48.467  33.288  29.520  1.00  0.00     0.020 A 
ATOM     72  C   UNL A   1      48.993  33.226  28.245  1.00  0.00     0.054 A 
BRANCH  72  73
ATOM     73  S   UNL A   1      50.400  34.300  27.809  1.00  0.00     0.124 S 
ATOM     74  O   UNL A   1      51.494  33.349  27.656  1.00  0.00    -0.237 OA
ATOM     75  O   UNL A   1      49.940  34.939  26.577  1.00  0.00    -0.237 OA
ATOM     76  O   UNL A   1      50.513  35.204  28.954  1.00  0.00    -0.744 OA
ENDBRANCH  72  73
ENDBRANCH  44  67
BRANCH  56  77
ATOM     77  C   UNL A   1      41.575  32.515  32.425  1.00  0.00    -0.014 A 
ATOM     78  C   UNL A   1      40.876  31.326  32.160  1.00  0.00     0.010 A 
ATOM     79  C   UNL A   1      42.128  32.653  33.717  1.00  0.00     0.010 A 
ATOM     80  C   UNL A   1      40.743  30.316  33.126  1.00  0.00     0.020 A 
ATOM     81  C   UNL A   1      42.001  31.649  34.698  1.00  0.00     0.020 A 
ATOM     82  C   UNL A   1      41.314  30.476  34.390  1.00  0.00     0.054 A 
BRANCH  82  83
ATOM     83  S   UNL A   1      41.152  29.129  35.601  1.00  0.00     0.124 S 
ATOM     84  O   UNL A   1      42.339  29.298  36.435  1.00  0.00    -0.237 OA
ATOM     85  O   UNL A   1      39.883  29.443  36.251  1.00  0.00    -0.237 OA
ATOM     86  O   UNL A   1      41.146  27.918  34.781  1.00  0.00    -0.744 OA
ENDBRANCH  82  83
ENDBRANCH  56  77
ENDBRANCH  30  31
ENDBRANCH  23  25
ENDBRANCH  22  23
ENDBRANCH  21  22
ENDBRANCH   1  21
TORSDOF 17
ENDMDL
MODEL 3
REMARK VINA RESULT:     -10.9      1.373      2.869
REMARK SMILES C[C@@H]1CCC[C@H](C)N1C(=O)Cn1cccc1C(=O)OCCOC(=O)c1ccc(-c2c3nc(c(-c4ccc(S(=O)(=O)[O-])cc4)c4ccc([nH]4)c(-c4ccc(S(=O)(=O)[O-])cc4)c4nc(c(-c5ccc(S(=O)(=O)[O-])cc5)c5ccc2[nH]5)C=C4)C=C3)cc1
REMARK SMILES IDX 20 1 19 2 17 3 18 4 16 5 12 6 13 7 14 8 15 9 11 10 9 11
REMARK SMILES IDX 10 12 8 13 1 14 2 15 3 16 4 17 6 18 5 19 7 20 21 21 22 22
REMARK SMILES IDX 23 23 24 24 25 25 26 26 84 27 27 28 83 29 28 30 29 31 30 32
REMARK SMILES IDX 77 33 31 34 82 35 76 36 78 37 32 38 81 39 75 40 74 41 33 43
REMARK SMILES IDX 63 44 44 45 62 46 45 47 48 48 61 49 79 50 46 51 47 52 60 54
REMARK SMILES IDX 80 55 49 56 34 57 35 58 43 59 36 60 42 61 37 62 38 63 39 64
REMARK SMILES IDX 40 65 41 66 64 67 65 68 73 69 66 70 72 71 67 72 68 73 69 74
REMARK SMILES IDX 70 75 71 76 50 77 51 78 59 79 52 80 58 81 53 82 54 83 55 84
REMARK SMILES IDX 56 85 57 86
REMARK H PARENT 78 42 48 53
REMARK Flexibility Score: inf
ROOT
ATOM      1  C   UNL A   1      33.709  28.265  26.006  1.00  0.00     0.275 C 
ENDROOT
BRANCH   1   2
ATOM      2  O   UNL A   1      33.115  26.997  26.334  1.00  0.00    -0.457 OA
BRANCH   2   3
ATOM      3  C   UNL A   1      31.754  26.981  26.261  1.00  0.00     0.355 C 
ATOM      4  O   UNL A   1      31.028  27.914  26.581  1.00  0.00    -0.244 OA
BRANCH   3   5
ATOM      5  C   UNL A   1      31.285  25.776  25.603  1.00  0.00     0.128 A 
ATOM      6  N   UNL A   1      30.790  25.604  24.321  1.00  0.00    -0.333 N 
ATOM      7  C   UNL A   1      30.736  24.252  24.038  1.00  0.00     0.087 A 
ATOM      8  C   UNL A   1      31.054  23.552  25.175  1.00  0.00     0.020 A 
ATOM      9  C   UNL A   1      31.380  24.505  26.160  1.00  0.00     0.035 A 
BRANCH   6  10
ATOM     10  C   UNL A   1      30.495  26.595  23.287  1.00  0.00     0.222 C 
BRANCH  10  11
ATOM     11  C   UNL A   1      29.209  27.359  23.475  1.00  0.00     0.242 C 
ATOM     12  O   UNL A   1      28.196  26.739  23.822  1.00  0.00    -0.273 OA
BRANCH  11  13
ATOM     13  N   UNL A   1      29.172  28.726  23.210  1.00  0.00    -0.336 N 
ATOM     14  C   UNL A   1      28.018  29.922  21.326  1.00  0.00     0.031 C 
ATOM     15  C   UNL A   1      27.970  29.502  22.799  1.00  0.00     0.082 C 
ATOM     16  C   UNL A   1      27.759  30.735  23.684  1.00  0.00     0.025 C 
ATOM     17  C   UNL A   1      29.035  31.562  23.790  1.00  0.00     0.004 C 
ATOM     18  C   UNL A   1      30.420  29.454  23.487  1.00  0.00     0.082 C 
ATOM     19  C   UNL A   1      30.138  30.685  24.342  1.00  0.00     0.025 C 
ATOM     20  C   UNL A   1      31.283  29.764  22.274  1.00  0.00     0.031 C 
ENDBRANCH  11  13
ENDBRANCH  10  11
ENDBRANCH   6  10
ENDBRANCH   3   5
ENDBRANCH   2   3
ENDBRANCH   1   2
BRANCH   1  21
ATOM     21  C   UNL A   1      34.547  28.862  27.148  1.00  0.00     0.275 C 
BRANCH  21  22
ATOM     22  O   UNL A   1      35.499  29.902  26.858  1.00  0.00    -0.458 OA
BRANCH  22  23
ATOM     23  C   UNL A   1      36.145  30.602  27.810  1.00  0.00     0.338 C 
ATOM     24  O   UNL A   1      35.935  31.755  28.161  1.00  0.00    -0.246 OA
BRANCH  23  25
ATOM     25  C   UNL A   1      37.306  29.775  28.227  1.00  0.00     0.060 A 
ATOM     26  C   UNL A   1      38.461  29.781  27.434  1.00  0.00     0.016 A 
ATOM     27  C   UNL A   1      37.224  28.924  29.343  1.00  0.00     0.016 A 
ATOM     28  C   UNL A   1      39.527  28.936  27.748  1.00  0.00     0.010 A 
ATOM     29  C   UNL A   1      38.290  28.086  29.667  1.00  0.00     0.010 A 
ATOM     30  C   UNL A   1      39.452  28.108  28.882  1.00  0.00    -0.014 A 
BRANCH  30  31
ATOM     31  C   UNL A   1      40.717  27.573  29.455  1.00  0.00     0.031 A 
ATOM     32  C   UNL A   1      41.114  26.259  28.675  1.00  0.00     0.074 A 
ATOM     33  C   UNL A   1      41.289  28.266  30.500  1.00  0.00     0.049 A 
ATOM     34  N   UNL A   1      42.026  25.369  28.920  1.00  0.00    -0.248 NA
ATOM     35  C   UNL A   1      40.366  25.876  27.430  1.00  0.00     0.031 C 
ATOM     36  C   UNL A   1      40.776  29.533  31.088  1.00  0.00     0.029 A 
ATOM     37  N   UNL A   1      42.411  28.071  31.285  1.00  0.00    -0.354 N 
ATOM     38  C   UNL A   1      42.085  24.468  27.820  1.00  0.00     0.074 A 
ATOM     39  C   UNL A   1      40.995  24.797  26.964  1.00  0.00     0.031 C 
ATOM     40  C   UNL A   1      41.507  29.916  32.168  1.00  0.00     0.029 A 
ATOM     41  C   UNL A   1      42.588  28.974  32.384  1.00  0.00     0.049 A 
ATOM     42  H   UNL A   1      43.054  27.350  31.100  1.00  0.00     0.167 HD
ATOM     43  C   UNL A   1      43.078  23.544  27.644  1.00  0.00     0.031 A 
ATOM     44  C   UNL A   1      43.521  28.924  33.397  1.00  0.00     0.031 A 
ATOM     45  C   UNL A   1      43.906  23.514  28.796  1.00  0.00     0.049 A 
ATOM     46  C   UNL A   1      44.436  27.856  32.975  1.00  0.00     0.074 A 
ATOM     47  C   UNL A   1      43.696  22.974  30.037  1.00  0.00     0.029 A 
ATOM     48  N   UNL A   1      44.918  24.439  28.860  1.00  0.00    -0.354 N 
ATOM     49  N   UNL A   1      45.278  27.954  31.994  1.00  0.00    -0.248 NA
ATOM     50  C   UNL A   1      44.344  26.547  33.629  1.00  0.00     0.031 C 
ATOM     51  C   UNL A   1      44.175  23.986  30.889  1.00  0.00     0.029 A 
ATOM     52  C   UNL A   1      44.912  24.918  30.147  1.00  0.00     0.049 A 
ATOM     53  H   UNL A   1      45.526  24.703  28.132  1.00  0.00     0.167 HD
ATOM     54  C   UNL A   1      45.502  26.643  31.671  1.00  0.00     0.074 A 
ATOM     55  C   UNL A   1      45.185  25.868  32.855  1.00  0.00     0.031 C 
ATOM     56  C   UNL A   1      45.431  26.240  30.377  1.00  0.00     0.031 A 
BRANCH  43  57
ATOM     57  C   UNL A   1      43.514  22.690  26.482  1.00  0.00    -0.014 A 
ATOM     58  C   UNL A   1      42.838  21.452  26.308  1.00  0.00     0.010 A 
ATOM     59  C   UNL A   1      44.731  22.859  25.806  1.00  0.00     0.010 A 
ATOM     60  C   UNL A   1      43.412  20.381  25.621  1.00  0.00     0.020 A 
ATOM     61  C   UNL A   1      45.301  21.791  25.079  1.00  0.00     0.020 A 
ATOM     62  C   UNL A   1      44.661  20.547  25.038  1.00  0.00     0.054 A 
BRANCH  62  63
ATOM     63  S   UNL A   1      45.452  19.085  24.305  1.00  0.00     0.124 S 
ATOM     64  O   UNL A   1      46.844  19.511  24.186  1.00  0.00    -0.237 OA
ATOM     65  O   UNL A   1      45.199  18.053  25.309  1.00  0.00    -0.237 OA
ATOM     66  O   UNL A   1      44.741  18.904  23.043  1.00  0.00    -0.744 OA
ENDBRANCH  62  63
ENDBRANCH  43  57
BRANCH  44  67
ATOM     67  C   UNL A   1      43.839  29.509  34.774  1.00  0.00    -0.014 A 
ATOM     68  C   UNL A   1      44.894  30.366  35.108  1.00  0.00     0.010 A 
ATOM     69  C   UNL A   1      42.879  29.308  35.819  1.00  0.00     0.010 A 
ATOM     70  C   UNL A   1      44.880  31.108  36.326  1.00  0.00     0.020 A 
ATOM     71  C   UNL A   1      42.819  30.073  36.991  1.00  0.00     0.020 A 
ATOM     72  C   UNL A   1      43.807  31.008  37.223  1.00  0.00     0.054 A 
BRANCH  72  73
ATOM     73  S   UNL A   1      43.606  32.195  38.592  1.00  0.00     0.124 S 
ATOM     74  O   UNL A   1      44.838  32.021  39.351  1.00  0.00    -0.237 OA
ATOM     75  O   UNL A   1      43.469  33.469  37.889  1.00  0.00    -0.237 OA
ATOM     76  O   UNL A   1      42.389  31.742  39.267  1.00  0.00    -0.744 OA
ENDBRANCH  72  73
ENDBRANCH  44  67
BRANCH  56  77
ATOM     77  C   UNL A   1      45.575  27.335  29.320  1.00  0.00    -0.014 A 
ATOM     78  C   UNL A   1      46.857  27.795  28.973  1.00  0.00     0.010 A 
ATOM     79  C   UNL A   1      44.481  27.973  28.698  1.00  0.00     0.010 A 
ATOM     80  C   UNL A   1      47.043  28.830  28.044  1.00  0.00     0.020 A 
ATOM     81  C   UNL A   1      44.653  29.015  27.764  1.00  0.00     0.020 A 
ATOM     82  C   UNL A   1      45.941  29.432  27.435  1.00  0.00     0.054 A 
BRANCH  82  83
ATOM     83  S   UNL A   1      46.227  30.744  26.208  1.00  0.00     0.124 S 
ATOM     84  O   UNL A   1      46.363  29.997  24.960  1.00  0.00    -0.237 OA
ATOM     85  O   UNL A   1      45.016  31.551  26.324  1.00  0.00    -0.237 OA
ATOM     86  O   UNL A   1      47.453  31.396  26.669  1.00  0.00    -0.744 OA
ENDBRANCH  82  83
ENDBRANCH  56  77
ENDBRANCH  30  31
ENDBRANCH  23  25
ENDBRANCH  22  23
ENDBRANCH  21  22
ENDBRANCH   1  21
TORSDOF 17
ENDMDL
