MODEL 1
REMARK VINA RESULT:     -11.0      0.000      0.000
REMARK SMILES O=C(N[C@@H](C(=O)OCCOC(=O)c1ccc(-c2c3nc(c(-c4ccc(S(=O)(=O)[O-])cc4)c4ccc([nH]4)c(-c4ccc(S(=O)(=O)[O-])cc4)c4nc(c(-c5ccc(S(=O)(=O)[O-])cc5)c5ccc2[nH]5)C=C4)C=C3)cc1)c1ccccc1)c1ccc(Br)nc1
REMARK SMILES IDX 9 1 8 2 7 3 5 4 6 5 4 6 3 7 1 8 2 9 79 11 80 12 85 13 81 14
REMARK SMILES IDX 84 15 82 16 83 17 73 18 74 19 78 20 75 21 77 22 76 23 10 24
REMARK SMILES IDX 11 25 12 26 13 27 14 28 72 29 15 30 71 31 16 32 17 33 18 34
REMARK SMILES IDX 65 35 19 36 70 37 64 38 66 39 20 40 69 41 63 42 62 43 21 45
REMARK SMILES IDX 51 46 32 47 50 48 33 49 36 50 49 51 67 52 34 53 35 54 48 56
REMARK SMILES IDX 68 57 37 58 22 59 23 60 31 61 24 62 30 63 25 64 26 65 27 66
REMARK SMILES IDX 28 67 29 68 52 69 53 70 61 71 54 72 60 73 55 74 56 75 57 76
REMARK SMILES IDX 58 77 59 78 38 79 39 80 47 81 40 82 46 83 41 84 42 85 43 86
REMARK SMILES IDX 44 87 45 88
REMARK H PARENT 3 10 66 44 36 55
REMARK Flexibility Score: inf
ROOT
ATOM      1  C   UNL A   1      32.454  28.402  27.337  1.00  0.00     0.275 C 
ENDROOT
BRANCH   1   2
ATOM      2  C   UNL A   1      32.117  28.008  25.900  1.00  0.00     0.274 C 
BRANCH   2   3
ATOM      3  O   UNL A   1      32.283  29.123  25.002  1.00  0.00    -0.460 OA
BRANCH   3   4
ATOM      4  C   UNL A   1      32.597  28.822  23.707  1.00  0.00     0.333 C 
ATOM      5  O   UNL A   1      33.548  29.306  23.103  1.00  0.00    -0.249 OA
BRANCH   4   6
ATOM      6  C   UNL A   1      31.556  27.883  23.056  1.00  0.00     0.223 C 
BRANCH   6   7
ATOM      7  N   UNL A   1      32.062  27.158  21.883  1.00  0.00    -0.335 N 
ATOM      8  O   UNL A   1      33.121  25.490  20.780  1.00  0.00    -0.269 OA
ATOM      9  C   UNL A   1      32.680  25.940  21.831  1.00  0.00     0.253 C 
ATOM     10  H   UNL A   1      31.939  27.611  21.017  1.00  0.00     0.165 HD
BRANCH   9  11
ATOM     11  C   UNL A   1      32.915  25.201  23.078  1.00  0.00     0.058 A 
ATOM     12  C   UNL A   1      31.981  24.247  23.477  1.00  0.00     0.018 A 
ATOM     13  C   UNL A   1      34.061  25.374  23.840  1.00  0.00     0.126 A 
ATOM     14  C   UNL A   1      32.256  23.458  24.590  1.00  0.00     0.037 A 
ATOM     15  N   UNL A   1      34.354  24.611  24.921  1.00  0.00    -0.249 NA
ATOM     16  C   UNL A   1      33.451  23.664  25.267  1.00  0.00     0.106 A 
ATOM     17  Br  UNL A   1      33.868  22.544  26.738  1.00  0.00    -0.029 Br
ENDBRANCH   9  11
ENDBRANCH   6   7
BRANCH   6  18
ATOM     18  C   UNL A   1      30.223  28.559  22.752  1.00  0.00    -0.014 A 
ATOM     19  C   UNL A   1      29.032  28.003  23.251  1.00  0.00     0.006 A 
ATOM     20  C   UNL A   1      30.133  29.740  21.992  1.00  0.00     0.006 A 
ATOM     21  C   UNL A   1      27.795  28.601  22.991  1.00  0.00     0.000 A 
ATOM     22  C   UNL A   1      28.894  30.333  21.729  1.00  0.00     0.000 A 
ATOM     23  C   UNL A   1      27.725  29.762  22.226  1.00  0.00     0.000 A 
ENDBRANCH   6  18
ENDBRANCH   4   6
ENDBRANCH   3   4
ENDBRANCH   2   3
ENDBRANCH   1   2
BRANCH   1  24
ATOM     24  O   UNL A   1      33.872  28.585  27.496  1.00  0.00    -0.458 OA
BRANCH  24  25
ATOM     25  C   UNL A   1      34.259  29.856  27.752  1.00  0.00     0.338 C 
ATOM     26  O   UNL A   1      33.562  30.855  27.761  1.00  0.00    -0.246 OA
BRANCH  25  27
ATOM     27  C   UNL A   1      35.665  29.860  28.171  1.00  0.00     0.060 A 
ATOM     28  C   UNL A   1      36.617  30.202  27.218  1.00  0.00     0.016 A 
ATOM     29  C   UNL A   1      36.060  29.384  29.420  1.00  0.00     0.016 A 
ATOM     30  C   UNL A   1      37.964  29.974  27.465  1.00  0.00     0.010 A 
ATOM     31  C   UNL A   1      37.428  29.237  29.696  1.00  0.00     0.010 A 
ATOM     32  C   UNL A   1      38.394  29.488  28.704  1.00  0.00    -0.014 A 
BRANCH  32  33
ATOM     33  C   UNL A   1      39.837  29.174  28.905  1.00  0.00     0.031 A 
ATOM     34  C   UNL A   1      40.748  30.182  29.562  1.00  0.00     0.074 A 
ATOM     35  C   UNL A   1      40.331  27.960  28.581  1.00  0.00     0.049 A 
ATOM     36  N   UNL A   1      42.051  30.158  29.686  1.00  0.00    -0.248 NA
ATOM     37  C   UNL A   1      40.112  31.373  30.148  1.00  0.00     0.031 C 
ATOM     38  C   UNL A   1      39.561  26.849  28.016  1.00  0.00     0.029 A 
ATOM     39  N   UNL A   1      41.599  27.446  28.713  1.00  0.00    -0.354 N 
ATOM     40  C   UNL A   1      42.396  31.361  30.291  1.00  0.00     0.074 A 
ATOM     41  C   UNL A   1      41.166  32.083  30.529  1.00  0.00     0.031 C 
ATOM     42  C   UNL A   1      40.351  25.769  27.917  1.00  0.00     0.029 A 
ATOM     43  C   UNL A   1      41.706  26.134  28.315  1.00  0.00     0.049 A 
ATOM     44  H   UNL A   1      42.358  27.967  29.060  1.00  0.00     0.167 HD
ATOM     45  C   UNL A   1      43.629  31.828  30.607  1.00  0.00     0.031 A 
ATOM     46  C   UNL A   1      42.777  25.320  28.241  1.00  0.00     0.031 A 
ATOM     47  C   UNL A   1      44.848  31.086  30.428  1.00  0.00     0.049 A 
ATOM     48  C   UNL A   1      44.134  25.858  28.587  1.00  0.00     0.074 A 
ATOM     49  C   UNL A   1      46.147  31.485  30.692  1.00  0.00     0.029 A 
ATOM     50  N   UNL A   1      44.916  29.780  29.970  1.00  0.00    -0.354 N 
ATOM     51  N   UNL A   1      44.456  27.046  29.039  1.00  0.00    -0.248 NA
ATOM     52  C   UNL A   1      45.277  24.958  28.379  1.00  0.00     0.031 C 
ATOM     53  C   UNL A   1      47.004  30.425  30.372  1.00  0.00     0.029 A 
ATOM     54  C   UNL A   1      46.234  29.357  29.943  1.00  0.00     0.049 A 
ATOM     55  H   UNL A   1      44.142  29.233  29.704  1.00  0.00     0.167 HD
ATOM     56  C   UNL A   1      45.842  27.041  29.154  1.00  0.00     0.074 A 
ATOM     57  C   UNL A   1      46.293  25.722  28.760  1.00  0.00     0.031 C 
ATOM     58  C   UNL A   1      46.666  28.046  29.536  1.00  0.00     0.031 A 
BRANCH  45  59
ATOM     59  C   UNL A   1      43.721  33.236  31.126  1.00  0.00    -0.014 A 
ATOM     60  C   UNL A   1      43.844  34.335  30.260  1.00  0.00     0.010 A 
ATOM     61  C   UNL A   1      43.654  33.457  32.514  1.00  0.00     0.010 A 
ATOM     62  C   UNL A   1      43.940  35.632  30.777  1.00  0.00     0.020 A 
ATOM     63  C   UNL A   1      43.728  34.752  33.034  1.00  0.00     0.020 A 
ATOM     64  C   UNL A   1      43.890  35.831  32.161  1.00  0.00     0.054 A 
BRANCH  64  65
ATOM     65  S   UNL A   1      44.003  37.519  32.813  1.00  0.00     0.124 S 
ATOM     66  O   UNL A   1      45.356  37.537  33.363  1.00  0.00    -0.237 OA
ATOM     67  O   UNL A   1      43.797  38.342  31.624  1.00  0.00    -0.237 OA
ATOM     68  O   UNL A   1      42.928  37.580  33.801  1.00  0.00    -0.744 OA
ENDBRANCH  64  65
ENDBRANCH  45  59
BRANCH  46  69
ATOM     69  C   UNL A   1      42.613  23.925  27.754  1.00  0.00    -0.014 A 
ATOM     70  C   UNL A   1      42.463  22.864  28.664  1.00  0.00     0.010 A 
ATOM     71  C   UNL A   1      42.578  23.655  26.374  1.00  0.00     0.010 A 
ATOM     72  C   UNL A   1      42.282  21.557  28.201  1.00  0.00     0.020 A 
ATOM     73  C   UNL A   1      42.371  22.355  25.908  1.00  0.00     0.020 A 
ATOM     74  C   UNL A   1      42.234  21.311  26.826  1.00  0.00     0.054 A 
BRANCH  74  75
ATOM     75  S   UNL A   1      41.916  19.625  26.235  1.00  0.00     0.124 S 
ATOM     76  O   UNL A   1      40.472  19.644  26.030  1.00  0.00    -0.237 OA
ATOM     77  O   UNL A   1      42.728  19.549  25.022  1.00  0.00    -0.237 OA
ATOM     78  O   UNL A   1      42.384  18.788  27.339  1.00  0.00    -0.744 OA
ENDBRANCH  74  75
ENDBRANCH  46  69
BRANCH  58  79
ATOM     79  C   UNL A   1      48.140  27.755  29.543  1.00  0.00    -0.014 A 
ATOM     80  C   UNL A   1      48.760  27.229  30.691  1.00  0.00     0.010 A 
ATOM     81  C   UNL A   1      48.903  27.973  28.383  1.00  0.00     0.010 A 
ATOM     82  C   UNL A   1      50.129  26.951  30.686  1.00  0.00     0.020 A 
ATOM     83  C   UNL A   1      50.270  27.681  28.371  1.00  0.00     0.020 A 
ATOM     84  C   UNL A   1      50.877  27.184  29.527  1.00  0.00     0.054 A 
BRANCH  84  85
ATOM     85  S   UNL A   1      52.645  26.784  29.530  1.00  0.00     0.124 S 
ATOM     86  O   UNL A   1      52.804  26.102  28.248  1.00  0.00    -0.237 OA
ATOM     87  O   UNL A   1      53.277  28.097  29.625  1.00  0.00    -0.237 OA
ATOM     88  O   UNL A   1      52.805  25.938  30.711  1.00  0.00    -0.744 OA
ENDBRANCH  84  85
ENDBRANCH  58  79
ENDBRANCH  32  33
ENDBRANCH  25  27
ENDBRANCH  24  25
ENDBRANCH   1  24
TORSDOF 17
ENDMDL
MODEL 2
REMARK VINA RESULT:     -10.9      1.784      3.374
REMARK SMILES O=C(N[C@@H](C(=O)OCCOC(=O)c1ccc(-c2c3nc(c(-c4ccc(S(=O)(=O)[O-])cc4)c4ccc([nH]4)c(-c4ccc(S(=O)(=O)[O-])cc4)c4nc(c(-c5ccc(S(=O)(=O)[O-])cc5)c5ccc2[nH]5)C=C4)C=C3)cc1)c1ccccc1)c1ccc(Br)nc1
REMARK SMILES IDX 9 1 8 2 7 3 5 4 6 5 4 6 3 7 1 8 2 9 79 11 80 12 85 13 81 14
REMARK SMILES IDX 84 15 82 16 83 17 73 18 74 19 78 20 75 21 77 22 76 23 10 24
REMARK SMILES IDX 11 25 12 26 13 27 14 28 72 29 15 30 71 31 16 32 17 33 18 34
REMARK SMILES IDX 65 35 19 36 70 37 64 38 66 39 20 40 69 41 63 42 62 43 21 45
REMARK SMILES IDX 51 46 32 47 50 48 33 49 36 50 49 51 67 52 34 53 35 54 48 56
REMARK SMILES IDX 68 57 37 58 22 59 23 60 31 61 24 62 30 63 25 64 26 65 27 66
REMARK SMILES IDX 28 67 29 68 52 69 53 70 61 71 54 72 60 73 55 74 56 75 57 76
REMARK SMILES IDX 58 77 59 78 38 79 39 80 47 81 40 82 46 83 41 84 42 85 43 86
REMARK SMILES IDX 44 87 45 88
REMARK H PARENT 3 10 66 44 36 55
REMARK Flexibility Score: inf
ROOT
ATOM      1  C   UNL A   1      32.687  28.557  26.572  1.00  0.00     0.275 C 
ENDROOT
BRANCH   1   2
ATOM      2  C   UNL A   1      33.081  28.222  25.135  1.00  0.00     0.274 C 
BRANCH   2   3
ATOM      3  O   UNL A   1      33.924  27.053  25.085  1.00  0.00    -0.460 OA
BRANCH   3   4
ATOM      4  C   UNL A   1      33.717  26.196  24.041  1.00  0.00     0.333 C 
ATOM      5  O   UNL A   1      33.523  26.558  22.886  1.00  0.00    -0.249 OA
BRANCH   4   6
ATOM      6  C   UNL A   1      33.649  24.721  24.501  1.00  0.00     0.223 C 
BRANCH   6   7
ATOM      7  N   UNL A   1      32.903  24.524  25.751  1.00  0.00    -0.335 N 
ATOM      8  O   UNL A   1      31.755  23.356  27.312  1.00  0.00    -0.269 OA
ATOM      9  C   UNL A   1      32.432  23.360  26.291  1.00  0.00     0.253 C 
ATOM     10  H   UNL A   1      32.718  25.340  26.270  1.00  0.00     0.165 HD
BRANCH   9  11
ATOM     11  C   UNL A   1      32.653  22.096  25.576  1.00  0.00     0.058 A 
ATOM     12  C   UNL A   1      33.518  21.155  26.132  1.00  0.00     0.018 A 
ATOM     13  C   UNL A   1      31.987  21.780  24.402  1.00  0.00     0.126 A 
ATOM     14  C   UNL A   1      33.638  19.908  25.525  1.00  0.00     0.037 A 
ATOM     15  N   UNL A   1      32.081  20.570  23.799  1.00  0.00    -0.249 NA
ATOM     16  C   UNL A   1      32.895  19.658  24.378  1.00  0.00     0.106 A 
ATOM     17  Br  UNL A   1      32.995  17.938  23.587  1.00  0.00    -0.029 Br
ENDBRANCH   9  11
ENDBRANCH   6   7
BRANCH   6  18
ATOM     18  C   UNL A   1      35.008  24.031  24.556  1.00  0.00    -0.014 A 
ATOM     19  C   UNL A   1      35.443  23.265  23.460  1.00  0.00     0.006 A 
ATOM     20  C   UNL A   1      35.864  24.139  25.668  1.00  0.00     0.006 A 
ATOM     21  C   UNL A   1      36.685  22.622  23.480  1.00  0.00     0.000 A 
ATOM     22  C   UNL A   1      37.103  23.491  25.687  1.00  0.00     0.000 A 
ATOM     23  C   UNL A   1      37.512  22.731  24.595  1.00  0.00     0.000 A 
ENDBRANCH   6  18
ENDBRANCH   4   6
ENDBRANCH   3   4
ENDBRANCH   2   3
ENDBRANCH   1   2
BRANCH   1  24
ATOM     24  O   UNL A   1      33.848  28.615  27.419  1.00  0.00    -0.458 OA
BRANCH  24  25
ATOM     25  C   UNL A   1      34.215  29.860  27.801  1.00  0.00     0.338 C 
ATOM     26  O   UNL A   1      33.497  30.834  27.940  1.00  0.00    -0.246 OA
BRANCH  25  27
ATOM     27  C   UNL A   1      35.633  29.855  28.177  1.00  0.00     0.060 A 
ATOM     28  C   UNL A   1      36.562  30.119  27.178  1.00  0.00     0.016 A 
ATOM     29  C   UNL A   1      36.056  29.440  29.439  1.00  0.00     0.016 A 
ATOM     30  C   UNL A   1      37.911  29.873  27.397  1.00  0.00     0.010 A 
ATOM     31  C   UNL A   1      37.428  29.276  29.682  1.00  0.00     0.010 A 
ATOM     32  C   UNL A   1      38.368  29.447  28.649  1.00  0.00    -0.014 A 
BRANCH  32  33
ATOM     33  C   UNL A   1      39.810  29.111  28.825  1.00  0.00     0.031 A 
ATOM     34  C   UNL A   1      40.745  30.100  29.474  1.00  0.00     0.074 A 
ATOM     35  C   UNL A   1      40.280  27.892  28.484  1.00  0.00     0.049 A 
ATOM     36  N   UNL A   1      42.050  30.057  29.576  1.00  0.00    -0.248 NA
ATOM     37  C   UNL A   1      40.137  31.297  30.078  1.00  0.00     0.031 C 
ATOM     38  C   UNL A   1      39.485  26.797  27.923  1.00  0.00     0.029 A 
ATOM     39  N   UNL A   1      41.542  27.358  28.591  1.00  0.00    -0.354 N 
ATOM     40  C   UNL A   1      42.423  31.250  30.184  1.00  0.00     0.074 A 
ATOM     41  C   UNL A   1      41.207  31.988  30.447  1.00  0.00     0.031 C 
ATOM     42  C   UNL A   1      40.257  25.706  27.804  1.00  0.00     0.029 A 
ATOM     43  C   UNL A   1      41.624  26.048  28.182  1.00  0.00     0.049 A 
ATOM     44  H   UNL A   1      42.314  27.866  28.930  1.00  0.00     0.167 HD
ATOM     45  C   UNL A   1      43.667  31.696  30.484  1.00  0.00     0.031 A 
ATOM     46  C   UNL A   1      42.681  25.219  28.085  1.00  0.00     0.031 A 
ATOM     47  C   UNL A   1      44.871  30.937  30.280  1.00  0.00     0.049 A 
ATOM     48  C   UNL A   1      44.052  25.735  28.413  1.00  0.00     0.074 A 
ATOM     49  C   UNL A   1      46.181  31.316  30.525  1.00  0.00     0.029 A 
ATOM     50  N   UNL A   1      44.914  29.635  29.812  1.00  0.00    -0.354 N 
ATOM     51  N   UNL A   1      44.398  26.914  28.868  1.00  0.00    -0.248 NA
ATOM     52  C   UNL A   1      45.177  24.819  28.181  1.00  0.00     0.031 C 
ATOM     53  C   UNL A   1      47.017  30.246  30.184  1.00  0.00     0.029 A 
ATOM     54  C   UNL A   1      46.224  29.192  29.760  1.00  0.00     0.049 A 
ATOM     55  H   UNL A   1      44.127  29.101  29.554  1.00  0.00     0.167 HD
ATOM     56  C   UNL A   1      45.785  26.888  28.961  1.00  0.00     0.074 A 
ATOM     57  C   UNL A   1      46.210  25.566  28.550  1.00  0.00     0.031 C 
ATOM     58  C   UNL A   1      46.630  27.878  29.337  1.00  0.00     0.031 A 
BRANCH  45  59
ATOM     59  C   UNL A   1      43.788  33.098  31.011  1.00  0.00    -0.014 A 
ATOM     60  C   UNL A   1      43.830  34.210  30.152  1.00  0.00     0.010 A 
ATOM     61  C   UNL A   1      43.833  33.303  32.403  1.00  0.00     0.010 A 
ATOM     62  C   UNL A   1      43.956  35.501  30.676  1.00  0.00     0.020 A 
ATOM     63  C   UNL A   1      43.938  34.593  32.931  1.00  0.00     0.020 A 
ATOM     64  C   UNL A   1      44.018  35.683  32.062  1.00  0.00     0.054 A 
BRANCH  64  65
ATOM     65  S   UNL A   1      44.168  37.365  32.724  1.00  0.00     0.124 S 
ATOM     66  O   UNL A   1      43.026  37.431  33.633  1.00  0.00    -0.237 OA
ATOM     67  O   UNL A   1      45.480  37.346  33.364  1.00  0.00    -0.237 OA
ATOM     68  O   UNL A   1      44.070  38.212  31.538  1.00  0.00    -0.744 OA
ENDBRANCH  64  65
ENDBRANCH  45  59
BRANCH  46  69
ATOM     69  C   UNL A   1      42.488  23.830  27.591  1.00  0.00    -0.014 A 
ATOM     70  C   UNL A   1      42.595  23.539  26.221  1.00  0.00     0.010 A 
ATOM     71  C   UNL A   1      42.223  22.786  28.496  1.00  0.00     0.010 A 
ATOM     72  C   UNL A   1      42.440  22.226  25.763  1.00  0.00     0.020 A 
ATOM     73  C   UNL A   1      42.093  21.471  28.046  1.00  0.00     0.020 A 
ATOM     74  C   UNL A   1      42.193  21.200  26.680  1.00  0.00     0.054 A 
BRANCH  74  75
ATOM     75  S   UNL A   1      42.074  19.488  26.087  1.00  0.00     0.124 S 
ATOM     76  O   UNL A   1      42.562  18.736  27.238  1.00  0.00    -0.237 OA
ATOM     77  O   UNL A   1      40.649  19.345  25.795  1.00  0.00    -0.237 OA
ATOM     78  O   UNL A   1      42.945  19.479  24.912  1.00  0.00    -0.744 OA
ENDBRANCH  74  75
ENDBRANCH  46  69
BRANCH  58  79
ATOM     79  C   UNL A   1      48.099  27.565  29.318  1.00  0.00    -0.014 A 
ATOM     80  C   UNL A   1      48.868  27.810  28.166  1.00  0.00     0.010 A 
ATOM     81  C   UNL A   1      48.724  27.058  30.471  1.00  0.00     0.010 A 
ATOM     82  C   UNL A   1      50.236  27.526  28.160  1.00  0.00     0.020 A 
ATOM     83  C   UNL A   1      50.095  26.788  30.472  1.00  0.00     0.020 A 
ATOM     84  C   UNL A   1      50.840  27.012  29.312  1.00  0.00     0.054 A 
BRANCH  84  85
ATOM     85  S   UNL A   1      52.623  26.683  29.295  1.00  0.00     0.124 S 
ATOM     86  O   UNL A   1      53.180  28.032  29.295  1.00  0.00    -0.237 OA
ATOM     87  O   UNL A   1      52.826  25.921  30.524  1.00  0.00    -0.237 OA
ATOM     88  O   UNL A   1      52.821  25.925  28.061  1.00  0.00    -0.744 OA
ENDBRANCH  84  85
ENDBRANCH  58  79
ENDBRANCH  32  33
ENDBRANCH  25  27
ENDBRANCH  24  25
ENDBRANCH   1  24
TORSDOF 17
ENDMDL
MODEL 3
REMARK VINA RESULT:     -10.8      3.582      8.723
REMARK SMILES O=C(N[C@@H](C(=O)OCCOC(=O)c1ccc(-c2c3nc(c(-c4ccc(S(=O)(=O)[O-])cc4)c4ccc([nH]4)c(-c4ccc(S(=O)(=O)[O-])cc4)c4nc(c(-c5ccc(S(=O)(=O)[O-])cc5)c5ccc2[nH]5)C=C4)C=C3)cc1)c1ccccc1)c1ccc(Br)nc1
REMARK SMILES IDX 9 1 8 2 7 3 5 4 6 5 4 6 3 7 1 8 2 9 79 11 80 12 85 13 81 14
REMARK SMILES IDX 84 15 82 16 83 17 73 18 74 19 78 20 75 21 77 22 76 23 10 24
REMARK SMILES IDX 11 25 12 26 13 27 14 28 72 29 15 30 71 31 16 32 17 33 18 34
REMARK SMILES IDX 65 35 19 36 70 37 64 38 66 39 20 40 69 41 63 42 62 43 21 45
REMARK SMILES IDX 51 46 32 47 50 48 33 49 36 50 49 51 67 52 34 53 35 54 48 56
REMARK SMILES IDX 68 57 37 58 22 59 23 60 31 61 24 62 30 63 25 64 26 65 27 66
REMARK SMILES IDX 28 67 29 68 52 69 53 70 61 71 54 72 60 73 55 74 56 75 57 76
REMARK SMILES IDX 58 77 59 78 38 79 39 80 47 81 40 82 46 83 41 84 42 85 43 86
REMARK SMILES IDX 44 87 45 88
REMARK H PARENT 3 10 66 44 36 55
REMARK Flexibility Score: inf
ROOT
ATOM      1  C   UNL A   1      32.185  30.314  26.883  1.00  0.00     0.275 C 
ENDROOT
BRANCH   1   2
ATOM      2  C   UNL A   1      31.720  29.970  25.470  1.00  0.00     0.274 C 
BRANCH   2   3
ATOM      3  O   UNL A   1      32.210  28.677  25.061  1.00  0.00    -0.460 OA
BRANCH   3   4
ATOM      4  C   UNL A   1      32.563  28.546  23.748  1.00  0.00     0.333 C 
ATOM      5  O   UNL A   1      33.544  29.083  23.245  1.00  0.00    -0.249 OA
BRANCH   4   6
ATOM      6  C   UNL A   1      31.525  27.731  22.941  1.00  0.00     0.223 C 
BRANCH   6   7
ATOM      7  N   UNL A   1      32.057  27.162  21.696  1.00  0.00    -0.335 N 
ATOM      8  O   UNL A   1      33.030  25.591  20.390  1.00  0.00    -0.269 OA
ATOM      9  C   UNL A   1      32.546  25.905  21.470  1.00  0.00     0.253 C 
ATOM     10  H   UNL A   1      32.061  27.766  20.919  1.00  0.00     0.165 HD
BRANCH   9  11
ATOM     11  C   UNL A   1      32.588  24.942  22.578  1.00  0.00     0.058 A 
ATOM     12  C   UNL A   1      31.400  24.339  22.987  1.00  0.00     0.018 A 
ATOM     13  C   UNL A   1      33.774  24.565  23.191  1.00  0.00     0.126 A 
ATOM     14  C   UNL A   1      31.450  23.337  23.952  1.00  0.00     0.037 A 
ATOM     15  N   UNL A   1      33.847  23.586  24.124  1.00  0.00    -0.249 NA
ATOM     16  C   UNL A   1      32.687  22.986  24.477  1.00  0.00     0.106 A 
ATOM     17  Br  UNL A   1      32.773  21.572  25.736  1.00  0.00    -0.029 Br
ENDBRANCH   9  11
ENDBRANCH   6   7
BRANCH   6  18
ATOM     18  C   UNL A   1      30.218  28.475  22.692  1.00  0.00    -0.014 A 
ATOM     19  C   UNL A   1      30.229  29.672  21.954  1.00  0.00     0.006 A 
ATOM     20  C   UNL A   1      28.979  28.003  23.166  1.00  0.00     0.006 A 
ATOM     21  C   UNL A   1      29.047  30.376  21.707  1.00  0.00     0.000 A 
ATOM     22  C   UNL A   1      27.799  28.712  22.922  1.00  0.00     0.000 A 
ATOM     23  C   UNL A   1      27.833  29.899  22.195  1.00  0.00     0.000 A 
ENDBRANCH   6  18
ENDBRANCH   4   6
ENDBRANCH   3   4
ENDBRANCH   2   3
ENDBRANCH   1   2
BRANCH   1  24
ATOM     24  O   UNL A   1      33.620  30.254  26.976  1.00  0.00    -0.458 OA
BRANCH  24  25
ATOM     25  C   UNL A   1      34.197  31.309  27.594  1.00  0.00     0.338 C 
ATOM     26  O   UNL A   1      33.687  32.383  27.860  1.00  0.00    -0.246 OA
BRANCH  25  27
ATOM     27  C   UNL A   1      35.541  30.932  28.047  1.00  0.00     0.060 A 
ATOM     28  C   UNL A   1      35.706  29.653  28.566  1.00  0.00     0.016 A 
ATOM     29  C   UNL A   1      36.580  31.858  28.117  1.00  0.00     0.016 A 
ATOM     30  C   UNL A   1      36.868  29.323  29.249  1.00  0.00     0.010 A 
ATOM     31  C   UNL A   1      37.786  31.491  28.732  1.00  0.00     0.010 A 
ATOM     32  C   UNL A   1      37.927  30.232  29.346  1.00  0.00    -0.014 A 
BRANCH  32  33
ATOM     33  C   UNL A   1      39.125  29.876  30.159  1.00  0.00     0.031 A 
ATOM     34  C   UNL A   1      40.104  28.846  29.655  1.00  0.00     0.074 A 
ATOM     35  C   UNL A   1      39.395  30.526  31.311  1.00  0.00     0.049 A 
ATOM     36  N   UNL A   1      41.114  28.293  30.278  1.00  0.00    -0.248 NA
ATOM     37  C   UNL A   1      39.919  28.369  28.274  1.00  0.00     0.031 C 
ATOM     38  C   UNL A   1      38.591  31.605  31.891  1.00  0.00     0.029 A 
ATOM     39  N   UNL A   1      40.444  30.393  32.189  1.00  0.00    -0.354 N 
ATOM     40  C   UNL A   1      41.634  27.352  29.398  1.00  0.00     0.074 A 
ATOM     41  C   UNL A   1      40.843  27.421  28.188  1.00  0.00     0.031 C 
ATOM     42  C   UNL A   1      39.211  32.082  32.981  1.00  0.00     0.029 A 
ATOM     43  C   UNL A   1      40.401  31.280  33.239  1.00  0.00     0.049 A 
ATOM     44  H   UNL A   1      41.159  29.726  32.075  1.00  0.00     0.167 HD
ATOM     45  C   UNL A   1      42.668  26.497  29.585  1.00  0.00     0.031 A 
ATOM     46  C   UNL A   1      41.205  31.414  34.312  1.00  0.00     0.031 A 
ATOM     47  C   UNL A   1      43.495  26.468  30.762  1.00  0.00     0.049 A 
ATOM     48  C   UNL A   1      42.339  30.452  34.506  1.00  0.00     0.074 A 
ATOM     49  C   UNL A   1      44.548  25.619  31.056  1.00  0.00     0.029 A 
ATOM     50  N   UNL A   1      43.382  27.347  31.826  1.00  0.00    -0.354 N 
ATOM     51  N   UNL A   1      42.738  29.483  33.718  1.00  0.00    -0.248 NA
ATOM     52  C   UNL A   1      43.111  30.580  35.750  1.00  0.00     0.031 C 
ATOM     53  C   UNL A   1      45.058  25.973  32.311  1.00  0.00     0.029 A 
ATOM     54  C   UNL A   1      44.344  27.063  32.779  1.00  0.00     0.049 A 
ATOM     55  H   UNL A   1      42.715  28.069  31.895  1.00  0.00     0.167 HD
ATOM     56  C   UNL A   1      43.798  28.874  34.380  1.00  0.00     0.074 A 
ATOM     57  C   UNL A   1      44.001  29.606  35.614  1.00  0.00     0.031 C 
ATOM     58  C   UNL A   1      44.525  27.794  34.006  1.00  0.00     0.031 A 
BRANCH  45  59
ATOM     59  C   UNL A   1      42.925  25.478  28.510  1.00  0.00    -0.014 A 
ATOM     60  C   UNL A   1      43.850  25.710  27.477  1.00  0.00     0.010 A 
ATOM     61  C   UNL A   1      42.239  24.250  28.555  1.00  0.00     0.010 A 
ATOM     62  C   UNL A   1      44.055  24.745  26.485  1.00  0.00     0.020 A 
ATOM     63  C   UNL A   1      42.456  23.275  27.578  1.00  0.00     0.020 A 
ATOM     64  C   UNL A   1      43.350  23.538  26.537  1.00  0.00     0.054 A 
BRANCH  64  65
ATOM     65  S   UNL A   1      43.638  22.293  25.250  1.00  0.00     0.124 S 
ATOM     66  O   UNL A   1      42.623  21.293  25.570  1.00  0.00    -0.237 OA
ATOM     67  O   UNL A   1      43.414  23.043  24.016  1.00  0.00    -0.237 OA
ATOM     68  O   UNL A   1      45.020  21.875  25.477  1.00  0.00    -0.744 OA
ENDBRANCH  64  65
ENDBRANCH  45  59
BRANCH  46  69
ATOM     69  C   UNL A   1      40.918  32.468  35.322  1.00  0.00    -0.014 A 
ATOM     70  C   UNL A   1      40.104  32.188  36.433  1.00  0.00     0.010 A 
ATOM     71  C   UNL A   1      41.481  33.749  35.190  1.00  0.00     0.010 A 
ATOM     72  C   UNL A   1      39.858  33.173  37.394  1.00  0.00     0.020 A 
ATOM     73  C   UNL A   1      41.260  34.728  36.161  1.00  0.00     0.020 A 
ATOM     74  C   UNL A   1      40.441  34.436  37.254  1.00  0.00     0.054 A 
BRANCH  74  75
ATOM     75  S   UNL A   1      40.184  35.683  38.548  1.00  0.00     0.124 S 
ATOM     76  O   UNL A   1      41.496  35.732  39.184  1.00  0.00    -0.237 OA
ATOM     77  O   UNL A   1      39.806  36.869  37.784  1.00  0.00    -0.237 OA
ATOM     78  O   UNL A   1      39.111  35.108  39.359  1.00  0.00    -0.744 OA
ENDBRANCH  74  75
ENDBRANCH  46  69
BRANCH  58  79
ATOM     79  C   UNL A   1      45.606  27.340  34.945  1.00  0.00    -0.014 A 
ATOM     80  C   UNL A   1      45.338  26.375  35.932  1.00  0.00     0.010 A 
ATOM     81  C   UNL A   1      46.908  27.853  34.817  1.00  0.00     0.010 A 
ATOM     82  C   UNL A   1      46.351  25.950  36.795  1.00  0.00     0.020 A 
ATOM     83  C   UNL A   1      47.927  27.419  35.668  1.00  0.00     0.020 A 
ATOM     84  C   UNL A   1      47.639  26.479  36.661  1.00  0.00     0.054 A 
BRANCH  84  85
ATOM     85  S   UNL A   1      48.949  25.889  37.767  1.00  0.00     0.124 S 
ATOM     86  O   UNL A   1      48.944  26.907  38.814  1.00  0.00    -0.237 OA
ATOM     87  O   UNL A   1      48.465  24.571  38.171  1.00  0.00    -0.237 OA
ATOM     88  O   UNL A   1      50.137  25.874  36.916  1.00  0.00    -0.744 OA
ENDBRANCH  84  85
ENDBRANCH  58  79
ENDBRANCH  32  33
ENDBRANCH  25  27
ENDBRANCH  24  25
ENDBRANCH   1  24
TORSDOF 17
ENDMDL
