MODEL 1
REMARK VINA RESULT:     -10.2      0.000      0.000
REMARK SMILES CC(C)COc1cccc(N2C[C@@H](C(=O)OCCOC(=O)c3ccc(-c4c5nc(c(-c6ccc(S(=O)(=O)[O-])cc6)c6ccc([nH]6)c(-c6ccc(S(=O)(=O)[O-])cc6)c6nc(c(-c7ccc(S(=O)(=O)[O-])cc7)c7ccc4[nH]7)C=C6)C=C5)cc3)CC2=O)c1
REMARK SMILES IDX 17 1 16 2 14 3 15 4 13 5 11 6 12 7 83 8 82 9 84 10 10 11
REMARK SMILES IDX 6 12 7 13 85 14 8 15 9 16 5 17 4 18 2 19 1 20 3 21 18 22
REMARK SMILES IDX 19 23 20 24 21 25 22 26 23 27 81 28 24 29 80 30 25 31 26 32
REMARK SMILES IDX 27 33 74 34 28 35 79 36 73 37 75 38 29 39 78 40 72 41 71 42
REMARK SMILES IDX 30 44 60 45 41 46 59 47 42 48 45 49 58 50 76 51 43 52 44 53
REMARK SMILES IDX 57 55 77 56 46 57 31 58 32 59 40 60 33 61 39 62 34 63 35 64
REMARK SMILES IDX 36 65 37 66 38 67 61 68 62 69 70 70 63 71 69 72 64 73 65 74
REMARK SMILES IDX 66 75 67 76 68 77 47 78 48 79 56 80 49 81 55 82 50 83 51 84
REMARK SMILES IDX 52 85 53 86 54 87
REMARK H PARENT 75 43 45 54
REMARK Flexibility Score: inf
ROOT
ATOM      1  C   UNL A   1      34.760  31.872  28.211  1.00  0.00     0.274 C 
ENDROOT
BRANCH   1   2
ATOM      2  O   UNL A   1      34.456  30.920  27.172  1.00  0.00    -0.462 OA
BRANCH   2   3
ATOM      3  C   UNL A   1      33.198  30.418  27.147  1.00  0.00     0.311 C 
ATOM      4  O   UNL A   1      32.184  31.079  26.951  1.00  0.00    -0.252 OA
BRANCH   3   5
ATOM      5  C   UNL A   1      33.158  28.922  27.324  1.00  0.00     0.128 C 
ATOM      6  N   UNL A   1      33.309  26.953  26.080  1.00  0.00    -0.311 N 
ATOM      7  C   UNL A   1      33.907  28.261  26.190  1.00  0.00     0.141 C 
ATOM      8  C   UNL A   1      32.078  26.899  26.746  1.00  0.00     0.227 C 
ATOM      9  C   UNL A   1      31.794  28.261  27.318  1.00  0.00     0.117 C 
ATOM     10  O   UNL A   1      31.293  25.967  26.832  1.00  0.00    -0.274 OA
BRANCH   6  11
ATOM     11  C   UNL A   1      33.765  26.027  25.108  1.00  0.00     0.047 A 
ATOM     12  C   UNL A   1      34.270  23.727  24.609  1.00  0.00     0.121 A 
ATOM     13  C   UNL A   1      34.106  23.948  23.246  1.00  0.00     0.046 A 
ATOM     14  C   UNL A   1      34.234  24.781  25.514  1.00  0.00     0.072 A 
ATOM     15  C   UNL A   1      33.786  25.229  22.807  1.00  0.00     0.006 A 
ATOM     16  C   UNL A   1      33.571  26.252  23.737  1.00  0.00     0.026 A 
BRANCH  12  17
ATOM     17  O   UNL A   1      34.387  22.452  25.096  1.00  0.00    -0.493 OA
BRANCH  17  18
ATOM     18  C   UNL A   1      33.090  21.920  25.464  1.00  0.00     0.232 C 
BRANCH  18  19
ATOM     19  C   UNL A   1      32.771  20.571  24.773  1.00  0.00     0.020 C 
ATOM     20  C   UNL A   1      32.342  20.748  23.307  1.00  0.00     0.011 C 
ATOM     21  C   UNL A   1      33.983  19.638  24.802  1.00  0.00     0.011 C 
ENDBRANCH  18  19
ENDBRANCH  17  18
ENDBRANCH  12  17
ENDBRANCH   6  11
ENDBRANCH   3   5
ENDBRANCH   2   3
ENDBRANCH   1   2
BRANCH   1  22
ATOM     22  C   UNL A   1      36.077  31.501  28.899  1.00  0.00     0.275 C 
BRANCH  22  23
ATOM     23  O   UNL A   1      36.617  30.271  28.378  1.00  0.00    -0.458 OA
BRANCH  23  24
ATOM     24  C   UNL A   1      37.176  29.459  29.304  1.00  0.00     0.338 C 
ATOM     25  O   UNL A   1      36.641  28.992  30.298  1.00  0.00    -0.246 OA
BRANCH  24  26
ATOM     26  C   UNL A   1      38.532  29.083  28.893  1.00  0.00     0.060 A 
ATOM     27  C   UNL A   1      39.400  28.588  29.867  1.00  0.00     0.016 A 
ATOM     28  C   UNL A   1      38.991  29.349  27.605  1.00  0.00     0.016 A 
ATOM     29  C   UNL A   1      40.749  28.426  29.588  1.00  0.00     0.010 A 
ATOM     30  C   UNL A   1      40.340  29.130  27.306  1.00  0.00     0.010 A 
ATOM     31  C   UNL A   1      41.232  28.694  28.303  1.00  0.00    -0.014 A 
BRANCH  31  32
ATOM     32  C   UNL A   1      42.679  28.548  28.021  1.00  0.00     0.031 A 
ATOM     33  C   UNL A   1      43.617  29.686  28.309  1.00  0.00     0.074 A 
ATOM     34  C   UNL A   1      43.151  27.385  27.533  1.00  0.00     0.049 A 
ATOM     35  N   UNL A   1      44.885  29.803  28.010  1.00  0.00    -0.248 NA
ATOM     36  C   UNL A   1      43.055  30.843  29.023  1.00  0.00     0.031 C 
ATOM     37  C   UNL A   1      42.350  26.184  27.278  1.00  0.00     0.029 A 
ATOM     38  N   UNL A   1      44.421  27.021  27.168  1.00  0.00    -0.354 N 
ATOM     39  C   UNL A   1      45.263  31.063  28.459  1.00  0.00     0.074 A 
ATOM     40  C   UNL A   1      44.091  31.671  29.052  1.00  0.00     0.031 C 
ATOM     41  C   UNL A   1      43.150  25.214  26.813  1.00  0.00     0.029 A 
ATOM     42  C   UNL A   1      44.503  25.742  26.672  1.00  0.00     0.049 A 
ATOM     43  H   UNL A   1      45.199  27.617  27.253  1.00  0.00     0.167 HD
ATOM     44  C   UNL A   1      46.476  31.658  28.377  1.00  0.00     0.031 A 
ATOM     45  C   UNL A   1      45.541  25.081  26.127  1.00  0.00     0.031 A 
ATOM     46  C   UNL A   1      47.640  31.040  27.799  1.00  0.00     0.049 A 
ATOM     47  C   UNL A   1      46.864  25.779  25.999  1.00  0.00     0.074 A 
ATOM     48  C   UNL A   1      48.913  31.561  27.656  1.00  0.00     0.029 A 
ATOM     49  N   UNL A   1      47.672  29.755  27.278  1.00  0.00    -0.354 N 
ATOM     50  N   UNL A   1      47.193  26.991  26.378  1.00  0.00    -0.248 NA
ATOM     51  C   UNL A   1      47.951  25.027  25.360  1.00  0.00     0.031 C 
ATOM     52  C   UNL A   1      49.708  30.603  27.016  1.00  0.00     0.029 A 
ATOM     53  C   UNL A   1      48.940  29.470  26.800  1.00  0.00     0.049 A 
ATOM     54  H   UNL A   1      46.907  29.136  27.252  1.00  0.00     0.167 HD
ATOM     55  C   UNL A   1      48.530  27.143  26.034  1.00  0.00     0.074 A 
ATOM     56  C   UNL A   1      48.952  25.895  25.429  1.00  0.00     0.031 C 
ATOM     57  C   UNL A   1      49.336  28.221  26.201  1.00  0.00     0.031 A 
BRANCH  44  58
ATOM     58  C   UNL A   1      46.585  33.073  28.877  1.00  0.00    -0.014 A 
ATOM     59  C   UNL A   1      46.962  33.355  30.203  1.00  0.00     0.010 A 
ATOM     60  C   UNL A   1      46.316  34.138  27.999  1.00  0.00     0.010 A 
ATOM     61  C   UNL A   1      47.024  34.678  30.652  1.00  0.00     0.020 A 
ATOM     62  C   UNL A   1      46.397  35.462  28.439  1.00  0.00     0.020 A 
ATOM     63  C   UNL A   1      46.732  35.722  29.769  1.00  0.00     0.054 A 
BRANCH  63  64
ATOM     64  S   UNL A   1      46.817  37.432  30.372  1.00  0.00     0.124 S 
ATOM     65  O   UNL A   1      45.662  38.039  29.716  1.00  0.00    -0.237 OA
ATOM     66  O   UNL A   1      46.706  37.271  31.820  1.00  0.00    -0.237 OA
ATOM     67  O   UNL A   1      48.119  37.899  29.899  1.00  0.00    -0.744 OA
ENDBRANCH  63  64
ENDBRANCH  44  58
BRANCH  45  68
ATOM     68  C   UNL A   1      45.348  23.695  25.625  1.00  0.00    -0.014 A 
ATOM     69  C   UNL A   1      45.599  22.591  26.457  1.00  0.00     0.010 A 
ATOM     70  C   UNL A   1      44.874  23.476  24.317  1.00  0.00     0.010 A 
ATOM     71  C   UNL A   1      45.379  21.291  25.991  1.00  0.00     0.020 A 
ATOM     72  C   UNL A   1      44.632  22.180  23.857  1.00  0.00     0.020 A 
ATOM     73  C   UNL A   1      44.895  21.094  24.695  1.00  0.00     0.054 A 
BRANCH  73  74
ATOM     74  S   UNL A   1      44.544  19.405  24.133  1.00  0.00     0.124 S 
ATOM     75  O   UNL A   1      43.259  19.135  24.769  1.00  0.00    -0.237 OA
ATOM     76  O   UNL A   1      44.514  19.550  22.680  1.00  0.00    -0.237 OA
ATOM     77  O   UNL A   1      45.674  18.634  24.649  1.00  0.00    -0.744 OA
ENDBRANCH  73  74
ENDBRANCH  45  68
BRANCH  57  78
ATOM     78  C   UNL A   1      50.762  28.084  25.749  1.00  0.00    -0.014 A 
ATOM     79  C   UNL A   1      51.171  28.560  24.491  1.00  0.00     0.010 A 
ATOM     80  C   UNL A   1      51.713  27.516  26.615  1.00  0.00     0.010 A 
ATOM     81  C   UNL A   1      52.507  28.447  24.098  1.00  0.00     0.020 A 
ATOM     82  C   UNL A   1      53.051  27.420  26.233  1.00  0.00     0.020 A 
ATOM     83  C   UNL A   1      53.438  27.874  24.970  1.00  0.00     0.054 A 
BRANCH  83  84
ATOM     84  S   UNL A   1      55.176  27.778  24.457  1.00  0.00     0.124 S 
ATOM     85  O   UNL A   1      55.875  28.096  25.698  1.00  0.00    -0.237 OA
ATOM     86  O   UNL A   1      55.303  26.396  24.000  1.00  0.00    -0.237 OA
ATOM     87  O   UNL A   1      55.280  28.786  23.405  1.00  0.00    -0.744 OA
ENDBRANCH  83  84
ENDBRANCH  57  78
ENDBRANCH  31  32
ENDBRANCH  24  26
ENDBRANCH  23  24
ENDBRANCH  22  23
ENDBRANCH   1  22
TORSDOF 18
ENDMDL
MODEL 2
REMARK VINA RESULT:     -10.2      3.850      6.528
REMARK SMILES CC(C)COc1cccc(N2C[C@@H](C(=O)OCCOC(=O)c3ccc(-c4c5nc(c(-c6ccc(S(=O)(=O)[O-])cc6)c6ccc([nH]6)c(-c6ccc(S(=O)(=O)[O-])cc6)c6nc(c(-c7ccc(S(=O)(=O)[O-])cc7)c7ccc4[nH]7)C=C6)C=C5)cc3)CC2=O)c1
REMARK SMILES IDX 17 1 16 2 14 3 15 4 13 5 11 6 12 7 83 8 82 9 84 10 10 11
REMARK SMILES IDX 6 12 7 13 85 14 8 15 9 16 5 17 4 18 2 19 1 20 3 21 18 22
REMARK SMILES IDX 19 23 20 24 21 25 22 26 23 27 81 28 24 29 80 30 25 31 26 32
REMARK SMILES IDX 27 33 74 34 28 35 79 36 73 37 75 38 29 39 78 40 72 41 71 42
REMARK SMILES IDX 30 44 60 45 41 46 59 47 42 48 45 49 58 50 76 51 43 52 44 53
REMARK SMILES IDX 57 55 77 56 46 57 31 58 32 59 40 60 33 61 39 62 34 63 35 64
REMARK SMILES IDX 36 65 37 66 38 67 61 68 62 69 70 70 63 71 69 72 64 73 65 74
REMARK SMILES IDX 66 75 67 76 68 77 47 78 48 79 56 80 49 81 55 82 50 83 51 84
REMARK SMILES IDX 52 85 53 86 54 87
REMARK H PARENT 75 43 45 54
REMARK Flexibility Score: inf
ROOT
ATOM      1  C   UNL A   1      34.405  33.241  29.879  1.00  0.00     0.274 C 
ENDROOT
BRANCH   1   2
ATOM      2  O   UNL A   1      34.264  33.015  31.295  1.00  0.00    -0.462 OA
BRANCH   2   3
ATOM      3  C   UNL A   1      34.593  34.039  32.118  1.00  0.00     0.311 C 
ATOM      4  O   UNL A   1      33.894  35.024  32.324  1.00  0.00    -0.252 OA
BRANCH   3   5
ATOM      5  C   UNL A   1      35.906  33.825  32.826  1.00  0.00     0.128 C 
ATOM      6  N   UNL A   1      38.164  33.447  32.367  1.00  0.00    -0.311 N 
ATOM      7  C   UNL A   1      37.042  34.234  31.916  1.00  0.00     0.141 C 
ATOM      8  C   UNL A   1      37.745  32.377  33.168  1.00  0.00     0.227 C 
ATOM      9  C   UNL A   1      36.243  32.407  33.244  1.00  0.00     0.117 C 
ATOM     10  O   UNL A   1      38.418  31.501  33.691  1.00  0.00    -0.274 OA
BRANCH   6  11
ATOM     11  C   UNL A   1      39.430  33.566  31.742  1.00  0.00     0.047 A 
ATOM     12  C   UNL A   1      40.698  34.553  29.948  1.00  0.00     0.121 A 
ATOM     13  C   UNL A   1      41.886  34.397  30.654  1.00  0.00     0.046 A 
ATOM     14  C   UNL A   1      39.507  34.021  30.428  1.00  0.00     0.072 A 
ATOM     15  C   UNL A   1      41.849  33.801  31.910  1.00  0.00     0.006 A 
ATOM     16  C   UNL A   1      40.622  33.430  32.471  1.00  0.00     0.026 A 
BRANCH  12  17
ATOM     17  O   UNL A   1      40.662  35.307  28.806  1.00  0.00    -0.493 OA
BRANCH  17  18
ATOM     18  C   UNL A   1      41.988  35.773  28.454  1.00  0.00     0.232 C 
BRANCH  18  19
ATOM     19  C   UNL A   1      42.091  36.258  26.987  1.00  0.00     0.020 C 
ATOM     20  C   UNL A   1      42.659  37.682  26.876  1.00  0.00     0.011 C 
ATOM     21  C   UNL A   1      42.982  35.327  26.161  1.00  0.00     0.011 C 
ENDBRANCH  18  19
ENDBRANCH  17  18
ENDBRANCH  12  17
ENDBRANCH   6  11
ENDBRANCH   3   5
ENDBRANCH   2   3
ENDBRANCH   1   2
BRANCH   1  22
ATOM     22  C   UNL A   1      34.891  31.965  29.185  1.00  0.00     0.275 C 
BRANCH  22  23
ATOM     23  O   UNL A   1      36.277  31.701  29.475  1.00  0.00    -0.458 OA
BRANCH  23  24
ATOM     24  C   UNL A   1      36.505  30.567  30.176  1.00  0.00     0.338 C 
ATOM     25  O   UNL A   1      35.764  30.039  30.990  1.00  0.00    -0.246 OA
BRANCH  24  26
ATOM     26  C   UNL A   1      37.757  29.943  29.735  1.00  0.00     0.060 A 
ATOM     27  C   UNL A   1      38.638  29.477  30.711  1.00  0.00     0.016 A 
ATOM     28  C   UNL A   1      38.126  29.949  28.392  1.00  0.00     0.016 A 
ATOM     29  C   UNL A   1      39.922  29.083  30.366  1.00  0.00     0.010 A 
ATOM     30  C   UNL A   1      39.400  29.495  28.036  1.00  0.00     0.010 A 
ATOM     31  C   UNL A   1      40.316  29.087  29.024  1.00  0.00    -0.014 A 
BRANCH  31  32
ATOM     32  C   UNL A   1      41.699  28.694  28.666  1.00  0.00     0.031 A 
ATOM     33  C   UNL A   1      42.802  29.712  28.709  1.00  0.00     0.074 A 
ATOM     34  C   UNL A   1      41.965  27.417  28.331  1.00  0.00     0.049 A 
ATOM     35  N   UNL A   1      44.041  29.601  28.307  1.00  0.00    -0.248 NA
ATOM     36  C   UNL A   1      42.466  31.029  29.274  1.00  0.00     0.031 C 
ATOM     37  C   UNL A   1      40.992  26.321  28.322  1.00  0.00     0.029 A 
ATOM     38  N   UNL A   1      43.136  26.824  27.939  1.00  0.00    -0.354 N 
ATOM     39  C   UNL A   1      44.622  30.844  28.529  1.00  0.00     0.074 A 
ATOM     40  C   UNL A   1      43.601  31.693  29.102  1.00  0.00     0.031 C 
ATOM     41  C   UNL A   1      41.611  25.188  27.957  1.00  0.00     0.029 A 
ATOM     42  C   UNL A   1      43.003  25.489  27.641  1.00  0.00     0.049 A 
ATOM     43  H   UNL A   1      43.992  27.307  27.876  1.00  0.00     0.167 HD
ATOM     44  C   UNL A   1      45.892  31.239  28.271  1.00  0.00     0.031 A 
ATOM     45  C   UNL A   1      43.890  24.613  27.133  1.00  0.00     0.031 A 
ATOM     46  C   UNL A   1      46.905  30.382  27.714  1.00  0.00     0.049 A 
ATOM     47  C   UNL A   1      45.277  25.087  26.806  1.00  0.00     0.074 A 
ATOM     48  C   UNL A   1      48.218  30.687  27.403  1.00  0.00     0.029 A 
ATOM     49  N   UNL A   1      46.719  29.045  27.397  1.00  0.00    -0.354 N 
ATOM     50  N   UNL A   1      45.796  26.280  26.969  1.00  0.00    -0.248 NA
ATOM     51  C   UNL A   1      46.191  24.102  26.216  1.00  0.00     0.031 C 
ATOM     52  C   UNL A   1      48.817  29.543  26.864  1.00  0.00     0.029 A 
ATOM     53  C   UNL A   1      47.889  28.514  26.880  1.00  0.00     0.049 A 
ATOM     54  H   UNL A   1      45.879  28.546  27.520  1.00  0.00     0.167 HD
ATOM     55  C   UNL A   1      47.105  26.186  26.513  1.00  0.00     0.074 A 
ATOM     56  C   UNL A   1      47.300  24.817  26.080  1.00  0.00     0.031 C 
ATOM     57  C   UNL A   1      48.059  27.148  26.455  1.00  0.00     0.031 A 
BRANCH  44  58
ATOM     58  C   UNL A   1      46.233  32.679  28.538  1.00  0.00    -0.014 A 
ATOM     59  C   UNL A   1      46.048  33.671  27.558  1.00  0.00     0.010 A 
ATOM     60  C   UNL A   1      46.738  33.046  29.798  1.00  0.00     0.010 A 
ATOM     61  C   UNL A   1      46.403  34.998  27.820  1.00  0.00     0.020 A 
ATOM     62  C   UNL A   1      47.075  34.375  30.071  1.00  0.00     0.020 A 
ATOM     63  C   UNL A   1      46.923  35.339  29.073  1.00  0.00     0.054 A 
BRANCH  63  64
ATOM     64  S   UNL A   1      47.380  37.066  29.393  1.00  0.00     0.124 S 
ATOM     65  O   UNL A   1      48.250  36.935  30.559  1.00  0.00    -0.237 OA
ATOM     66  O   UNL A   1      48.045  37.461  28.153  1.00  0.00    -0.237 OA
ATOM     67  O   UNL A   1      46.097  37.721  29.643  1.00  0.00    -0.744 OA
ENDBRANCH  63  64
ENDBRANCH  44  58
BRANCH  45  68
ATOM     68  C   UNL A   1      43.469  23.212  26.865  1.00  0.00    -0.014 A 
ATOM     69  C   UNL A   1      43.691  22.627  25.609  1.00  0.00     0.010 A 
ATOM     70  C   UNL A   1      42.877  22.445  27.886  1.00  0.00     0.010 A 
ATOM     71  C   UNL A   1      43.328  21.297  25.375  1.00  0.00     0.020 A 
ATOM     72  C   UNL A   1      42.534  21.110  27.664  1.00  0.00     0.020 A 
ATOM     73  C   UNL A   1      42.754  20.546  26.405  1.00  0.00     0.054 A 
BRANCH  73  74
ATOM     74  S   UNL A   1      42.358  18.800  26.108  1.00  0.00     0.124 S 
ATOM     75  O   UNL A   1      43.270  18.465  25.020  1.00  0.00    -0.237 OA
ATOM     76  O   UNL A   1      42.653  18.181  27.398  1.00  0.00    -0.237 OA
ATOM     77  O   UNL A   1      40.940  18.830  25.751  1.00  0.00    -0.744 OA
ENDBRANCH  73  74
ENDBRANCH  45  68
BRANCH  57  78
ATOM     78  C   UNL A   1      49.407  26.743  25.930  1.00  0.00    -0.014 A 
ATOM     79  C   UNL A   1      49.776  27.011  24.600  1.00  0.00     0.010 A 
ATOM     80  C   UNL A   1      50.332  26.129  26.793  1.00  0.00     0.010 A 
ATOM     81  C   UNL A   1      51.043  26.650  24.137  1.00  0.00     0.020 A 
ATOM     82  C   UNL A   1      51.605  25.785  26.338  1.00  0.00     0.020 A 
ATOM     83  C   UNL A   1      51.949  26.035  25.008  1.00  0.00     0.054 A 
BRANCH  83  84
ATOM     84  S   UNL A   1      53.605  25.615  24.398  1.00  0.00     0.124 S 
ATOM     85  O   UNL A   1      54.458  26.443  25.244  1.00  0.00    -0.237 OA
ATOM     86  O   UNL A   1      53.685  24.176  24.641  1.00  0.00    -0.237 OA
ATOM     87  O   UNL A   1      53.560  25.999  22.989  1.00  0.00    -0.744 OA
ENDBRANCH  83  84
ENDBRANCH  57  78
ENDBRANCH  31  32
ENDBRANCH  24  26
ENDBRANCH  23  24
ENDBRANCH  22  23
ENDBRANCH   1  22
TORSDOF 18
ENDMDL
MODEL 3
REMARK VINA RESULT:     -10.0      2.294      8.592
REMARK SMILES CC(C)COc1cccc(N2C[C@@H](C(=O)OCCOC(=O)c3ccc(-c4c5nc(c(-c6ccc(S(=O)(=O)[O-])cc6)c6ccc([nH]6)c(-c6ccc(S(=O)(=O)[O-])cc6)c6nc(c(-c7ccc(S(=O)(=O)[O-])cc7)c7ccc4[nH]7)C=C6)C=C5)cc3)CC2=O)c1
REMARK SMILES IDX 17 1 16 2 14 3 15 4 13 5 11 6 12 7 83 8 82 9 84 10 10 11
REMARK SMILES IDX 6 12 7 13 85 14 8 15 9 16 5 17 4 18 2 19 1 20 3 21 18 22
REMARK SMILES IDX 19 23 20 24 21 25 22 26 23 27 81 28 24 29 80 30 25 31 26 32
REMARK SMILES IDX 27 33 74 34 28 35 79 36 73 37 75 38 29 39 78 40 72 41 71 42
REMARK SMILES IDX 30 44 60 45 41 46 59 47 42 48 45 49 58 50 76 51 43 52 44 53
REMARK SMILES IDX 57 55 77 56 46 57 31 58 32 59 40 60 33 61 39 62 34 63 35 64
REMARK SMILES IDX 36 65 37 66 38 67 61 68 62 69 70 70 63 71 69 72 64 73 65 74
REMARK SMILES IDX 66 75 67 76 68 77 47 78 48 79 56 80 49 81 55 82 50 83 51 84
REMARK SMILES IDX 52 85 53 86 54 87
REMARK H PARENT 75 43 45 54
REMARK Flexibility Score: inf
ROOT
ATOM      1  C   UNL A   1      35.503  33.227  31.476  1.00  0.00     0.274 C 
ENDROOT
BRANCH   1   2
ATOM      2  O   UNL A   1      34.427  32.745  30.648  1.00  0.00    -0.462 OA
BRANCH   2   3
ATOM      3  C   UNL A   1      34.254  33.354  29.450  1.00  0.00     0.311 C 
ATOM      4  O   UNL A   1      33.939  34.529  29.301  1.00  0.00    -0.252 OA
BRANCH   3   5
ATOM      5  C   UNL A   1      34.554  32.450  28.282  1.00  0.00     0.128 C 
ATOM      6  N   UNL A   1      33.698  30.576  27.184  1.00  0.00    -0.311 N 
ATOM      7  C   UNL A   1      33.272  31.811  27.799  1.00  0.00     0.141 C 
ATOM      8  C   UNL A   1      35.001  30.239  27.568  1.00  0.00     0.227 C 
ATOM      9  C   UNL A   1      35.491  31.285  28.533  1.00  0.00     0.117 C 
ATOM     10  O   UNL A   1      35.661  29.257  27.264  1.00  0.00    -0.274 OA
BRANCH   6  11
ATOM     11  C   UNL A   1      32.753  29.694  26.602  1.00  0.00     0.047 A 
ATOM     12  C   UNL A   1      32.132  28.417  24.657  1.00  0.00     0.121 A 
ATOM     13  C   UNL A   1      31.358  27.555  25.425  1.00  0.00     0.046 A 
ATOM     14  C   UNL A   1      32.711  29.550  25.217  1.00  0.00     0.072 A 
ATOM     15  C   UNL A   1      31.263  27.777  26.795  1.00  0.00     0.006 A 
ATOM     16  C   UNL A   1      31.994  28.813  27.387  1.00  0.00     0.026 A 
BRANCH  12  17
ATOM     17  O   UNL A   1      32.411  28.121  23.350  1.00  0.00    -0.493 OA
BRANCH  17  18
ATOM     18  C   UNL A   1      31.267  27.509  22.704  1.00  0.00     0.232 C 
BRANCH  18  19
ATOM     19  C   UNL A   1      31.605  26.158  22.026  1.00  0.00     0.020 C 
ATOM     20  C   UNL A   1      33.096  26.035  21.671  1.00  0.00     0.011 C 
ATOM     21  C   UNL A   1      31.235  24.981  22.930  1.00  0.00     0.011 C 
ENDBRANCH  18  19
ENDBRANCH  17  18
ENDBRANCH  12  17
ENDBRANCH   6  11
ENDBRANCH   3   5
ENDBRANCH   2   3
ENDBRANCH   1   2
BRANCH   1  22
ATOM     22  C   UNL A   1      35.857  32.184  32.541  1.00  0.00     0.275 C 
BRANCH  22  23
ATOM     23  O   UNL A   1      37.217  31.729  32.406  1.00  0.00    -0.458 OA
BRANCH  23  24
ATOM     24  C   UNL A   1      37.356  30.525  31.805  1.00  0.00     0.338 C 
ATOM     25  O   UNL A   1      36.494  29.674  31.646  1.00  0.00    -0.246 OA
BRANCH  24  26
ATOM     26  C   UNL A   1      38.698  30.401  31.228  1.00  0.00     0.060 A 
ATOM     27  C   UNL A   1      38.867  30.728  29.882  1.00  0.00     0.016 A 
ATOM     28  C   UNL A   1      39.741  29.834  31.956  1.00  0.00     0.016 A 
ATOM     29  C   UNL A   1      40.052  30.422  29.230  1.00  0.00     0.010 A 
ATOM     30  C   UNL A   1      40.958  29.580  31.314  1.00  0.00     0.010 A 
ATOM     31  C   UNL A   1      41.110  29.846  29.940  1.00  0.00    -0.014 A 
BRANCH  31  32
ATOM     32  C   UNL A   1      42.362  29.495  29.230  1.00  0.00     0.031 A 
ATOM     33  C   UNL A   1      42.537  28.117  28.657  1.00  0.00     0.074 A 
ATOM     34  C   UNL A   1      43.326  30.422  29.076  1.00  0.00     0.049 A 
ATOM     35  N   UNL A   1      43.601  27.576  28.123  1.00  0.00    -0.248 NA
ATOM     36  C   UNL A   1      41.363  27.230  28.694  1.00  0.00     0.031 C 
ATOM     37  C   UNL A   1      43.244  31.814  29.525  1.00  0.00     0.029 A 
ATOM     38  N   UNL A   1      44.564  30.333  28.494  1.00  0.00    -0.354 N 
ATOM     39  C   UNL A   1      43.240  26.273  27.800  1.00  0.00     0.074 A 
ATOM     40  C   UNL A   1      41.858  26.106  28.196  1.00  0.00     0.031 C 
ATOM     41  C   UNL A   1      44.375  32.451  29.189  1.00  0.00     0.029 A 
ATOM     42  C   UNL A   1      45.288  31.499  28.564  1.00  0.00     0.049 A 
ATOM     43  H   UNL A   1      44.902  29.513  28.067  1.00  0.00     0.167 HD
ATOM     44  C   UNL A   1      43.996  25.306  27.229  1.00  0.00     0.031 A 
ATOM     45  C   UNL A   1      46.558  31.763  28.204  1.00  0.00     0.031 A 
ATOM     46  C   UNL A   1      45.366  25.487  26.825  1.00  0.00     0.049 A 
ATOM     47  C   UNL A   1      47.394  30.660  27.622  1.00  0.00     0.074 A 
ATOM     48  C   UNL A   1      46.224  24.568  26.249  1.00  0.00     0.029 A 
ATOM     49  N   UNL A   1      46.071  26.675  26.944  1.00  0.00    -0.354 N 
ATOM     50  N   UNL A   1      47.057  29.418  27.373  1.00  0.00    -0.248 NA
ATOM     51  C   UNL A   1      48.784  30.992  27.284  1.00  0.00     0.031 C 
ATOM     52  C   UNL A   1      47.462  25.190  26.053  1.00  0.00     0.029 A 
ATOM     53  C   UNL A   1      47.360  26.509  26.465  1.00  0.00     0.049 A 
ATOM     54  H   UNL A   1      45.710  27.512  27.314  1.00  0.00     0.167 HD
ATOM     55  C   UNL A   1      48.190  28.820  26.837  1.00  0.00     0.074 A 
ATOM     56  C   UNL A   1      49.218  29.841  26.785  1.00  0.00     0.031 C 
ATOM     57  C   UNL A   1      48.366  27.540  26.426  1.00  0.00     0.031 A 
BRANCH  44  58
ATOM     58  C   UNL A   1      43.370  23.948  27.065  1.00  0.00    -0.014 A 
ATOM     59  C   UNL A   1      43.177  23.091  28.163  1.00  0.00     0.010 A 
ATOM     60  C   UNL A   1      42.956  23.530  25.787  1.00  0.00     0.010 A 
ATOM     61  C   UNL A   1      42.622  21.821  27.978  1.00  0.00     0.020 A 
ATOM     62  C   UNL A   1      42.381  22.269  25.601  1.00  0.00     0.020 A 
ATOM     63  C   UNL A   1      42.236  21.416  26.696  1.00  0.00     0.054 A 
BRANCH  63  64
ATOM     64  S   UNL A   1      41.519  19.763  26.477  1.00  0.00     0.124 S 
ATOM     65  O   UNL A   1      41.945  19.087  27.700  1.00  0.00    -0.237 OA
ATOM     66  O   UNL A   1      40.088  20.041  26.377  1.00  0.00    -0.237 OA
ATOM     67  O   UNL A   1      42.142  19.277  25.247  1.00  0.00    -0.744 OA
ENDBRANCH  63  64
ENDBRANCH  44  58
BRANCH  45  68
ATOM     68  C   UNL A   1      47.118  33.122  28.428  1.00  0.00    -0.014 A 
ATOM     69  C   UNL A   1      47.900  33.395  29.562  1.00  0.00     0.010 A 
ATOM     70  C   UNL A   1      46.902  34.141  27.481  1.00  0.00     0.010 A 
ATOM     71  C   UNL A   1      48.455  34.664  29.748  1.00  0.00     0.020 A 
ATOM     72  C   UNL A   1      47.473  35.403  27.652  1.00  0.00     0.020 A 
ATOM     73  C   UNL A   1      48.241  35.660  28.790  1.00  0.00     0.054 A 
BRANCH  73  74
ATOM     74  S   UNL A   1      49.032  37.278  29.009  1.00  0.00     0.124 S 
ATOM     75  O   UNL A   1      49.578  37.530  27.680  1.00  0.00    -0.237 OA
ATOM     76  O   UNL A   1      47.914  38.130  29.407  1.00  0.00    -0.237 OA
ATOM     77  O   UNL A   1      50.020  37.033  30.059  1.00  0.00    -0.744 OA
ENDBRANCH  73  74
ENDBRANCH  45  68
BRANCH  57  78
ATOM     78  C   UNL A   1      49.711  27.182  25.859  1.00  0.00    -0.014 A 
ATOM     79  C   UNL A   1      50.013  27.422  24.507  1.00  0.00     0.010 A 
ATOM     80  C   UNL A   1      50.698  26.643  26.703  1.00  0.00     0.010 A 
ATOM     81  C   UNL A   1      51.276  27.106  24.003  1.00  0.00     0.020 A 
ATOM     82  C   UNL A   1      51.967  26.345  26.206  1.00  0.00     0.020 A 
ATOM     83  C   UNL A   1      52.245  26.565  24.856  1.00  0.00     0.054 A 
BRANCH  83  84
ATOM     84  S   UNL A   1      53.894  26.203  24.191  1.00  0.00     0.124 S 
ATOM     85  O   UNL A   1      54.656  27.371  24.621  1.00  0.00    -0.237 OA
ATOM     86  O   UNL A   1      54.242  24.948  24.852  1.00  0.00    -0.237 OA
ATOM     87  O   UNL A   1      53.669  26.100  22.751  1.00  0.00    -0.744 OA
ENDBRANCH  83  84
ENDBRANCH  57  78
ENDBRANCH  31  32
ENDBRANCH  24  26
ENDBRANCH  23  24
ENDBRANCH  22  23
ENDBRANCH   1  22
TORSDOF 18
ENDMDL
