MODEL 1
REMARK VINA RESULT:     -10.2      0.000      0.000
REMARK SMILES C#CCN(CC(=O)OCCOC(=O)c1ccc(-c2c3nc(c(-c4ccc(S(=O)(=O)[O-])cc4)c4ccc([nH]4)c(-c4ccc(S(=O)(=O)[O-])cc4)c4nc(c(-c5ccc(S(=O)(=O)[O-])cc5)c5ccc2[nH]5)C=C4)C=C3)cc1)C(=O)c1cc([N+](=O)[O-])c(F)cc1F
REMARK SMILES IDX 9 1 8 2 6 3 7 4 5 5 4 6 3 7 2 8 1 9 74 10 75 11 76 12 77 13
REMARK SMILES IDX 85 14 78 15 84 16 86 17 82 18 83 19 79 20 80 21 81 22 10 23
REMARK SMILES IDX 11 24 12 25 13 26 14 27 15 28 73 29 16 30 72 31 17 32 18 33
REMARK SMILES IDX 19 34 66 35 20 36 71 37 65 38 67 39 21 40 70 41 64 42 63 43
REMARK SMILES IDX 22 45 52 46 33 47 51 48 34 49 37 50 50 51 68 52 35 53 36 54
REMARK SMILES IDX 49 56 69 57 38 58 23 59 24 60 32 61 25 62 31 63 26 64 27 65
REMARK SMILES IDX 28 66 29 67 30 68 53 69 54 70 62 71 55 72 61 73 56 74 57 75
REMARK SMILES IDX 58 76 59 77 60 78 39 79 40 80 48 81 41 82 47 83 42 84 43 85
REMARK SMILES IDX 44 86 45 87 46 88
REMARK H PARENT 67 44 37 55
REMARK Flexibility Score: inf
ROOT
ATOM      1  C   UNL A   1      37.168  22.442  25.840  1.00  0.00     0.274 C 
ENDROOT
BRANCH   1   2
ATOM      2  O   UNL A   1      36.579  23.467  25.013  1.00  0.00    -0.461 OA
BRANCH   2   3
ATOM      3  C   UNL A   1      35.964  23.017  23.885  1.00  0.00     0.325 C 
ATOM      4  O   UNL A   1      36.315  23.294  22.744  1.00  0.00    -0.250 OA
BRANCH   3   5
ATOM      5  C   UNL A   1      34.934  21.925  24.178  1.00  0.00     0.243 C 
BRANCH   5   6
ATOM      6  N   UNL A   1      33.545  22.327  24.004  1.00  0.00    -0.316 N 
BRANCH   6   7
ATOM      7  C   UNL A   1      32.604  21.723  24.930  1.00  0.00     0.210 C 
BRANCH   7   8
ATOM      8  C   UNL A   1      32.954  22.169  26.340  1.00  0.00    -0.085 C 
ATOM      9  C   UNL A   1      33.254  22.551  27.549  1.00  0.00     0.006 C 
ENDBRANCH   7   8
ENDBRANCH   6   7
BRANCH   6  10
ATOM     10  C   UNL A   1      33.036  23.179  23.028  1.00  0.00     0.258 C 
ATOM     11  O   UNL A   1      32.962  22.874  21.840  1.00  0.00    -0.269 OA
BRANCH  10  12
ATOM     12  C   UNL A   1      32.487  24.493  23.400  1.00  0.00     0.082 A 
ATOM     13  C   UNL A   1      33.329  25.540  23.799  1.00  0.00     0.105 A 
ATOM     14  C   UNL A   1      31.099  24.640  23.481  1.00  0.00     0.139 A 
ATOM     15  C   UNL A   1      32.749  26.748  24.218  1.00  0.00     0.305 A 
ATOM     16  C   UNL A   1      30.535  25.837  23.917  1.00  0.00     0.086 A 
ATOM     17  F   UNL A   1      30.282  23.646  23.105  1.00  0.00    -0.206 F 
ATOM     18  C   UNL A   1      31.364  26.898  24.273  1.00  0.00     0.203 A 
ATOM     19  F   UNL A   1      30.789  28.038  24.677  1.00  0.00    -0.199 F 
BRANCH  15  20
ATOM     20  N   UNL A   1      33.607  27.856  24.603  1.00  0.00     0.065 N 
ATOM     21  O   UNL A   1      33.824  27.998  25.814  1.00  0.00    -0.258 OA
ATOM     22  O   UNL A   1      34.109  28.543  23.707  1.00  0.00    -0.258 OA
ENDBRANCH  15  20
ENDBRANCH  10  12
ENDBRANCH   6  10
ENDBRANCH   5   6
ENDBRANCH   3   5
ENDBRANCH   2   3
ENDBRANCH   1   2
BRANCH   1  23
ATOM     23  C   UNL A   1      38.648  22.723  26.115  1.00  0.00     0.275 C 
BRANCH  23  24
ATOM     24  O   UNL A   1      38.880  24.119  26.396  1.00  0.00    -0.458 OA
BRANCH  24  25
ATOM     25  C   UNL A   1      40.143  24.395  26.776  1.00  0.00     0.338 C 
ATOM     26  O   UNL A   1      41.162  23.871  26.342  1.00  0.00    -0.246 OA
BRANCH  25  27
ATOM     27  C   UNL A   1      40.249  25.464  27.769  1.00  0.00     0.060 A 
ATOM     28  C   UNL A   1      39.355  25.541  28.839  1.00  0.00     0.016 A 
ATOM     29  C   UNL A   1      41.116  26.522  27.490  1.00  0.00     0.016 A 
ATOM     30  C   UNL A   1      39.298  26.700  29.609  1.00  0.00     0.010 A 
ATOM     31  C   UNL A   1      41.116  27.646  28.309  1.00  0.00     0.010 A 
ATOM     32  C   UNL A   1      40.210  27.741  29.375  1.00  0.00    -0.014 A 
BRANCH  32  33
ATOM     33  C   UNL A   1      40.373  28.830  30.362  1.00  0.00     0.031 A 
ATOM     34  C   UNL A   1      41.354  28.737  31.487  1.00  0.00     0.074 A 
ATOM     35  C   UNL A   1      39.517  29.864  30.265  1.00  0.00     0.049 A 
ATOM     36  N   UNL A   1      41.456  29.488  32.552  1.00  0.00    -0.248 NA
ATOM     37  C   UNL A   1      42.350  27.660  31.414  1.00  0.00     0.031 C 
ATOM     38  C   UNL A   1      38.527  30.041  29.197  1.00  0.00     0.029 A 
ATOM     39  N   UNL A   1      39.317  30.939  31.087  1.00  0.00    -0.354 N 
ATOM     40  C   UNL A   1      42.507  28.957  33.292  1.00  0.00     0.074 A 
ATOM     41  C   UNL A   1      43.011  27.819  32.554  1.00  0.00     0.031 C 
ATOM     42  C   UNL A   1      37.816  31.150  29.436  1.00  0.00     0.029 A 
ATOM     43  C   UNL A   1      38.251  31.716  30.704  1.00  0.00     0.049 A 
ATOM     44  H   UNL A   1      39.878  31.135  31.872  1.00  0.00     0.167 HD
ATOM     45  C   UNL A   1      42.994  29.387  34.482  1.00  0.00     0.031 A 
ATOM     46  C   UNL A   1      37.645  32.738  31.332  1.00  0.00     0.031 A 
ATOM     47  C   UNL A   1      42.471  30.529  35.188  1.00  0.00     0.049 A 
ATOM     48  C   UNL A   1      38.163  33.163  32.667  1.00  0.00     0.074 A 
ATOM     49  C   UNL A   1      42.911  31.086  36.376  1.00  0.00     0.029 A 
ATOM     50  N   UNL A   1      41.386  31.286  34.769  1.00  0.00    -0.354 N 
ATOM     51  N   UNL A   1      39.154  32.652  33.358  1.00  0.00    -0.248 NA
ATOM     52  C   UNL A   1      37.481  34.288  33.313  1.00  0.00     0.031 C 
ATOM     53  C   UNL A   1      42.069  32.159  36.693  1.00  0.00     0.029 A 
ATOM     54  C   UNL A   1      41.127  32.293  35.683  1.00  0.00     0.049 A 
ATOM     55  H   UNL A   1      40.876  31.132  33.941  1.00  0.00     0.167 HD
ATOM     56  C   UNL A   1      39.219  33.395  34.525  1.00  0.00     0.074 A 
ATOM     57  C   UNL A   1      38.175  34.400  34.438  1.00  0.00     0.031 C 
ATOM     58  C   UNL A   1      40.065  33.260  35.575  1.00  0.00     0.031 A 
BRANCH  45  59
ATOM     59  C   UNL A   1      44.126  28.613  35.107  1.00  0.00    -0.014 A 
ATOM     60  C   UNL A   1      45.467  28.931  34.831  1.00  0.00     0.010 A 
ATOM     61  C   UNL A   1      43.843  27.596  36.038  1.00  0.00     0.010 A 
ATOM     62  C   UNL A   1      46.505  28.231  35.455  1.00  0.00     0.020 A 
ATOM     63  C   UNL A   1      44.878  26.904  36.676  1.00  0.00     0.020 A 
ATOM     64  C   UNL A   1      46.205  27.218  36.372  1.00  0.00     0.054 A 
BRANCH  64  65
ATOM     65  S   UNL A   1      47.566  26.351  37.204  1.00  0.00     0.124 S 
ATOM     66  O   UNL A   1      48.734  26.882  36.506  1.00  0.00    -0.237 OA
ATOM     67  O   UNL A   1      47.421  26.777  38.595  1.00  0.00    -0.237 OA
ATOM     68  O   UNL A   1      47.280  24.940  36.958  1.00  0.00    -0.744 OA
ENDBRANCH  64  65
ENDBRANCH  45  59
BRANCH  46  69
ATOM     69  C   UNL A   1      36.459  33.362  30.696  1.00  0.00    -0.014 A 
ATOM     70  C   UNL A   1      35.252  33.468  31.403  1.00  0.00     0.010 A 
ATOM     71  C   UNL A   1      36.579  33.975  29.435  1.00  0.00     0.010 A 
ATOM     72  C   UNL A   1      34.186  34.196  30.867  1.00  0.00     0.020 A 
ATOM     73  C   UNL A   1      35.523  34.720  28.906  1.00  0.00     0.020 A 
ATOM     74  C   UNL A   1      34.332  34.826  29.627  1.00  0.00     0.054 A 
BRANCH  74  75
ATOM     75  S   UNL A   1      32.986  35.873  29.005  1.00  0.00     0.124 S 
ATOM     76  O   UNL A   1      33.719  36.955  28.356  1.00  0.00    -0.237 OA
ATOM     77  O   UNL A   1      32.264  34.971  28.111  1.00  0.00    -0.237 OA
ATOM     78  O   UNL A   1      32.259  36.244  30.217  1.00  0.00    -0.744 OA
ENDBRANCH  74  75
ENDBRANCH  46  69
BRANCH  58  79
ATOM     79  C   UNL A   1      39.884  34.230  36.704  1.00  0.00    -0.014 A 
ATOM     80  C   UNL A   1      40.456  35.513  36.640  1.00  0.00     0.010 A 
ATOM     81  C   UNL A   1      39.119  33.862  37.823  1.00  0.00     0.010 A 
ATOM     82  C   UNL A   1      40.286  36.407  37.698  1.00  0.00     0.020 A 
ATOM     83  C   UNL A   1      38.935  34.761  38.875  1.00  0.00     0.020 A 
ATOM     84  C   UNL A   1      39.532  36.023  38.811  1.00  0.00     0.054 A 
BRANCH  84  85
ATOM     85  S   UNL A   1      39.298  37.208  40.163  1.00  0.00     0.124 S 
ATOM     86  O   UNL A   1      40.676  37.514  40.538  1.00  0.00    -0.237 OA
ATOM     87  O   UNL A   1      38.565  38.296  39.519  1.00  0.00    -0.237 OA
ATOM     88  O   UNL A   1      38.535  36.453  41.154  1.00  0.00    -0.744 OA
ENDBRANCH  84  85
ENDBRANCH  58  79
ENDBRANCH  32  33
ENDBRANCH  25  27
ENDBRANCH  24  25
ENDBRANCH  23  24
ENDBRANCH   1  23
TORSDOF 20
ENDMDL
MODEL 2
REMARK VINA RESULT:     -10.0      4.974     10.431
REMARK SMILES C#CCN(CC(=O)OCCOC(=O)c1ccc(-c2c3nc(c(-c4ccc(S(=O)(=O)[O-])cc4)c4ccc([nH]4)c(-c4ccc(S(=O)(=O)[O-])cc4)c4nc(c(-c5ccc(S(=O)(=O)[O-])cc5)c5ccc2[nH]5)C=C4)C=C3)cc1)C(=O)c1cc([N+](=O)[O-])c(F)cc1F
REMARK SMILES IDX 9 1 8 2 6 3 7 4 5 5 4 6 3 7 2 8 1 9 74 10 75 11 76 12 77 13
REMARK SMILES IDX 85 14 78 15 84 16 86 17 82 18 83 19 79 20 80 21 81 22 10 23
REMARK SMILES IDX 11 24 12 25 13 26 14 27 15 28 73 29 16 30 72 31 17 32 18 33
REMARK SMILES IDX 19 34 66 35 20 36 71 37 65 38 67 39 21 40 70 41 64 42 63 43
REMARK SMILES IDX 22 45 52 46 33 47 51 48 34 49 37 50 50 51 68 52 35 53 36 54
REMARK SMILES IDX 49 56 69 57 38 58 23 59 24 60 32 61 25 62 31 63 26 64 27 65
REMARK SMILES IDX 28 66 29 67 30 68 53 69 54 70 62 71 55 72 61 73 56 74 57 75
REMARK SMILES IDX 58 76 59 77 60 78 39 79 40 80 48 81 41 82 47 83 42 84 43 85
REMARK SMILES IDX 44 86 45 87 46 88
REMARK H PARENT 67 44 37 55
REMARK Flexibility Score: inf
ROOT
ATOM      1  C   UNL A   1      31.872  28.928  25.766  1.00  0.00     0.274 C 
ENDROOT
BRANCH   1   2
ATOM      2  O   UNL A   1      32.956  28.197  25.155  1.00  0.00    -0.461 OA
BRANCH   2   3
ATOM      3  C   UNL A   1      32.578  27.265  24.238  1.00  0.00     0.325 C 
ATOM      4  O   UNL A   1      32.083  27.524  23.146  1.00  0.00    -0.250 OA
BRANCH   3   5
ATOM      5  C   UNL A   1      33.061  25.860  24.599  1.00  0.00     0.243 C 
BRANCH   5   6
ATOM      6  N   UNL A   1      32.403  24.779  23.879  1.00  0.00    -0.316 N 
BRANCH   6   7
ATOM      7  C   UNL A   1      30.987  24.620  24.156  1.00  0.00     0.210 C 
BRANCH   7   8
ATOM      8  C   UNL A   1      30.829  23.905  25.488  1.00  0.00    -0.085 C 
ATOM      9  C   UNL A   1      30.693  23.292  26.630  1.00  0.00     0.006 C 
ENDBRANCH   7   8
ENDBRANCH   6   7
BRANCH   6  10
ATOM     10  C   UNL A   1      32.996  23.872  23.006  1.00  0.00     0.258 C 
ATOM     11  O   UNL A   1      33.169  24.102  21.811  1.00  0.00    -0.269 OA
BRANCH  10  12
ATOM     12  C   UNL A   1      33.518  22.590  23.506  1.00  0.00     0.082 A 
ATOM     13  C   UNL A   1      32.716  21.440  23.516  1.00  0.00     0.105 A 
ATOM     14  C   UNL A   1      34.784  22.566  24.097  1.00  0.00     0.139 A 
ATOM     15  C   UNL A   1      33.236  20.262  24.075  1.00  0.00     0.305 A 
ATOM     16  C   UNL A   1      35.282  21.396  24.667  1.00  0.00     0.086 A 
ATOM     17  F   UNL A   1      35.560  23.659  24.096  1.00  0.00    -0.206 F 
ATOM     18  C   UNL A   1      34.510  20.238  24.642  1.00  0.00     0.203 A 
ATOM     19  F   UNL A   1      35.023  19.127  25.189  1.00  0.00    -0.199 F 
BRANCH  15  20
ATOM     20  N   UNL A   1      32.432  19.052  24.066  1.00  0.00     0.065 N 
ATOM     21  O   UNL A   1      32.258  18.505  22.969  1.00  0.00    -0.258 OA
ATOM     22  O   UNL A   1      32.027  18.613  25.149  1.00  0.00    -0.258 OA
ENDBRANCH  15  20
ENDBRANCH  10  12
ENDBRANCH   6  10
ENDBRANCH   5   6
ENDBRANCH   3   5
ENDBRANCH   2   3
ENDBRANCH   1   2
BRANCH   1  23
ATOM     23  C   UNL A   1      32.173  29.257  27.231  1.00  0.00     0.275 C 
BRANCH  23  24
ATOM     24  O   UNL A   1      33.545  28.965  27.571  1.00  0.00    -0.458 OA
BRANCH  24  25
ATOM     25  C   UNL A   1      34.274  30.056  27.875  1.00  0.00     0.338 C 
ATOM     26  O   UNL A   1      33.870  31.213  27.908  1.00  0.00    -0.246 OA
BRANCH  25  27
ATOM     27  C   UNL A   1      35.661  29.767  28.239  1.00  0.00     0.060 A 
ATOM     28  C   UNL A   1      36.005  29.443  29.553  1.00  0.00     0.016 A 
ATOM     29  C   UNL A   1      36.649  30.046  27.293  1.00  0.00     0.016 A 
ATOM     30  C   UNL A   1      37.345  29.439  29.934  1.00  0.00     0.010 A 
ATOM     31  C   UNL A   1      37.990  29.962  27.654  1.00  0.00     0.010 A 
ATOM     32  C   UNL A   1      38.346  29.655  28.975  1.00  0.00    -0.014 A 
BRANCH  32  33
ATOM     33  C   UNL A   1      39.759  29.352  29.286  1.00  0.00     0.031 A 
ATOM     34  C   UNL A   1      40.716  30.413  29.732  1.00  0.00     0.074 A 
ATOM     35  C   UNL A   1      40.174  28.094  29.045  1.00  0.00     0.049 A 
ATOM     36  N   UNL A   1      42.019  30.358  29.820  1.00  0.00    -0.248 NA
ATOM     37  C   UNL A   1      40.140  31.704  30.126  1.00  0.00     0.031 C 
ATOM     38  C   UNL A   1      39.309  26.991  28.612  1.00  0.00     0.029 A 
ATOM     39  N   UNL A   1      41.423  27.540  29.094  1.00  0.00    -0.354 N 
ATOM     40  C   UNL A   1      42.423  31.618  30.250  1.00  0.00     0.074 A 
ATOM     41  C   UNL A   1      41.225  32.415  30.405  1.00  0.00     0.031 C 
ATOM     42  C   UNL A   1      40.056  25.896  28.422  1.00  0.00     0.029 A 
ATOM     43  C   UNL A   1      41.451  26.240  28.650  1.00  0.00     0.049 A 
ATOM     44  H   UNL A   1      42.220  28.022  29.414  1.00  0.00     0.167 HD
ATOM     45  C   UNL A   1      43.683  32.057  30.486  1.00  0.00     0.031 A 
ATOM     46  C   UNL A   1      42.490  25.428  28.392  1.00  0.00     0.031 A 
ATOM     47  C   UNL A   1      44.854  31.234  30.327  1.00  0.00     0.049 A 
ATOM     48  C   UNL A   1      43.874  25.948  28.606  1.00  0.00     0.074 A 
ATOM     49  C   UNL A   1      46.177  31.553  30.579  1.00  0.00     0.029 A 
ATOM     50  N   UNL A   1      44.841  29.923  29.869  1.00  0.00    -0.354 N 
ATOM     51  N   UNL A   1      44.243  27.140  29.010  1.00  0.00    -0.248 NA
ATOM     52  C   UNL A   1      44.977  25.027  28.324  1.00  0.00     0.031 C 
ATOM     53  C   UNL A   1      46.966  30.448  30.239  1.00  0.00     0.029 A 
ATOM     54  C   UNL A   1      46.131  29.426  29.810  1.00  0.00     0.049 A 
ATOM     55  H   UNL A   1      44.031  29.420  29.623  1.00  0.00     0.167 HD
ATOM     56  C   UNL A   1      45.628  27.116  29.032  1.00  0.00     0.074 A 
ATOM     57  C   UNL A   1      46.027  25.784  28.615  1.00  0.00     0.031 C 
ATOM     58  C   UNL A   1      46.493  28.104  29.368  1.00  0.00     0.031 A 
BRANCH  45  59
ATOM     59  C   UNL A   1      43.866  33.490  30.913  1.00  0.00    -0.014 A 
ATOM     60  C   UNL A   1      43.947  33.842  32.272  1.00  0.00     0.010 A 
ATOM     61  C   UNL A   1      44.029  34.493  29.938  1.00  0.00     0.010 A 
ATOM     62  C   UNL A   1      44.163  35.172  32.649  1.00  0.00     0.020 A 
ATOM     63  C   UNL A   1      44.261  35.821  30.311  1.00  0.00     0.020 A 
ATOM     64  C   UNL A   1      44.314  36.156  31.666  1.00  0.00     0.054 A 
BRANCH  64  65
ATOM     65  S   UNL A   1      44.637  37.868  32.176  1.00  0.00     0.124 S 
ATOM     66  O   UNL A   1      45.160  38.457  30.946  1.00  0.00    -0.237 OA
ATOM     67  O   UNL A   1      43.316  38.341  32.585  1.00  0.00    -0.237 OA
ATOM     68  O   UNL A   1      45.605  37.729  33.262  1.00  0.00    -0.744 OA
ENDBRANCH  64  65
ENDBRANCH  45  59
BRANCH  46  69
ATOM     69  C   UNL A   1      42.218  24.071  27.856  1.00  0.00    -0.014 A 
ATOM     70  C   UNL A   1      42.125  23.864  26.471  1.00  0.00     0.010 A 
ATOM     71  C   UNL A   1      42.191  22.965  28.725  1.00  0.00     0.010 A 
ATOM     72  C   UNL A   1      42.028  22.567  25.961  1.00  0.00     0.020 A 
ATOM     73  C   UNL A   1      42.116  21.667  28.217  1.00  0.00     0.020 A 
ATOM     74  C   UNL A   1      42.035  21.476  26.836  1.00  0.00     0.054 A 
BRANCH  74  75
ATOM     75  S   UNL A   1      42.041  19.795  26.151  1.00  0.00     0.124 S 
ATOM     76  O   UNL A   1      40.670  19.660  25.669  1.00  0.00    -0.237 OA
ATOM     77  O   UNL A   1      43.071  19.873  25.118  1.00  0.00    -0.237 OA
ATOM     78  O   UNL A   1      42.389  18.962  27.300  1.00  0.00    -0.744 OA
ENDBRANCH  74  75
ENDBRANCH  46  69
BRANCH  58  79
ATOM     79  C   UNL A   1      47.951  27.765  29.293  1.00  0.00    -0.014 A 
ATOM     80  C   UNL A   1      48.670  27.967  28.103  1.00  0.00     0.010 A 
ATOM     81  C   UNL A   1      48.608  27.261  30.428  1.00  0.00     0.010 A 
ATOM     82  C   UNL A   1      50.026  27.643  28.041  1.00  0.00     0.020 A 
ATOM     83  C   UNL A   1      49.968  26.951  30.373  1.00  0.00     0.020 A 
ATOM     84  C   UNL A   1      50.664  27.131  29.175  1.00  0.00     0.054 A 
BRANCH  84  85
ATOM     85  S   UNL A   1      52.433  26.744  29.085  1.00  0.00     0.124 S 
ATOM     86  O   UNL A   1      52.510  25.966  27.851  1.00  0.00    -0.237 OA
ATOM     87  O   UNL A   1      53.055  28.065  29.036  1.00  0.00    -0.237 OA
ATOM     88  O   UNL A   1      52.684  25.991  30.313  1.00  0.00    -0.744 OA
ENDBRANCH  84  85
ENDBRANCH  58  79
ENDBRANCH  32  33
ENDBRANCH  25  27
ENDBRANCH  24  25
ENDBRANCH  23  24
ENDBRANCH   1  23
TORSDOF 20
ENDMDL
MODEL 3
REMARK VINA RESULT:      -9.9      1.182      2.084
REMARK SMILES C#CCN(CC(=O)OCCOC(=O)c1ccc(-c2c3nc(c(-c4ccc(S(=O)(=O)[O-])cc4)c4ccc([nH]4)c(-c4ccc(S(=O)(=O)[O-])cc4)c4nc(c(-c5ccc(S(=O)(=O)[O-])cc5)c5ccc2[nH]5)C=C4)C=C3)cc1)C(=O)c1cc([N+](=O)[O-])c(F)cc1F
REMARK SMILES IDX 9 1 8 2 6 3 7 4 5 5 4 6 3 7 2 8 1 9 74 10 75 11 76 12 77 13
REMARK SMILES IDX 85 14 78 15 84 16 86 17 82 18 83 19 79 20 80 21 81 22 10 23
REMARK SMILES IDX 11 24 12 25 13 26 14 27 15 28 73 29 16 30 72 31 17 32 18 33
REMARK SMILES IDX 19 34 66 35 20 36 71 37 65 38 67 39 21 40 70 41 64 42 63 43
REMARK SMILES IDX 22 45 52 46 33 47 51 48 34 49 37 50 50 51 68 52 35 53 36 54
REMARK SMILES IDX 49 56 69 57 38 58 23 59 24 60 32 61 25 62 31 63 26 64 27 65
REMARK SMILES IDX 28 66 29 67 30 68 53 69 54 70 62 71 55 72 61 73 56 74 57 75
REMARK SMILES IDX 58 76 59 77 60 78 39 79 40 80 48 81 41 82 47 83 42 84 43 85
REMARK SMILES IDX 44 86 45 87 46 88
REMARK H PARENT 67 44 37 55
REMARK Flexibility Score: inf
ROOT
ATOM      1  C   UNL A   1      37.256  22.494  25.846  1.00  0.00     0.274 C 
ENDROOT
BRANCH   1   2
ATOM      2  O   UNL A   1      36.706  23.229  24.734  1.00  0.00    -0.461 OA
BRANCH   2   3
ATOM      3  C   UNL A   1      35.355  23.137  24.592  1.00  0.00     0.325 C 
ATOM      4  O   UNL A   1      34.677  22.196  24.990  1.00  0.00    -0.250 OA
BRANCH   3   5
ATOM      5  C   UNL A   1      34.728  24.443  24.104  1.00  0.00     0.243 C 
BRANCH   5   6
ATOM      6  N   UNL A   1      33.310  24.593  24.400  1.00  0.00    -0.316 N 
BRANCH   6   7
ATOM      7  C   UNL A   1      32.406  24.080  23.386  1.00  0.00     0.210 C 
BRANCH   7   8
ATOM      8  C   UNL A   1      32.496  24.971  22.158  1.00  0.00    -0.085 C 
ATOM      9  C   UNL A   1      32.574  25.735  21.105  1.00  0.00     0.006 C 
ENDBRANCH   7   8
ENDBRANCH   6   7
BRANCH   6  10
ATOM     10  C   UNL A   1      32.749  25.210  25.514  1.00  0.00     0.258 C 
ATOM     11  O   UNL A   1      32.390  24.594  26.515  1.00  0.00    -0.269 OA
BRANCH  10  12
ATOM     12  C   UNL A   1      32.621  26.675  25.569  1.00  0.00     0.082 A 
ATOM     13  C   UNL A   1      33.535  27.451  26.294  1.00  0.00     0.105 A 
ATOM     14  C   UNL A   1      31.493  27.271  24.998  1.00  0.00     0.139 A 
ATOM     15  C   UNL A   1      33.324  28.837  26.379  1.00  0.00     0.305 A 
ATOM     16  C   UNL A   1      31.283  28.645  25.105  1.00  0.00     0.086 A 
ATOM     17  F   UNL A   1      30.610  26.540  24.304  1.00  0.00    -0.206 F 
ATOM     18  C   UNL A   1      32.209  29.430  25.786  1.00  0.00     0.203 A 
ATOM     19  F   UNL A   1      31.982  30.749  25.861  1.00  0.00    -0.199 F 
BRANCH  15  20
ATOM     20  N   UNL A   1      34.278  29.663  27.098  1.00  0.00     0.065 N 
ATOM     21  O   UNL A   1      35.449  29.264  27.130  1.00  0.00    -0.258 OA
ATOM     22  O   UNL A   1      33.879  30.731  27.577  1.00  0.00    -0.258 OA
ENDBRANCH  15  20
ENDBRANCH  10  12
ENDBRANCH   6  10
ENDBRANCH   5   6
ENDBRANCH   3   5
ENDBRANCH   2   3
ENDBRANCH   1   2
BRANCH   1  23
ATOM     23  C   UNL A   1      38.701  22.910  26.136  1.00  0.00     0.275 C 
BRANCH  23  24
ATOM     24  O   UNL A   1      38.778  24.277  26.595  1.00  0.00    -0.458 OA
BRANCH  24  25
ATOM     25  C   UNL A   1      40.036  24.746  26.700  1.00  0.00     0.338 C 
ATOM     26  O   UNL A   1      41.010  24.360  26.063  1.00  0.00    -0.246 OA
BRANCH  25  27
ATOM     27  C   UNL A   1      40.185  25.853  27.644  1.00  0.00     0.060 A 
ATOM     28  C   UNL A   1      41.308  26.682  27.606  1.00  0.00     0.016 A 
ATOM     29  C   UNL A   1      39.293  25.912  28.716  1.00  0.00     0.016 A 
ATOM     30  C   UNL A   1      41.564  27.547  28.668  1.00  0.00     0.010 A 
ATOM     31  C   UNL A   1      39.505  26.834  29.737  1.00  0.00     0.010 A 
ATOM     32  C   UNL A   1      40.639  27.658  29.717  1.00  0.00    -0.014 A 
BRANCH  32  33
ATOM     33  C   UNL A   1      40.732  28.776  30.681  1.00  0.00     0.031 A 
ATOM     34  C   UNL A   1      41.675  28.742  31.842  1.00  0.00     0.074 A 
ATOM     35  C   UNL A   1      39.849  29.780  30.528  1.00  0.00     0.049 A 
ATOM     36  N   UNL A   1      41.715  29.522  32.891  1.00  0.00    -0.248 NA
ATOM     37  C   UNL A   1      42.706  27.697  31.831  1.00  0.00     0.031 C 
ATOM     38  C   UNL A   1      38.892  29.898  29.422  1.00  0.00     0.029 A 
ATOM     39  N   UNL A   1      39.585  30.867  31.315  1.00  0.00    -0.354 N 
ATOM     40  C   UNL A   1      42.755  29.043  33.681  1.00  0.00     0.074 A 
ATOM     41  C   UNL A   1      43.320  27.904  32.989  1.00  0.00     0.031 C 
ATOM     42  C   UNL A   1      38.138  30.989  29.607  1.00  0.00     0.029 A 
ATOM     43  C   UNL A   1      38.510  31.600  30.875  1.00  0.00     0.049 A 
ATOM     44  H   UNL A   1      40.112  31.100  32.113  1.00  0.00     0.167 HD
ATOM     45  C   UNL A   1      43.184  29.517  34.875  1.00  0.00     0.031 A 
ATOM     46  C   UNL A   1      37.850  32.617  31.455  1.00  0.00     0.031 A 
ATOM     47  C   UNL A   1      42.602  30.658  35.533  1.00  0.00     0.049 A 
ATOM     48  C   UNL A   1      38.306  33.090  32.797  1.00  0.00     0.074 A 
ATOM     49  C   UNL A   1      42.980  31.259  36.721  1.00  0.00     0.029 A 
ATOM     50  N   UNL A   1      41.509  31.370  35.057  1.00  0.00    -0.354 N 
ATOM     51  N   UNL A   1      39.287  32.628  33.534  1.00  0.00    -0.248 NA
ATOM     52  C   UNL A   1      37.566  34.208  33.389  1.00  0.00     0.031 C 
ATOM     53  C   UNL A   1      42.094  32.311  36.981  1.00  0.00     0.029 A 
ATOM     54  C   UNL A   1      41.186  32.390  35.936  1.00  0.00     0.049 A 
ATOM     55  H   UNL A   1      41.034  31.179  34.216  1.00  0.00     0.167 HD
ATOM     56  C   UNL A   1      39.287  33.401  34.684  1.00  0.00     0.074 A 
ATOM     57  C   UNL A   1      38.215  34.369  34.534  1.00  0.00     0.031 C 
ATOM     58  C   UNL A   1      40.099  33.319  35.767  1.00  0.00     0.031 A 
BRANCH  45  59
ATOM     59  C   UNL A   1      44.317  28.796  35.559  1.00  0.00    -0.014 A 
ATOM     60  C   UNL A   1      44.077  27.711  36.420  1.00  0.00     0.010 A 
ATOM     61  C   UNL A   1      45.647  29.165  35.282  1.00  0.00     0.010 A 
ATOM     62  C   UNL A   1      45.144  27.024  37.011  1.00  0.00     0.020 A 
ATOM     63  C   UNL A   1      46.716  28.471  35.857  1.00  0.00     0.020 A 
ATOM     64  C   UNL A   1      46.458  27.411  36.729  1.00  0.00     0.054 A 
BRANCH  64  65
ATOM     65  S   UNL A   1      47.828  26.479  37.471  1.00  0.00     0.124 S 
ATOM     66  O   UNL A   1      47.534  26.592  38.897  1.00  0.00    -0.237 OA
ATOM     67  O   UNL A   1      47.659  25.144  36.901  1.00  0.00    -0.237 OA
ATOM     68  O   UNL A   1      49.019  27.195  37.020  1.00  0.00    -0.744 OA
ENDBRANCH  64  65
ENDBRANCH  45  59
BRANCH  46  69
ATOM     69  C   UNL A   1      36.668  33.186  30.762  1.00  0.00    -0.014 A 
ATOM     70  C   UNL A   1      35.390  33.066  31.330  1.00  0.00     0.010 A 
ATOM     71  C   UNL A   1      36.842  33.970  29.606  1.00  0.00     0.010 A 
ATOM     72  C   UNL A   1      34.305  33.738  30.762  1.00  0.00     0.020 A 
ATOM     73  C   UNL A   1      35.763  34.658  29.049  1.00  0.00     0.020 A 
ATOM     74  C   UNL A   1      34.500  34.538  29.631  1.00  0.00     0.054 A 
BRANCH  74  75
ATOM     75  S   UNL A   1      33.106  35.506  28.984  1.00  0.00     0.124 S 
ATOM     76  O   UNL A   1      33.789  36.585  28.278  1.00  0.00    -0.237 OA
ATOM     77  O   UNL A   1      32.409  34.539  28.140  1.00  0.00    -0.237 OA
ATOM     78  O   UNL A   1      32.381  35.901  30.189  1.00  0.00    -0.744 OA
ENDBRANCH  74  75
ENDBRANCH  46  69
BRANCH  58  79
ATOM     79  C   UNL A   1      39.847  34.310  36.863  1.00  0.00    -0.014 A 
ATOM     80  C   UNL A   1      39.098  33.946  37.995  1.00  0.00     0.010 A 
ATOM     81  C   UNL A   1      40.382  35.606  36.768  1.00  0.00     0.010 A 
ATOM     82  C   UNL A   1      38.864  34.877  39.008  1.00  0.00     0.020 A 
ATOM     83  C   UNL A   1      40.162  36.534  37.787  1.00  0.00     0.020 A 
ATOM     84  C   UNL A   1      39.393  36.167  38.894  1.00  0.00     0.054 A 
BRANCH  84  85
ATOM     85  S   UNL A   1      39.103  37.353  40.233  1.00  0.00     0.124 S 
ATOM     86  O   UNL A   1      38.427  36.526  41.229  1.00  0.00    -0.237 OA
ATOM     87  O   UNL A   1      40.454  37.784  40.585  1.00  0.00    -0.237 OA
ATOM     88  O   UNL A   1      38.272  38.381  39.609  1.00  0.00    -0.744 OA
ENDBRANCH  84  85
ENDBRANCH  58  79
ENDBRANCH  32  33
ENDBRANCH  25  27
ENDBRANCH  24  25
ENDBRANCH  23  24
ENDBRANCH   1  23
TORSDOF 20
ENDMDL
