MODEL 1
REMARK VINA RESULT:      -9.1      0.000      0.000
REMARK SMILES Nc1nc(CC(=O)N(CC(=O)OCCOC(=O)c2ccc(-c3c4nc(c(-c5ccc(S(=O)(=O)[O-])cc5)c5ccc([nH]5)c(-c5ccc(S(=O)(=O)[O-])cc5)c5nc(c(-c6ccc(S(=O)(=O)[O-])cc6)c6ccc3[nH]6)C=C5)C=C4)cc2)CC(F)(F)F)cs1
REMARK SMILES IDX 13 1 12 2 10 3 11 4 9 5 8 6 6 7 7 8 5 9 4 10 2 11 3 12 84 13
REMARK SMILES IDX 83 14 1 15 78 18 79 19 80 20 81 21 82 22 14 23 15 24 16 25
REMARK SMILES IDX 17 26 18 27 19 28 77 29 20 30 76 31 21 32 22 33 23 34 70 35
REMARK SMILES IDX 24 36 75 37 69 38 71 39 25 40 74 41 68 42 67 43 26 45 56 46
REMARK SMILES IDX 37 47 55 48 38 49 41 50 54 51 72 52 39 53 40 54 53 56 73 57
REMARK SMILES IDX 42 58 27 59 28 60 36 61 29 62 35 63 30 64 31 65 32 66 33 67
REMARK SMILES IDX 34 68 57 69 58 70 66 71 59 72 65 73 60 74 61 75 62 76 63 77
REMARK SMILES IDX 64 78 43 79 44 80 52 81 45 82 51 83 46 84 47 85 48 86 49 87
REMARK SMILES IDX 50 88
REMARK H PARENT 1 16 1 17 71 44 41 55
REMARK Flexibility Score: inf
ROOT
ATOM      1  C   UNL A   1      35.942  22.018  24.296  1.00  0.00     0.274 C 
ENDROOT
BRANCH   1   2
ATOM      2  O   UNL A   1      34.680  22.523  23.823  1.00  0.00    -0.461 OA
BRANCH   2   3
ATOM      3  C   UNL A   1      33.758  22.834  24.769  1.00  0.00     0.325 C 
ATOM      4  O   UNL A   1      33.173  22.017  25.472  1.00  0.00    -0.250 OA
BRANCH   3   5
ATOM      5  C   UNL A   1      33.554  24.343  24.922  1.00  0.00     0.242 C 
BRANCH   5   6
ATOM      6  N   UNL A   1      32.560  25.015  24.064  1.00  0.00    -0.322 N 
BRANCH   6   7
ATOM      7  C   UNL A   1      32.879  25.799  22.966  1.00  0.00     0.229 C 
ATOM      8  O   UNL A   1      33.811  25.496  22.216  1.00  0.00    -0.274 OA
BRANCH   7   9
ATOM      9  C   UNL A   1      32.096  27.071  22.690  1.00  0.00     0.157 C 
BRANCH   9  10
ATOM     10  C   UNL A   1      32.231  28.049  23.806  1.00  0.00     0.063 A 
ATOM     11  C   UNL A   1      33.416  29.092  25.361  1.00  0.00     0.180 A 
ATOM     12  N   UNL A   1      33.476  28.213  24.393  1.00  0.00    -0.225 NA
ATOM     13  S   UNL A   1      31.870  29.792  25.619  1.00  0.00    -0.106 S 
ATOM     14  C   UNL A   1      31.232  28.834  24.351  1.00  0.00     0.093 A 
BRANCH  11  15
ATOM     15  N   UNL A   1      34.469  29.418  26.114  1.00  0.00    -0.375 N 
ATOM     16  H   UNL A   1      34.475  30.269  26.610  1.00  0.00     0.159 HD
ATOM     17  H   UNL A   1      35.239  28.808  26.173  1.00  0.00     0.159 HD
ENDBRANCH  11  15
ENDBRANCH   9  10
ENDBRANCH   7   9
ENDBRANCH   6   7
BRANCH   6  18
ATOM     18  C   UNL A   1      31.127  24.738  24.337  1.00  0.00     0.235 C 
BRANCH  18  19
ATOM     19  C   UNL A   1      30.507  25.300  25.634  1.00  0.00     0.406 C 
ATOM     20  F   UNL A   1      29.377  26.006  25.420  1.00  0.00    -0.169 F 
ATOM     21  F   UNL A   1      30.163  24.285  26.465  1.00  0.00    -0.169 F 
ATOM     22  F   UNL A   1      31.360  26.103  26.310  1.00  0.00    -0.169 F 
ENDBRANCH  18  19
ENDBRANCH   6  18
ENDBRANCH   5   6
ENDBRANCH   3   5
ENDBRANCH   2   3
ENDBRANCH   1   2
BRANCH   1  23
ATOM     23  C   UNL A   1      37.032  23.088  24.223  1.00  0.00     0.275 C 
BRANCH  23  24
ATOM     24  O   UNL A   1      37.342  23.610  25.529  1.00  0.00    -0.458 OA
BRANCH  24  25
ATOM     25  C   UNL A   1      38.517  23.193  26.051  1.00  0.00     0.338 C 
ATOM     26  O   UNL A   1      39.056  22.109  25.895  1.00  0.00    -0.246 OA
BRANCH  25  27
ATOM     27  C   UNL A   1      39.180  24.305  26.740  1.00  0.00     0.060 A 
ATOM     28  C   UNL A   1      38.898  24.482  28.094  1.00  0.00     0.016 A 
ATOM     29  C   UNL A   1      39.955  25.236  26.045  1.00  0.00     0.016 A 
ATOM     30  C   UNL A   1      39.367  25.608  28.761  1.00  0.00     0.010 A 
ATOM     31  C   UNL A   1      40.444  26.360  26.724  1.00  0.00     0.010 A 
ATOM     32  C   UNL A   1      40.133  26.562  28.080  1.00  0.00    -0.014 A 
BRANCH  32  33
ATOM     33  C   UNL A   1      40.549  27.784  28.808  1.00  0.00     0.031 A 
ATOM     34  C   UNL A   1      41.975  27.954  29.246  1.00  0.00     0.074 A 
ATOM     35  C   UNL A   1      39.666  28.784  28.984  1.00  0.00     0.049 A 
ATOM     36  N   UNL A   1      42.532  28.972  29.851  1.00  0.00    -0.248 NA
ATOM     37  C   UNL A   1      42.895  26.841  28.964  1.00  0.00     0.031 C 
ATOM     38  C   UNL A   1      38.263  28.757  28.565  1.00  0.00     0.029 A 
ATOM     39  N   UNL A   1      39.832  30.033  29.524  1.00  0.00    -0.354 N 
ATOM     40  C   UNL A   1      43.858  28.613  30.051  1.00  0.00     0.074 A 
ATOM     41  C   UNL A   1      44.026  27.287  29.494  1.00  0.00     0.031 C 
ATOM     42  C   UNL A   1      37.708  29.954  28.823  1.00  0.00     0.029 A 
ATOM     43  C   UNL A   1      38.708  30.817  29.445  1.00  0.00     0.049 A 
ATOM     44  H   UNL A   1      40.676  30.338  29.930  1.00  0.00     0.167 HD
ATOM     45  C   UNL A   1      44.847  29.318  30.651  1.00  0.00     0.031 A 
ATOM     46  C   UNL A   1      38.505  32.094  29.822  1.00  0.00     0.031 A 
ATOM     47  C   UNL A   1      44.697  30.641  31.191  1.00  0.00     0.049 A 
ATOM     48  C   UNL A   1      39.625  32.870  30.447  1.00  0.00     0.074 A 
ATOM     49  C   UNL A   1      45.628  31.412  31.864  1.00  0.00     0.029 A 
ATOM     50  N   UNL A   1      43.539  31.398  31.102  1.00  0.00    -0.354 N 
ATOM     51  N   UNL A   1      40.857  32.487  30.685  1.00  0.00    -0.248 NA
ATOM     52  C   UNL A   1      39.326  34.248  30.859  1.00  0.00     0.031 C 
ATOM     53  C   UNL A   1      45.031  32.640  32.183  1.00  0.00     0.029 A 
ATOM     54  C   UNL A   1      43.733  32.633  31.696  1.00  0.00     0.049 A 
ATOM     55  H   UNL A   1      42.702  31.101  30.677  1.00  0.00     0.167 HD
ATOM     56  C   UNL A   1      41.477  33.573  31.289  1.00  0.00     0.074 A 
ATOM     57  C   UNL A   1      40.494  34.637  31.356  1.00  0.00     0.031 C 
ATOM     58  C   UNL A   1      42.744  33.675  31.759  1.00  0.00     0.031 A 
BRANCH  45  59
ATOM     59  C   UNL A   1      46.175  28.632  30.780  1.00  0.00    -0.014 A 
ATOM     60  C   UNL A   1      46.479  27.855  31.911  1.00  0.00     0.010 A 
ATOM     61  C   UNL A   1      47.138  28.787  29.767  1.00  0.00     0.010 A 
ATOM     62  C   UNL A   1      47.743  27.275  32.046  1.00  0.00     0.020 A 
ATOM     63  C   UNL A   1      48.399  28.201  29.895  1.00  0.00     0.020 A 
ATOM     64  C   UNL A   1      48.700  27.466  31.045  1.00  0.00     0.054 A 
BRANCH  64  65
ATOM     65  S   UNL A   1      50.348  26.727  31.230  1.00  0.00     0.124 S 
ATOM     66  O   UNL A   1      50.298  26.229  32.602  1.00  0.00    -0.237 OA
ATOM     67  O   UNL A   1      50.371  25.701  30.192  1.00  0.00    -0.237 OA
ATOM     68  O   UNL A   1      51.250  27.855  31.007  1.00  0.00    -0.744 OA
ENDBRANCH  64  65
ENDBRANCH  45  59
BRANCH  46  69
ATOM     69  C   UNL A   1      37.176  32.713  29.603  1.00  0.00    -0.014 A 
ATOM     70  C   UNL A   1      36.271  32.837  30.669  1.00  0.00     0.010 A 
ATOM     71  C   UNL A   1      36.835  33.228  28.341  1.00  0.00     0.010 A 
ATOM     72  C   UNL A   1      35.042  33.477  30.479  1.00  0.00     0.020 A 
ATOM     73  C   UNL A   1      35.613  33.876  28.151  1.00  0.00     0.020 A 
ATOM     74  C   UNL A   1      34.722  33.994  29.221  1.00  0.00     0.054 A 
BRANCH  74  75
ATOM     75  S   UNL A   1      33.172  34.909  28.991  1.00  0.00     0.124 S 
ATOM     76  O   UNL A   1      33.654  36.208  28.532  1.00  0.00    -0.237 OA
ATOM     77  O   UNL A   1      32.460  34.112  27.995  1.00  0.00    -0.237 OA
ATOM     78  O   UNL A   1      32.580  34.891  30.327  1.00  0.00    -0.744 OA
ENDBRANCH  74  75
ENDBRANCH  46  69
BRANCH  58  79
ATOM     79  C   UNL A   1      43.126  34.977  32.397  1.00  0.00    -0.014 A 
ATOM     80  C   UNL A   1      43.661  36.017  31.617  1.00  0.00     0.010 A 
ATOM     81  C   UNL A   1      42.935  35.171  33.775  1.00  0.00     0.010 A 
ATOM     82  C   UNL A   1      44.025  37.227  32.212  1.00  0.00     0.020 A 
ATOM     83  C   UNL A   1      43.291  36.383  34.372  1.00  0.00     0.020 A 
ATOM     84  C   UNL A   1      43.847  37.399  33.588  1.00  0.00     0.054 A 
BRANCH  84  85
ATOM     85  S   UNL A   1      44.296  38.982  34.354  1.00  0.00     0.124 S 
ATOM     86  O   UNL A   1      45.647  39.193  33.840  1.00  0.00    -0.237 OA
ATOM     87  O   UNL A   1      43.281  39.899  33.844  1.00  0.00    -0.237 OA
ATOM     88  O   UNL A   1      44.207  38.700  35.786  1.00  0.00    -0.744 OA
ENDBRANCH  84  85
ENDBRANCH  58  79
ENDBRANCH  32  33
ENDBRANCH  25  27
ENDBRANCH  24  25
ENDBRANCH  23  24
ENDBRANCH   1  23
TORSDOF 21
ENDMDL
MODEL 2
REMARK VINA RESULT:      -9.0      3.135      9.347
REMARK SMILES Nc1nc(CC(=O)N(CC(=O)OCCOC(=O)c2ccc(-c3c4nc(c(-c5ccc(S(=O)(=O)[O-])cc5)c5ccc([nH]5)c(-c5ccc(S(=O)(=O)[O-])cc5)c5nc(c(-c6ccc(S(=O)(=O)[O-])cc6)c6ccc3[nH]6)C=C5)C=C4)cc2)CC(F)(F)F)cs1
REMARK SMILES IDX 13 1 12 2 10 3 11 4 9 5 8 6 6 7 7 8 5 9 4 10 2 11 3 12 84 13
REMARK SMILES IDX 83 14 1 15 78 18 79 19 80 20 81 21 82 22 14 23 15 24 16 25
REMARK SMILES IDX 17 26 18 27 19 28 77 29 20 30 76 31 21 32 22 33 23 34 70 35
REMARK SMILES IDX 24 36 75 37 69 38 71 39 25 40 74 41 68 42 67 43 26 45 56 46
REMARK SMILES IDX 37 47 55 48 38 49 41 50 54 51 72 52 39 53 40 54 53 56 73 57
REMARK SMILES IDX 42 58 27 59 28 60 36 61 29 62 35 63 30 64 31 65 32 66 33 67
REMARK SMILES IDX 34 68 57 69 58 70 66 71 59 72 65 73 60 74 61 75 62 76 63 77
REMARK SMILES IDX 64 78 43 79 44 80 52 81 45 82 51 83 46 84 47 85 48 86 49 87
REMARK SMILES IDX 50 88
REMARK H PARENT 1 16 1 17 71 44 41 55
REMARK Flexibility Score: inf
ROOT
ATOM      1  C   UNL A   1      31.890  28.952  26.417  1.00  0.00     0.274 C 
ENDROOT
BRANCH   1   2
ATOM      2  O   UNL A   1      31.902  27.854  25.486  1.00  0.00    -0.461 OA
BRANCH   2   3
ATOM      3  C   UNL A   1      31.305  26.706  25.895  1.00  0.00     0.325 C 
ATOM      4  O   UNL A   1      30.714  26.563  26.959  1.00  0.00    -0.250 OA
BRANCH   3   5
ATOM      5  C   UNL A   1      31.390  25.591  24.848  1.00  0.00     0.242 C 
BRANCH   5   6
ATOM      6  N   UNL A   1      32.380  24.514  25.038  1.00  0.00    -0.322 N 
BRANCH   6   7
ATOM      7  C   UNL A   1      33.610  24.464  24.401  1.00  0.00     0.229 C 
ATOM      8  O   UNL A   1      33.701  24.134  23.215  1.00  0.00    -0.274 OA
BRANCH   7   9
ATOM      9  C   UNL A   1      34.877  24.785  25.174  1.00  0.00     0.157 C 
BRANCH   9  10
ATOM     10  C   UNL A   1      35.783  23.605  25.255  1.00  0.00     0.063 A 
ATOM     11  C   UNL A   1      36.161  21.421  25.220  1.00  0.00     0.180 A 
ATOM     12  N   UNL A   1      35.234  22.340  25.108  1.00  0.00    -0.225 NA
ATOM     13  S   UNL A   1      37.748  22.012  25.492  1.00  0.00    -0.106 S 
ATOM     14  C   UNL A   1      37.148  23.616  25.472  1.00  0.00     0.093 A 
BRANCH  11  15
ATOM     15  N   UNL A   1      35.900  20.114  25.149  1.00  0.00    -0.375 N 
ATOM     16  H   UNL A   1      35.905  19.566  25.968  1.00  0.00     0.159 HD
ATOM     17  H   UNL A   1      35.702  19.698  24.279  1.00  0.00     0.159 HD
ENDBRANCH  11  15
ENDBRANCH   9  10
ENDBRANCH   7   9
ENDBRANCH   6   7
BRANCH   6  18
ATOM     18  C   UNL A   1      32.075  23.482  26.062  1.00  0.00     0.235 C 
BRANCH  18  19
ATOM     19  C   UNL A   1      31.573  22.104  25.584  1.00  0.00     0.406 C 
ATOM     20  F   UNL A   1      32.336  21.080  26.023  1.00  0.00    -0.169 F 
ATOM     21  F   UNL A   1      30.324  21.871  26.061  1.00  0.00    -0.169 F 
ATOM     22  F   UNL A   1      31.514  22.012  24.236  1.00  0.00    -0.169 F 
ENDBRANCH  18  19
ENDBRANCH   6  18
ENDBRANCH   5   6
ENDBRANCH   3   5
ENDBRANCH   2   3
ENDBRANCH   1   2
BRANCH   1  23
ATOM     23  C   UNL A   1      33.180  28.999  27.237  1.00  0.00     0.275 C 
BRANCH  23  24
ATOM     24  O   UNL A   1      33.989  30.133  26.876  1.00  0.00    -0.458 OA
BRANCH  24  25
ATOM     25  C   UNL A   1      34.626  30.735  27.906  1.00  0.00     0.338 C 
ATOM     26  O   UNL A   1      34.174  31.569  28.674  1.00  0.00    -0.246 OA
BRANCH  25  27
ATOM     27  C   UNL A   1      35.947  30.127  28.101  1.00  0.00     0.060 A 
ATOM     28  C   UNL A   1      36.207  29.538  29.338  1.00  0.00     0.016 A 
ATOM     29  C   UNL A   1      36.955  30.251  27.143  1.00  0.00     0.016 A 
ATOM     30  C   UNL A   1      37.488  29.090  29.639  1.00  0.00     0.010 A 
ATOM     31  C   UNL A   1      38.241  29.780  27.441  1.00  0.00     0.010 A 
ATOM     32  C   UNL A   1      38.518  29.218  28.698  1.00  0.00    -0.014 A 
BRANCH  32  33
ATOM     33  C   UNL A   1      39.885  28.798  29.087  1.00  0.00     0.031 A 
ATOM     34  C   UNL A   1      40.702  29.648  30.017  1.00  0.00     0.074 A 
ATOM     35  C   UNL A   1      40.351  27.601  28.685  1.00  0.00     0.049 A 
ATOM     36  N   UNL A   1      41.895  29.421  30.504  1.00  0.00    -0.248 NA
ATOM     37  C   UNL A   1      40.098  30.915  30.461  1.00  0.00     0.031 C 
ATOM     38  C   UNL A   1      39.637  26.664  27.816  1.00  0.00     0.029 A 
ATOM     39  N   UNL A   1      41.520  26.953  28.990  1.00  0.00    -0.354 N 
ATOM     40  C   UNL A   1      42.200  30.526  31.286  1.00  0.00     0.074 A 
ATOM     41  C   UNL A   1      41.064  31.420  31.217  1.00  0.00     0.031 C 
ATOM     42  C   UNL A   1      40.365  25.540  27.695  1.00  0.00     0.029 A 
ATOM     43  C   UNL A   1      41.602  25.691  28.457  1.00  0.00     0.049 A 
ATOM     44  H   UNL A   1      42.233  27.354  29.539  1.00  0.00     0.167 HD
ATOM     45  C   UNL A   1      43.328  30.781  31.992  1.00  0.00     0.031 A 
ATOM     46  C   UNL A   1      42.560  24.752  28.574  1.00  0.00     0.031 A 
ATOM     47  C   UNL A   1      44.454  29.893  32.081  1.00  0.00     0.049 A 
ATOM     48  C   UNL A   1      43.782  25.039  29.394  1.00  0.00     0.074 A 
ATOM     49  C   UNL A   1      45.662  30.089  32.729  1.00  0.00     0.029 A 
ATOM     50  N   UNL A   1      44.504  28.628  31.517  1.00  0.00    -0.354 N 
ATOM     51  N   UNL A   1      44.079  26.120  30.075  1.00  0.00    -0.248 NA
ATOM     52  C   UNL A   1      44.800  23.981  29.456  1.00  0.00     0.031 C 
ATOM     53  C   UNL A   1      46.444  28.938  32.556  1.00  0.00     0.029 A 
ATOM     54  C   UNL A   1      45.715  28.025  31.811  1.00  0.00     0.049 A 
ATOM     55  H   UNL A   1      43.782  28.218  30.987  1.00  0.00     0.167 HD
ATOM     56  C   UNL A   1      45.327  25.877  30.636  1.00  0.00     0.074 A 
ATOM     57  C   UNL A   1      45.717  24.540  30.237  1.00  0.00     0.031 C 
ATOM     58  C   UNL A   1      46.087  26.697  31.401  1.00  0.00     0.031 A 
BRANCH  45  59
ATOM     59  C   UNL A   1      43.396  32.106  32.693  1.00  0.00    -0.014 A 
ATOM     60  C   UNL A   1      43.929  33.236  32.050  1.00  0.00     0.010 A 
ATOM     61  C   UNL A   1      42.940  32.213  34.019  1.00  0.00     0.010 A 
ATOM     62  C   UNL A   1      44.043  34.447  32.737  1.00  0.00     0.020 A 
ATOM     63  C   UNL A   1      43.045  33.425  34.705  1.00  0.00     0.020 A 
ATOM     64  C   UNL A   1      43.616  34.529  34.066  1.00  0.00     0.054 A 
BRANCH  64  65
ATOM     65  S   UNL A   1      43.782  36.098  34.963  1.00  0.00     0.124 S 
ATOM     66  O   UNL A   1      44.110  35.636  36.310  1.00  0.00    -0.237 OA
ATOM     67  O   UNL A   1      44.862  36.776  34.252  1.00  0.00    -0.237 OA
ATOM     68  O   UNL A   1      42.463  36.711  34.816  1.00  0.00    -0.744 OA
ENDBRANCH  64  65
ENDBRANCH  45  59
BRANCH  46  69
ATOM     69  C   UNL A   1      42.384  23.446  27.895  1.00  0.00    -0.014 A 
ATOM     70  C   UNL A   1      42.932  23.234  26.620  1.00  0.00     0.010 A 
ATOM     71  C   UNL A   1      41.716  22.395  28.546  1.00  0.00     0.010 A 
ATOM     72  C   UNL A   1      42.822  21.984  26.004  1.00  0.00     0.020 A 
ATOM     73  C   UNL A   1      41.613  21.142  27.938  1.00  0.00     0.020 A 
ATOM     74  C   UNL A   1      42.164  20.945  26.669  1.00  0.00     0.054 A 
BRANCH  74  75
ATOM     75  S   UNL A   1      42.100  19.293  25.918  1.00  0.00     0.124 S 
ATOM     76  O   UNL A   1      42.941  19.466  24.738  1.00  0.00    -0.237 OA
ATOM     77  O   UNL A   1      42.647  18.432  26.964  1.00  0.00    -0.237 OA
ATOM     78  O   UNL A   1      40.675  19.109  25.656  1.00  0.00    -0.744 OA
ENDBRANCH  74  75
ENDBRANCH  46  69
BRANCH  58  79
ATOM     79  C   UNL A   1      47.420  26.168  31.841  1.00  0.00    -0.014 A 
ATOM     80  C   UNL A   1      47.546  25.503  33.073  1.00  0.00     0.010 A 
ATOM     81  C   UNL A   1      48.546  26.318  31.016  1.00  0.00     0.010 A 
ATOM     82  C   UNL A   1      48.787  25.017  33.487  1.00  0.00     0.020 A 
ATOM     83  C   UNL A   1      49.789  25.827  31.424  1.00  0.00     0.020 A 
ATOM     84  C   UNL A   1      49.904  25.192  32.664  1.00  0.00     0.054 A 
BRANCH  84  85
ATOM     85  S   UNL A   1      51.512  24.537  33.193  1.00  0.00     0.124 S 
ATOM     86  O   UNL A   1      51.399  24.597  34.648  1.00  0.00    -0.237 OA
ATOM     87  O   UNL A   1      51.529  23.193  32.620  1.00  0.00    -0.237 OA
ATOM     88  O   UNL A   1      52.468  25.470  32.599  1.00  0.00    -0.744 OA
ENDBRANCH  84  85
ENDBRANCH  58  79
ENDBRANCH  32  33
ENDBRANCH  25  27
ENDBRANCH  24  25
ENDBRANCH  23  24
ENDBRANCH   1  23
TORSDOF 21
ENDMDL
MODEL 3
REMARK VINA RESULT:      -9.0      2.797      7.851
REMARK SMILES Nc1nc(CC(=O)N(CC(=O)OCCOC(=O)c2ccc(-c3c4nc(c(-c5ccc(S(=O)(=O)[O-])cc5)c5ccc([nH]5)c(-c5ccc(S(=O)(=O)[O-])cc5)c5nc(c(-c6ccc(S(=O)(=O)[O-])cc6)c6ccc3[nH]6)C=C5)C=C4)cc2)CC(F)(F)F)cs1
REMARK SMILES IDX 13 1 12 2 10 3 11 4 9 5 8 6 6 7 7 8 5 9 4 10 2 11 3 12 84 13
REMARK SMILES IDX 83 14 1 15 78 18 79 19 80 20 81 21 82 22 14 23 15 24 16 25
REMARK SMILES IDX 17 26 18 27 19 28 77 29 20 30 76 31 21 32 22 33 23 34 70 35
REMARK SMILES IDX 24 36 75 37 69 38 71 39 25 40 74 41 68 42 67 43 26 45 56 46
REMARK SMILES IDX 37 47 55 48 38 49 41 50 54 51 72 52 39 53 40 54 53 56 73 57
REMARK SMILES IDX 42 58 27 59 28 60 36 61 29 62 35 63 30 64 31 65 32 66 33 67
REMARK SMILES IDX 34 68 57 69 58 70 66 71 59 72 65 73 60 74 61 75 62 76 63 77
REMARK SMILES IDX 64 78 43 79 44 80 52 81 45 82 51 83 46 84 47 85 48 86 49 87
REMARK SMILES IDX 50 88
REMARK H PARENT 1 16 1 17 71 44 41 55
REMARK Flexibility Score: inf
ROOT
ATOM      1  C   UNL A   1      31.966  27.723  26.339  1.00  0.00     0.274 C 
ENDROOT
BRANCH   1   2
ATOM      2  O   UNL A   1      31.666  26.322  26.477  1.00  0.00    -0.461 OA
BRANCH   2   3
ATOM      3  C   UNL A   1      32.492  25.458  25.835  1.00  0.00     0.325 C 
ATOM      4  O   UNL A   1      33.705  25.394  26.000  1.00  0.00    -0.250 OA
BRANCH   3   5
ATOM      5  C   UNL A   1      31.741  24.503  24.903  1.00  0.00     0.242 C 
BRANCH   5   6
ATOM      6  N   UNL A   1      32.501  23.783  23.863  1.00  0.00    -0.322 N 
BRANCH   6   7
ATOM      7  C   UNL A   1      33.213  24.401  22.848  1.00  0.00     0.229 C 
ATOM      8  O   UNL A   1      34.446  24.365  22.819  1.00  0.00    -0.274 OA
BRANCH   7   9
ATOM      9  C   UNL A   1      32.475  25.169  21.764  1.00  0.00     0.157 C 
BRANCH   9  10
ATOM     10  C   UNL A   1      32.202  26.574  22.179  1.00  0.00     0.063 A 
ATOM     11  C   UNL A   1      32.859  28.567  22.893  1.00  0.00     0.180 A 
ATOM     12  N   UNL A   1      33.274  27.374  22.544  1.00  0.00    -0.225 NA
ATOM     13  S   UNL A   1      31.165  28.811  22.789  1.00  0.00    -0.106 S 
ATOM     14  C   UNL A   1      30.970  27.197  22.253  1.00  0.00     0.093 A 
BRANCH  11  15
ATOM     15  N   UNL A   1      33.684  29.527  23.318  1.00  0.00    -0.375 N 
ATOM     16  H   UNL A   1      34.620  29.541  23.014  1.00  0.00     0.159 HD
ATOM     17  H   UNL A   1      33.355  30.221  23.933  1.00  0.00     0.159 HD
ENDBRANCH  11  15
ENDBRANCH   9  10
ENDBRANCH   7   9
ENDBRANCH   6   7
BRANCH   6  18
ATOM     18  C   UNL A   1      32.592  22.306  23.987  1.00  0.00     0.235 C 
BRANCH  18  19
ATOM     19  C   UNL A   1      33.483  21.719  25.101  1.00  0.00     0.406 C 
ATOM     20  F   UNL A   1      32.904  21.754  26.320  1.00  0.00    -0.169 F 
ATOM     21  F   UNL A   1      33.746  20.412  24.849  1.00  0.00    -0.169 F 
ATOM     22  F   UNL A   1      34.672  22.356  25.204  1.00  0.00    -0.169 F 
ENDBRANCH  18  19
ENDBRANCH   6  18
ENDBRANCH   5   6
ENDBRANCH   3   5
ENDBRANCH   2   3
ENDBRANCH   1   2
BRANCH   1  23
ATOM     23  C   UNL A   1      32.682  28.262  27.578  1.00  0.00     0.275 C 
BRANCH  23  24
ATOM     24  O   UNL A   1      34.056  28.581  27.292  1.00  0.00    -0.458 OA
BRANCH  24  25
ATOM     25  C   UNL A   1      34.459  29.805  27.703  1.00  0.00     0.338 C 
ATOM     26  O   UNL A   1      33.778  30.809  27.827  1.00  0.00    -0.246 OA
BRANCH  25  27
ATOM     27  C   UNL A   1      35.854  29.746  28.153  1.00  0.00     0.060 A 
ATOM     28  C   UNL A   1      36.847  29.973  27.201  1.00  0.00     0.016 A 
ATOM     29  C   UNL A   1      36.187  29.342  29.448  1.00  0.00     0.016 A 
ATOM     30  C   UNL A   1      38.183  29.773  27.527  1.00  0.00     0.010 A 
ATOM     31  C   UNL A   1      37.536  29.160  29.781  1.00  0.00     0.010 A 
ATOM     32  C   UNL A   1      38.538  29.354  28.816  1.00  0.00    -0.014 A 
BRANCH  32  33
ATOM     33  C   UNL A   1      39.967  29.079  29.100  1.00  0.00     0.031 A 
ATOM     34  C   UNL A   1      40.575  27.763  28.712  1.00  0.00     0.074 A 
ATOM     35  C   UNL A   1      40.740  30.052  29.615  1.00  0.00     0.049 A 
ATOM     36  N   UNL A   1      41.814  27.361  28.837  1.00  0.00    -0.248 NA
ATOM     37  C   UNL A   1      39.677  26.771  28.098  1.00  0.00     0.031 C 
ATOM     38  C   UNL A   1      40.277  31.389  29.995  1.00  0.00     0.029 A 
ATOM     39  N   UNL A   1      42.087  30.079  29.868  1.00  0.00    -0.354 N 
ATOM     40  C   UNL A   1      41.842  26.063  28.348  1.00  0.00     0.074 A 
ATOM     41  C   UNL A   1      40.497  25.745  27.915  1.00  0.00     0.031 C 
ATOM     42  C   UNL A   1      41.333  32.120  30.390  1.00  0.00     0.029 A 
ATOM     43  C   UNL A   1      42.537  31.297  30.314  1.00  0.00     0.049 A 
ATOM     44  H   UNL A   1      42.676  29.299  29.743  1.00  0.00     0.167 HD
ATOM     45  C   UNL A   1      42.889  25.205  28.274  1.00  0.00     0.031 A 
ATOM     46  C   UNL A   1      43.781  31.711  30.617  1.00  0.00     0.031 A 
ATOM     47  C   UNL A   1      44.230  25.516  28.684  1.00  0.00     0.049 A 
ATOM     48  C   UNL A   1      44.932  30.759  30.489  1.00  0.00     0.074 A 
ATOM     49  C   UNL A   1      45.344  24.695  28.696  1.00  0.00     0.029 A 
ATOM     50  N   UNL A   1      44.643  26.758  29.141  1.00  0.00    -0.354 N 
ATOM     51  N   UNL A   1      44.925  29.511  30.085  1.00  0.00    -0.248 NA
ATOM     52  C   UNL A   1      46.258  31.269  30.864  1.00  0.00     0.031 C 
ATOM     53  C   UNL A   1      46.435  25.443  29.162  1.00  0.00     0.029 A 
ATOM     54  C   UNL A   1      45.998  26.730  29.427  1.00  0.00     0.049 A 
ATOM     55  H   UNL A   1      44.060  27.544  29.246  1.00  0.00     0.167 HD
ATOM     56  C   UNL A   1      46.243  29.082  30.170  1.00  0.00     0.074 A 
ATOM     57  C   UNL A   1      47.025  30.209  30.639  1.00  0.00     0.031 C 
ATOM     58  C   UNL A   1      46.757  27.858  29.898  1.00  0.00     0.031 A 
BRANCH  45  59
ATOM     59  C   UNL A   1      42.593  23.829  27.755  1.00  0.00    -0.014 A 
ATOM     60  C   UNL A   1      42.279  22.779  28.634  1.00  0.00     0.010 A 
ATOM     61  C   UNL A   1      42.652  23.581  26.372  1.00  0.00     0.010 A 
ATOM     62  C   UNL A   1      42.068  21.489  28.141  1.00  0.00     0.020 A 
ATOM     63  C   UNL A   1      42.432  22.295  25.876  1.00  0.00     0.020 A 
ATOM     64  C   UNL A   1      42.163  21.252  26.767  1.00  0.00     0.054 A 
BRANCH  64  65
ATOM     65  S   UNL A   1      41.907  19.572  26.129  1.00  0.00     0.124 S 
ATOM     66  O   UNL A   1      42.296  18.756  27.276  1.00  0.00    -0.237 OA
ATOM     67  O   UNL A   1      40.484  19.553  25.801  1.00  0.00    -0.237 OA
ATOM     68  O   UNL A   1      42.808  19.506  24.980  1.00  0.00    -0.744 OA
ENDBRANCH  64  65
ENDBRANCH  45  59
BRANCH  46  69
ATOM     69  C   UNL A   1      43.992  33.108  31.066  1.00  0.00    -0.014 A 
ATOM     70  C   UNL A   1      44.131  34.140  30.123  1.00  0.00     0.010 A 
ATOM     71  C   UNL A   1      44.000  33.417  32.437  1.00  0.00     0.010 A 
ATOM     72  C   UNL A   1      44.267  35.466  30.545  1.00  0.00     0.020 A 
ATOM     73  C   UNL A   1      44.126  34.742  32.860  1.00  0.00     0.020 A 
ATOM     74  C   UNL A   1      44.262  35.758  31.911  1.00  0.00     0.054 A 
BRANCH  74  75
ATOM     75  S   UNL A   1      44.342  37.486  32.464  1.00  0.00     0.124 S 
ATOM     76  O   UNL A   1      45.752  37.626  32.811  1.00  0.00    -0.237 OA
ATOM     77  O   UNL A   1      43.904  38.232  31.286  1.00  0.00    -0.237 OA
ATOM     78  O   UNL A   1      43.409  37.512  33.588  1.00  0.00    -0.744 OA
ENDBRANCH  74  75
ENDBRANCH  46  69
BRANCH  58  79
ATOM     79  C   UNL A   1      48.229  27.679  30.115  1.00  0.00    -0.014 A 
ATOM     80  C   UNL A   1      49.136  27.934  29.071  1.00  0.00     0.010 A 
ATOM     81  C   UNL A   1      48.714  27.274  31.370  1.00  0.00     0.010 A 
ATOM     82  C   UNL A   1      50.507  27.760  29.270  1.00  0.00     0.020 A 
ATOM     83  C   UNL A   1      50.086  27.105  31.575  1.00  0.00     0.020 A 
ATOM     84  C   UNL A   1      50.973  27.336  30.519  1.00  0.00     0.054 A 
BRANCH  84  85
ATOM     85  S   UNL A   1      52.757  27.136  30.784  1.00  0.00     0.124 S 
ATOM     86  O   UNL A   1      53.277  27.242  29.423  1.00  0.00    -0.237 OA
ATOM     87  O   UNL A   1      53.089  28.247  31.671  1.00  0.00    -0.237 OA
ATOM     88  O   UNL A   1      52.860  25.811  31.393  1.00  0.00    -0.744 OA
ENDBRANCH  84  85
ENDBRANCH  58  79
ENDBRANCH  32  33
ENDBRANCH  25  27
ENDBRANCH  24  25
ENDBRANCH  23  24
ENDBRANCH   1  23
TORSDOF 21
ENDMDL
