MODEL 1
REMARK VINA RESULT:     -11.5      0.000      0.000
REMARK SMILES COc1ccccc1[C@@H]1C[N@@H+](Cc2cc3c(cc2C)OCO3)C[C@H]1C(=O)OCCOC(=O)c1ccc(-c2c3nc(c(-c4ccc(S(=O)(=O)[O-])cc4)c4ccc([nH]4)c(-c4ccc(S(=O)(=O)[O-])cc4)c4nc(c(-c5ccc(S(=O)(=O)[O-])cc5)c5ccc2[nH]5)C=C4)C=C3)cc1
REMARK SMILES IDX 29 1 28 2 27 3 25 4 26 5 24 6 9 7 10 8 11 9 23 10 8 12 3 13
REMARK SMILES IDX 4 14 5 15 7 16 6 17 2 18 1 19 12 20 13 21 14 22 18 23 15 24
REMARK SMILES IDX 17 25 19 26 16 27 22 28 20 29 21 30 30 31 31 32 32 33 33 34
REMARK SMILES IDX 34 35 92 36 35 37 91 38 36 39 37 40 38 41 85 42 39 43 90 44
REMARK SMILES IDX 84 45 86 46 40 47 89 48 83 49 82 50 41 52 71 53 52 54 70 55
REMARK SMILES IDX 53 56 56 57 69 58 87 59 54 60 55 61 68 63 88 64 57 65 42 66
REMARK SMILES IDX 43 67 51 68 44 69 50 70 45 71 46 72 47 73 48 74 49 75 72 76
REMARK SMILES IDX 73 77 81 78 74 79 80 80 75 81 76 82 77 83 78 84 79 85 58 86
REMARK SMILES IDX 59 87 67 88 60 89 66 90 61 91 62 92 63 93 64 94 65 95
REMARK H PARENT 11 11 86 51 56 62
REMARK Flexibility Score: inf
ROOT
ATOM      1  C   UNL A   1      32.364  29.896  27.060  1.00  0.00     0.275 C 
ENDROOT
BRANCH   1   2
ATOM      2  C   UNL A   1      31.877  28.521  27.520  1.00  0.00     0.274 C 
BRANCH   2   3
ATOM      3  O   UNL A   1      31.049  27.919  26.497  1.00  0.00    -0.462 OA
BRANCH   3   4
ATOM      4  C   UNL A   1      31.390  26.658  26.141  1.00  0.00     0.315 C 
ATOM      5  O   UNL A   1      30.798  25.658  26.540  1.00  0.00    -0.252 OA
BRANCH   4   6
ATOM      6  C   UNL A   1      32.522  26.547  25.132  1.00  0.00     0.167 C 
ATOM      7  C   UNL A   1      32.728  25.277  24.304  1.00  0.00     0.098 C 
ATOM      8  C   UNL A   1      33.012  25.768  22.878  1.00  0.00     0.272 C 
ATOM      9  N   UNL A   1      32.372  27.078  22.758  1.00  0.00    -0.330 N 
ATOM     10  C   UNL A   1      32.388  27.672  24.097  1.00  0.00     0.278 C 
ATOM     11  H   UNL A   1      32.904  27.671  22.121  1.00  0.00     0.348 HD
BRANCH   7  12
ATOM     12  C   UNL A   1      33.744  24.209  24.716  1.00  0.00     0.004 A 
ATOM     13  C   UNL A   1      33.683  22.804  24.678  1.00  0.00     0.122 A 
ATOM     14  C   UNL A   1      34.820  22.059  25.086  1.00  0.00     0.047 A 
ATOM     15  C   UNL A   1      35.987  22.647  25.558  1.00  0.00     0.004 A 
ATOM     16  C   UNL A   1      34.939  24.777  25.253  1.00  0.00     0.008 A 
ATOM     17  C   UNL A   1      36.040  24.019  25.657  1.00  0.00     0.001 A 
BRANCH  13  18
ATOM     18  O   UNL A   1      32.742  21.903  24.290  1.00  0.00    -0.496 OA
ATOM     19  C   UNL A   1      32.344  21.578  22.983  1.00  0.00     0.278 C 
ENDBRANCH  13  18
ENDBRANCH   7  12
BRANCH   9  20
ATOM     20  C   UNL A   1      31.084  27.095  22.050  1.00  0.00     0.299 C 
BRANCH  20  21
ATOM     21  C   UNL A   1      30.039  28.103  22.503  1.00  0.00     0.013 A 
ATOM     22  C   UNL A   1      30.230  29.457  22.136  1.00  0.00     0.060 A 
ATOM     23  C   UNL A   1      28.887  27.754  23.263  1.00  0.00    -0.038 A 
ATOM     24  C   UNL A   1      29.250  30.376  22.441  1.00  0.00     0.166 A 
ATOM     25  C   UNL A   1      27.880  28.715  23.482  1.00  0.00     0.054 A 
ATOM     26  C   UNL A   1      28.661  26.403  23.885  1.00  0.00     0.045 C 
ATOM     27  C   UNL A   1      28.085  30.003  23.057  1.00  0.00     0.166 A 
ATOM     28  O   UNL A   1      29.295  31.714  22.195  1.00  0.00    -0.454 OA
ATOM     29  O   UNL A   1      27.227  31.042  23.232  1.00  0.00    -0.454 OA
ATOM     30  C   UNL A   1      28.080  32.139  22.848  1.00  0.00     0.468 C 
ENDBRANCH  20  21
ENDBRANCH   9  20
ENDBRANCH   4   6
ENDBRANCH   3   4
ENDBRANCH   2   3
ENDBRANCH   1   2
BRANCH   1  31
ATOM     31  O   UNL A   1      33.798  29.904  27.146  1.00  0.00    -0.458 OA
BRANCH  31  32
ATOM     32  C   UNL A   1      34.310  31.075  27.582  1.00  0.00     0.338 C 
ATOM     33  O   UNL A   1      33.740  32.153  27.638  1.00  0.00    -0.246 OA
BRANCH  32  34
ATOM     34  C   UNL A   1      35.616  30.783  28.175  1.00  0.00     0.060 A 
ATOM     35  C   UNL A   1      35.785  29.579  28.860  1.00  0.00     0.016 A 
ATOM     36  C   UNL A   1      36.663  31.688  28.062  1.00  0.00     0.016 A 
ATOM     37  C   UNL A   1      36.984  29.292  29.497  1.00  0.00     0.010 A 
ATOM     38  C   UNL A   1      37.885  31.381  28.662  1.00  0.00     0.010 A 
ATOM     39  C   UNL A   1      38.044  30.194  29.404  1.00  0.00    -0.014 A 
BRANCH  39  40
ATOM     40  C   UNL A   1      39.308  29.946  30.135  1.00  0.00     0.031 A 
ATOM     41  C   UNL A   1      40.226  28.863  29.648  1.00  0.00     0.074 A 
ATOM     42  C   UNL A   1      39.610  30.666  31.231  1.00  0.00     0.049 A 
ATOM     43  N   UNL A   1      41.260  28.329  30.239  1.00  0.00    -0.248 NA
ATOM     44  C   UNL A   1      39.925  28.291  28.323  1.00  0.00     0.031 C 
ATOM     45  C   UNL A   1      38.829  31.791  31.751  1.00  0.00     0.029 A 
ATOM     46  N   UNL A   1      40.649  30.545  32.117  1.00  0.00    -0.354 N 
ATOM     47  C   UNL A   1      41.701  27.323  29.387  1.00  0.00     0.074 A 
ATOM     48  C   UNL A   1      40.816  27.315  28.243  1.00  0.00     0.031 C 
ATOM     49  C   UNL A   1      39.419  32.258  32.863  1.00  0.00     0.029 A 
ATOM     50  C   UNL A   1      40.570  31.419  33.176  1.00  0.00     0.049 A 
ATOM     51  H   UNL A   1      41.383  29.897  32.005  1.00  0.00     0.167 HD
ATOM     52  C   UNL A   1      42.748  26.481  29.556  1.00  0.00     0.031 A 
ATOM     53  C   UNL A   1      41.312  31.498  34.298  1.00  0.00     0.031 A 
ATOM     54  C   UNL A   1      43.621  26.519  30.699  1.00  0.00     0.049 A 
ATOM     55  C   UNL A   1      42.427  30.509  34.493  1.00  0.00     0.074 A 
ATOM     56  C   UNL A   1      44.721  25.725  30.969  1.00  0.00     0.029 A 
ATOM     57  N   UNL A   1      43.494  27.404  31.761  1.00  0.00    -0.354 N 
ATOM     58  N   UNL A   1      42.823  29.544  33.695  1.00  0.00    -0.248 NA
ATOM     59  C   UNL A   1      43.195  30.615  35.741  1.00  0.00     0.031 C 
ATOM     60  C   UNL A   1      45.222  26.091  32.223  1.00  0.00     0.029 A 
ATOM     61  C   UNL A   1      44.481  27.160  32.701  1.00  0.00     0.049 A 
ATOM     62  H   UNL A   1      42.806  28.104  31.834  1.00  0.00     0.167 HD
ATOM     63  C   UNL A   1      43.905  28.947  34.332  1.00  0.00     0.074 A 
ATOM     64  C   UNL A   1      44.109  29.669  35.572  1.00  0.00     0.031 C 
ATOM     65  C   UNL A   1      44.663  27.896  33.928  1.00  0.00     0.031 A 
BRANCH  52  66
ATOM     66  C   UNL A   1      42.967  25.419  28.510  1.00  0.00    -0.014 A 
ATOM     67  C   UNL A   1      43.788  25.644  27.390  1.00  0.00     0.010 A 
ATOM     68  C   UNL A   1      42.362  24.158  28.669  1.00  0.00     0.010 A 
ATOM     69  C   UNL A   1      43.963  24.643  26.429  1.00  0.00     0.020 A 
ATOM     70  C   UNL A   1      42.560  23.145  27.727  1.00  0.00     0.020 A 
ATOM     71  C   UNL A   1      43.346  23.400  26.603  1.00  0.00     0.054 A 
BRANCH  71  72
ATOM     72  S   UNL A   1      43.612  22.113  25.352  1.00  0.00     0.124 S 
ATOM     73  O   UNL A   1      43.495  22.871  24.110  1.00  0.00    -0.237 OA
ATOM     74  O   UNL A   1      44.953  21.631  25.670  1.00  0.00    -0.237 OA
ATOM     75  O   UNL A   1      42.535  21.158  25.602  1.00  0.00    -0.744 OA
ENDBRANCH  71  72
ENDBRANCH  52  66
BRANCH  53  76
ATOM     76  C   UNL A   1      40.999  32.526  35.330  1.00  0.00    -0.014 A 
ATOM     77  C   UNL A   1      40.061  32.259  36.342  1.00  0.00     0.010 A 
ATOM     78  C   UNL A   1      41.649  33.775  35.315  1.00  0.00     0.010 A 
ATOM     79  C   UNL A   1      39.768  33.226  37.309  1.00  0.00     0.020 A 
ATOM     80  C   UNL A   1      41.383  34.731  36.299  1.00  0.00     0.020 A 
ATOM     81  C   UNL A   1      40.434  34.454  37.284  1.00  0.00     0.054 A 
BRANCH  81  82
ATOM     82  S   UNL A   1      40.070  35.673  38.578  1.00  0.00     0.124 S 
ATOM     83  O   UNL A   1      39.069  34.977  39.379  1.00  0.00    -0.237 OA
ATOM     84  O   UNL A   1      41.373  35.856  39.212  1.00  0.00    -0.237 OA
ATOM     85  O   UNL A   1      39.581  36.830  37.832  1.00  0.00    -0.744 OA
ENDBRANCH  81  82
ENDBRANCH  53  76
BRANCH  65  86
ATOM     86  C   UNL A   1      45.813  27.498  34.814  1.00  0.00    -0.014 A 
ATOM     87  C   UNL A   1      45.665  26.520  35.812  1.00  0.00     0.010 A 
ATOM     88  C   UNL A   1      47.078  28.076  34.600  1.00  0.00     0.010 A 
ATOM     89  C   UNL A   1      46.754  26.152  36.605  1.00  0.00     0.020 A 
ATOM     90  C   UNL A   1      48.177  27.687  35.368  1.00  0.00     0.020 A 
ATOM     91  C   UNL A   1      48.005  26.737  36.376  1.00  0.00     0.054 A 
BRANCH  91  92
ATOM     92  S   UNL A   1      49.412  26.209  37.388  1.00  0.00     0.124 S 
ATOM     93  O   UNL A   1      50.480  27.080  36.903  1.00  0.00    -0.237 OA
ATOM     94  O   UNL A   1      48.948  26.480  38.747  1.00  0.00    -0.237 OA
ATOM     95  O   UNL A   1      49.567  24.794  37.059  1.00  0.00    -0.744 OA
ENDBRANCH  91  92
ENDBRANCH  65  86
ENDBRANCH  39  40
ENDBRANCH  32  34
ENDBRANCH  31  32
ENDBRANCH   1  31
TORSDOF 18
ENDMDL
MODEL 2
REMARK VINA RESULT:     -11.4      3.646      9.403
REMARK SMILES COc1ccccc1[C@@H]1C[N@@H+](Cc2cc3c(cc2C)OCO3)C[C@H]1C(=O)OCCOC(=O)c1ccc(-c2c3nc(c(-c4ccc(S(=O)(=O)[O-])cc4)c4ccc([nH]4)c(-c4ccc(S(=O)(=O)[O-])cc4)c4nc(c(-c5ccc(S(=O)(=O)[O-])cc5)c5ccc2[nH]5)C=C4)C=C3)cc1
REMARK SMILES IDX 29 1 28 2 27 3 25 4 26 5 24 6 9 7 10 8 11 9 23 10 8 12 3 13
REMARK SMILES IDX 4 14 5 15 7 16 6 17 2 18 1 19 12 20 13 21 14 22 18 23 15 24
REMARK SMILES IDX 17 25 19 26 16 27 22 28 20 29 21 30 30 31 31 32 32 33 33 34
REMARK SMILES IDX 34 35 92 36 35 37 91 38 36 39 37 40 38 41 85 42 39 43 90 44
REMARK SMILES IDX 84 45 86 46 40 47 89 48 83 49 82 50 41 52 71 53 52 54 70 55
REMARK SMILES IDX 53 56 56 57 69 58 87 59 54 60 55 61 68 63 88 64 57 65 42 66
REMARK SMILES IDX 43 67 51 68 44 69 50 70 45 71 46 72 47 73 48 74 49 75 72 76
REMARK SMILES IDX 73 77 81 78 74 79 80 80 75 81 76 82 77 83 78 84 79 85 58 86
REMARK SMILES IDX 59 87 67 88 60 89 66 90 61 91 62 92 63 93 64 94 65 95
REMARK H PARENT 11 11 86 51 56 62
REMARK Flexibility Score: inf
ROOT
ATOM      1  C   UNL A   1      33.581  28.871  26.195  1.00  0.00     0.275 C 
ENDROOT
BRANCH   1   2
ATOM      2  C   UNL A   1      33.719  27.405  25.784  1.00  0.00     0.274 C 
BRANCH   2   3
ATOM      3  O   UNL A   1      32.526  26.671  26.149  1.00  0.00    -0.462 OA
BRANCH   3   4
ATOM      4  C   UNL A   1      32.510  25.369  25.781  1.00  0.00     0.315 C 
ATOM      5  O   UNL A   1      33.372  24.560  26.116  1.00  0.00    -0.252 OA
BRANCH   4   6
ATOM      6  C   UNL A   1      31.296  24.931  24.978  1.00  0.00     0.167 C 
ATOM      7  C   UNL A   1      30.997  25.523  23.600  1.00  0.00     0.098 C 
ATOM      8  C   UNL A   1      30.603  24.325  22.724  1.00  0.00     0.272 C 
ATOM      9  N   UNL A   1      31.254  23.154  23.311  1.00  0.00    -0.330 N 
ATOM     10  C   UNL A   1      31.363  23.416  24.748  1.00  0.00     0.278 C 
ATOM     11  H   UNL A   1      30.682  22.323  23.162  1.00  0.00     0.348 HD
BRANCH   7  12
ATOM     12  C   UNL A   1      29.999  26.669  23.419  1.00  0.00     0.004 A 
ATOM     13  C   UNL A   1      30.144  27.947  22.847  1.00  0.00     0.122 A 
ATOM     14  C   UNL A   1      29.009  28.796  22.773  1.00  0.00     0.047 A 
ATOM     15  C   UNL A   1      27.760  28.443  23.271  1.00  0.00     0.004 A 
ATOM     16  C   UNL A   1      28.716  26.362  23.964  1.00  0.00     0.008 A 
ATOM     17  C   UNL A   1      27.617  27.220  23.886  1.00  0.00     0.001 A 
BRANCH  13  18
ATOM     18  O   UNL A   1      31.176  28.620  22.274  1.00  0.00    -0.496 OA
ATOM     19  C   UNL A   1      32.479  28.787  22.768  1.00  0.00     0.278 C 
ENDBRANCH  13  18
ENDBRANCH   7  12
BRANCH   9  20
ATOM     20  C   UNL A   1      32.478  22.701  22.635  1.00  0.00     0.299 C 
BRANCH  20  21
ATOM     21  C   UNL A   1      33.634  22.227  23.502  1.00  0.00     0.013 A 
ATOM     22  C   UNL A   1      34.799  23.031  23.537  1.00  0.00     0.060 A 
ATOM     23  C   UNL A   1      33.600  21.034  24.276  1.00  0.00    -0.038 A 
ATOM     24  C   UNL A   1      35.823  22.685  24.392  1.00  0.00     0.166 A 
ATOM     25  C   UNL A   1      34.638  20.766  25.190  1.00  0.00     0.054 A 
ATOM     26  C   UNL A   1      32.517  19.994  24.181  1.00  0.00     0.045 C 
ATOM     27  C   UNL A   1      35.723  21.606  25.229  1.00  0.00     0.166 A 
ATOM     28  O   UNL A   1      37.018  23.323  24.519  1.00  0.00    -0.454 OA
ATOM     29  O   UNL A   1      36.814  21.455  26.026  1.00  0.00    -0.454 OA
ATOM     30  C   UNL A   1      37.691  22.436  25.436  1.00  0.00     0.468 C 
ENDBRANCH  20  21
ENDBRANCH   9  20
ENDBRANCH   4   6
ENDBRANCH   3   4
ENDBRANCH   2   3
ENDBRANCH   1   2
BRANCH   1  31
ATOM     31  O   UNL A   1      33.884  28.963  27.596  1.00  0.00    -0.458 OA
BRANCH  31  32
ATOM     32  C   UNL A   1      34.395  30.158  27.965  1.00  0.00     0.338 C 
ATOM     33  O   UNL A   1      33.780  31.193  28.165  1.00  0.00    -0.246 OA
BRANCH  32  34
ATOM     34  C   UNL A   1      35.808  29.943  28.287  1.00  0.00     0.060 A 
ATOM     35  C   UNL A   1      36.760  30.150  27.288  1.00  0.00     0.016 A 
ATOM     36  C   UNL A   1      36.190  29.537  29.559  1.00  0.00     0.016 A 
ATOM     37  C   UNL A   1      38.102  29.891  27.529  1.00  0.00     0.010 A 
ATOM     38  C   UNL A   1      37.544  29.322  29.817  1.00  0.00     0.010 A 
ATOM     39  C   UNL A   1      38.504  29.472  28.797  1.00  0.00    -0.014 A 
BRANCH  39  40
ATOM     40  C   UNL A   1      39.918  29.119  29.059  1.00  0.00     0.031 A 
ATOM     41  C   UNL A   1      40.841  30.176  29.591  1.00  0.00     0.074 A 
ATOM     42  C   UNL A   1      40.367  27.877  28.797  1.00  0.00     0.049 A 
ATOM     43  N   UNL A   1      42.143  30.162  29.689  1.00  0.00    -0.248 NA
ATOM     44  C   UNL A   1      40.214  31.425  30.057  1.00  0.00     0.031 C 
ATOM     45  C   UNL A   1      39.543  26.752  28.349  1.00  0.00     0.029 A 
ATOM     46  N   UNL A   1      41.634  27.359  28.856  1.00  0.00    -0.354 N 
ATOM     47  C   UNL A   1      42.496  31.415  30.175  1.00  0.00     0.074 A 
ATOM     48  C   UNL A   1      41.272  32.168  30.342  1.00  0.00     0.031 C 
ATOM     49  C   UNL A   1      40.326  25.677  28.175  1.00  0.00     0.029 A 
ATOM     50  C   UNL A   1      41.712  26.056  28.423  1.00  0.00     0.049 A 
ATOM     51  H   UNL A   1      42.413  27.869  29.177  1.00  0.00     0.167 HD
ATOM     52  C   UNL A   1      43.735  31.890  30.448  1.00  0.00     0.031 A 
ATOM     53  C   UNL A   1      42.787  25.273  28.202  1.00  0.00     0.031 A 
ATOM     54  C   UNL A   1      44.936  31.116  30.285  1.00  0.00     0.049 A 
ATOM     55  C   UNL A   1      44.156  25.846  28.449  1.00  0.00     0.074 A 
ATOM     56  C   UNL A   1      46.243  31.487  30.543  1.00  0.00     0.029 A 
ATOM     57  N   UNL A   1      44.975  29.806  29.824  1.00  0.00    -0.354 N 
ATOM     58  N   UNL A   1      44.483  27.040  28.885  1.00  0.00    -0.248 NA
ATOM     59  C   UNL A   1      45.300  24.968  28.172  1.00  0.00     0.031 C 
ATOM     60  C   UNL A   1      47.076  30.424  30.181  1.00  0.00     0.029 A 
ATOM     61  C   UNL A   1      46.286  29.364  29.766  1.00  0.00     0.049 A 
ATOM     62  H   UNL A   1      44.187  29.271  29.576  1.00  0.00     0.167 HD
ATOM     63  C   UNL A   1      45.871  27.047  28.962  1.00  0.00     0.074 A 
ATOM     64  C   UNL A   1      46.318  25.734  28.542  1.00  0.00     0.031 C 
ATOM     65  C   UNL A   1      46.703  28.048  29.346  1.00  0.00     0.031 A 
BRANCH  52  66
ATOM     66  C   UNL A   1      43.851  33.324  30.896  1.00  0.00    -0.014 A 
ATOM     67  C   UNL A   1      43.986  34.378  29.974  1.00  0.00     0.010 A 
ATOM     68  C   UNL A   1      43.794  33.624  32.270  1.00  0.00     0.010 A 
ATOM     69  C   UNL A   1      44.104  35.698  30.421  1.00  0.00     0.020 A 
ATOM     70  C   UNL A   1      43.881  34.945  32.719  1.00  0.00     0.020 A 
ATOM     71  C   UNL A   1      44.052  35.973  31.791  1.00  0.00     0.054 A 
BRANCH  71  72
ATOM     72  S   UNL A   1      44.184  37.697  32.339  1.00  0.00     0.124 S 
ATOM     73  O   UNL A   1      43.758  38.426  31.147  1.00  0.00    -0.237 OA
ATOM     74  O   UNL A   1      43.260  37.745  33.468  1.00  0.00    -0.237 OA
ATOM     75  O   UNL A   1      45.595  37.845  32.686  1.00  0.00    -0.744 OA
ENDBRANCH  71  72
ENDBRANCH  52  66
BRANCH  53  76
ATOM     76  C   UNL A   1      42.609  23.886  27.690  1.00  0.00    -0.014 A 
ATOM     77  C   UNL A   1      42.486  22.806  28.580  1.00  0.00     0.010 A 
ATOM     78  C   UNL A   1      42.548  23.638  26.305  1.00  0.00     0.010 A 
ATOM     79  C   UNL A   1      42.320  21.504  28.097  1.00  0.00     0.020 A 
ATOM     80  C   UNL A   1      42.349  22.343  25.819  1.00  0.00     0.020 A 
ATOM     81  C   UNL A   1      42.249  21.282  26.719  1.00  0.00     0.054 A 
BRANCH  81  82
ATOM     82  S   UNL A   1      41.986  19.589  26.119  1.00  0.00     0.124 S 
ATOM     83  O   UNL A   1      42.340  18.793  27.289  1.00  0.00    -0.237 OA
ATOM     84  O   UNL A   1      40.569  19.599  25.764  1.00  0.00    -0.237 OA
ATOM     85  O   UNL A   1      42.903  19.481  24.987  1.00  0.00    -0.744 OA
ENDBRANCH  81  82
ENDBRANCH  53  76
BRANCH  65  86
ATOM     86  C   UNL A   1      48.177  27.744  29.376  1.00  0.00    -0.014 A 
ATOM     87  C   UNL A   1      48.791  27.204  30.519  1.00  0.00     0.010 A 
ATOM     88  C   UNL A   1      48.946  27.953  28.215  1.00  0.00     0.010 A 
ATOM     89  C   UNL A   1      50.157  26.910  30.511  1.00  0.00     0.020 A 
ATOM     90  C   UNL A   1      50.303  27.629  28.194  1.00  0.00     0.020 A 
ATOM     91  C   UNL A   1      50.904  27.122  29.348  1.00  0.00     0.054 A 
BRANCH  91  92
ATOM     92  S   UNL A   1      52.664  26.690  29.350  1.00  0.00     0.124 S 
ATOM     93  O   UNL A   1      52.794  25.937  28.106  1.00  0.00    -0.237 OA
ATOM     94  O   UNL A   1      53.314  27.998  29.365  1.00  0.00    -0.237 OA
ATOM     95  O   UNL A   1      52.827  25.905  30.572  1.00  0.00    -0.744 OA
ENDBRANCH  91  92
ENDBRANCH  65  86
ENDBRANCH  39  40
ENDBRANCH  32  34
ENDBRANCH  31  32
ENDBRANCH   1  31
TORSDOF 18
ENDMDL
MODEL 3
REMARK VINA RESULT:     -11.2      0.849      8.007
REMARK SMILES COc1ccccc1[C@@H]1C[N@@H+](Cc2cc3c(cc2C)OCO3)C[C@H]1C(=O)OCCOC(=O)c1ccc(-c2c3nc(c(-c4ccc(S(=O)(=O)[O-])cc4)c4ccc([nH]4)c(-c4ccc(S(=O)(=O)[O-])cc4)c4nc(c(-c5ccc(S(=O)(=O)[O-])cc5)c5ccc2[nH]5)C=C4)C=C3)cc1
REMARK SMILES IDX 29 1 28 2 27 3 25 4 26 5 24 6 9 7 10 8 11 9 23 10 8 12 3 13
REMARK SMILES IDX 4 14 5 15 7 16 6 17 2 18 1 19 12 20 13 21 14 22 18 23 15 24
REMARK SMILES IDX 17 25 19 26 16 27 22 28 20 29 21 30 30 31 31 32 32 33 33 34
REMARK SMILES IDX 34 35 92 36 35 37 91 38 36 39 37 40 38 41 85 42 39 43 90 44
REMARK SMILES IDX 84 45 86 46 40 47 89 48 83 49 82 50 41 52 71 53 52 54 70 55
REMARK SMILES IDX 53 56 56 57 69 58 87 59 54 60 55 61 68 63 88 64 57 65 42 66
REMARK SMILES IDX 43 67 51 68 44 69 50 70 45 71 46 72 47 73 48 74 49 75 72 76
REMARK SMILES IDX 73 77 81 78 74 79 80 80 75 81 76 82 77 83 78 84 79 85 58 86
REMARK SMILES IDX 59 87 67 88 60 89 66 90 61 91 62 92 63 93 64 94 65 95
REMARK H PARENT 11 11 86 51 56 62
REMARK Flexibility Score: inf
ROOT
ATOM      1  C   UNL A   1      32.664  29.910  26.894  1.00  0.00     0.275 C 
ENDROOT
BRANCH   1   2
ATOM      2  C   UNL A   1      32.488  28.457  27.337  1.00  0.00     0.274 C 
BRANCH   2   3
ATOM      3  O   UNL A   1      31.397  27.843  26.609  1.00  0.00    -0.462 OA
BRANCH   3   4
ATOM      4  C   UNL A   1      31.641  26.598  26.140  1.00  0.00     0.315 C 
ATOM      5  O   UNL A   1      31.023  25.602  26.510  1.00  0.00    -0.252 OA
BRANCH   4   6
ATOM      6  C   UNL A   1      32.690  26.505  25.043  1.00  0.00     0.167 C 
ATOM      7  C   UNL A   1      32.865  25.230  24.216  1.00  0.00     0.098 C 
ATOM      8  C   UNL A   1      33.018  25.709  22.766  1.00  0.00     0.272 C 
ATOM      9  N   UNL A   1      32.333  26.998  22.684  1.00  0.00    -0.330 N 
ATOM     10  C   UNL A   1      32.439  27.611  24.010  1.00  0.00     0.278 C 
ATOM     11  H   UNL A   1      32.793  27.597  21.998  1.00  0.00     0.348 HD
BRANCH   7  12
ATOM     12  C   UNL A   1      33.942  24.197  24.556  1.00  0.00     0.004 A 
ATOM     13  C   UNL A   1      34.063  22.835  24.223  1.00  0.00     0.122 A 
ATOM     14  C   UNL A   1      35.219  22.127  24.645  1.00  0.00     0.047 A 
ATOM     15  C   UNL A   1      36.230  22.704  25.404  1.00  0.00     0.004 A 
ATOM     16  C   UNL A   1      34.975  24.741  25.379  1.00  0.00     0.008 A 
ATOM     17  C   UNL A   1      36.098  24.019  25.788  1.00  0.00     0.001 A 
BRANCH  13  18
ATOM     18  O   UNL A   1      33.302  21.958  23.517  1.00  0.00    -0.496 OA
ATOM     19  C   UNL A   1      32.675  20.790  23.979  1.00  0.00     0.278 C 
ENDBRANCH  13  18
ENDBRANCH   7  12
BRANCH   9  20
ATOM     20  C   UNL A   1      30.992  26.969  22.083  1.00  0.00     0.299 C 
BRANCH  20  21
ATOM     21  C   UNL A   1      29.989  28.020  22.534  1.00  0.00     0.013 A 
ATOM     22  C   UNL A   1      30.208  29.356  22.122  1.00  0.00     0.060 A 
ATOM     23  C   UNL A   1      28.849  27.727  23.334  1.00  0.00    -0.038 A 
ATOM     24  C   UNL A   1      29.264  30.313  22.425  1.00  0.00     0.166 A 
ATOM     25  C   UNL A   1      27.877  28.723  23.553  1.00  0.00     0.054 A 
ATOM     26  C   UNL A   1      28.602  26.402  24.002  1.00  0.00     0.045 C 
ATOM     27  C   UNL A   1      28.107  29.992  23.084  1.00  0.00     0.166 A 
ATOM     28  O   UNL A   1      29.341  31.641  22.139  1.00  0.00    -0.454 OA
ATOM     29  O   UNL A   1      27.284  31.061  23.251  1.00  0.00    -0.454 OA
ATOM     30  C   UNL A   1      28.158  32.120  22.812  1.00  0.00     0.468 C 
ENDBRANCH  20  21
ENDBRANCH   9  20
ENDBRANCH   4   6
ENDBRANCH   3   4
ENDBRANCH   2   3
ENDBRANCH   1   2
BRANCH   1  31
ATOM     31  O   UNL A   1      34.073  30.172  26.804  1.00  0.00    -0.458 OA
BRANCH  31  32
ATOM     32  C   UNL A   1      34.513  31.091  27.691  1.00  0.00     0.338 C 
ATOM     33  O   UNL A   1      33.922  32.089  28.072  1.00  0.00    -0.246 OA
BRANCH  32  34
ATOM     34  C   UNL A   1      35.748  30.569  28.279  1.00  0.00     0.060 A 
ATOM     35  C   UNL A   1      35.655  29.638  29.314  1.00  0.00     0.016 A 
ATOM     36  C   UNL A   1      36.987  30.997  27.819  1.00  0.00     0.016 A 
ATOM     37  C   UNL A   1      36.798  29.170  29.948  1.00  0.00     0.010 A 
ATOM     38  C   UNL A   1      38.139  30.493  28.423  1.00  0.00     0.010 A 
ATOM     39  C   UNL A   1      38.051  29.597  29.507  1.00  0.00    -0.014 A 
BRANCH  39  40
ATOM     40  C   UNL A   1      39.280  29.170  30.212  1.00  0.00     0.031 A 
ATOM     41  C   UNL A   1      39.689  29.896  31.460  1.00  0.00     0.074 A 
ATOM     42  C   UNL A   1      40.029  28.164  29.722  1.00  0.00     0.049 A 
ATOM     43  N   UNL A   1      40.819  29.846  32.113  1.00  0.00    -0.248 NA
ATOM     44  C   UNL A   1      38.697  30.820  32.039  1.00  0.00     0.031 C 
ATOM     45  C   UNL A   1      39.689  27.340  28.559  1.00  0.00     0.029 A 
ATOM     46  N   UNL A   1      41.242  27.675  30.133  1.00  0.00    -0.354 N 
ATOM     47  C   UNL A   1      40.697  30.767  33.146  1.00  0.00     0.074 A 
ATOM     48  C   UNL A   1      39.387  31.370  33.027  1.00  0.00     0.031 C 
ATOM     49  C   UNL A   1      40.669  26.447  28.352  1.00  0.00     0.029 A 
ATOM     50  C   UNL A   1      41.738  26.687  29.315  1.00  0.00     0.049 A 
ATOM     51  H   UNL A   1      41.711  27.999  30.936  1.00  0.00     0.167 HD
ATOM     52  C   UNL A   1      41.604  31.082  34.100  1.00  0.00     0.031 A 
ATOM     53  C   UNL A   1      42.941  26.079  29.314  1.00  0.00     0.031 A 
ATOM     54  C   UNL A   1      42.896  30.457  34.205  1.00  0.00     0.049 A 
ATOM     55  C   UNL A   1      43.956  26.493  30.343  1.00  0.00     0.074 A 
ATOM     56  C   UNL A   1      43.891  30.685  35.138  1.00  0.00     0.029 A 
ATOM     57  N   UNL A   1      43.370  29.475  33.345  1.00  0.00    -0.354 N 
ATOM     58  N   UNL A   1      43.843  27.383  31.301  1.00  0.00    -0.248 NA
ATOM     59  C   UNL A   1      45.262  25.824  30.289  1.00  0.00     0.031 C 
ATOM     60  C   UNL A   1      44.989  29.884  34.806  1.00  0.00     0.029 A 
ATOM     61  C   UNL A   1      44.653  29.105  33.711  1.00  0.00     0.049 A 
ATOM     62  H   UNL A   1      42.868  29.097  32.587  1.00  0.00     0.167 HD
ATOM     63  C   UNL A   1      45.054  27.361  31.984  1.00  0.00     0.074 A 
ATOM     64  C   UNL A   1      45.878  26.359  31.336  1.00  0.00     0.031 C 
ATOM     65  C   UNL A   1      45.450  28.101  33.050  1.00  0.00     0.031 A 
BRANCH  52  66
ATOM     66  C   UNL A   1      41.251  32.182  35.067  1.00  0.00    -0.014 A 
ATOM     67  C   UNL A   1      40.636  31.911  36.303  1.00  0.00     0.010 A 
ATOM     68  C   UNL A   1      41.569  33.514  34.742  1.00  0.00     0.010 A 
ATOM     69  C   UNL A   1      40.309  32.955  37.174  1.00  0.00     0.020 A 
ATOM     70  C   UNL A   1      41.272  34.557  35.624  1.00  0.00     0.020 A 
ATOM     71  C   UNL A   1      40.628  34.272  36.828  1.00  0.00     0.054 A 
BRANCH  71  72
ATOM     72  S   UNL A   1      40.213  35.602  37.990  1.00  0.00     0.124 S 
ATOM     73  O   UNL A   1      39.103  35.016  38.736  1.00  0.00    -0.237 OA
ATOM     74  O   UNL A   1      41.455  35.770  38.739  1.00  0.00    -0.237 OA
ATOM     75  O   UNL A   1      39.856  36.722  37.122  1.00  0.00    -0.744 OA
ENDBRANCH  71  72
ENDBRANCH  52  66
BRANCH  53  76
ATOM     76  C   UNL A   1      43.256  25.049  28.286  1.00  0.00    -0.014 A 
ATOM     77  C   UNL A   1      42.903  23.704  28.490  1.00  0.00     0.010 A 
ATOM     78  C   UNL A   1      43.901  25.409  27.087  1.00  0.00     0.010 A 
ATOM     79  C   UNL A   1      43.201  22.738  27.524  1.00  0.00     0.020 A 
ATOM     80  C   UNL A   1      44.171  24.452  26.105  1.00  0.00     0.020 A 
ATOM     81  C   UNL A   1      43.830  23.119  26.336  1.00  0.00     0.054 A 
BRANCH  81  82
ATOM     82  S   UNL A   1      44.163  21.854  25.078  1.00  0.00     0.124 S 
ATOM     83  O   UNL A   1      43.870  22.570  23.841  1.00  0.00    -0.237 OA
ATOM     84  O   UNL A   1      45.570  21.542  25.311  1.00  0.00    -0.237 OA
ATOM     85  O   UNL A   1      43.231  20.780  25.416  1.00  0.00    -0.744 OA
ENDBRANCH  81  82
ENDBRANCH  53  76
BRANCH  65  86
ATOM     86  C   UNL A   1      46.818  27.818  33.612  1.00  0.00    -0.014 A 
ATOM     87  C   UNL A   1      47.948  28.537  33.188  1.00  0.00     0.010 A 
ATOM     88  C   UNL A   1      46.958  26.851  34.625  1.00  0.00     0.010 A 
ATOM     89  C   UNL A   1      49.202  28.270  33.744  1.00  0.00     0.020 A 
ATOM     90  C   UNL A   1      48.203  26.605  35.206  1.00  0.00     0.020 A 
ATOM     91  C   UNL A   1      49.321  27.307  34.751  1.00  0.00     0.054 A 
BRANCH  91  92
ATOM     92  S   UNL A   1      50.950  27.012  35.487  1.00  0.00     0.124 S 
ATOM     93  O   UNL A   1      50.868  27.778  36.727  1.00  0.00    -0.237 OA
ATOM     94  O   UNL A   1      50.971  25.559  35.646  1.00  0.00    -0.237 OA
ATOM     95  O   UNL A   1      51.882  27.537  34.492  1.00  0.00    -0.744 OA
ENDBRANCH  91  92
ENDBRANCH  65  86
ENDBRANCH  39  40
ENDBRANCH  32  34
ENDBRANCH  31  32
ENDBRANCH   1  31
TORSDOF 18
ENDMDL
