MODEL 1
REMARK VINA RESULT:     -10.5      0.000      0.000
REMARK SMILES C[C@H](C(=O)OCCOC(=O)c1ccc(-c2c3nc(c(-c4ccc(S(=O)(=O)[O-])cc4)c4ccc([nH]4)c(-c4ccc(S(=O)(=O)[O-])cc4)c4nc(c(-c5ccc(S(=O)(=O)[O-])cc5)c5ccc2[nH]5)C=C4)C=C3)cc1)c1ccc(-c2ccccc2)c(F)c1
REMARK SMILES IDX 7 1 6 2 5 3 3 4 4 5 2 6 1 7 71 8 72 9 83 10 73 11 81 12
REMARK SMILES IDX 74 13 82 14 75 15 76 16 80 17 77 18 79 19 78 20 8 21 9 22
REMARK SMILES IDX 10 23 11 24 12 25 70 26 13 27 69 28 14 29 15 30 16 31 63 32
REMARK SMILES IDX 17 33 68 34 62 35 64 36 18 37 67 38 61 39 60 40 19 42 49 43
REMARK SMILES IDX 30 44 48 45 31 46 34 47 47 48 65 49 32 50 33 51 46 53 66 54
REMARK SMILES IDX 35 55 20 56 21 57 29 58 22 59 28 60 23 61 24 62 25 63 26 64
REMARK SMILES IDX 27 65 50 66 51 67 59 68 52 69 58 70 53 71 54 72 55 73 56 74
REMARK SMILES IDX 57 75 36 76 37 77 45 78 38 79 44 80 39 81 40 82 41 83 42 84
REMARK SMILES IDX 43 85
REMARK H PARENT 64 41 34 52
REMARK Flexibility Score: inf
ROOT
ATOM      1  C   UNL A   1      37.320  21.681  25.163  1.00  0.00     0.275 C 
ENDROOT
BRANCH   1   2
ATOM      2  C   UNL A   1      36.150  21.996  24.235  1.00  0.00     0.274 C 
BRANCH   2   3
ATOM      3  O   UNL A   1      34.907  21.618  24.858  1.00  0.00    -0.462 OA
BRANCH   3   4
ATOM      4  C   UNL A   1      33.771  22.179  24.352  1.00  0.00     0.313 C 
ATOM      5  O   UNL A   1      32.642  21.756  24.565  1.00  0.00    -0.252 OA
BRANCH   4   6
ATOM      6  C   UNL A   1      34.088  23.348  23.415  1.00  0.00     0.126 C 
ATOM      7  C   UNL A   1      33.338  23.186  22.084  1.00  0.00     0.025 C 
BRANCH   6   8
ATOM      8  C   UNL A   1      33.908  24.721  24.057  1.00  0.00    -0.031 A 
ATOM      9  C   UNL A   1      33.788  24.800  25.453  1.00  0.00     0.005 A 
ATOM     10  C   UNL A   1      33.858  25.919  23.333  1.00  0.00     0.044 A 
ATOM     11  C   UNL A   1      33.639  26.030  26.103  1.00  0.00     0.012 A 
ATOM     12  C   UNL A   1      33.725  27.148  23.992  1.00  0.00     0.131 A 
ATOM     13  C   UNL A   1      33.624  27.237  25.386  1.00  0.00     0.017 A 
ATOM     14  F   UNL A   1      33.729  28.262  23.242  1.00  0.00    -0.206 F 
BRANCH  13  15
ATOM     15  C   UNL A   1      33.522  28.525  26.099  1.00  0.00    -0.015 A 
ATOM     16  C   UNL A   1      32.352  29.304  26.009  1.00  0.00     0.009 A 
ATOM     17  C   UNL A   1      34.580  29.026  26.874  1.00  0.00     0.009 A 
ATOM     18  C   UNL A   1      32.248  30.538  26.654  1.00  0.00     0.001 A 
ATOM     19  C   UNL A   1      34.477  30.261  27.524  1.00  0.00     0.001 A 
ATOM     20  C   UNL A   1      33.313  31.017  27.411  1.00  0.00     0.000 A 
ENDBRANCH  13  15
ENDBRANCH   6   8
ENDBRANCH   4   6
ENDBRANCH   3   4
ENDBRANCH   2   3
ENDBRANCH   1   2
BRANCH   1  21
ATOM     21  O   UNL A   1      37.862  22.909  25.671  1.00  0.00    -0.458 OA
BRANCH  21  22
ATOM     22  C   UNL A   1      39.026  22.811  26.350  1.00  0.00     0.338 C 
ATOM     23  O   UNL A   1      39.706  21.815  26.525  1.00  0.00    -0.246 OA
BRANCH  22  24
ATOM     24  C   UNL A   1      39.363  24.135  26.895  1.00  0.00     0.060 A 
ATOM     25  C   UNL A   1      40.063  25.053  26.112  1.00  0.00     0.016 A 
ATOM     26  C   UNL A   1      39.037  24.437  28.215  1.00  0.00     0.016 A 
ATOM     27  C   UNL A   1      40.484  26.262  26.661  1.00  0.00     0.010 A 
ATOM     28  C   UNL A   1      39.404  25.676  28.745  1.00  0.00     0.010 A 
ATOM     29  C   UNL A   1      40.154  26.591  27.982  1.00  0.00    -0.014 A 
BRANCH  29  30
ATOM     30  C   UNL A   1      40.624  27.863  28.590  1.00  0.00     0.031 A 
ATOM     31  C   UNL A   1      42.048  27.984  29.066  1.00  0.00     0.074 A 
ATOM     32  C   UNL A   1      39.783  28.907  28.729  1.00  0.00     0.049 A 
ATOM     33  N   UNL A   1      42.608  28.937  29.765  1.00  0.00    -0.248 NA
ATOM     34  C   UNL A   1      42.956  26.878  28.720  1.00  0.00     0.031 C 
ATOM     35  C   UNL A   1      38.392  28.945  28.271  1.00  0.00     0.029 A 
ATOM     36  N   UNL A   1      39.978  30.141  29.300  1.00  0.00    -0.354 N 
ATOM     37  C   UNL A   1      43.918  28.525  29.985  1.00  0.00     0.074 A 
ATOM     38  C   UNL A   1      44.068  27.234  29.348  1.00  0.00     0.031 C 
ATOM     39  C   UNL A   1      37.868  30.147  28.559  1.00  0.00     0.029 A 
ATOM     40  C   UNL A   1      38.859  30.939  29.280  1.00  0.00     0.049 A 
ATOM     41  H   UNL A   1      40.837  30.426  29.685  1.00  0.00     0.167 HD
ATOM     42  C   UNL A   1      44.903  29.162  30.662  1.00  0.00     0.031 A 
ATOM     43  C   UNL A   1      38.641  32.159  29.810  1.00  0.00     0.031 A 
ATOM     44  C   UNL A   1      44.762  30.459  31.268  1.00  0.00     0.049 A 
ATOM     45  C   UNL A   1      39.740  32.833  30.583  1.00  0.00     0.074 A 
ATOM     46  C   UNL A   1      45.710  31.193  31.962  1.00  0.00     0.029 A 
ATOM     47  N   UNL A   1      43.606  31.223  31.242  1.00  0.00    -0.354 N 
ATOM     48  N   UNL A   1      40.960  32.412  30.816  1.00  0.00    -0.248 NA
ATOM     49  C   UNL A   1      39.428  34.142  31.173  1.00  0.00     0.031 C 
ATOM     50  C   UNL A   1      45.113  32.386  32.387  1.00  0.00     0.029 A 
ATOM     51  C   UNL A   1      43.809  32.414  31.920  1.00  0.00     0.049 A 
ATOM     52  H   UNL A   1      42.764  30.957  30.807  1.00  0.00     0.167 HD
ATOM     53  C   UNL A   1      41.566  33.409  31.572  1.00  0.00     0.074 A 
ATOM     54  C   UNL A   1      40.584  34.461  31.743  1.00  0.00     0.031 C 
ATOM     55  C   UNL A   1      42.820  33.448  32.082  1.00  0.00     0.031 A 
BRANCH  42  56
ATOM     56  C   UNL A   1      46.213  28.437  30.821  1.00  0.00    -0.014 A 
ATOM     57  C   UNL A   1      47.276  28.634  29.922  1.00  0.00     0.010 A 
ATOM     58  C   UNL A   1      46.388  27.561  31.908  1.00  0.00     0.010 A 
ATOM     59  C   UNL A   1      48.476  27.936  30.084  1.00  0.00     0.020 A 
ATOM     60  C   UNL A   1      47.594  26.878  32.086  1.00  0.00     0.020 A 
ATOM     61  C   UNL A   1      48.624  27.056  31.161  1.00  0.00     0.054 A 
BRANCH  61  62
ATOM     62  S   UNL A   1      50.194  26.167  31.358  1.00  0.00     0.124 S 
ATOM     63  O   UNL A   1      49.983  24.993  30.514  1.00  0.00    -0.237 OA
ATOM     64  O   UNL A   1      51.176  27.128  30.861  1.00  0.00    -0.237 OA
ATOM     65  O   UNL A   1      50.262  25.899  32.793  1.00  0.00    -0.744 OA
ENDBRANCH  61  62
ENDBRANCH  42  56
BRANCH  43  66
ATOM     66  C   UNL A   1      37.310  32.804  29.658  1.00  0.00    -0.014 A 
ATOM     67  C   UNL A   1      36.375  32.764  30.707  1.00  0.00     0.010 A 
ATOM     68  C   UNL A   1      36.980  33.484  28.471  1.00  0.00     0.010 A 
ATOM     69  C   UNL A   1      35.132  33.389  30.569  1.00  0.00     0.020 A 
ATOM     70  C   UNL A   1      35.749  34.131  28.340  1.00  0.00     0.020 A 
ATOM     71  C   UNL A   1      34.828  34.072  29.388  1.00  0.00     0.054 A 
BRANCH  71  72
ATOM     72  S   UNL A   1      33.239  34.939  29.255  1.00  0.00     0.124 S 
ATOM     73  O   UNL A   1      32.716  34.822  30.613  1.00  0.00    -0.237 OA
ATOM     74  O   UNL A   1      33.642  36.283  28.846  1.00  0.00    -0.237 OA
ATOM     75  O   UNL A   1      32.520  34.177  28.237  1.00  0.00    -0.744 OA
ENDBRANCH  71  72
ENDBRANCH  43  66
BRANCH  55  76
ATOM     76  C   UNL A   1      43.212  34.679  32.851  1.00  0.00    -0.014 A 
ATOM     77  C   UNL A   1      43.845  35.760  32.214  1.00  0.00     0.010 A 
ATOM     78  C   UNL A   1      42.899  34.773  34.219  1.00  0.00     0.010 A 
ATOM     79  C   UNL A   1      44.185  36.905  32.939  1.00  0.00     0.020 A 
ATOM     80  C   UNL A   1      43.219  35.925  34.942  1.00  0.00     0.020 A 
ATOM     81  C   UNL A   1      43.874  36.978  34.301  1.00  0.00     0.054 A 
BRANCH  81  82
ATOM     82  S   UNL A   1      44.288  38.489  35.216  1.00  0.00     0.124 S 
ATOM     83  O   UNL A   1      43.925  38.125  36.583  1.00  0.00    -0.237 OA
ATOM     84  O   UNL A   1      45.720  38.638  34.965  1.00  0.00    -0.237 OA
ATOM     85  O   UNL A   1      43.444  39.509  34.598  1.00  0.00    -0.744 OA
ENDBRANCH  81  82
ENDBRANCH  55  76
ENDBRANCH  29  30
ENDBRANCH  22  24
ENDBRANCH  21  22
ENDBRANCH   1  21
TORSDOF 16
ENDMDL
MODEL 2
REMARK VINA RESULT:     -10.4      4.207     10.191
REMARK SMILES C[C@H](C(=O)OCCOC(=O)c1ccc(-c2c3nc(c(-c4ccc(S(=O)(=O)[O-])cc4)c4ccc([nH]4)c(-c4ccc(S(=O)(=O)[O-])cc4)c4nc(c(-c5ccc(S(=O)(=O)[O-])cc5)c5ccc2[nH]5)C=C4)C=C3)cc1)c1ccc(-c2ccccc2)c(F)c1
REMARK SMILES IDX 7 1 6 2 5 3 3 4 4 5 2 6 1 7 71 8 72 9 83 10 73 11 81 12
REMARK SMILES IDX 74 13 82 14 75 15 76 16 80 17 77 18 79 19 78 20 8 21 9 22
REMARK SMILES IDX 10 23 11 24 12 25 70 26 13 27 69 28 14 29 15 30 16 31 63 32
REMARK SMILES IDX 17 33 68 34 62 35 64 36 18 37 67 38 61 39 60 40 19 42 49 43
REMARK SMILES IDX 30 44 48 45 31 46 34 47 47 48 65 49 32 50 33 51 46 53 66 54
REMARK SMILES IDX 35 55 20 56 21 57 29 58 22 59 28 60 23 61 24 62 25 63 26 64
REMARK SMILES IDX 27 65 50 66 51 67 59 68 52 69 58 70 53 71 54 72 55 73 56 74
REMARK SMILES IDX 57 75 36 76 37 77 45 78 38 79 44 80 39 81 40 82 41 83 42 84
REMARK SMILES IDX 43 85
REMARK H PARENT 64 41 34 52
REMARK Flexibility Score: inf
ROOT
ATOM      1  C   UNL A   1      36.117  32.167  32.517  1.00  0.00     0.275 C 
ENDROOT
BRANCH   1   2
ATOM      2  C   UNL A   1      34.810  32.831  32.093  1.00  0.00     0.274 C 
BRANCH   2   3
ATOM      3  O   UNL A   1      34.487  32.470  30.736  1.00  0.00    -0.462 OA
BRANCH   3   4
ATOM      4  C   UNL A   1      34.469  33.479  29.819  1.00  0.00     0.313 C 
ATOM      5  O   UNL A   1      33.946  34.570  30.008  1.00  0.00    -0.252 OA
BRANCH   4   6
ATOM      6  C   UNL A   1      35.106  33.050  28.494  1.00  0.00     0.126 C 
ATOM      7  C   UNL A   1      36.638  33.098  28.596  1.00  0.00     0.025 C 
BRANCH   6   8
ATOM      8  C   UNL A   1      34.567  31.731  27.949  1.00  0.00    -0.031 A 
ATOM      9  C   UNL A   1      35.415  30.612  27.933  1.00  0.00     0.005 A 
ATOM     10  C   UNL A   1      33.264  31.564  27.460  1.00  0.00     0.044 A 
ATOM     11  C   UNL A   1      34.973  29.371  27.462  1.00  0.00     0.012 A 
ATOM     12  C   UNL A   1      32.825  30.313  27.005  1.00  0.00     0.131 A 
ATOM     13  C   UNL A   1      33.660  29.188  27.005  1.00  0.00     0.017 A 
ATOM     14  F   UNL A   1      31.552  30.212  26.592  1.00  0.00    -0.206 F 
BRANCH  13  15
ATOM     15  C   UNL A   1      33.203  27.856  26.566  1.00  0.00    -0.015 A 
ATOM     16  C   UNL A   1      31.904  27.406  26.872  1.00  0.00     0.009 A 
ATOM     17  C   UNL A   1      34.040  26.987  25.848  1.00  0.00     0.009 A 
ATOM     18  C   UNL A   1      31.463  26.137  26.488  1.00  0.00     0.001 A 
ATOM     19  C   UNL A   1      33.601  25.717  25.460  1.00  0.00     0.001 A 
ATOM     20  C   UNL A   1      32.314  25.292  25.783  1.00  0.00     0.000 A 
ENDBRANCH  13  15
ENDBRANCH   6   8
ENDBRANCH   4   6
ENDBRANCH   3   4
ENDBRANCH   2   3
ENDBRANCH   1   2
BRANCH   1  21
ATOM     21  O   UNL A   1      36.528  31.244  31.496  1.00  0.00    -0.458 OA
BRANCH  21  22
ATOM     22  C   UNL A   1      37.137  30.116  31.924  1.00  0.00     0.338 C 
ATOM     23  O   UNL A   1      36.734  29.320  32.753  1.00  0.00    -0.246 OA
BRANCH  22  24
ATOM     24  C   UNL A   1      38.429  29.990  31.232  1.00  0.00     0.060 A 
ATOM     25  C   UNL A   1      38.514  30.256  29.864  1.00  0.00     0.016 A 
ATOM     26  C   UNL A   1      39.543  29.541  31.934  1.00  0.00     0.016 A 
ATOM     27  C   UNL A   1      39.707  30.028  29.181  1.00  0.00     0.010 A 
ATOM     28  C   UNL A   1      40.756  29.374  31.262  1.00  0.00     0.010 A 
ATOM     29  C   UNL A   1      40.844  29.590  29.874  1.00  0.00    -0.014 A 
BRANCH  29  30
ATOM     30  C   UNL A   1      42.114  29.312  29.152  1.00  0.00     0.031 A 
ATOM     31  C   UNL A   1      42.355  27.948  28.561  1.00  0.00     0.074 A 
ATOM     32  C   UNL A   1      43.055  30.268  29.032  1.00  0.00     0.049 A 
ATOM     33  N   UNL A   1      43.449  27.454  28.042  1.00  0.00    -0.248 NA
ATOM     34  C   UNL A   1      41.217  27.014  28.569  1.00  0.00     0.031 C 
ATOM     35  C   UNL A   1      42.935  31.646  29.516  1.00  0.00     0.029 A 
ATOM     36  N   UNL A   1      44.305  30.224  28.465  1.00  0.00    -0.354 N 
ATOM     37  C   UNL A   1      43.149  26.138  27.707  1.00  0.00     0.074 A 
ATOM     38  C   UNL A   1      41.771  25.910  28.085  1.00  0.00     0.031 C 
ATOM     39  C   UNL A   1      44.054  32.320  29.204  1.00  0.00     0.029 A 
ATOM     40  C   UNL A   1      44.997  31.408  28.563  1.00  0.00     0.049 A 
ATOM     41  H   UNL A   1      44.671  29.421  28.029  1.00  0.00     0.167 HD
ATOM     42  C   UNL A   1      43.950  25.204  27.142  1.00  0.00     0.031 A 
ATOM     43  C   UNL A   1      46.259  31.720  28.208  1.00  0.00     0.031 A 
ATOM     44  C   UNL A   1      45.311  25.441  26.738  1.00  0.00     0.049 A 
ATOM     45  C   UNL A   1      47.139  30.658  27.611  1.00  0.00     0.074 A 
ATOM     46  C   UNL A   1      46.198  24.560  26.142  1.00  0.00     0.029 A 
ATOM     47  N   UNL A   1      45.978  26.649  26.875  1.00  0.00    -0.354 N 
ATOM     48  N   UNL A   1      46.852  29.408  27.338  1.00  0.00    -0.248 NA
ATOM     49  C   UNL A   1      48.518  31.048  27.284  1.00  0.00     0.031 C 
ATOM     50  C   UNL A   1      47.414  25.227  25.952  1.00  0.00     0.029 A 
ATOM     51  C   UNL A   1      47.270  26.534  26.389  1.00  0.00     0.049 A 
ATOM     52  H   UNL A   1      45.590  27.466  27.261  1.00  0.00     0.167 HD
ATOM     53  C   UNL A   1      48.012  28.863  26.798  1.00  0.00     0.074 A 
ATOM     54  C   UNL A   1      48.999  29.924  26.766  1.00  0.00     0.031 C 
ATOM     55  C   UNL A   1      48.239  27.598  26.369  1.00  0.00     0.031 A 
BRANCH  42  56
ATOM     56  C   UNL A   1      43.385  23.820  26.970  1.00  0.00    -0.014 A 
ATOM     57  C   UNL A   1      43.343  22.905  28.038  1.00  0.00     0.010 A 
ATOM     58  C   UNL A   1      42.863  23.438  25.720  1.00  0.00     0.010 A 
ATOM     59  C   UNL A   1      42.827  21.620  27.846  1.00  0.00     0.020 A 
ATOM     60  C   UNL A   1      42.326  22.162  25.531  1.00  0.00     0.020 A 
ATOM     61  C   UNL A   1      42.329  21.254  26.591  1.00  0.00     0.054 A 
BRANCH  61  62
ATOM     62  S   UNL A   1      41.655  19.585  26.368  1.00  0.00     0.124 S 
ATOM     63  O   UNL A   1      40.237  19.860  26.148  1.00  0.00    -0.237 OA
ATOM     64  O   UNL A   1      42.386  19.092  25.204  1.00  0.00    -0.237 OA
ATOM     65  O   UNL A   1      41.970  18.913  27.627  1.00  0.00    -0.744 OA
ENDBRANCH  61  62
ENDBRANCH  42  56
BRANCH  43  66
ATOM     66  C   UNL A   1      46.775  33.094  28.445  1.00  0.00    -0.014 A 
ATOM     67  C   UNL A   1      46.628  34.090  27.464  1.00  0.00     0.010 A 
ATOM     68  C   UNL A   1      47.394  33.421  29.666  1.00  0.00     0.010 A 
ATOM     69  C   UNL A   1      47.095  35.387  27.697  1.00  0.00     0.020 A 
ATOM     70  C   UNL A   1      47.838  34.723  29.912  1.00  0.00     0.020 A 
ATOM     71  C   UNL A   1      47.694  35.696  28.922  1.00  0.00     0.054 A 
BRANCH  71  72
ATOM     72  S   UNL A   1      48.227  37.402  29.236  1.00  0.00     0.124 S 
ATOM     73  O   UNL A   1      47.015  38.158  28.936  1.00  0.00    -0.237 OA
ATOM     74  O   UNL A   1      48.615  37.361  30.643  1.00  0.00    -0.237 OA
ATOM     75  O   UNL A   1      49.333  37.590  28.299  1.00  0.00    -0.744 OA
ENDBRANCH  71  72
ENDBRANCH  43  66
BRANCH  55  76
ATOM     76  C   UNL A   1      49.601  27.297  25.806  1.00  0.00    -0.014 A 
ATOM     77  C   UNL A   1      50.633  26.811  26.626  1.00  0.00     0.010 A 
ATOM     78  C   UNL A   1      49.833  27.459  24.428  1.00  0.00     0.010 A 
ATOM     79  C   UNL A   1      51.886  26.518  26.084  1.00  0.00     0.020 A 
ATOM     80  C   UNL A   1      51.080  27.147  23.879  1.00  0.00     0.020 A 
ATOM     81  C   UNL A   1      52.103  26.693  24.713  1.00  0.00     0.054 A 
BRANCH  81  82
ATOM     82  S   UNL A   1      53.725  26.269  24.020  1.00  0.00     0.124 S 
ATOM     83  O   UNL A   1      54.526  27.434  24.386  1.00  0.00    -0.237 OA
ATOM     84  O   UNL A   1      54.063  25.030  24.718  1.00  0.00    -0.237 OA
ATOM     85  O   UNL A   1      53.461  26.118  22.591  1.00  0.00    -0.744 OA
ENDBRANCH  81  82
ENDBRANCH  55  76
ENDBRANCH  29  30
ENDBRANCH  22  24
ENDBRANCH  21  22
ENDBRANCH   1  21
TORSDOF 16
ENDMDL
MODEL 3
REMARK VINA RESULT:     -10.4      2.757      9.552
REMARK SMILES C[C@H](C(=O)OCCOC(=O)c1ccc(-c2c3nc(c(-c4ccc(S(=O)(=O)[O-])cc4)c4ccc([nH]4)c(-c4ccc(S(=O)(=O)[O-])cc4)c4nc(c(-c5ccc(S(=O)(=O)[O-])cc5)c5ccc2[nH]5)C=C4)C=C3)cc1)c1ccc(-c2ccccc2)c(F)c1
REMARK SMILES IDX 7 1 6 2 5 3 3 4 4 5 2 6 1 7 71 8 72 9 83 10 73 11 81 12
REMARK SMILES IDX 74 13 82 14 75 15 76 16 80 17 77 18 79 19 78 20 8 21 9 22
REMARK SMILES IDX 10 23 11 24 12 25 70 26 13 27 69 28 14 29 15 30 16 31 63 32
REMARK SMILES IDX 17 33 68 34 62 35 64 36 18 37 67 38 61 39 60 40 19 42 49 43
REMARK SMILES IDX 30 44 48 45 31 46 34 47 47 48 65 49 32 50 33 51 46 53 66 54
REMARK SMILES IDX 35 55 20 56 21 57 29 58 22 59 28 60 23 61 24 62 25 63 26 64
REMARK SMILES IDX 27 65 50 66 51 67 59 68 52 69 58 70 53 71 54 72 55 73 56 74
REMARK SMILES IDX 57 75 36 76 37 77 45 78 38 79 44 80 39 81 40 82 41 83 42 84
REMARK SMILES IDX 43 85
REMARK H PARENT 64 41 34 52
REMARK Flexibility Score: inf
ROOT
ATOM      1  C   UNL A   1      33.310  29.392  26.388  1.00  0.00     0.275 C 
ENDROOT
BRANCH   1   2
ATOM      2  C   UNL A   1      31.803  29.340  26.152  1.00  0.00     0.274 C 
BRANCH   2   3
ATOM      3  O   UNL A   1      31.525  29.220  24.743  1.00  0.00    -0.462 OA
BRANCH   3   4
ATOM      4  C   UNL A   1      31.285  27.964  24.269  1.00  0.00     0.313 C 
ATOM      5  O   UNL A   1      30.458  27.196  24.744  1.00  0.00    -0.252 OA
BRANCH   4   6
ATOM      6  C   UNL A   1      32.237  27.601  23.125  1.00  0.00     0.126 C 
ATOM      7  C   UNL A   1      33.112  28.807  22.753  1.00  0.00     0.025 C 
BRANCH   6   8
ATOM      8  C   UNL A   1      33.028  26.319  23.365  1.00  0.00    -0.031 A 
ATOM      9  C   UNL A   1      33.872  26.247  24.484  1.00  0.00     0.005 A 
ATOM     10  C   UNL A   1      32.962  25.195  22.530  1.00  0.00     0.044 A 
ATOM     11  C   UNL A   1      34.610  25.093  24.767  1.00  0.00     0.012 A 
ATOM     12  C   UNL A   1      33.692  24.037  22.829  1.00  0.00     0.131 A 
ATOM     13  C   UNL A   1      34.521  23.952  23.955  1.00  0.00     0.017 A 
ATOM     14  F   UNL A   1      33.549  22.981  22.013  1.00  0.00    -0.206 F 
BRANCH  13  15
ATOM     15  C   UNL A   1      35.267  22.728  24.307  1.00  0.00    -0.015 A 
ATOM     16  C   UNL A   1      36.675  22.717  24.291  1.00  0.00     0.009 A 
ATOM     17  C   UNL A   1      34.610  21.536  24.651  1.00  0.00     0.009 A 
ATOM     18  C   UNL A   1      37.397  21.560  24.594  1.00  0.00     0.001 A 
ATOM     19  C   UNL A   1      35.330  20.377  24.958  1.00  0.00     0.001 A 
ATOM     20  C   UNL A   1      36.723  20.389  24.926  1.00  0.00     0.000 A 
ENDBRANCH  13  15
ENDBRANCH   6   8
ENDBRANCH   4   6
ENDBRANCH   3   4
ENDBRANCH   2   3
ENDBRANCH   1   2
BRANCH   1  21
ATOM     21  O   UNL A   1      33.563  29.464  27.799  1.00  0.00    -0.458 OA
BRANCH  21  22
ATOM     22  C   UNL A   1      34.316  30.506  28.217  1.00  0.00     0.338 C 
ATOM     23  O   UNL A   1      33.958  31.653  28.415  1.00  0.00    -0.246 OA
BRANCH  22  24
ATOM     24  C   UNL A   1      35.703  30.043  28.383  1.00  0.00     0.060 A 
ATOM     25  C   UNL A   1      36.156  29.639  29.639  1.00  0.00     0.016 A 
ATOM     26  C   UNL A   1      36.572  30.076  27.295  1.00  0.00     0.016 A 
ATOM     27  C   UNL A   1      37.497  29.310  29.825  1.00  0.00     0.010 A 
ATOM     28  C   UNL A   1      37.902  29.685  27.469  1.00  0.00     0.010 A 
ATOM     29  C   UNL A   1      38.384  29.323  28.741  1.00  0.00    -0.014 A 
BRANCH  29  30
ATOM     30  C   UNL A   1      39.824  29.006  28.931  1.00  0.00     0.031 A 
ATOM     31  C   UNL A   1      40.760  30.063  29.457  1.00  0.00     0.074 A 
ATOM     32  C   UNL A   1      40.300  27.783  28.628  1.00  0.00     0.049 A 
ATOM     33  N   UNL A   1      42.065  30.043  29.542  1.00  0.00    -0.248 NA
ATOM     34  C   UNL A   1      40.144  31.310  29.938  1.00  0.00     0.031 C 
ATOM     35  C   UNL A   1      39.500  26.651  28.154  1.00  0.00     0.029 A 
ATOM     36  N   UNL A   1      41.581  27.288  28.672  1.00  0.00    -0.354 N 
ATOM     37  C   UNL A   1      42.431  31.290  30.037  1.00  0.00     0.074 A 
ATOM     38  C   UNL A   1      41.210  32.042  30.231  1.00  0.00     0.031 C 
ATOM     39  C   UNL A   1      40.303  25.590  27.974  1.00  0.00     0.029 A 
ATOM     40  C   UNL A   1      41.681  25.983  28.252  1.00  0.00     0.049 A 
ATOM     41  H   UNL A   1      42.353  27.816  28.976  1.00  0.00     0.167 HD
ATOM     42  C   UNL A   1      43.672  31.766  30.299  1.00  0.00     0.031 A 
ATOM     43  C   UNL A   1      42.762  25.197  28.076  1.00  0.00     0.031 A 
ATOM     44  C   UNL A   1      44.882  31.006  30.135  1.00  0.00     0.049 A 
ATOM     45  C   UNL A   1      44.130  25.757  28.345  1.00  0.00     0.074 A 
ATOM     46  C   UNL A   1      46.186  31.398  30.391  1.00  0.00     0.029 A 
ATOM     47  N   UNL A   1      44.939  29.695  29.687  1.00  0.00    -0.354 N 
ATOM     48  N   UNL A   1      44.462  26.951  28.775  1.00  0.00    -0.248 NA
ATOM     49  C   UNL A   1      45.272  24.866  28.094  1.00  0.00     0.031 C 
ATOM     50  C   UNL A   1      47.034  30.334  30.061  1.00  0.00     0.029 A 
ATOM     51  C   UNL A   1      46.255  29.267  29.643  1.00  0.00     0.049 A 
ATOM     52  H   UNL A   1      44.159  29.151  29.436  1.00  0.00     0.167 HD
ATOM     53  C   UNL A   1      45.850  26.952  28.855  1.00  0.00     0.074 A 
ATOM     54  C   UNL A   1      46.295  25.634  28.447  1.00  0.00     0.031 C 
ATOM     55  C   UNL A   1      46.680  27.954  29.231  1.00  0.00     0.031 A 
BRANCH  42  56
ATOM     56  C   UNL A   1      43.782  33.198  30.750  1.00  0.00    -0.014 A 
ATOM     57  C   UNL A   1      43.539  33.569  32.085  1.00  0.00     0.010 A 
ATOM     58  C   UNL A   1      44.160  34.186  29.822  1.00  0.00     0.010 A 
ATOM     59  C   UNL A   1      43.633  34.908  32.473  1.00  0.00     0.020 A 
ATOM     60  C   UNL A   1      44.276  35.523  30.211  1.00  0.00     0.020 A 
ATOM     61  C   UNL A   1      43.993  35.878  31.531  1.00  0.00     0.054 A 
BRANCH  61  62
ATOM     62  S   UNL A   1      44.118  37.609  32.060  1.00  0.00     0.124 S 
ATOM     63  O   UNL A   1      43.562  38.316  30.908  1.00  0.00    -0.237 OA
ATOM     64  O   UNL A   1      43.301  37.640  33.270  1.00  0.00    -0.237 OA
ATOM     65  O   UNL A   1      45.551  37.802  32.275  1.00  0.00    -0.744 OA
ENDBRANCH  61  62
ENDBRANCH  42  56
BRANCH  43  66
ATOM     66  C   UNL A   1      42.591  23.804  27.584  1.00  0.00    -0.014 A 
ATOM     67  C   UNL A   1      42.643  23.523  26.207  1.00  0.00     0.010 A 
ATOM     68  C   UNL A   1      42.401  22.747  28.493  1.00  0.00     0.010 A 
ATOM     69  C   UNL A   1      42.503  22.210  25.748  1.00  0.00     0.020 A 
ATOM     70  C   UNL A   1      42.286  21.430  28.038  1.00  0.00     0.020 A 
ATOM     71  C   UNL A   1      42.329  21.172  26.667  1.00  0.00     0.054 A 
BRANCH  71  72
ATOM     72  S   UNL A   1      42.223  19.465  26.058  1.00  0.00     0.124 S 
ATOM     73  O   UNL A   1      43.160  19.484  24.939  1.00  0.00    -0.237 OA
ATOM     74  O   UNL A   1      42.641  18.685  27.220  1.00  0.00    -0.237 OA
ATOM     75  O   UNL A   1      40.814  19.321  25.696  1.00  0.00    -0.744 OA
ENDBRANCH  71  72
ENDBRANCH  43  66
BRANCH  55  76
ATOM     76  C   UNL A   1      48.155  27.658  29.243  1.00  0.00    -0.014 A 
ATOM     77  C   UNL A   1      48.784  27.160  30.396  1.00  0.00     0.010 A 
ATOM     78  C   UNL A   1      48.908  27.836  28.069  1.00  0.00     0.010 A 
ATOM     79  C   UNL A   1      50.151  26.871  30.385  1.00  0.00     0.020 A 
ATOM     80  C   UNL A   1      50.271  27.528  28.048  1.00  0.00     0.020 A 
ATOM     81  C   UNL A   1      50.887  27.062  29.211  1.00  0.00     0.054 A 
BRANCH  81  82
ATOM     82  S   UNL A   1      52.652  26.644  29.204  1.00  0.00     0.124 S 
ATOM     83  O   UNL A   1      52.798  25.921  30.464  1.00  0.00    -0.237 OA
ATOM     84  O   UNL A   1      52.789  25.833  27.995  1.00  0.00    -0.237 OA
ATOM     85  O   UNL A   1      53.315  27.945  29.151  1.00  0.00    -0.744 OA
ENDBRANCH  81  82
ENDBRANCH  55  76
ENDBRANCH  29  30
ENDBRANCH  22  24
ENDBRANCH  21  22
ENDBRANCH   1  21
TORSDOF 16
ENDMDL
