MODEL 1
REMARK VINA RESULT:     -11.2      0.000      0.000
REMARK SMILES CC[C@@H](C(=O)Nc1ccc(OC(C)=O)cc1C(=O)OCCOC(=O)c1ccc(-c2c3nc(c(-c4ccc(S(=O)(=O)[O-])cc4)c4ccc([nH]4)c(-c4ccc(S(=O)(=O)[O-])cc4)c4nc(c(-c5ccc(S(=O)(=O)[O-])cc5)c5ccc2[nH]5)C=C4)C=C3)cc1)c1ccccc1
REMARK SMILES IDX 20 1 19 2 17 3 18 4 16 5 7 6 8 7 9 8 15 9 10 10 6 11 4 12
REMARK SMILES IDX 5 13 3 15 2 16 1 17 85 18 86 19 90 20 87 21 89 22 88 23
REMARK SMILES IDX 11 24 12 25 13 26 14 27 21 28 22 29 23 30 24 31 25 32 26 33
REMARK SMILES IDX 84 34 27 35 83 36 28 37 29 38 30 39 77 40 31 41 82 42 76 43
REMARK SMILES IDX 78 44 32 45 81 46 75 47 74 48 33 50 63 51 44 52 62 53 45 54
REMARK SMILES IDX 48 55 61 56 79 57 46 58 47 59 60 61 80 62 49 63 34 64 35 65
REMARK SMILES IDX 43 66 36 67 42 68 37 69 38 70 39 71 40 72 41 73 64 74 65 75
REMARK SMILES IDX 73 76 66 77 72 78 67 79 68 80 69 81 70 82 71 83 50 84 51 85
REMARK SMILES IDX 59 86 52 87 58 88 53 89 54 90 55 91 56 92 57 93
REMARK H PARENT 6 14 78 49 48 60
REMARK Flexibility Score: inf
ROOT
ATOM      1  C   UNL A   1      32.538  30.737  27.249  1.00  0.00     0.275 C 
ENDROOT
BRANCH   1   2
ATOM      2  O   UNL A   1      32.871  29.454  26.666  1.00  0.00    -0.458 OA
BRANCH   2   3
ATOM      3  C   UNL A   1      31.883  28.548  26.803  1.00  0.00     0.340 C 
ATOM      4  O   UNL A   1      31.344  28.242  27.857  1.00  0.00    -0.246 OA
BRANCH   3   5
ATOM      5  C   UNL A   1      31.512  27.817  25.584  1.00  0.00     0.087 A 
ATOM      6  C   UNL A   1      31.212  26.447  25.586  1.00  0.00     0.056 A 
ATOM      7  C   UNL A   1      30.735  25.850  24.405  1.00  0.00     0.031 A 
ATOM      8  C   UNL A   1      30.348  26.638  23.318  1.00  0.00     0.049 A 
ATOM      9  C   UNL A   1      31.223  28.583  24.443  1.00  0.00     0.065 A 
ATOM     10  C   UNL A   1      30.540  28.009  23.382  1.00  0.00     0.131 A 
BRANCH   6  11
ATOM     11  N   UNL A   1      31.323  25.589  26.694  1.00  0.00    -0.325 N 
ATOM     12  C   UNL A   1      31.589  24.242  26.718  1.00  0.00     0.231 C 
ATOM     13  O   UNL A   1      30.774  23.543  27.333  1.00  0.00    -0.274 OA
ATOM     14  H   UNL A   1      31.192  26.012  27.574  1.00  0.00     0.169 HD
BRANCH  12  15
ATOM     15  C   UNL A   1      33.024  23.724  26.338  1.00  0.00     0.108 C 
BRANCH  15  16
ATOM     16  C   UNL A   1      34.095  24.632  25.704  1.00  0.00     0.015 C 
ATOM     17  C   UNL A   1      35.507  24.096  25.560  1.00  0.00     0.005 C 
ENDBRANCH  15  16
BRANCH  15  18
ATOM     18  C   UNL A   1      32.875  22.471  25.446  1.00  0.00    -0.036 A 
ATOM     19  C   UNL A   1      32.432  22.618  24.123  1.00  0.00     0.004 A 
ATOM     20  C   UNL A   1      33.191  21.175  25.902  1.00  0.00     0.004 A 
ATOM     21  C   UNL A   1      32.266  21.503  23.300  1.00  0.00     0.000 A 
ATOM     22  C   UNL A   1      33.005  20.061  25.084  1.00  0.00     0.000 A 
ATOM     23  C   UNL A   1      32.536  20.225  23.785  1.00  0.00     0.000 A 
ENDBRANCH  15  18
ENDBRANCH  12  15
ENDBRANCH   6  11
BRANCH  10  24
ATOM     24  O   UNL A   1      30.071  28.802  22.314  1.00  0.00    -0.427 OA
BRANCH  24  25
ATOM     25  C   UNL A   1      28.760  29.268  22.144  1.00  0.00     0.308 C 
ATOM     26  C   UNL A   1      27.701  28.783  23.097  1.00  0.00     0.139 C 
ATOM     27  O   UNL A   1      28.488  30.014  21.207  1.00  0.00    -0.252 OA
ENDBRANCH  24  25
ENDBRANCH  10  24
ENDBRANCH   3   5
ENDBRANCH   2   3
ENDBRANCH   1   2
BRANCH   1  28
ATOM     28  C   UNL A   1      33.719  31.516  27.845  1.00  0.00     0.275 C 
BRANCH  28  29
ATOM     29  O   UNL A   1      34.993  30.867  27.643  1.00  0.00    -0.458 OA
BRANCH  29  30
ATOM     30  C   UNL A   1      35.749  30.733  28.758  1.00  0.00     0.338 C 
ATOM     31  O   UNL A   1      35.485  31.151  29.872  1.00  0.00    -0.246 OA
BRANCH  30  32
ATOM     32  C   UNL A   1      36.936  29.884  28.525  1.00  0.00     0.060 A 
ATOM     33  C   UNL A   1      37.667  29.494  29.640  1.00  0.00     0.016 A 
ATOM     34  C   UNL A   1      37.495  29.721  27.260  1.00  0.00     0.016 A 
ATOM     35  C   UNL A   1      38.973  29.057  29.537  1.00  0.00     0.010 A 
ATOM     36  C   UNL A   1      38.796  29.197  27.141  1.00  0.00     0.010 A 
ATOM     37  C   UNL A   1      39.559  28.905  28.286  1.00  0.00    -0.014 A 
BRANCH  37  38
ATOM     38  C   UNL A   1      41.002  28.564  28.254  1.00  0.00     0.031 A 
ATOM     39  C   UNL A   1      42.011  29.594  28.675  1.00  0.00     0.074 A 
ATOM     40  C   UNL A   1      41.390  27.294  28.023  1.00  0.00     0.049 A 
ATOM     41  N   UNL A   1      43.316  29.524  28.656  1.00  0.00    -0.248 NA
ATOM     42  C   UNL A   1      41.484  30.867  29.196  1.00  0.00     0.031 C 
ATOM     43  C   UNL A   1      40.489  26.166  27.764  1.00  0.00     0.029 A 
ATOM     44  N   UNL A   1      42.639  26.726  28.012  1.00  0.00    -0.354 N 
ATOM     45  C   UNL A   1      43.766  30.760  29.103  1.00  0.00     0.074 A 
ATOM     46  C   UNL A   1      42.597  31.555  29.409  1.00  0.00     0.031 C 
ATOM     47  C   UNL A   1      41.212  25.040  27.657  1.00  0.00     0.029 A 
ATOM     48  C   UNL A   1      42.629  25.378  27.740  1.00  0.00     0.049 A 
ATOM     49  H   UNL A   1      43.464  27.235  28.183  1.00  0.00     0.167 HD
ATOM     50  C   UNL A   1      45.043  31.196  29.219  1.00  0.00     0.031 A 
ATOM     51  C   UNL A   1      43.648  24.521  27.530  1.00  0.00     0.031 A 
ATOM     52  C   UNL A   1      46.195  30.384  28.928  1.00  0.00     0.049 A 
ATOM     53  C   UNL A   1      45.054  25.054  27.577  1.00  0.00     0.074 A 
ATOM     54  C   UNL A   1      47.531  30.743  28.958  1.00  0.00     0.029 A 
ATOM     55  N   UNL A   1      46.148  29.048  28.562  1.00  0.00    -0.354 N 
ATOM     56  N   UNL A   1      45.470  26.258  27.892  1.00  0.00    -0.248 NA
ATOM     57  C   UNL A   1      46.129  24.120  27.214  1.00  0.00     0.031 C 
ATOM     58  C   UNL A   1      48.288  29.641  28.548  1.00  0.00     0.029 A 
ATOM     59  C   UNL A   1      47.428  28.574  28.331  1.00  0.00     0.049 A 
ATOM     60  H   UNL A   1      45.326  28.514  28.479  1.00  0.00     0.167 HD
ATOM     61  C   UNL A   1      46.855  26.225  27.767  1.00  0.00     0.074 A 
ATOM     62  C   UNL A   1      47.206  24.873  27.385  1.00  0.00     0.031 C 
ATOM     63  C   UNL A   1      47.754  27.226  27.938  1.00  0.00     0.031 A 
BRANCH  50  64
ATOM     64  C   UNL A   1      45.252  32.644  29.569  1.00  0.00    -0.014 A 
ATOM     65  C   UNL A   1      45.434  33.079  30.893  1.00  0.00     0.010 A 
ATOM     66  C   UNL A   1      45.289  33.590  28.527  1.00  0.00     0.010 A 
ATOM     67  C   UNL A   1      45.619  34.438  31.169  1.00  0.00     0.020 A 
ATOM     68  C   UNL A   1      45.499  34.943  28.796  1.00  0.00     0.020 A 
ATOM     69  C   UNL A   1      45.648  35.361  30.118  1.00  0.00     0.054 A 
BRANCH  69  70
ATOM     70  S   UNL A   1      45.915  37.115  30.498  1.00  0.00     0.124 S 
ATOM     71  O   UNL A   1      44.624  37.700  30.144  1.00  0.00    -0.237 OA
ATOM     72  O   UNL A   1      46.224  37.091  31.925  1.00  0.00    -0.237 OA
ATOM     73  O   UNL A   1      47.027  37.495  29.630  1.00  0.00    -0.744 OA
ENDBRANCH  69  70
ENDBRANCH  50  64
BRANCH  51  74
ATOM     74  C   UNL A   1      43.376  23.105  27.147  1.00  0.00    -0.014 A 
ATOM     75  C   UNL A   1      42.757  22.213  28.039  1.00  0.00     0.010 A 
ATOM     76  C   UNL A   1      43.767  22.634  25.878  1.00  0.00     0.010 A 
ATOM     77  C   UNL A   1      42.557  20.875  27.680  1.00  0.00     0.020 A 
ATOM     78  C   UNL A   1      43.535  21.309  25.501  1.00  0.00     0.020 A 
ATOM     79  C   UNL A   1      42.947  20.432  26.412  1.00  0.00     0.054 A 
BRANCH  79  80
ATOM     80  S   UNL A   1      42.648  18.704  25.951  1.00  0.00     0.124 S 
ATOM     81  O   UNL A   1      43.098  17.990  27.141  1.00  0.00    -0.237 OA
ATOM     82  O   UNL A   1      41.209  18.685  25.705  1.00  0.00    -0.237 OA
ATOM     83  O   UNL A   1      43.477  18.521  24.760  1.00  0.00    -0.744 OA
ENDBRANCH  79  80
ENDBRANCH  51  74
BRANCH  63  84
ATOM     84  C   UNL A   1      49.205  26.886  27.725  1.00  0.00    -0.014 A 
ATOM     85  C   UNL A   1      50.057  26.616  28.811  1.00  0.00     0.010 A 
ATOM     86  C   UNL A   1      49.715  26.803  26.416  1.00  0.00     0.010 A 
ATOM     87  C   UNL A   1      51.403  26.314  28.595  1.00  0.00     0.020 A 
ATOM     88  C   UNL A   1      51.053  26.469  26.195  1.00  0.00     0.020 A 
ATOM     89  C   UNL A   1      51.893  26.246  27.288  1.00  0.00     0.054 A 
BRANCH  89  90
ATOM     90  S   UNL A   1      53.640  25.829  27.031  1.00  0.00     0.124 S 
ATOM     91  O   UNL A   1      53.548  24.534  26.364  1.00  0.00    -0.237 OA
ATOM     92  O   UNL A   1      54.115  26.932  26.200  1.00  0.00    -0.237 OA
ATOM     93  O   UNL A   1      54.190  25.795  28.384  1.00  0.00    -0.744 OA
ENDBRANCH  89  90
ENDBRANCH  63  84
ENDBRANCH  37  38
ENDBRANCH  30  32
ENDBRANCH  29  30
ENDBRANCH  28  29
ENDBRANCH   1  28
TORSDOF 20
ENDMDL
MODEL 2
REMARK VINA RESULT:     -11.0      2.866      9.101
REMARK SMILES CC[C@@H](C(=O)Nc1ccc(OC(C)=O)cc1C(=O)OCCOC(=O)c1ccc(-c2c3nc(c(-c4ccc(S(=O)(=O)[O-])cc4)c4ccc([nH]4)c(-c4ccc(S(=O)(=O)[O-])cc4)c4nc(c(-c5ccc(S(=O)(=O)[O-])cc5)c5ccc2[nH]5)C=C4)C=C3)cc1)c1ccccc1
REMARK SMILES IDX 20 1 19 2 17 3 18 4 16 5 7 6 8 7 9 8 15 9 10 10 6 11 4 12
REMARK SMILES IDX 5 13 3 15 2 16 1 17 85 18 86 19 90 20 87 21 89 22 88 23
REMARK SMILES IDX 11 24 12 25 13 26 14 27 21 28 22 29 23 30 24 31 25 32 26 33
REMARK SMILES IDX 84 34 27 35 83 36 28 37 29 38 30 39 77 40 31 41 82 42 76 43
REMARK SMILES IDX 78 44 32 45 81 46 75 47 74 48 33 50 63 51 44 52 62 53 45 54
REMARK SMILES IDX 48 55 61 56 79 57 46 58 47 59 60 61 80 62 49 63 34 64 35 65
REMARK SMILES IDX 43 66 36 67 42 68 37 69 38 70 39 71 40 72 41 73 64 74 65 75
REMARK SMILES IDX 73 76 66 77 72 78 67 79 68 80 69 81 70 82 71 83 50 84 51 85
REMARK SMILES IDX 59 86 52 87 58 88 53 89 54 90 55 91 56 92 57 93
REMARK H PARENT 6 14 78 49 48 60
REMARK Flexibility Score: inf
ROOT
ATOM      1  C   UNL A   1      34.541  24.055  25.027  1.00  0.00     0.275 C 
ENDROOT
BRANCH   1   2
ATOM      2  O   UNL A   1      34.446  25.350  25.667  1.00  0.00    -0.458 OA
BRANCH   2   3
ATOM      3  C   UNL A   1      33.909  26.290  24.866  1.00  0.00     0.340 C 
ATOM      4  O   UNL A   1      34.059  26.355  23.653  1.00  0.00    -0.246 OA
BRANCH   3   5
ATOM      5  C   UNL A   1      33.169  27.362  25.543  1.00  0.00     0.087 A 
ATOM      6  C   UNL A   1      32.003  27.124  26.285  1.00  0.00     0.056 A 
ATOM      7  C   UNL A   1      31.429  28.181  27.015  1.00  0.00     0.031 A 
ATOM      8  C   UNL A   1      32.122  29.381  27.189  1.00  0.00     0.049 A 
ATOM      9  C   UNL A   1      33.800  28.613  25.636  1.00  0.00     0.065 A 
ATOM     10  C   UNL A   1      33.336  29.554  26.544  1.00  0.00     0.131 A 
BRANCH   6  11
ATOM     11  N   UNL A   1      31.342  25.887  26.393  1.00  0.00    -0.325 N 
ATOM     12  C   UNL A   1      30.105  25.526  25.921  1.00  0.00     0.231 C 
ATOM     13  O   UNL A   1      29.326  25.052  26.757  1.00  0.00    -0.274 OA
ATOM     14  H   UNL A   1      31.836  25.183  26.873  1.00  0.00     0.169 HD
BRANCH  12  15
ATOM     15  C   UNL A   1      29.877  25.366  24.374  1.00  0.00     0.108 C 
BRANCH  15  16
ATOM     16  C   UNL A   1      30.952  24.793  23.430  1.00  0.00     0.015 C 
ATOM     17  C   UNL A   1      31.235  23.303  23.472  1.00  0.00     0.005 C 
ENDBRANCH  15  16
BRANCH  15  18
ATOM     18  C   UNL A   1      29.417  26.725  23.799  1.00  0.00    -0.036 A 
ATOM     19  C   UNL A   1      28.052  27.049  23.811  1.00  0.00     0.004 A 
ATOM     20  C   UNL A   1      30.321  27.672  23.277  1.00  0.00     0.004 A 
ATOM     21  C   UNL A   1      27.603  28.258  23.278  1.00  0.00     0.000 A 
ATOM     22  C   UNL A   1      29.867  28.870  22.727  1.00  0.00     0.000 A 
ATOM     23  C   UNL A   1      28.507  29.160  22.722  1.00  0.00     0.000 A 
ENDBRANCH  15  18
ENDBRANCH  12  15
ENDBRANCH   6  11
BRANCH  10  24
ATOM     24  O   UNL A   1      34.065  30.735  26.792  1.00  0.00    -0.427 OA
BRANCH  24  25
ATOM     25  C   UNL A   1      34.524  31.178  28.041  1.00  0.00     0.308 C 
ATOM     26  C   UNL A   1      35.483  30.301  28.799  1.00  0.00     0.139 C 
ATOM     27  O   UNL A   1      34.108  32.233  28.511  1.00  0.00    -0.252 OA
ENDBRANCH  24  25
ENDBRANCH  10  24
ENDBRANCH   3   5
ENDBRANCH   2   3
ENDBRANCH   1   2
BRANCH   1  28
ATOM     28  C   UNL A   1      35.950  23.449  24.970  1.00  0.00     0.275 C 
BRANCH  28  29
ATOM     29  O   UNL A   1      36.853  24.010  25.946  1.00  0.00    -0.458 OA
BRANCH  29  30
ATOM     30  C   UNL A   1      37.990  23.302  26.147  1.00  0.00     0.338 C 
ATOM     31  O   UNL A   1      38.165  22.121  25.899  1.00  0.00    -0.246 OA
BRANCH  30  32
ATOM     32  C   UNL A   1      39.103  24.157  26.610  1.00  0.00     0.060 A 
ATOM     33  C   UNL A   1      39.166  24.435  27.969  1.00  0.00     0.016 A 
ATOM     34  C   UNL A   1      39.876  24.909  25.730  1.00  0.00     0.016 A 
ATOM     35  C   UNL A   1      39.887  25.507  28.459  1.00  0.00     0.010 A 
ATOM     36  C   UNL A   1      40.679  25.951  26.231  1.00  0.00     0.010 A 
ATOM     37  C   UNL A   1      40.652  26.283  27.597  1.00  0.00    -0.014 A 
BRANCH  37  38
ATOM     38  C   UNL A   1      41.289  27.495  28.167  1.00  0.00     0.031 A 
ATOM     39  C   UNL A   1      42.770  27.690  28.011  1.00  0.00     0.074 A 
ATOM     40  C   UNL A   1      40.525  28.491  28.660  1.00  0.00     0.049 A 
ATOM     41  N   UNL A   1      43.530  28.639  28.491  1.00  0.00    -0.248 NA
ATOM     42  C   UNL A   1      43.490  26.693  27.200  1.00  0.00     0.031 C 
ATOM     43  C   UNL A   1      39.059  28.487  28.715  1.00  0.00     0.029 A 
ATOM     44  N   UNL A   1      40.870  29.717  29.168  1.00  0.00    -0.354 N 
ATOM     45  C   UNL A   1      44.823  28.323  28.092  1.00  0.00     0.074 A 
ATOM     46  C   UNL A   1      44.744  27.108  27.312  1.00  0.00     0.031 C 
ATOM     47  C   UNL A   1      38.633  29.667  29.192  1.00  0.00     0.029 A 
ATOM     48  C   UNL A   1      39.791  30.471  29.569  1.00  0.00     0.049 A 
ATOM     49  H   UNL A   1      41.801  30.029  29.239  1.00  0.00     0.167 HD
ATOM     50  C   UNL A   1      45.974  28.977  28.380  1.00  0.00     0.031 A 
ATOM     51  C   UNL A   1      39.742  31.652  30.216  1.00  0.00     0.031 A 
ATOM     52  C   UNL A   1      46.031  30.196  29.143  1.00  0.00     0.049 A 
ATOM     53  C   UNL A   1      41.038  32.313  30.601  1.00  0.00     0.074 A 
ATOM     54  C   UNL A   1      47.147  30.912  29.539  1.00  0.00     0.029 A 
ATOM     55  N   UNL A   1      44.925  30.885  29.617  1.00  0.00    -0.354 N 
ATOM     56  N   UNL A   1      42.266  31.949  30.318  1.00  0.00    -0.248 NA
ATOM     57  C   UNL A   1      40.942  33.531  31.418  1.00  0.00     0.031 C 
ATOM     58  C   UNL A   1      46.717  31.999  30.307  1.00  0.00     0.029 A 
ATOM     59  C   UNL A   1      45.330  32.000  30.331  1.00  0.00     0.049 A 
ATOM     60  H   UNL A   1      43.988  30.621  29.468  1.00  0.00     0.167 HD
ATOM     61  C   UNL A   1      43.090  32.894  30.919  1.00  0.00     0.074 A 
ATOM     62  C   UNL A   1      42.218  33.865  31.549  1.00  0.00     0.031 C 
ATOM     63  C   UNL A   1      44.445  32.947  30.961  1.00  0.00     0.031 A 
BRANCH  50  64
ATOM     64  C   UNL A   1      47.265  28.326  27.964  1.00  0.00    -0.014 A 
ATOM     65  C   UNL A   1      47.924  28.660  26.769  1.00  0.00     0.010 A 
ATOM     66  C   UNL A   1      47.839  27.366  28.818  1.00  0.00     0.010 A 
ATOM     67  C   UNL A   1      49.120  28.022  26.423  1.00  0.00     0.020 A 
ATOM     68  C   UNL A   1      49.045  26.746  28.489  1.00  0.00     0.020 A 
ATOM     69  C   UNL A   1      49.672  27.067  27.285  1.00  0.00     0.054 A 
BRANCH  69  70
ATOM     70  S   UNL A   1      51.237  26.272  26.827  1.00  0.00     0.124 S 
ATOM     71  O   UNL A   1      50.967  24.871  27.143  1.00  0.00    -0.237 OA
ATOM     72  O   UNL A   1      51.350  26.583  25.404  1.00  0.00    -0.237 OA
ATOM     73  O   UNL A   1      52.223  26.923  27.684  1.00  0.00    -0.744 OA
ENDBRANCH  69  70
ENDBRANCH  50  64
BRANCH  51  74
ATOM     74  C   UNL A   1      38.432  32.228  30.637  1.00  0.00    -0.014 A 
ATOM     75  C   UNL A   1      37.777  33.198  29.859  1.00  0.00     0.010 A 
ATOM     76  C   UNL A   1      37.843  31.820  31.849  1.00  0.00     0.010 A 
ATOM     77  C   UNL A   1      36.573  33.764  30.296  1.00  0.00     0.020 A 
ATOM     78  C   UNL A   1      36.623  32.353  32.271  1.00  0.00     0.020 A 
ATOM     79  C   UNL A   1      36.004  33.337  31.499  1.00  0.00     0.054 A 
BRANCH  79  80
ATOM     80  S   UNL A   1      34.426  34.055  32.034  1.00  0.00     0.124 S 
ATOM     81  O   UNL A   1      33.779  32.919  32.681  1.00  0.00    -0.237 OA
ATOM     82  O   UNL A   1      34.854  35.133  32.922  1.00  0.00    -0.237 OA
ATOM     83  O   UNL A   1      33.812  34.497  30.783  1.00  0.00    -0.744 OA
ENDBRANCH  79  80
ENDBRANCH  51  74
BRANCH  63  84
ATOM     84  C   UNL A   1      45.062  34.102  31.701  1.00  0.00    -0.014 A 
ATOM     85  C   UNL A   1      45.318  34.029  33.082  1.00  0.00     0.010 A 
ATOM     86  C   UNL A   1      45.423  35.267  30.998  1.00  0.00     0.010 A 
ATOM     87  C   UNL A   1      45.881  35.117  33.755  1.00  0.00     0.020 A 
ATOM     88  C   UNL A   1      46.016  36.343  31.661  1.00  0.00     0.020 A 
ATOM     89  C   UNL A   1      46.223  36.268  33.040  1.00  0.00     0.054 A 
BRANCH  89  90
ATOM     90  S   UNL A   1      46.974  37.658  33.931  1.00  0.00     0.124 S 
ATOM     91  O   UNL A   1      47.846  36.974  34.881  1.00  0.00    -0.237 OA
ATOM     92  O   UNL A   1      47.656  38.391  32.867  1.00  0.00    -0.237 OA
ATOM     93  O   UNL A   1      45.831  38.349  34.521  1.00  0.00    -0.744 OA
ENDBRANCH  89  90
ENDBRANCH  63  84
ENDBRANCH  37  38
ENDBRANCH  30  32
ENDBRANCH  29  30
ENDBRANCH  28  29
ENDBRANCH   1  28
TORSDOF 20
ENDMDL
MODEL 3
REMARK VINA RESULT:     -10.9      5.711     10.097
REMARK SMILES CC[C@@H](C(=O)Nc1ccc(OC(C)=O)cc1C(=O)OCCOC(=O)c1ccc(-c2c3nc(c(-c4ccc(S(=O)(=O)[O-])cc4)c4ccc([nH]4)c(-c4ccc(S(=O)(=O)[O-])cc4)c4nc(c(-c5ccc(S(=O)(=O)[O-])cc5)c5ccc2[nH]5)C=C4)C=C3)cc1)c1ccccc1
REMARK SMILES IDX 20 1 19 2 17 3 18 4 16 5 7 6 8 7 9 8 15 9 10 10 6 11 4 12
REMARK SMILES IDX 5 13 3 15 2 16 1 17 85 18 86 19 90 20 87 21 89 22 88 23
REMARK SMILES IDX 11 24 12 25 13 26 14 27 21 28 22 29 23 30 24 31 25 32 26 33
REMARK SMILES IDX 84 34 27 35 83 36 28 37 29 38 30 39 77 40 31 41 82 42 76 43
REMARK SMILES IDX 78 44 32 45 81 46 75 47 74 48 33 50 63 51 44 52 62 53 45 54
REMARK SMILES IDX 48 55 61 56 79 57 46 58 47 59 60 61 80 62 49 63 34 64 35 65
REMARK SMILES IDX 43 66 36 67 42 68 37 69 38 70 39 71 40 72 41 73 64 74 65 75
REMARK SMILES IDX 73 76 66 77 72 78 67 79 68 80 69 81 70 82 71 83 50 84 51 85
REMARK SMILES IDX 59 86 52 87 58 88 53 89 54 90 55 91 56 92 57 93
REMARK H PARENT 6 14 78 49 48 60
REMARK Flexibility Score: inf
ROOT
ATOM      1  C   UNL A   1      32.696  30.529  27.230  1.00  0.00     0.275 C 
ENDROOT
BRANCH   1   2
ATOM      2  O   UNL A   1      32.460  30.413  25.806  1.00  0.00    -0.458 OA
BRANCH   2   3
ATOM      3  C   UNL A   1      32.813  29.209  25.315  1.00  0.00     0.340 C 
ATOM      4  O   UNL A   1      33.943  28.740  25.336  1.00  0.00    -0.246 OA
BRANCH   3   5
ATOM      5  C   UNL A   1      31.754  28.465  24.621  1.00  0.00     0.087 A 
ATOM      6  C   UNL A   1      31.226  27.264  25.115  1.00  0.00     0.056 A 
ATOM      7  C   UNL A   1      30.121  26.684  24.465  1.00  0.00     0.031 A 
ATOM      8  C   UNL A   1      29.419  27.395  23.489  1.00  0.00     0.049 A 
ATOM      9  C   UNL A   1      31.103  29.120  23.562  1.00  0.00     0.065 A 
ATOM     10  C   UNL A   1      29.888  28.639  23.098  1.00  0.00     0.131 A 
BRANCH   6  11
ATOM     11  N   UNL A   1      31.691  26.573  26.248  1.00  0.00    -0.325 N 
ATOM     12  C   UNL A   1      32.075  25.259  26.359  1.00  0.00     0.231 C 
ATOM     13  O   UNL A   1      31.509  24.605  27.243  1.00  0.00    -0.274 OA
ATOM     14  H   UNL A   1      31.749  27.103  27.076  1.00  0.00     0.169 HD
BRANCH  12  15
ATOM     15  C   UNL A   1      33.408  24.777  25.678  1.00  0.00     0.108 C 
BRANCH  15  16
ATOM     16  C   UNL A   1      34.178  25.636  24.657  1.00  0.00     0.015 C 
ATOM     17  C   UNL A   1      33.759  25.581  23.199  1.00  0.00     0.005 C 
ENDBRANCH  15  16
BRANCH  15  18
ATOM     18  C   UNL A   1      33.163  23.390  25.042  1.00  0.00    -0.036 A 
ATOM     19  C   UNL A   1      34.127  22.383  25.200  1.00  0.00     0.004 A 
ATOM     20  C   UNL A   1      31.992  23.083  24.321  1.00  0.00     0.004 A 
ATOM     21  C   UNL A   1      33.946  21.127  24.618  1.00  0.00     0.000 A 
ATOM     22  C   UNL A   1      31.823  21.834  23.724  1.00  0.00     0.000 A 
ATOM     23  C   UNL A   1      32.803  20.858  23.867  1.00  0.00     0.000 A 
ENDBRANCH  15  18
ENDBRANCH  12  15
ENDBRANCH   6  11
BRANCH  10  24
ATOM     24  O   UNL A   1      29.126  29.384  22.174  1.00  0.00    -0.427 OA
BRANCH  24  25
ATOM     25  C   UNL A   1      28.123  30.312  22.487  1.00  0.00     0.308 C 
ATOM     26  C   UNL A   1      28.343  31.753  22.110  1.00  0.00     0.139 C 
ATOM     27  O   UNL A   1      27.118  29.953  23.094  1.00  0.00    -0.252 OA
ENDBRANCH  24  25
ENDBRANCH  10  24
ENDBRANCH   3   5
ENDBRANCH   2   3
ENDBRANCH   1   2
BRANCH   1  28
ATOM     28  C   UNL A   1      33.968  31.292  27.628  1.00  0.00     0.275 C 
BRANCH  28  29
ATOM     29  O   UNL A   1      33.962  32.672  27.204  1.00  0.00    -0.458 OA
BRANCH  29  30
ATOM     30  C   UNL A   1      33.668  33.568  28.176  1.00  0.00     0.338 C 
ATOM     31  O   UNL A   1      32.688  34.291  28.226  1.00  0.00    -0.246 OA
BRANCH  30  32
ATOM     32  C   UNL A   1      34.629  33.508  29.296  1.00  0.00     0.060 A 
ATOM     33  C   UNL A   1      35.935  33.902  29.033  1.00  0.00     0.016 A 
ATOM     34  C   UNL A   1      34.356  32.813  30.472  1.00  0.00     0.016 A 
ATOM     35  C   UNL A   1      36.986  33.526  29.848  1.00  0.00     0.010 A 
ATOM     36  C   UNL A   1      35.411  32.499  31.350  1.00  0.00     0.010 A 
ATOM     37  C   UNL A   1      36.740  32.816  31.016  1.00  0.00    -0.014 A 
BRANCH  37  38
ATOM     38  C   UNL A   1      37.921  32.329  31.770  1.00  0.00     0.031 A 
ATOM     39  C   UNL A   1      38.802  31.278  31.158  1.00  0.00     0.074 A 
ATOM     40  C   UNL A   1      38.297  32.948  32.908  1.00  0.00     0.049 A 
ATOM     41  N   UNL A   1      39.838  30.670  31.674  1.00  0.00    -0.248 NA
ATOM     42  C   UNL A   1      38.486  30.865  29.780  1.00  0.00     0.031 C 
ATOM     43  C   UNL A   1      37.611  34.092  33.518  1.00  0.00     0.029 A 
ATOM     44  N   UNL A   1      39.372  32.732  33.732  1.00  0.00    -0.354 N 
ATOM     45  C   UNL A   1      40.259  29.761  30.711  1.00  0.00     0.074 A 
ATOM     46  C   UNL A   1      39.383  29.913  29.570  1.00  0.00     0.031 C 
ATOM     47  C   UNL A   1      38.303  34.497  34.594  1.00  0.00     0.029 A 
ATOM     48  C   UNL A   1      39.421  33.586  34.809  1.00  0.00     0.049 A 
ATOM     49  H   UNL A   1      40.045  32.032  33.568  1.00  0.00     0.167 HD
ATOM     50  C   UNL A   1      41.270  28.863  30.790  1.00  0.00     0.031 A 
ATOM     51  C   UNL A   1      40.244  33.600  35.876  1.00  0.00     0.031 A 
ATOM     52  C   UNL A   1      42.143  28.740  31.927  1.00  0.00     0.049 A 
ATOM     53  C   UNL A   1      41.302  32.535  35.981  1.00  0.00     0.074 A 
ATOM     54  C   UNL A   1      43.163  27.828  32.134  1.00  0.00     0.029 A 
ATOM     55  N   UNL A   1      42.106  29.559  33.045  1.00  0.00    -0.354 N 
ATOM     56  N   UNL A   1      41.623  31.603  35.114  1.00  0.00    -0.248 NA
ATOM     57  C   UNL A   1      42.091  32.504  37.220  1.00  0.00     0.031 C 
ATOM     58  C   UNL A   1      43.700  28.056  33.406  1.00  0.00     0.029 A 
ATOM     59  C   UNL A   1      43.061  29.155  33.961  1.00  0.00     0.049 A 
ATOM     60  H   UNL A   1      41.491  30.317  33.170  1.00  0.00     0.167 HD
ATOM     61  C   UNL A   1      42.653  30.877  35.702  1.00  0.00     0.074 A 
ATOM     62  C   UNL A   1      42.925  31.503  36.981  1.00  0.00     0.031 C 
ATOM     63  C   UNL A   1      43.306  29.784  35.235  1.00  0.00     0.031 A 
BRANCH  50  64
ATOM     64  C   UNL A   1      41.409  27.875  29.664  1.00  0.00    -0.014 A 
ATOM     65  C   UNL A   1      40.514  26.807  29.487  1.00  0.00     0.010 A 
ATOM     66  C   UNL A   1      42.463  28.045  28.747  1.00  0.00     0.010 A 
ATOM     67  C   UNL A   1      40.688  25.910  28.427  1.00  0.00     0.020 A 
ATOM     68  C   UNL A   1      42.626  27.167  27.674  1.00  0.00     0.020 A 
ATOM     69  C   UNL A   1      41.745  26.095  27.529  1.00  0.00     0.054 A 
BRANCH  69  70
ATOM     70  S   UNL A   1      41.937  24.934  26.148  1.00  0.00     0.124 S 
ATOM     71  O   UNL A   1      43.184  24.256  26.496  1.00  0.00    -0.237 OA
ATOM     72  O   UNL A   1      40.730  24.117  26.246  1.00  0.00    -0.237 OA
ATOM     73  O   UNL A   1      42.007  25.798  24.973  1.00  0.00    -0.744 OA
ENDBRANCH  69  70
ENDBRANCH  50  64
BRANCH  51  74
ATOM     74  C   UNL A   1      40.031  34.580  36.980  1.00  0.00    -0.014 A 
ATOM     75  C   UNL A   1      39.121  34.322  38.020  1.00  0.00     0.010 A 
ATOM     76  C   UNL A   1      40.728  35.804  36.977  1.00  0.00     0.010 A 
ATOM     77  C   UNL A   1      38.897  35.277  39.020  1.00  0.00     0.020 A 
ATOM     78  C   UNL A   1      40.536  36.744  37.992  1.00  0.00     0.020 A 
ATOM     79  C   UNL A   1      39.607  36.481  38.999  1.00  0.00     0.054 A 
BRANCH  79  80
ATOM     80  S   UNL A   1      39.330  37.692  40.321  1.00  0.00     0.124 S 
ATOM     81  O   UNL A   1      38.101  38.345  39.882  1.00  0.00    -0.237 OA
ATOM     82  O   UNL A   1      39.212  36.847  41.506  1.00  0.00    -0.237 OA
ATOM     83  O   UNL A   1      40.531  38.526  40.277  1.00  0.00    -0.744 OA
ENDBRANCH  79  80
ENDBRANCH  51  74
BRANCH  63  84
ATOM     84  C   UNL A   1      44.386  29.207  36.109  1.00  0.00    -0.014 A 
ATOM     85  C   UNL A   1      45.679  29.760  36.131  1.00  0.00     0.010 A 
ATOM     86  C   UNL A   1      44.094  28.114  36.947  1.00  0.00     0.010 A 
ATOM     87  C   UNL A   1      46.672  29.204  36.941  1.00  0.00     0.020 A 
ATOM     88  C   UNL A   1      45.076  27.576  37.781  1.00  0.00     0.020 A 
ATOM     89  C   UNL A   1      46.365  28.112  37.758  1.00  0.00     0.054 A 
BRANCH  89  90
ATOM     90  S   UNL A   1      47.665  27.421  38.817  1.00  0.00     0.124 S 
ATOM     91  O   UNL A   1      48.877  27.900  38.161  1.00  0.00    -0.237 OA
ATOM     92  O   UNL A   1      47.374  28.022  40.117  1.00  0.00    -0.237 OA
ATOM     93  O   UNL A   1      47.443  25.979  38.741  1.00  0.00    -0.744 OA
ENDBRANCH  89  90
ENDBRANCH  63  84
ENDBRANCH  37  38
ENDBRANCH  30  32
ENDBRANCH  29  30
ENDBRANCH  28  29
ENDBRANCH   1  28
TORSDOF 20
ENDMDL
