MODEL 1
REMARK VINA RESULT:     -11.3      0.000      0.000
REMARK SMILES CC[C@H](C)[C@H](NC(=O)[C@H](C)Oc1ccc2c(C)c(C)c(=O)oc2c1C)C(=O)OCCOC(=O)c1ccc(-c2c3nc(c(-c4ccc(S(=O)(=O)[O-])cc4)c4ccc([nH]4)c(-c4ccc(S(=O)(=O)[O-])cc4)c4nc(c(-c5ccc(S(=O)(=O)[O-])cc5)c5ccc2[nH]5)C=C4)C=C3)cc1
REMARK SMILES IDX 29 1 28 2 26 3 27 4 5 5 3 6 4 7 2 8 1 9 6 10 7 11 8 13 9 14
REMARK SMILES IDX 10 15 11 16 12 17 13 18 24 19 14 20 23 21 25 22 15 23 22 24
REMARK SMILES IDX 16 25 20 26 17 27 18 28 21 29 19 30 30 31 31 32 32 33 33 34
REMARK SMILES IDX 34 35 35 36 93 37 36 38 92 39 37 40 38 41 39 42 86 43 40 44
REMARK SMILES IDX 91 45 85 46 87 47 41 48 90 49 84 50 83 51 42 53 72 54 53 55
REMARK SMILES IDX 71 56 54 57 57 58 70 59 88 60 55 61 56 62 69 64 89 65 58 66
REMARK SMILES IDX 43 67 44 68 52 69 45 70 51 71 46 72 47 73 48 74 49 75 50 76
REMARK SMILES IDX 73 77 74 78 82 79 75 80 81 81 76 82 77 83 78 84 79 85 80 86
REMARK SMILES IDX 59 87 60 88 68 89 61 90 67 91 62 92 63 93 64 94 65 95 66 96
REMARK H PARENT 6 12 87 52 57 63
REMARK Flexibility Score: inf
ROOT
ATOM      1  C   UNL A   1      33.956  29.109  26.468  1.00  0.00     0.274 C 
ENDROOT
BRANCH   1   2
ATOM      2  O   UNL A   1      32.688  29.401  25.817  1.00  0.00    -0.461 OA
BRANCH   2   3
ATOM      3  C   UNL A   1      32.544  28.923  24.546  1.00  0.00     0.329 C 
ATOM      4  O   UNL A   1      33.266  29.269  23.615  1.00  0.00    -0.250 OA
BRANCH   3   5
ATOM      5  C   UNL A   1      31.497  27.772  24.412  1.00  0.00     0.195 C 
BRANCH   5   6
ATOM      6  C   UNL A   1      30.300  28.243  23.540  1.00  0.00     0.019 C 
ATOM      7  C   UNL A   1      29.960  29.724  23.759  1.00  0.00     0.010 C 
BRANCH   6   8
ATOM      8  C   UNL A   1      30.474  27.911  22.049  1.00  0.00     0.002 C 
ATOM      9  C   UNL A   1      31.544  26.840  21.860  1.00  0.00     0.004 C 
ENDBRANCH   6   8
ENDBRANCH   5   6
BRANCH   5  10
ATOM     10  N   UNL A   1      31.122  26.964  25.566  1.00  0.00    -0.339 N 
ATOM     11  C   UNL A   1      30.635  25.685  25.589  1.00  0.00     0.261 C 
ATOM     12  H   UNL A   1      31.235  27.395  26.444  1.00  0.00     0.164 HD
ATOM     13  O   UNL A   1      29.790  25.469  26.470  1.00  0.00    -0.271 OA
BRANCH  11  14
ATOM     14  C   UNL A   1      31.186  24.479  24.734  1.00  0.00     0.258 C 
ATOM     15  C   UNL A   1      30.326  24.282  23.487  1.00  0.00     0.064 C 
BRANCH  14  16
ATOM     16  O   UNL A   1      31.799  23.249  25.103  1.00  0.00    -0.480 OA
BRANCH  16  17
ATOM     17  C   UNL A   1      33.130  23.201  25.351  1.00  0.00     0.127 A 
ATOM     18  C   UNL A   1      33.788  24.265  25.942  1.00  0.00     0.047 A 
ATOM     19  C   UNL A   1      33.834  22.015  25.153  1.00  0.00     0.035 A 
ATOM     20  C   UNL A   1      35.175  24.265  26.138  1.00  0.00     0.016 A 
ATOM     21  C   UNL A   1      35.233  22.028  25.350  1.00  0.00     0.145 A 
ATOM     22  C   UNL A   1      33.129  20.756  24.741  1.00  0.00     0.052 C 
ATOM     23  C   UNL A   1      35.929  23.145  25.814  1.00  0.00     0.021 A 
ATOM     24  O   UNL A   1      35.933  20.845  25.051  1.00  0.00    -0.422 OA
ATOM     25  C   UNL A   1      37.390  23.092  25.980  1.00  0.00    -0.030 A 
ATOM     26  C   UNL A   1      37.312  20.758  25.142  1.00  0.00     0.339 A 
ATOM     27  C   UNL A   1      38.091  24.330  26.486  1.00  0.00     0.045 C 
ATOM     28  C   UNL A   1      38.036  21.948  25.669  1.00  0.00     0.038 A 
ATOM     29  O   UNL A   1      37.902  19.751  24.769  1.00  0.00    -0.246 OA
ATOM     30  C   UNL A   1      39.523  21.786  25.820  1.00  0.00     0.052 C 
ENDBRANCH  16  17
ENDBRANCH  14  16
ENDBRANCH  11  14
ENDBRANCH   5  10
ENDBRANCH   3   5
ENDBRANCH   2   3
ENDBRANCH   1   2
BRANCH   1  31
ATOM     31  C   UNL A   1      34.368  30.198  27.478  1.00  0.00     0.275 C 
BRANCH  31  32
ATOM     32  O   UNL A   1      35.301  29.672  28.449  1.00  0.00    -0.458 OA
BRANCH  32  33
ATOM     33  C   UNL A   1      36.076  30.582  29.109  1.00  0.00     0.338 C 
ATOM     34  O   UNL A   1      35.649  31.532  29.752  1.00  0.00    -0.246 OA
BRANCH  33  35
ATOM     35  C   UNL A   1      37.526  30.215  29.039  1.00  0.00     0.060 A 
ATOM     36  C   UNL A   1      38.103  29.781  27.850  1.00  0.00     0.016 A 
ATOM     37  C   UNL A   1      38.324  30.214  30.191  1.00  0.00     0.016 A 
ATOM     38  C   UNL A   1      39.376  29.198  27.850  1.00  0.00     0.010 A 
ATOM     39  C   UNL A   1      39.667  29.776  30.144  1.00  0.00     0.010 A 
ATOM     40  C   UNL A   1      40.218  29.236  28.971  1.00  0.00    -0.014 A 
BRANCH  40  41
ATOM     41  C   UNL A   1      41.654  28.782  28.870  1.00  0.00     0.031 A 
ATOM     42  C   UNL A   1      42.822  29.711  29.152  1.00  0.00     0.074 A 
ATOM     43  C   UNL A   1      41.941  27.505  28.514  1.00  0.00     0.049 A 
ATOM     44  N   UNL A   1      44.096  29.537  28.889  1.00  0.00    -0.248 NA
ATOM     45  C   UNL A   1      42.529  30.993  29.812  1.00  0.00     0.031 C 
ATOM     46  C   UNL A   1      40.958  26.447  28.256  1.00  0.00     0.029 A 
ATOM     47  N   UNL A   1      43.146  26.866  28.314  1.00  0.00    -0.354 N 
ATOM     48  C   UNL A   1      44.747  30.694  29.312  1.00  0.00     0.074 A 
ATOM     49  C   UNL A   1      43.728  31.565  29.858  1.00  0.00     0.031 C 
ATOM     50  C   UNL A   1      41.588  25.291  28.020  1.00  0.00     0.029 A 
ATOM     51  C   UNL A   1      43.017  25.548  27.934  1.00  0.00     0.049 A 
ATOM     52  H   UNL A   1      44.017  27.310  28.431  1.00  0.00     0.167 HD
ATOM     53  C   UNL A   1      46.065  31.009  29.240  1.00  0.00     0.031 A 
ATOM     54  C   UNL A   1      43.906  24.645  27.475  1.00  0.00     0.031 A 
ATOM     55  C   UNL A   1      47.086  30.142  28.703  1.00  0.00     0.049 A 
ATOM     56  C   UNL A   1      45.330  25.054  27.273  1.00  0.00     0.074 A 
ATOM     57  C   UNL A   1      48.439  30.399  28.549  1.00  0.00     0.029 A 
ATOM     58  N   UNL A   1      46.873  28.852  28.245  1.00  0.00    -0.354 N 
ATOM     59  N   UNL A   1      45.897  26.197  27.564  1.00  0.00    -0.248 NA
ATOM     60  C   UNL A   1      46.224  24.072  26.644  1.00  0.00     0.031 C 
ATOM     61  C   UNL A   1      49.033  29.286  27.946  1.00  0.00     0.029 A 
ATOM     62  C   UNL A   1      48.063  28.314  27.780  1.00  0.00     0.049 A 
ATOM     63  H   UNL A   1      46.006  28.386  28.248  1.00  0.00     0.167 HD
ATOM     64  C   UNL A   1      47.219  26.074  27.155  1.00  0.00     0.074 A 
ATOM     65  C   UNL A   1      47.369  24.741  26.608  1.00  0.00     0.031 C 
ATOM     66  C   UNL A   1      48.210  26.992  27.228  1.00  0.00     0.031 A 
BRANCH  53  67
ATOM     67  C   UNL A   1      46.506  32.380  29.698  1.00  0.00    -0.014 A 
ATOM     68  C   UNL A   1      46.987  32.602  30.999  1.00  0.00     0.010 A 
ATOM     69  C   UNL A   1      46.548  33.436  28.766  1.00  0.00     0.010 A 
ATOM     70  C   UNL A   1      47.489  33.857  31.365  1.00  0.00     0.020 A 
ATOM     71  C   UNL A   1      47.066  34.686  29.121  1.00  0.00     0.020 A 
ATOM     72  C   UNL A   1      47.529  34.890  30.421  1.00  0.00     0.054 A 
BRANCH  72  73
ATOM     73  S   UNL A   1      48.206  36.501  30.918  1.00  0.00     0.124 S 
ATOM     74  O   UNL A   1      47.652  37.393  29.902  1.00  0.00    -0.237 OA
ATOM     75  O   UNL A   1      47.665  36.670  32.263  1.00  0.00    -0.237 OA
ATOM     76  O   UNL A   1      49.653  36.310  30.847  1.00  0.00    -0.744 OA
ENDBRANCH  72  73
ENDBRANCH  53  67
BRANCH  54  77
ATOM     77  C   UNL A   1      43.420  23.294  27.070  1.00  0.00    -0.014 A 
ATOM     78  C   UNL A   1      43.553  22.852  25.746  1.00  0.00     0.010 A 
ATOM     79  C   UNL A   1      42.914  22.408  28.043  1.00  0.00     0.010 A 
ATOM     80  C   UNL A   1      43.225  21.534  25.407  1.00  0.00     0.020 A 
ATOM     81  C   UNL A   1      42.616  21.085  27.716  1.00  0.00     0.020 A 
ATOM     82  C   UNL A   1      42.781  20.654  26.400  1.00  0.00     0.054 A 
BRANCH  82  83
ATOM     83  S   UNL A   1      42.478  18.921  25.955  1.00  0.00     0.124 S 
ATOM     84  O   UNL A   1      41.032  18.902  25.756  1.00  0.00    -0.237 OA
ATOM     85  O   UNL A   1      43.286  18.768  24.748  1.00  0.00    -0.237 OA
ATOM     86  O   UNL A   1      42.958  18.177  27.117  1.00  0.00    -0.744 OA
ENDBRANCH  82  83
ENDBRANCH  54  77
BRANCH  66  87
ATOM     87  C   UNL A   1      49.568  26.593  26.724  1.00  0.00    -0.014 A 
ATOM     88  C   UNL A   1      50.479  25.920  27.557  1.00  0.00     0.010 A 
ATOM     89  C   UNL A   1      49.901  26.819  25.377  1.00  0.00     0.010 A 
ATOM     90  C   UNL A   1      51.703  25.481  27.047  1.00  0.00     0.020 A 
ATOM     91  C   UNL A   1      51.116  26.363  24.860  1.00  0.00     0.020 A 
ATOM     92  C   UNL A   1      52.009  25.696  25.699  1.00  0.00     0.054 A 
BRANCH  92  93
ATOM     93  S   UNL A   1      53.583  25.065  25.058  1.00  0.00     0.124 S 
ATOM     94  O   UNL A   1      53.562  25.531  23.674  1.00  0.00    -0.237 OA
ATOM     95  O   UNL A   1      54.560  25.718  25.926  1.00  0.00    -0.237 OA
ATOM     96  O   UNL A   1      53.474  23.617  25.225  1.00  0.00    -0.744 OA
ENDBRANCH  92  93
ENDBRANCH  66  87
ENDBRANCH  40  41
ENDBRANCH  33  35
ENDBRANCH  32  33
ENDBRANCH  31  32
ENDBRANCH   1  31
TORSDOF 20
ENDMDL
MODEL 2
REMARK VINA RESULT:     -11.2      2.014      8.669
REMARK SMILES CC[C@H](C)[C@H](NC(=O)[C@H](C)Oc1ccc2c(C)c(C)c(=O)oc2c1C)C(=O)OCCOC(=O)c1ccc(-c2c3nc(c(-c4ccc(S(=O)(=O)[O-])cc4)c4ccc([nH]4)c(-c4ccc(S(=O)(=O)[O-])cc4)c4nc(c(-c5ccc(S(=O)(=O)[O-])cc5)c5ccc2[nH]5)C=C4)C=C3)cc1
REMARK SMILES IDX 29 1 28 2 26 3 27 4 5 5 3 6 4 7 2 8 1 9 6 10 7 11 8 13 9 14
REMARK SMILES IDX 10 15 11 16 12 17 13 18 24 19 14 20 23 21 25 22 15 23 22 24
REMARK SMILES IDX 16 25 20 26 17 27 18 28 21 29 19 30 30 31 31 32 32 33 33 34
REMARK SMILES IDX 34 35 35 36 93 37 36 38 92 39 37 40 38 41 39 42 86 43 40 44
REMARK SMILES IDX 91 45 85 46 87 47 41 48 90 49 84 50 83 51 42 53 72 54 53 55
REMARK SMILES IDX 71 56 54 57 57 58 70 59 88 60 55 61 56 62 69 64 89 65 58 66
REMARK SMILES IDX 43 67 44 68 52 69 45 70 51 71 46 72 47 73 48 74 49 75 50 76
REMARK SMILES IDX 73 77 74 78 82 79 75 80 81 81 76 82 77 83 78 84 79 85 80 86
REMARK SMILES IDX 59 87 60 88 68 89 61 90 67 91 62 92 63 93 64 94 65 95 66 96
REMARK H PARENT 6 12 87 52 57 63
REMARK Flexibility Score: inf
ROOT
ATOM      1  C   UNL A   1      38.733  21.356  25.507  1.00  0.00     0.274 C 
ENDROOT
BRANCH   1   2
ATOM      2  O   UNL A   1      37.407  21.365  24.908  1.00  0.00    -0.461 OA
BRANCH   2   3
ATOM      3  C   UNL A   1      36.713  22.536  25.007  1.00  0.00     0.329 C 
ATOM      4  O   UNL A   1      37.256  23.638  25.016  1.00  0.00    -0.250 OA
BRANCH   3   5
ATOM      5  C   UNL A   1      35.162  22.367  24.934  1.00  0.00     0.195 C 
BRANCH   5   6
ATOM      6  C   UNL A   1      34.728  21.109  25.738  1.00  0.00     0.019 C 
ATOM      7  C   UNL A   1      33.807  21.455  26.916  1.00  0.00     0.010 C 
BRANCH   6   8
ATOM      8  C   UNL A   1      34.132  20.004  24.852  1.00  0.00     0.002 C 
ATOM      9  C   UNL A   1      32.706  19.676  25.288  1.00  0.00     0.004 C 
ENDBRANCH   6   8
ENDBRANCH   5   6
BRANCH   5  10
ATOM     10  N   UNL A   1      34.447  22.557  23.678  1.00  0.00    -0.339 N 
ATOM     11  C   UNL A   1      33.117  22.815  23.485  1.00  0.00     0.261 C 
ATOM     12  H   UNL A   1      34.994  22.493  22.861  1.00  0.00     0.164 HD
ATOM     13  O   UNL A   1      32.625  22.275  22.482  1.00  0.00    -0.271 OA
BRANCH  11  14
ATOM     14  C   UNL A   1      32.255  23.851  24.306  1.00  0.00     0.258 C 
ATOM     15  C   UNL A   1      31.186  23.120  25.116  1.00  0.00     0.064 C 
BRANCH  14  16
ATOM     16  O   UNL A   1      31.828  25.177  24.018  1.00  0.00    -0.480 OA
BRANCH  16  17
ATOM     17  C   UNL A   1      32.353  26.223  24.700  1.00  0.00     0.127 A 
ATOM     18  C   UNL A   1      33.601  26.140  25.290  1.00  0.00     0.047 A 
ATOM     19  C   UNL A   1      31.707  27.457  24.689  1.00  0.00     0.035 A 
ATOM     20  C   UNL A   1      34.130  27.182  26.062  1.00  0.00     0.016 A 
ATOM     21  C   UNL A   1      32.247  28.500  25.474  1.00  0.00     0.145 A 
ATOM     22  C   UNL A   1      30.471  27.677  23.867  1.00  0.00     0.052 C 
ATOM     23  C   UNL A   1      33.439  28.379  26.190  1.00  0.00     0.021 A 
ATOM     24  O   UNL A   1      31.524  29.706  25.522  1.00  0.00    -0.422 OA
ATOM     25  C   UNL A   1      33.932  29.503  27.002  1.00  0.00    -0.030 A 
ATOM     26  C   UNL A   1      31.919  30.775  26.309  1.00  0.00     0.339 A 
ATOM     27  C   UNL A   1      35.229  29.317  27.755  1.00  0.00     0.045 C 
ATOM     28  C   UNL A   1      33.209  30.642  27.041  1.00  0.00     0.038 A 
ATOM     29  O   UNL A   1      31.210  31.769  26.416  1.00  0.00    -0.246 OA
ATOM     30  C   UNL A   1      33.636  31.852  27.824  1.00  0.00     0.052 C 
ENDBRANCH  16  17
ENDBRANCH  14  16
ENDBRANCH  11  14
ENDBRANCH   5  10
ENDBRANCH   3   5
ENDBRANCH   2   3
ENDBRANCH   1   2
BRANCH   1  31
ATOM     31  C   UNL A   1      39.365  19.951  25.526  1.00  0.00     0.275 C 
BRANCH  31  32
ATOM     32  O   UNL A   1      40.428  19.879  26.504  1.00  0.00    -0.458 OA
BRANCH  32  33
ATOM     33  C   UNL A   1      41.694  20.115  26.050  1.00  0.00     0.338 C 
ATOM     34  O   UNL A   1      42.320  19.376  25.301  1.00  0.00    -0.246 OA
BRANCH  33  35
ATOM     35  C   UNL A   1      42.194  21.453  26.501  1.00  0.00     0.060 A 
ATOM     36  C   UNL A   1      42.281  22.524  25.617  1.00  0.00     0.016 A 
ATOM     37  C   UNL A   1      42.670  21.640  27.805  1.00  0.00     0.016 A 
ATOM     38  C   UNL A   1      42.984  23.681  25.974  1.00  0.00     0.010 A 
ATOM     39  C   UNL A   1      43.231  22.875  28.202  1.00  0.00     0.010 A 
ATOM     40  C   UNL A   1      43.419  23.921  27.285  1.00  0.00    -0.014 A 
BRANCH  40  41
ATOM     41  C   UNL A   1      43.989  25.264  27.673  1.00  0.00     0.031 A 
ATOM     42  C   UNL A   1      43.137  26.358  28.294  1.00  0.00     0.074 A 
ATOM     43  C   UNL A   1      45.302  25.531  27.470  1.00  0.00     0.049 A 
ATOM     44  N   UNL A   1      43.425  27.627  28.468  1.00  0.00    -0.248 NA
ATOM     45  C   UNL A   1      41.800  25.987  28.783  1.00  0.00     0.031 C 
ATOM     46  C   UNL A   1      46.295  24.591  26.936  1.00  0.00     0.029 A 
ATOM     47  N   UNL A   1      46.044  26.672  27.695  1.00  0.00    -0.354 N 
ATOM     48  C   UNL A   1      42.298  28.210  29.045  1.00  0.00     0.074 A 
ATOM     49  C   UNL A   1      41.321  27.154  29.200  1.00  0.00     0.031 C 
ATOM     50  C   UNL A   1      47.507  25.154  26.955  1.00  0.00     0.029 A 
ATOM     51  C   UNL A   1      47.368  26.551  27.334  1.00  0.00     0.049 A 
ATOM     52  H   UNL A   1      45.663  27.495  28.077  1.00  0.00     0.167 HD
ATOM     53  C   UNL A   1      42.091  29.504  29.399  1.00  0.00     0.031 A 
ATOM     54  C   UNL A   1      48.363  27.454  27.218  1.00  0.00     0.031 A 
ATOM     55  C   UNL A   1      43.065  30.558  29.252  1.00  0.00     0.049 A 
ATOM     56  C   UNL A   1      48.077  28.898  27.482  1.00  0.00     0.074 A 
ATOM     57  C   UNL A   1      42.923  31.906  29.542  1.00  0.00     0.029 A 
ATOM     58  N   UNL A   1      44.360  30.387  28.789  1.00  0.00    -0.354 N 
ATOM     59  N   UNL A   1      46.967  29.443  27.908  1.00  0.00    -0.248 NA
ATOM     60  C   UNL A   1      49.161  29.852  27.210  1.00  0.00     0.031 C 
ATOM     61  C   UNL A   1      44.112  32.558  29.201  1.00  0.00     0.029 A 
ATOM     62  C   UNL A   1      45.015  31.608  28.756  1.00  0.00     0.049 A 
ATOM     63  H   UNL A   1      44.756  29.526  28.523  1.00  0.00     0.167 HD
ATOM     64  C   UNL A   1      47.216  30.809  27.957  1.00  0.00     0.074 A 
ATOM     65  C   UNL A   1      48.586  31.004  27.531  1.00  0.00     0.031 C 
ATOM     66  C   UNL A   1      46.374  31.804  28.323  1.00  0.00     0.031 A 
BRANCH  53  67
ATOM     67  C   UNL A   1      40.734  29.897  29.934  1.00  0.00    -0.014 A 
ATOM     68  C   UNL A   1      40.499  30.037  31.312  1.00  0.00     0.010 A 
ATOM     69  C   UNL A   1      39.713  30.249  29.029  1.00  0.00     0.010 A 
ATOM     70  C   UNL A   1      39.263  30.505  31.776  1.00  0.00     0.020 A 
ATOM     71  C   UNL A   1      38.484  30.735  29.487  1.00  0.00     0.020 A 
ATOM     72  C   UNL A   1      38.265  30.856  30.860  1.00  0.00     0.054 A 
BRANCH  72  73
ATOM     73  S   UNL A   1      36.681  31.483  31.490  1.00  0.00     0.124 S 
ATOM     74  O   UNL A   1      36.060  30.270  32.019  1.00  0.00    -0.237 OA
ATOM     75  O   UNL A   1      37.103  32.459  32.490  1.00  0.00    -0.237 OA
ATOM     76  O   UNL A   1      36.030  32.042  30.308  1.00  0.00    -0.744 OA
ENDBRANCH  72  73
ENDBRANCH  53  67
BRANCH  54  77
ATOM     77  C   UNL A   1      49.692  27.002  26.718  1.00  0.00    -0.014 A 
ATOM     78  C   UNL A   1      50.685  26.570  27.612  1.00  0.00     0.010 A 
ATOM     79  C   UNL A   1      49.928  26.906  25.332  1.00  0.00     0.010 A 
ATOM     80  C   UNL A   1      51.874  26.014  27.128  1.00  0.00     0.020 A 
ATOM     81  C   UNL A   1      51.100  26.324  24.846  1.00  0.00     0.020 A 
ATOM     82  C   UNL A   1      52.063  25.874  25.749  1.00  0.00     0.054 A 
BRANCH  82  83
ATOM     83  S   UNL A   1      53.563  25.043  25.155  1.00  0.00     0.124 S 
ATOM     84  O   UNL A   1      54.561  25.473  26.129  1.00  0.00    -0.237 OA
ATOM     85  O   UNL A   1      53.179  23.635  25.220  1.00  0.00    -0.237 OA
ATOM     86  O   UNL A   1      53.739  25.572  23.804  1.00  0.00    -0.744 OA
ENDBRANCH  82  83
ENDBRANCH  54  77
BRANCH  66  87
ATOM     87  C   UNL A   1      46.906  33.209  28.304  1.00  0.00    -0.014 A 
ATOM     88  C   UNL A   1      46.789  34.009  27.156  1.00  0.00     0.010 A 
ATOM     89  C   UNL A   1      47.451  33.759  29.478  1.00  0.00     0.010 A 
ATOM     90  C   UNL A   1      47.212  35.341  27.182  1.00  0.00     0.020 A 
ATOM     91  C   UNL A   1      47.856  35.095  29.513  1.00  0.00     0.020 A 
ATOM     92  C   UNL A   1      47.733  35.878  28.365  1.00  0.00     0.054 A 
BRANCH  92  93
ATOM     93  S   UNL A   1      48.221  37.624  28.380  1.00  0.00     0.124 S 
ATOM     94  O   UNL A   1      48.046  38.006  26.981  1.00  0.00    -0.237 OA
ATOM     95  O   UNL A   1      47.262  38.209  29.315  1.00  0.00    -0.237 OA
ATOM     96  O   UNL A   1      49.605  37.597  28.846  1.00  0.00    -0.744 OA
ENDBRANCH  92  93
ENDBRANCH  66  87
ENDBRANCH  40  41
ENDBRANCH  33  35
ENDBRANCH  32  33
ENDBRANCH  31  32
ENDBRANCH   1  31
TORSDOF 20
ENDMDL
MODEL 3
REMARK VINA RESULT:     -11.0      5.690     11.465
REMARK SMILES CC[C@H](C)[C@H](NC(=O)[C@H](C)Oc1ccc2c(C)c(C)c(=O)oc2c1C)C(=O)OCCOC(=O)c1ccc(-c2c3nc(c(-c4ccc(S(=O)(=O)[O-])cc4)c4ccc([nH]4)c(-c4ccc(S(=O)(=O)[O-])cc4)c4nc(c(-c5ccc(S(=O)(=O)[O-])cc5)c5ccc2[nH]5)C=C4)C=C3)cc1
REMARK SMILES IDX 29 1 28 2 26 3 27 4 5 5 3 6 4 7 2 8 1 9 6 10 7 11 8 13 9 14
REMARK SMILES IDX 10 15 11 16 12 17 13 18 24 19 14 20 23 21 25 22 15 23 22 24
REMARK SMILES IDX 16 25 20 26 17 27 18 28 21 29 19 30 30 31 31 32 32 33 33 34
REMARK SMILES IDX 34 35 35 36 93 37 36 38 92 39 37 40 38 41 39 42 86 43 40 44
REMARK SMILES IDX 91 45 85 46 87 47 41 48 90 49 84 50 83 51 42 53 72 54 53 55
REMARK SMILES IDX 71 56 54 57 57 58 70 59 88 60 55 61 56 62 69 64 89 65 58 66
REMARK SMILES IDX 43 67 44 68 52 69 45 70 51 71 46 72 47 73 48 74 49 75 50 76
REMARK SMILES IDX 73 77 74 78 82 79 75 80 81 81 76 82 77 83 78 84 79 85 80 86
REMARK SMILES IDX 59 87 60 88 68 89 61 90 67 91 62 92 63 93 64 94 65 95 66 96
REMARK H PARENT 6 12 87 52 57 63
REMARK Flexibility Score: inf
ROOT
ATOM      1  C   UNL A   1      37.732  21.900  25.897  1.00  0.00     0.274 C 
ENDROOT
BRANCH   1   2
ATOM      2  O   UNL A   1      36.730  22.864  25.468  1.00  0.00    -0.461 OA
BRANCH   2   3
ATOM      3  C   UNL A   1      36.072  22.569  24.309  1.00  0.00     0.329 C 
ATOM      4  O   UNL A   1      36.637  22.486  23.221  1.00  0.00    -0.250 OA
BRANCH   3   5
ATOM      5  C   UNL A   1      34.573  22.176  24.508  1.00  0.00     0.195 C 
BRANCH   5   6
ATOM      6  C   UNL A   1      34.471  20.930  25.434  1.00  0.00     0.019 C 
ATOM      7  C   UNL A   1      33.676  21.216  26.715  1.00  0.00     0.010 C 
BRANCH   6   8
ATOM      8  C   UNL A   1      33.952  19.681  24.705  1.00  0.00     0.002 C 
ATOM      9  C   UNL A   1      32.803  19.044  25.483  1.00  0.00     0.004 C 
ENDBRANCH   6   8
ENDBRANCH   5   6
BRANCH   5  10
ATOM     10  N   UNL A   1      33.646  22.171  23.384  1.00  0.00    -0.339 N 
ATOM     11  C   UNL A   1      32.387  22.703  23.316  1.00  0.00     0.261 C 
ATOM     12  H   UNL A   1      33.968  21.727  22.566  1.00  0.00     0.164 HD
ATOM     13  O   UNL A   1      31.582  22.043  22.641  1.00  0.00    -0.271 OA
BRANCH  11  14
ATOM     14  C   UNL A   1      31.962  24.124  23.854  1.00  0.00     0.258 C 
ATOM     15  C   UNL A   1      30.766  23.993  24.797  1.00  0.00     0.064 C 
BRANCH  14  16
ATOM     16  O   UNL A   1      31.971  25.413  23.254  1.00  0.00    -0.480 OA
BRANCH  16  17
ATOM     17  C   UNL A   1      32.095  26.521  24.024  1.00  0.00     0.127 A 
ATOM     18  C   UNL A   1      31.070  27.445  24.120  1.00  0.00     0.047 A 
ATOM     19  C   UNL A   1      33.203  26.672  24.854  1.00  0.00     0.035 A 
ATOM     20  C   UNL A   1      31.205  28.633  24.850  1.00  0.00     0.016 A 
ATOM     21  C   UNL A   1      33.331  27.876  25.583  1.00  0.00     0.145 A 
ATOM     22  C   UNL A   1      34.234  25.589  24.975  1.00  0.00     0.052 C 
ATOM     23  C   UNL A   1      32.363  28.881  25.576  1.00  0.00     0.021 A 
ATOM     24  O   UNL A   1      34.505  28.045  26.339  1.00  0.00    -0.422 OA
ATOM     25  C   UNL A   1      32.572  30.117  26.346  1.00  0.00    -0.030 A 
ATOM     26  C   UNL A   1      34.773  29.208  27.041  1.00  0.00     0.339 A 
ATOM     27  C   UNL A   1      31.490  31.170  26.303  1.00  0.00     0.045 C 
ATOM     28  C   UNL A   1      33.715  30.257  27.049  1.00  0.00     0.038 A 
ATOM     29  O   UNL A   1      35.852  29.369  27.599  1.00  0.00    -0.246 OA
ATOM     30  C   UNL A   1      34.016  31.472  27.882  1.00  0.00     0.052 C 
ENDBRANCH  16  17
ENDBRANCH  14  16
ENDBRANCH  11  14
ENDBRANCH   5  10
ENDBRANCH   3   5
ENDBRANCH   2   3
ENDBRANCH   1   2
BRANCH   1  31
ATOM     31  C   UNL A   1      39.165  22.463  25.820  1.00  0.00     0.275 C 
BRANCH  31  32
ATOM     32  O   UNL A   1      39.375  23.472  26.835  1.00  0.00    -0.458 OA
BRANCH  32  33
ATOM     33  C   UNL A   1      40.568  24.134  26.802  1.00  0.00     0.338 C 
ATOM     34  O   UNL A   1      41.505  23.857  26.064  1.00  0.00    -0.246 OA
BRANCH  33  35
ATOM     35  C   UNL A   1      40.558  25.320  27.717  1.00  0.00     0.060 A 
ATOM     36  C   UNL A   1      41.642  26.190  27.780  1.00  0.00     0.016 A 
ATOM     37  C   UNL A   1      39.493  25.538  28.600  1.00  0.00     0.016 A 
ATOM     38  C   UNL A   1      41.735  27.133  28.811  1.00  0.00     0.010 A 
ATOM     39  C   UNL A   1      39.527  26.602  29.530  1.00  0.00     0.010 A 
ATOM     40  C   UNL A   1      40.663  27.414  29.670  1.00  0.00    -0.014 A 
BRANCH  40  41
ATOM     41  C   UNL A   1      40.731  28.575  30.631  1.00  0.00     0.031 A 
ATOM     42  C   UNL A   1      41.804  28.682  31.702  1.00  0.00     0.074 A 
ATOM     43  C   UNL A   1      39.814  29.572  30.560  1.00  0.00     0.049 A 
ATOM     44  N   UNL A   1      41.859  29.490  32.735  1.00  0.00    -0.248 NA
ATOM     45  C   UNL A   1      42.958  27.776  31.604  1.00  0.00     0.031 C 
ATOM     46  C   UNL A   1      38.739  29.678  29.567  1.00  0.00     0.029 A 
ATOM     47  N   UNL A   1      39.636  30.700  31.333  1.00  0.00    -0.354 N 
ATOM     48  C   UNL A   1      43.024  29.165  33.426  1.00  0.00     0.074 A 
ATOM     49  C   UNL A   1      43.653  28.088  32.692  1.00  0.00     0.031 C 
ATOM     50  C   UNL A   1      38.080  30.829  29.734  1.00  0.00     0.029 A 
ATOM     51  C   UNL A   1      38.560  31.470  30.948  1.00  0.00     0.049 A 
ATOM     52  H   UNL A   1      40.222  30.934  32.089  1.00  0.00     0.167 HD
ATOM     53  C   UNL A   1      43.517  29.701  34.573  1.00  0.00     0.031 A 
ATOM     54  C   UNL A   1      37.943  32.520  31.526  1.00  0.00     0.031 A 
ATOM     55  C   UNL A   1      42.897  30.779  35.304  1.00  0.00     0.049 A 
ATOM     56  C   UNL A   1      38.419  33.009  32.858  1.00  0.00     0.074 A 
ATOM     57  C   UNL A   1      43.303  31.352  36.499  1.00  0.00     0.029 A 
ATOM     58  N   UNL A   1      41.752  31.453  34.910  1.00  0.00    -0.354 N 
ATOM     59  N   UNL A   1      39.450  32.602  33.553  1.00  0.00    -0.248 NA
ATOM     60  C   UNL A   1      37.627  34.066  33.501  1.00  0.00     0.031 C 
ATOM     61  C   UNL A   1      42.373  32.334  36.855  1.00  0.00     0.029 A 
ATOM     62  C   UNL A   1      41.422  32.413  35.853  1.00  0.00     0.049 A 
ATOM     63  H   UNL A   1      41.248  31.277  34.084  1.00  0.00     0.167 HD
ATOM     64  C   UNL A   1      39.434  33.354  34.721  1.00  0.00     0.074 A 
ATOM     65  C   UNL A   1      38.298  34.249  34.630  1.00  0.00     0.031 C 
ATOM     66  C   UNL A   1      40.288  33.297  35.768  1.00  0.00     0.031 A 
BRANCH  53  67
ATOM     67  C   UNL A   1      44.770  29.104  35.168  1.00  0.00    -0.014 A 
ATOM     68  C   UNL A   1      46.040  29.642  34.900  1.00  0.00     0.010 A 
ATOM     69  C   UNL A   1      44.657  28.059  36.106  1.00  0.00     0.010 A 
ATOM     70  C   UNL A   1      47.175  29.137  35.548  1.00  0.00     0.020 A 
ATOM     71  C   UNL A   1      45.784  27.564  36.769  1.00  0.00     0.020 A 
ATOM     72  C   UNL A   1      47.038  28.104  36.483  1.00  0.00     0.054 A 
BRANCH  72  73
ATOM     73  S   UNL A   1      48.524  27.485  37.324  1.00  0.00     0.124 S 
ATOM     74  O   UNL A   1      47.986  26.396  38.136  1.00  0.00    -0.237 OA
ATOM     75  O   UNL A   1      49.371  27.074  36.208  1.00  0.00    -0.237 OA
ATOM     76  O   UNL A   1      49.005  28.638  38.080  1.00  0.00    -0.744 OA
ENDBRANCH  72  73
ENDBRANCH  53  67
BRANCH  54  77
ATOM     77  C   UNL A   1      36.730  33.092  30.875  1.00  0.00    -0.014 A 
ATOM     78  C   UNL A   1      35.468  32.964  31.474  1.00  0.00     0.010 A 
ATOM     79  C   UNL A   1      36.857  33.858  29.699  1.00  0.00     0.010 A 
ATOM     80  C   UNL A   1      34.360  33.624  30.931  1.00  0.00     0.020 A 
ATOM     81  C   UNL A   1      35.762  34.543  29.172  1.00  0.00     0.020 A 
ATOM     82  C   UNL A   1      34.520  34.427  29.797  1.00  0.00     0.054 A 
BRANCH  82  83
ATOM     83  S   UNL A   1      33.092  35.365  29.185  1.00  0.00     0.124 S 
ATOM     84  O   UNL A   1      32.534  34.460  28.184  1.00  0.00    -0.237 OA
ATOM     85  O   UNL A   1      32.296  35.538  30.398  1.00  0.00    -0.237 OA
ATOM     86  O   UNL A   1      33.685  36.591  28.657  1.00  0.00    -0.744 OA
ENDBRANCH  82  83
ENDBRANCH  54  77
BRANCH  66  87
ATOM     87  C   UNL A   1      40.053  34.244  36.911  1.00  0.00    -0.014 A 
ATOM     88  C   UNL A   1      40.455  35.588  36.830  1.00  0.00     0.010 A 
ATOM     89  C   UNL A   1      39.345  33.801  38.043  1.00  0.00     0.010 A 
ATOM     90  C   UNL A   1      40.153  36.475  37.867  1.00  0.00     0.020 A 
ATOM     91  C   UNL A   1      39.024  34.690  39.071  1.00  0.00     0.020 A 
ATOM     92  C   UNL A   1      39.430  36.022  38.976  1.00  0.00     0.054 A 
BRANCH  92  93
ATOM     93  S   UNL A   1      39.007  37.212  40.277  1.00  0.00     0.124 S 
ATOM     94  O   UNL A   1      38.409  38.304  39.513  1.00  0.00    -0.237 OA
ATOM     95  O   UNL A   1      38.081  36.448  41.111  1.00  0.00    -0.237 OA
ATOM     96  O   UNL A   1      40.292  37.523  40.899  1.00  0.00    -0.744 OA
ENDBRANCH  92  93
ENDBRANCH  66  87
ENDBRANCH  40  41
ENDBRANCH  33  35
ENDBRANCH  32  33
ENDBRANCH  31  32
ENDBRANCH   1  31
TORSDOF 20
ENDMDL
