MODEL 1
REMARK VINA RESULT:     -10.4      0.000      0.000
REMARK SMILES O=C(Cn1cc(-c2ccccc2CO)cn1)OCCOC(=O)c1ccc(-c2c3nc(c(-c4ccc(S(=O)(=O)[O-])cc4)c4ccc([nH]4)c(-c4ccc(S(=O)(=O)[O-])cc4)c4nc(c(-c5ccc(S(=O)(=O)[O-])cc5)c5ccc2[nH]5)C=C4)C=C3)cc1
REMARK SMILES IDX 18 1 17 2 2 3 1 4 3 5 4 6 5 7 16 8 6 9 15 10 7 11 8 12 12 13
REMARK SMILES IDX 9 14 11 15 10 16 13 17 14 18 19 20 20 21 21 22 22 23 23 24
REMARK SMILES IDX 24 25 82 26 25 27 81 28 26 29 27 30 28 31 75 32 29 33 80 34
REMARK SMILES IDX 74 35 76 36 30 37 79 38 73 39 72 40 31 42 61 43 42 44 60 45
REMARK SMILES IDX 43 46 46 47 59 48 77 49 44 50 45 51 58 53 78 54 47 55 32 56
REMARK SMILES IDX 33 57 41 58 34 59 40 60 35 61 36 62 37 63 38 64 39 65 62 66
REMARK SMILES IDX 63 67 71 68 64 69 70 70 65 71 66 72 67 73 68 74 69 75 48 76
REMARK SMILES IDX 49 77 57 78 50 79 56 80 51 81 52 82 53 83 54 84 55 85
REMARK H PARENT 14 19 76 41 46 52
REMARK Flexibility Score: inf
ROOT
ATOM      1  C   UNL A   1      42.359  19.976  25.752  1.00  0.00     0.274 C 
ENDROOT
BRANCH   1   2
ATOM      2  O   UNL A   1      43.685  19.404  25.792  1.00  0.00    -0.461 OA
BRANCH   2   3
ATOM      3  C   UNL A   1      44.642  19.508  24.839  1.00  0.00     0.327 C 
ATOM      4  O   UNL A   1      44.449  19.005  23.729  1.00  0.00    -0.250 OA
BRANCH   3   5
ATOM      5  C   UNL A   1      45.958  20.161  25.146  1.00  0.00     0.266 C 
BRANCH   5   6
ATOM      6  N   UNL A   1      45.959  21.607  25.156  1.00  0.00    -0.261 N 
ATOM      7  C   UNL A   1      45.631  22.381  26.237  1.00  0.00     0.118 A 
ATOM      8  N   UNL A   1      46.271  22.326  24.063  1.00  0.00    -0.180 NA
ATOM      9  C   UNL A   1      45.955  23.666  25.872  1.00  0.00     0.020 A 
ATOM     10  C   UNL A   1      46.266  23.583  24.500  1.00  0.00     0.143 A 
BRANCH   9  11
ATOM     11  C   UNL A   1      46.103  24.797  26.753  1.00  0.00    -0.010 A 
ATOM     12  C   UNL A   1      46.881  24.634  27.910  1.00  0.00     0.009 A 
ATOM     13  C   UNL A   1      45.324  25.961  26.581  1.00  0.00    -0.015 A 
ATOM     14  C   UNL A   1      46.842  25.585  28.927  1.00  0.00     0.001 A 
ATOM     15  C   UNL A   1      45.283  26.894  27.630  1.00  0.00     0.007 A 
ATOM     16  C   UNL A   1      46.022  26.702  28.797  1.00  0.00     0.000 A 
BRANCH  13  17
ATOM     17  C   UNL A   1      44.469  26.240  25.369  1.00  0.00     0.192 C 
BRANCH  17  18
ATOM     18  O   UNL A   1      44.985  27.357  24.658  1.00  0.00    -0.392 OA
ATOM     19  H   UNL A   1      44.716  28.176  25.103  1.00  0.00     0.211 HD
ENDBRANCH  17  18
ENDBRANCH  13  17
ENDBRANCH   9  11
ENDBRANCH   5   6
ENDBRANCH   3   5
ENDBRANCH   2   3
ENDBRANCH   1   2
BRANCH   1  20
ATOM     20  C   UNL A   1      42.222  21.168  26.683  1.00  0.00     0.275 C 
BRANCH  20  21
ATOM     21  O   UNL A   1      41.681  22.272  25.969  1.00  0.00    -0.458 OA
BRANCH  21  22
ATOM     22  C   UNL A   1      40.680  22.967  26.556  1.00  0.00     0.338 C 
ATOM     23  O   UNL A   1      39.577  22.571  26.849  1.00  0.00    -0.246 OA
BRANCH  22  24
ATOM     24  C   UNL A   1      41.194  24.329  26.781  1.00  0.00     0.060 A 
ATOM     25  C   UNL A   1      42.028  24.536  27.880  1.00  0.00     0.016 A 
ATOM     26  C   UNL A   1      40.682  25.398  26.025  1.00  0.00     0.016 A 
ATOM     27  C   UNL A   1      42.114  25.815  28.386  1.00  0.00     0.010 A 
ATOM     28  C   UNL A   1      40.762  26.665  26.533  1.00  0.00     0.010 A 
ATOM     29  C   UNL A   1      41.373  26.829  27.768  1.00  0.00    -0.014 A 
BRANCH  29  30
ATOM     30  C   UNL A   1      41.234  28.102  28.433  1.00  0.00     0.031 A 
ATOM     31  C   UNL A   1      42.343  29.029  28.137  1.00  0.00     0.074 A 
ATOM     32  C   UNL A   1      40.136  28.406  29.155  1.00  0.00     0.049 A 
ATOM     33  N   UNL A   1      43.286  29.394  28.937  1.00  0.00    -0.248 NA
ATOM     34  C   UNL A   1      42.543  29.443  26.739  1.00  0.00     0.031 C 
ATOM     35  C   UNL A   1      38.870  27.675  29.281  1.00  0.00     0.029 A 
ATOM     36  N   UNL A   1      39.899  29.522  29.884  1.00  0.00    -0.354 N 
ATOM     37  C   UNL A   1      44.084  30.261  28.205  1.00  0.00     0.074 A 
ATOM     38  C   UNL A   1      43.697  30.105  26.826  1.00  0.00     0.031 C 
ATOM     39  C   UNL A   1      37.933  28.486  29.832  1.00  0.00     0.029 A 
ATOM     40  C   UNL A   1      38.571  29.727  30.241  1.00  0.00     0.049 A 
ATOM     41  H   UNL A   1      40.616  30.146  30.143  1.00  0.00     0.167 HD
ATOM     42  C   UNL A   1      44.835  31.217  28.815  1.00  0.00     0.031 A 
ATOM     43  C   UNL A   1      38.054  30.860  30.787  1.00  0.00     0.031 A 
ATOM     44  C   UNL A   1      44.968  30.963  30.227  1.00  0.00     0.049 A 
ATOM     45  C   UNL A   1      39.200  31.607  31.372  1.00  0.00     0.074 A 
ATOM     46  C   UNL A   1      45.538  29.947  30.968  1.00  0.00     0.029 A 
ATOM     47  N   UNL A   1      44.079  31.595  31.065  1.00  0.00    -0.354 N 
ATOM     48  N   UNL A   1      39.906  31.153  32.372  1.00  0.00    -0.248 NA
ATOM     49  C   UNL A   1      39.877  32.578  30.523  1.00  0.00     0.031 C 
ATOM     50  C   UNL A   1      44.619  29.713  32.031  1.00  0.00     0.029 A 
ATOM     51  C   UNL A   1      43.592  30.655  31.940  1.00  0.00     0.049 A 
ATOM     52  H   UNL A   1      43.835  32.549  31.042  1.00  0.00     0.167 HD
ATOM     53  C   UNL A   1      41.224  31.442  32.045  1.00  0.00     0.074 A 
ATOM     54  C   UNL A   1      41.138  32.377  30.921  1.00  0.00     0.031 C 
ATOM     55  C   UNL A   1      42.260  30.683  32.512  1.00  0.00     0.031 A 
BRANCH  42  56
ATOM     56  C   UNL A   1      45.115  32.558  28.199  1.00  0.00    -0.014 A 
ATOM     57  C   UNL A   1      46.333  32.763  27.524  1.00  0.00     0.010 A 
ATOM     58  C   UNL A   1      44.335  33.701  28.480  1.00  0.00     0.010 A 
ATOM     59  C   UNL A   1      46.767  34.052  27.191  1.00  0.00     0.020 A 
ATOM     60  C   UNL A   1      44.739  34.985  28.117  1.00  0.00     0.020 A 
ATOM     61  C   UNL A   1      45.968  35.154  27.497  1.00  0.00     0.054 A 
BRANCH  61  62
ATOM     62  S   UNL A   1      46.577  36.819  27.139  1.00  0.00     0.124 S 
ATOM     63  O   UNL A   1      47.150  37.215  28.420  1.00  0.00    -0.237 OA
ATOM     64  O   UNL A   1      47.533  36.571  26.064  1.00  0.00    -0.237 OA
ATOM     65  O   UNL A   1      45.374  37.546  26.739  1.00  0.00    -0.744 OA
ENDBRANCH  61  62
ENDBRANCH  42  56
BRANCH  43  66
ATOM     66  C   UNL A   1      36.757  31.517  30.457  1.00  0.00    -0.014 A 
ATOM     67  C   UNL A   1      36.175  32.475  31.313  1.00  0.00     0.010 A 
ATOM     68  C   UNL A   1      36.240  31.420  29.150  1.00  0.00     0.010 A 
ATOM     69  C   UNL A   1      35.152  33.334  30.860  1.00  0.00     0.020 A 
ATOM     70  C   UNL A   1      35.224  32.270  28.691  1.00  0.00     0.020 A 
ATOM     71  C   UNL A   1      34.697  33.240  29.542  1.00  0.00     0.054 A 
BRANCH  71  72
ATOM     72  S   UNL A   1      33.505  34.461  28.906  1.00  0.00     0.124 S 
ATOM     73  O   UNL A   1      32.761  33.685  27.918  1.00  0.00    -0.237 OA
ATOM     74  O   UNL A   1      32.762  34.836  30.105  1.00  0.00    -0.237 OA
ATOM     75  O   UNL A   1      34.355  35.515  28.353  1.00  0.00    -0.744 OA
ENDBRANCH  71  72
ENDBRANCH  43  66
BRANCH  55  76
ATOM     76  C   UNL A   1      41.975  29.647  33.581  1.00  0.00    -0.014 A 
ATOM     77  C   UNL A   1      41.533  28.333  33.318  1.00  0.00     0.010 A 
ATOM     78  C   UNL A   1      42.348  29.973  34.896  1.00  0.00     0.010 A 
ATOM     79  C   UNL A   1      41.455  27.381  34.351  1.00  0.00     0.020 A 
ATOM     80  C   UNL A   1      42.291  29.028  35.922  1.00  0.00     0.020 A 
ATOM     81  C   UNL A   1      41.837  27.737  35.649  1.00  0.00     0.054 A 
BRANCH  81  82
ATOM     82  S   UNL A   1      41.787  26.501  36.979  1.00  0.00     0.124 S 
ATOM     83  O   UNL A   1      42.965  26.841  37.773  1.00  0.00    -0.237 OA
ATOM     84  O   UNL A   1      40.499  26.764  37.619  1.00  0.00    -0.237 OA
ATOM     85  O   UNL A   1      41.868  25.224  36.272  1.00  0.00    -0.744 OA
ENDBRANCH  81  82
ENDBRANCH  55  76
ENDBRANCH  29  30
ENDBRANCH  22  24
ENDBRANCH  21  22
ENDBRANCH  20  21
ENDBRANCH   1  20
TORSDOF 18
ENDMDL
MODEL 2
REMARK VINA RESULT:     -10.3      3.408      5.760
REMARK SMILES O=C(Cn1cc(-c2ccccc2CO)cn1)OCCOC(=O)c1ccc(-c2c3nc(c(-c4ccc(S(=O)(=O)[O-])cc4)c4ccc([nH]4)c(-c4ccc(S(=O)(=O)[O-])cc4)c4nc(c(-c5ccc(S(=O)(=O)[O-])cc5)c5ccc2[nH]5)C=C4)C=C3)cc1
REMARK SMILES IDX 18 1 17 2 2 3 1 4 3 5 4 6 5 7 16 8 6 9 15 10 7 11 8 12 12 13
REMARK SMILES IDX 9 14 11 15 10 16 13 17 14 18 19 20 20 21 21 22 22 23 23 24
REMARK SMILES IDX 24 25 82 26 25 27 81 28 26 29 27 30 28 31 75 32 29 33 80 34
REMARK SMILES IDX 74 35 76 36 30 37 79 38 73 39 72 40 31 42 61 43 42 44 60 45
REMARK SMILES IDX 43 46 46 47 59 48 77 49 44 50 45 51 58 53 78 54 47 55 32 56
REMARK SMILES IDX 33 57 41 58 34 59 40 60 35 61 36 62 37 63 38 64 39 65 62 66
REMARK SMILES IDX 63 67 71 68 64 69 70 70 65 71 66 72 67 73 68 74 69 75 48 76
REMARK SMILES IDX 49 77 57 78 50 79 56 80 51 81 52 82 53 83 54 84 55 85
REMARK H PARENT 14 19 76 41 46 52
REMARK Flexibility Score: inf
ROOT
ATOM      1  C   UNL A   1      37.327  22.074  24.761  1.00  0.00     0.274 C 
ENDROOT
BRANCH   1   2
ATOM      2  O   UNL A   1      36.343  21.019  24.690  1.00  0.00    -0.461 OA
BRANCH   2   3
ATOM      3  C   UNL A   1      35.124  21.006  25.280  1.00  0.00     0.327 C 
ATOM      4  O   UNL A   1      34.205  20.371  24.758  1.00  0.00    -0.250 OA
BRANCH   3   5
ATOM      5  C   UNL A   1      34.865  21.816  26.517  1.00  0.00     0.266 C 
BRANCH   5   6
ATOM      6  N   UNL A   1      34.130  23.046  26.324  1.00  0.00    -0.261 N 
ATOM      7  C   UNL A   1      34.699  24.270  26.092  1.00  0.00     0.118 A 
ATOM      8  N   UNL A   1      32.787  23.089  26.382  1.00  0.00    -0.180 NA
ATOM      9  C   UNL A   1      33.652  25.101  25.775  1.00  0.00     0.020 A 
ATOM     10  C   UNL A   1      32.496  24.344  26.049  1.00  0.00     0.143 A 
BRANCH   9  11
ATOM     11  C   UNL A   1      33.742  26.393  25.143  1.00  0.00    -0.010 A 
ATOM     12  C   UNL A   1      33.757  27.531  25.966  1.00  0.00     0.009 A 
ATOM     13  C   UNL A   1      33.604  26.531  23.746  1.00  0.00    -0.015 A 
ATOM     14  C   UNL A   1      33.569  28.798  25.421  1.00  0.00     0.001 A 
ATOM     15  C   UNL A   1      33.393  27.818  23.222  1.00  0.00     0.007 A 
ATOM     16  C   UNL A   1      33.361  28.938  24.052  1.00  0.00     0.000 A 
BRANCH  13  17
ATOM     17  C   UNL A   1      33.595  25.376  22.774  1.00  0.00     0.192 C 
BRANCH  17  18
ATOM     18  O   UNL A   1      33.626  25.865  21.440  1.00  0.00    -0.392 OA
ATOM     19  H   UNL A   1      32.778  26.286  21.230  1.00  0.00     0.211 HD
ENDBRANCH  17  18
ENDBRANCH  13  17
ENDBRANCH   9  11
ENDBRANCH   5   6
ENDBRANCH   3   5
ENDBRANCH   2   3
ENDBRANCH   1   2
BRANCH   1  20
ATOM     20  C   UNL A   1      38.507  21.699  25.640  1.00  0.00     0.275 C 
BRANCH  20  21
ATOM     21  O   UNL A   1      38.778  22.754  26.553  1.00  0.00    -0.458 OA
BRANCH  21  22
ATOM     22  C   UNL A   1      39.909  22.669  27.291  1.00  0.00     0.338 C 
ATOM     23  O   UNL A   1      40.394  21.681  27.790  1.00  0.00    -0.246 OA
BRANCH  22  24
ATOM     24  C   UNL A   1      40.457  24.034  27.373  1.00  0.00     0.060 A 
ATOM     25  C   UNL A   1      41.600  24.230  28.148  1.00  0.00     0.016 A 
ATOM     26  C   UNL A   1      39.719  25.111  26.852  1.00  0.00     0.016 A 
ATOM     27  C   UNL A   1      41.834  25.498  28.633  1.00  0.00     0.010 A 
ATOM     28  C   UNL A   1      39.947  26.367  27.341  1.00  0.00     0.010 A 
ATOM     29  C   UNL A   1      40.924  26.513  28.316  1.00  0.00    -0.014 A 
BRANCH  29  30
ATOM     30  C   UNL A   1      40.996  27.768  29.024  1.00  0.00     0.031 A 
ATOM     31  C   UNL A   1      42.054  28.659  28.507  1.00  0.00     0.074 A 
ATOM     32  C   UNL A   1      40.104  28.093  29.981  1.00  0.00     0.049 A 
ATOM     33  N   UNL A   1      43.168  28.959  29.083  1.00  0.00    -0.248 NA
ATOM     34  C   UNL A   1      41.955  29.110  27.109  1.00  0.00     0.031 C 
ATOM     35  C   UNL A   1      38.865  27.410  30.371  1.00  0.00     0.029 A 
ATOM     36  N   UNL A   1      40.088  29.194  30.769  1.00  0.00    -0.354 N 
ATOM     37  C   UNL A   1      43.822  29.817  28.210  1.00  0.00     0.074 A 
ATOM     38  C   UNL A   1      43.130  29.722  26.950  1.00  0.00     0.031 C 
ATOM     39  C   UNL A   1      38.114  28.240  31.137  1.00  0.00     0.029 A 
ATOM     40  C   UNL A   1      38.884  29.440  31.420  1.00  0.00     0.049 A 
ATOM     41  H   UNL A   1      40.873  29.779  30.874  1.00  0.00     0.167 HD
ATOM     42  C   UNL A   1      44.734  30.721  28.657  1.00  0.00     0.031 A 
ATOM     43  C   UNL A   1      38.556  30.575  32.093  1.00  0.00     0.031 A 
ATOM     44  C   UNL A   1      45.168  30.416  29.997  1.00  0.00     0.049 A 
ATOM     45  C   UNL A   1      39.838  31.255  32.423  1.00  0.00     0.074 A 
ATOM     46  C   UNL A   1      45.840  29.354  30.567  1.00  0.00     0.029 A 
ATOM     47  N   UNL A   1      44.519  31.056  31.027  1.00  0.00    -0.354 N 
ATOM     48  N   UNL A   1      40.727  30.741  33.229  1.00  0.00    -0.248 NA
ATOM     49  C   UNL A   1      40.353  32.225  31.466  1.00  0.00     0.031 C 
ATOM     50  C   UNL A   1      45.173  29.123  31.805  1.00  0.00     0.029 A 
ATOM     51  C   UNL A   1      44.196  30.108  31.968  1.00  0.00     0.049 A 
ATOM     52  H   UNL A   1      44.320  32.019  31.081  1.00  0.00     0.167 HD
ATOM     53  C   UNL A   1      41.951  30.987  32.620  1.00  0.00     0.074 A 
ATOM     54  C   UNL A   1      41.660  31.960  31.566  1.00  0.00     0.031 C 
ATOM     55  C   UNL A   1      43.028  30.172  32.825  1.00  0.00     0.031 A 
BRANCH  42  56
ATOM     56  C   UNL A   1      44.932  32.069  28.024  1.00  0.00    -0.014 A 
ATOM     57  C   UNL A   1      46.229  32.471  27.657  1.00  0.00     0.010 A 
ATOM     58  C   UNL A   1      43.924  33.058  28.014  1.00  0.00     0.010 A 
ATOM     59  C   UNL A   1      46.509  33.807  27.339  1.00  0.00     0.020 A 
ATOM     60  C   UNL A   1      44.183  34.381  27.660  1.00  0.00     0.020 A 
ATOM     61  C   UNL A   1      45.484  34.753  27.351  1.00  0.00     0.054 A 
BRANCH  61  62
ATOM     62  S   UNL A   1      45.873  36.488  27.023  1.00  0.00     0.124 S 
ATOM     63  O   UNL A   1      46.639  36.856  28.209  1.00  0.00    -0.237 OA
ATOM     64  O   UNL A   1      46.630  36.402  25.778  1.00  0.00    -0.237 OA
ATOM     65  O   UNL A   1      44.560  37.118  26.904  1.00  0.00    -0.744 OA
ENDBRANCH  61  62
ENDBRANCH  42  56
BRANCH  43  66
ATOM     66  C   UNL A   1      37.250  31.295  32.079  1.00  0.00    -0.014 A 
ATOM     67  C   UNL A   1      36.678  31.810  33.260  1.00  0.00     0.010 A 
ATOM     68  C   UNL A   1      36.713  31.736  30.854  1.00  0.00     0.010 A 
ATOM     69  C   UNL A   1      35.643  32.768  33.212  1.00  0.00     0.020 A 
ATOM     70  C   UNL A   1      35.685  32.688  30.797  1.00  0.00     0.020 A 
ATOM     71  C   UNL A   1      35.168  33.217  31.977  1.00  0.00     0.054 A 
BRANCH  71  72
ATOM     72  S   UNL A   1      33.959  34.578  31.913  1.00  0.00     0.124 S 
ATOM     73  O   UNL A   1      34.747  35.718  32.373  1.00  0.00    -0.237 OA
ATOM     74  O   UNL A   1      33.579  34.601  30.503  1.00  0.00    -0.237 OA
ATOM     75  O   UNL A   1      32.904  34.145  32.828  1.00  0.00    -0.744 OA
ENDBRANCH  71  72
ENDBRANCH  43  66
BRANCH  55  76
ATOM     76  C   UNL A   1      42.941  29.113  33.907  1.00  0.00    -0.014 A 
ATOM     77  C   UNL A   1      43.453  29.267  35.214  1.00  0.00     0.010 A 
ATOM     78  C   UNL A   1      42.147  27.988  33.631  1.00  0.00     0.010 A 
ATOM     79  C   UNL A   1      43.182  28.308  36.208  1.00  0.00     0.020 A 
ATOM     80  C   UNL A   1      41.860  27.042  34.618  1.00  0.00     0.020 A 
ATOM     81  C   UNL A   1      42.384  27.201  35.901  1.00  0.00     0.054 A 
BRANCH  81  82
ATOM     82  S   UNL A   1      41.990  25.984  37.190  1.00  0.00     0.124 S 
ATOM     83  O   UNL A   1      40.594  26.286  37.496  1.00  0.00    -0.237 OA
ATOM     84  O   UNL A   1      42.225  24.708  36.516  1.00  0.00    -0.237 OA
ATOM     85  O   UNL A   1      42.937  26.291  38.261  1.00  0.00    -0.744 OA
ENDBRANCH  81  82
ENDBRANCH  55  76
ENDBRANCH  29  30
ENDBRANCH  22  24
ENDBRANCH  21  22
ENDBRANCH  20  21
ENDBRANCH   1  20
TORSDOF 18
ENDMDL
MODEL 3
REMARK VINA RESULT:     -10.2      3.331      5.606
REMARK SMILES O=C(Cn1cc(-c2ccccc2CO)cn1)OCCOC(=O)c1ccc(-c2c3nc(c(-c4ccc(S(=O)(=O)[O-])cc4)c4ccc([nH]4)c(-c4ccc(S(=O)(=O)[O-])cc4)c4nc(c(-c5ccc(S(=O)(=O)[O-])cc5)c5ccc2[nH]5)C=C4)C=C3)cc1
REMARK SMILES IDX 18 1 17 2 2 3 1 4 3 5 4 6 5 7 16 8 6 9 15 10 7 11 8 12 12 13
REMARK SMILES IDX 9 14 11 15 10 16 13 17 14 18 19 20 20 21 21 22 22 23 23 24
REMARK SMILES IDX 24 25 82 26 25 27 81 28 26 29 27 30 28 31 75 32 29 33 80 34
REMARK SMILES IDX 74 35 76 36 30 37 79 38 73 39 72 40 31 42 61 43 42 44 60 45
REMARK SMILES IDX 43 46 46 47 59 48 77 49 44 50 45 51 58 53 78 54 47 55 32 56
REMARK SMILES IDX 33 57 41 58 34 59 40 60 35 61 36 62 37 63 38 64 39 65 62 66
REMARK SMILES IDX 63 67 71 68 64 69 70 70 65 71 66 72 67 73 68 74 69 75 48 76
REMARK SMILES IDX 49 77 57 78 50 79 56 80 51 81 52 82 53 83 54 84 55 85
REMARK H PARENT 14 19 76 41 46 52
REMARK Flexibility Score: inf
ROOT
ATOM      1  C   UNL A   1      41.079  21.290  26.914  1.00  0.00     0.274 C 
ENDROOT
BRANCH   1   2
ATOM      2  O   UNL A   1      39.668  21.435  26.641  1.00  0.00    -0.461 OA
BRANCH   2   3
ATOM      3  C   UNL A   1      39.003  22.590  26.400  1.00  0.00     0.327 C 
ATOM      4  O   UNL A   1      39.122  23.534  27.185  1.00  0.00    -0.250 OA
BRANCH   3   5
ATOM      5  C   UNL A   1      38.069  22.702  25.229  1.00  0.00     0.266 C 
BRANCH   5   6
ATOM      6  N   UNL A   1      36.787  22.050  25.380  1.00  0.00    -0.261 N 
ATOM      7  C   UNL A   1      36.238  21.187  24.470  1.00  0.00     0.118 A 
ATOM      8  N   UNL A   1      36.000  22.265  26.449  1.00  0.00    -0.180 NA
ATOM      9  C   UNL A   1      35.133  20.660  25.094  1.00  0.00     0.020 A 
ATOM     10  C   UNL A   1      34.990  21.418  26.273  1.00  0.00     0.143 A 
BRANCH   9  11
ATOM     11  C   UNL A   1      34.402  19.482  24.696  1.00  0.00    -0.010 A 
ATOM     12  C   UNL A   1      35.115  18.281  24.554  1.00  0.00     0.009 A 
ATOM     13  C   UNL A   1      33.065  19.571  24.255  1.00  0.00    -0.015 A 
ATOM     14  C   UNL A   1      34.533  17.187  23.917  1.00  0.00     0.001 A 
ATOM     15  C   UNL A   1      32.508  18.461  23.597  1.00  0.00     0.007 A 
ATOM     16  C   UNL A   1      33.239  17.287  23.416  1.00  0.00     0.000 A 
BRANCH  13  17
ATOM     17  C   UNL A   1      32.209  20.807  24.378  1.00  0.00     0.192 C 
BRANCH  17  18
ATOM     18  O   UNL A   1      31.541  20.811  25.633  1.00  0.00    -0.392 OA
ATOM     19  H   UNL A   1      31.516  19.910  25.989  1.00  0.00     0.211 HD
ENDBRANCH  17  18
ENDBRANCH  13  17
ENDBRANCH   9  11
ENDBRANCH   5   6
ENDBRANCH   3   5
ENDBRANCH   2   3
ENDBRANCH   1   2
BRANCH   1  20
ATOM     20  C   UNL A   1      41.936  21.692  25.727  1.00  0.00     0.275 C 
BRANCH  20  21
ATOM     21  O   UNL A   1      43.000  22.527  26.166  1.00  0.00    -0.458 OA
BRANCH  21  22
ATOM     22  C   UNL A   1      43.136  23.734  25.570  1.00  0.00     0.338 C 
ATOM     23  O   UNL A   1      43.826  24.015  24.618  1.00  0.00    -0.246 OA
BRANCH  22  24
ATOM     24  C   UNL A   1      42.266  24.665  26.308  1.00  0.00     0.060 A 
ATOM     25  C   UNL A   1      41.589  25.641  25.577  1.00  0.00     0.016 A 
ATOM     26  C   UNL A   1      42.298  24.678  27.714  1.00  0.00     0.016 A 
ATOM     27  C   UNL A   1      41.190  26.779  26.245  1.00  0.00     0.010 A 
ATOM     28  C   UNL A   1      41.908  25.810  28.374  1.00  0.00     0.010 A 
ATOM     29  C   UNL A   1      41.476  26.886  27.612  1.00  0.00    -0.014 A 
BRANCH  29  30
ATOM     30  C   UNL A   1      41.315  28.162  28.265  1.00  0.00     0.031 A 
ATOM     31  C   UNL A   1      42.422  29.097  27.982  1.00  0.00     0.074 A 
ATOM     32  C   UNL A   1      40.202  28.463  28.965  1.00  0.00     0.049 A 
ATOM     33  N   UNL A   1      43.347  29.475  28.796  1.00  0.00    -0.248 NA
ATOM     34  C   UNL A   1      42.643  29.503  26.585  1.00  0.00     0.031 C 
ATOM     35  C   UNL A   1      38.939  27.722  29.073  1.00  0.00     0.029 A 
ATOM     36  N   UNL A   1      39.943  29.582  29.681  1.00  0.00    -0.354 N 
ATOM     37  C   UNL A   1      44.151  30.343  28.073  1.00  0.00     0.074 A 
ATOM     38  C   UNL A   1      43.790  30.175  26.687  1.00  0.00     0.031 C 
ATOM     39  C   UNL A   1      37.987  28.529  29.602  1.00  0.00     0.029 A 
ATOM     40  C   UNL A   1      38.607  29.778  30.012  1.00  0.00     0.049 A 
ATOM     41  H   UNL A   1      40.650  30.213  29.948  1.00  0.00     0.167 HD
ATOM     42  C   UNL A   1      44.883  31.310  28.689  1.00  0.00     0.031 A 
ATOM     43  C   UNL A   1      38.071  30.911  30.541  1.00  0.00     0.031 A 
ATOM     44  C   UNL A   1      44.993  31.067  30.104  1.00  0.00     0.049 A 
ATOM     45  C   UNL A   1      39.200  31.672  31.141  1.00  0.00     0.074 A 
ATOM     46  C   UNL A   1      45.558  30.061  30.863  1.00  0.00     0.029 A 
ATOM     47  N   UNL A   1      44.084  31.698  30.921  1.00  0.00    -0.354 N 
ATOM     48  N   UNL A   1      39.891  31.231  32.157  1.00  0.00    -0.248 NA
ATOM     49  C   UNL A   1      39.885  32.642  30.297  1.00  0.00     0.031 C 
ATOM     50  C   UNL A   1      44.622  29.827  31.912  1.00  0.00     0.029 A 
ATOM     51  C   UNL A   1      43.588  30.760  31.795  1.00  0.00     0.049 A 
ATOM     52  H   UNL A   1      43.832  32.650  30.887  1.00  0.00     0.167 HD
ATOM     53  C   UNL A   1      41.213  31.528  31.851  1.00  0.00     0.074 A 
ATOM     54  C   UNL A   1      41.140  32.454  30.719  1.00  0.00     0.031 C 
ATOM     55  C   UNL A   1      42.246  30.781  32.343  1.00  0.00     0.031 A 
BRANCH  42  56
ATOM     56  C   UNL A   1      45.163  32.649  28.068  1.00  0.00    -0.014 A 
ATOM     57  C   UNL A   1      46.482  33.138  28.057  1.00  0.00     0.010 A 
ATOM     58  C   UNL A   1      44.137  33.556  27.725  1.00  0.00     0.010 A 
ATOM     59  C   UNL A   1      46.754  34.480  27.762  1.00  0.00     0.020 A 
ATOM     60  C   UNL A   1      44.399  34.884  27.390  1.00  0.00     0.020 A 
ATOM     61  C   UNL A   1      45.707  35.345  27.439  1.00  0.00     0.054 A 
BRANCH  61  62
ATOM     62  S   UNL A   1      46.059  37.094  27.143  1.00  0.00     0.124 S 
ATOM     63  O   UNL A   1      46.817  37.456  28.336  1.00  0.00    -0.237 OA
ATOM     64  O   UNL A   1      46.818  37.048  25.897  1.00  0.00    -0.237 OA
ATOM     65  O   UNL A   1      44.733  37.698  27.036  1.00  0.00    -0.744 OA
ENDBRANCH  61  62
ENDBRANCH  42  56
BRANCH  43  66
ATOM     66  C   UNL A   1      36.774  31.555  30.184  1.00  0.00    -0.014 A 
ATOM     67  C   UNL A   1      35.910  32.074  31.169  1.00  0.00     0.010 A 
ATOM     68  C   UNL A   1      36.528  31.927  28.847  1.00  0.00     0.010 A 
ATOM     69  C   UNL A   1      34.874  32.970  30.834  1.00  0.00     0.020 A 
ATOM     70  C   UNL A   1      35.500  32.818  28.505  1.00  0.00     0.020 A 
ATOM     71  C   UNL A   1      34.689  33.353  29.503  1.00  0.00     0.054 A 
BRANCH  71  72
ATOM     72  S   UNL A   1      33.469  34.641  29.093  1.00  0.00     0.124 S 
ATOM     73  O   UNL A   1      32.872  34.932  30.393  1.00  0.00    -0.237 OA
ATOM     74  O   UNL A   1      34.300  35.700  28.528  1.00  0.00    -0.237 OA
ATOM     75  O   UNL A   1      32.580  33.981  28.138  1.00  0.00    -0.744 OA
ENDBRANCH  71  72
ENDBRANCH  43  66
BRANCH  55  76
ATOM     76  C   UNL A   1      41.951  29.750  33.414  1.00  0.00    -0.014 A 
ATOM     77  C   UNL A   1      41.556  28.421  33.151  1.00  0.00     0.010 A 
ATOM     78  C   UNL A   1      42.265  30.102  34.737  1.00  0.00     0.010 A 
ATOM     79  C   UNL A   1      41.466  27.479  34.194  1.00  0.00     0.020 A 
ATOM     80  C   UNL A   1      42.195  29.168  35.773  1.00  0.00     0.020 A 
ATOM     81  C   UNL A   1      41.789  27.862  35.500  1.00  0.00     0.054 A 
BRANCH  81  82
ATOM     82  S   UNL A   1      41.724  26.641  36.844  1.00  0.00     0.124 S 
ATOM     83  O   UNL A   1      42.936  26.939  37.602  1.00  0.00    -0.237 OA
ATOM     84  O   UNL A   1      40.466  26.964  37.515  1.00  0.00    -0.237 OA
ATOM     85  O   UNL A   1      41.731  25.356  36.147  1.00  0.00    -0.744 OA
ENDBRANCH  81  82
ENDBRANCH  55  76
ENDBRANCH  29  30
ENDBRANCH  22  24
ENDBRANCH  21  22
ENDBRANCH  20  21
ENDBRANCH   1  20
TORSDOF 18
ENDMDL
