MODEL 1
REMARK VINA RESULT:     -11.0      0.000      0.000
REMARK SMILES O=C(OCCOC(=O)c1cc(Br)ccc1NC(=O)c1ccc(Br)s1)c1ccc(-c2c3nc(c(-c4ccc(S(=O)(=O)[O-])cc4)c4ccc([nH]4)c(-c4ccc(S(=O)(=O)[O-])cc4)c4nc(c(-c5ccc(S(=O)(=O)[O-])cc5)c5ccc2[nH]5)C=C4)C=C3)cc1
REMARK SMILES IDX 4 1 3 2 2 3 1 4 25 5 26 6 84 7 27 8 83 9 28 10 29 11 30 12
REMARK SMILES IDX 77 13 31 14 82 15 76 16 78 17 32 18 81 19 75 20 74 21 33 23
REMARK SMILES IDX 63 24 44 25 62 26 45 27 48 28 61 29 79 30 46 31 47 32 60 34
REMARK SMILES IDX 80 35 49 36 34 37 35 38 43 39 36 40 42 41 37 42 38 43 39 44
REMARK SMILES IDX 40 45 41 46 64 47 65 48 73 49 66 50 72 51 67 52 68 53 69 54
REMARK SMILES IDX 70 55 71 56 50 57 51 58 59 59 52 60 58 61 53 62 54 63 55 64
REMARK SMILES IDX 56 65 57 66 5 67 6 68 7 69 8 70 9 71 10 72 15 73 11 74 14 75
REMARK SMILES IDX 12 76 13 77 16 78 17 79 18 81 19 82 20 83 24 84 21 85 22 86
REMARK SMILES IDX 23 87
REMARK H PARENT 78 22 48 33 16 80
REMARK Flexibility Score: inf
ROOT
ATOM      1  C   UNL A   1      34.431  29.457  27.894  1.00  0.00     0.275 C 
ENDROOT
BRANCH   1   2
ATOM      2  O   UNL A   1      35.856  29.600  27.939  1.00  0.00    -0.458 OA
BRANCH   2   3
ATOM      3  C   UNL A   1      36.724  29.431  28.962  1.00  0.00     0.338 C 
ATOM      4  O   UNL A   1      36.318  29.645  30.104  1.00  0.00    -0.246 OA
BRANCH   3   5
ATOM      5  C   UNL A   1      38.180  29.121  28.790  1.00  0.00     0.060 A 
ATOM      6  C   UNL A   1      39.051  28.625  29.763  1.00  0.00     0.016 A 
ATOM      7  C   UNL A   1      38.706  29.347  27.506  1.00  0.00     0.016 A 
ATOM      8  C   UNL A   1      40.373  28.289  29.457  1.00  0.00     0.010 A 
ATOM      9  C   UNL A   1      40.014  28.983  27.183  1.00  0.00     0.010 A 
ATOM     10  C   UNL A   1      40.863  28.459  28.165  1.00  0.00    -0.014 A 
BRANCH  10  11
ATOM     11  C   UNL A   1      42.309  28.317  27.891  1.00  0.00     0.031 A 
ATOM     12  C   UNL A   1      43.168  29.530  28.094  1.00  0.00     0.074 A 
ATOM     13  C   UNL A   1      42.854  27.149  27.503  1.00  0.00     0.049 A 
ATOM     14  N   UNL A   1      44.439  29.694  27.848  1.00  0.00    -0.248 NA
ATOM     15  C   UNL A   1      42.501  30.717  28.657  1.00  0.00     0.031 C 
ATOM     16  C   UNL A   1      42.143  25.878  27.383  1.00  0.00     0.029 A 
ATOM     17  N   UNL A   1      44.138  26.844  27.124  1.00  0.00    -0.354 N 
ATOM     18  C   UNL A   1      44.718  30.998  28.232  1.00  0.00     0.074 A 
ATOM     19  C   UNL A   1      43.474  31.609  28.633  1.00  0.00     0.031 C 
ATOM     20  C   UNL A   1      42.985  24.945  26.907  1.00  0.00     0.029 A 
ATOM     21  C   UNL A   1      44.285  25.555  26.666  1.00  0.00     0.049 A 
ATOM     22  H   UNL A   1      44.882  27.486  27.176  1.00  0.00     0.167 HD
ATOM     23  C   UNL A   1      45.917  31.620  28.294  1.00  0.00     0.031 A 
ATOM     24  C   UNL A   1      45.342  24.943  26.096  1.00  0.00     0.031 A 
ATOM     25  C   UNL A   1      47.145  31.000  27.892  1.00  0.00     0.049 A 
ATOM     26  C   UNL A   1      46.642  25.696  26.023  1.00  0.00     0.074 A 
ATOM     27  C   UNL A   1      48.423  31.522  27.917  1.00  0.00     0.029 A 
ATOM     28  N   UNL A   1      47.241  29.711  27.384  1.00  0.00    -0.354 N 
ATOM     29  N   UNL A   1      46.898  26.923  26.410  1.00  0.00    -0.248 NA
ATOM     30  C   UNL A   1      47.803  24.974  25.487  1.00  0.00     0.031 C 
ATOM     31  C   UNL A   1      49.287  30.567  27.371  1.00  0.00     0.029 A 
ATOM     32  C   UNL A   1      48.555  29.426  27.068  1.00  0.00     0.049 A 
ATOM     33  H   UNL A   1      46.484  29.093  27.265  1.00  0.00     0.167 HD
ATOM     34  C   UNL A   1      48.265  27.099  26.232  1.00  0.00     0.074 A 
ATOM     35  C   UNL A   1      48.774  25.860  25.674  1.00  0.00     0.031 C 
ATOM     36  C   UNL A   1      49.033  28.175  26.531  1.00  0.00     0.031 A 
BRANCH  23  37
ATOM     37  C   UNL A   1      45.912  33.037  28.796  1.00  0.00    -0.014 A 
ATOM     38  C   UNL A   1      46.069  33.323  30.166  1.00  0.00     0.010 A 
ATOM     39  C   UNL A   1      45.669  34.089  27.899  1.00  0.00     0.010 A 
ATOM     40  C   UNL A   1      45.904  34.626  30.639  1.00  0.00     0.020 A 
ATOM     41  C   UNL A   1      45.539  35.401  28.365  1.00  0.00     0.020 A 
ATOM     42  C   UNL A   1      45.628  35.655  29.736  1.00  0.00     0.054 A 
BRANCH  42  43
ATOM     43  S   UNL A   1      45.385  37.332  30.378  1.00  0.00     0.124 S 
ATOM     44  O   UNL A   1      46.172  38.129  29.440  1.00  0.00    -0.237 OA
ATOM     45  O   UNL A   1      43.937  37.504  30.286  1.00  0.00    -0.237 OA
ATOM     46  O   UNL A   1      45.916  37.263  31.737  1.00  0.00    -0.744 OA
ENDBRANCH  42  43
ENDBRANCH  23  37
BRANCH  24  47
ATOM     47  C   UNL A   1      45.209  23.557  25.564  1.00  0.00    -0.014 A 
ATOM     48  C   UNL A   1      44.768  23.320  24.251  1.00  0.00     0.010 A 
ATOM     49  C   UNL A   1      45.544  22.457  26.375  1.00  0.00     0.010 A 
ATOM     50  C   UNL A   1      44.655  22.012  23.765  1.00  0.00     0.020 A 
ATOM     51  C   UNL A   1      45.452  21.148  25.888  1.00  0.00     0.020 A 
ATOM     52  C   UNL A   1      45.002  20.934  24.585  1.00  0.00     0.054 A 
BRANCH  52  53
ATOM     53  S   UNL A   1      44.894  19.251  23.910  1.00  0.00     0.124 S 
ATOM     54  O   UNL A   1      46.259  18.764  24.081  1.00  0.00    -0.237 OA
ATOM     55  O   UNL A   1      43.888  18.635  24.772  1.00  0.00    -0.237 OA
ATOM     56  O   UNL A   1      44.474  19.461  22.526  1.00  0.00    -0.744 OA
ENDBRANCH  52  53
ENDBRANCH  24  47
BRANCH  36  57
ATOM     57  C   UNL A   1      50.517  28.045  26.342  1.00  0.00    -0.014 A 
ATOM     58  C   UNL A   1      51.144  28.438  25.150  1.00  0.00     0.010 A 
ATOM     59  C   UNL A   1      51.303  27.621  27.431  1.00  0.00     0.010 A 
ATOM     60  C   UNL A   1      52.537  28.402  25.047  1.00  0.00     0.020 A 
ATOM     61  C   UNL A   1      52.694  27.613  27.342  1.00  0.00     0.020 A 
ATOM     62  C   UNL A   1      53.302  27.998  26.147  1.00  0.00     0.054 A 
BRANCH  62  63
ATOM     63  S   UNL A   1      55.109  28.046  26.017  1.00  0.00     0.124 S 
ATOM     64  O   UNL A   1      55.346  29.417  25.572  1.00  0.00    -0.237 OA
ATOM     65  O   UNL A   1      55.536  27.745  27.381  1.00  0.00    -0.237 OA
ATOM     66  O   UNL A   1      55.414  27.009  25.033  1.00  0.00    -0.744 OA
ENDBRANCH  62  63
ENDBRANCH  36  57
ENDBRANCH  10  11
ENDBRANCH   3   5
ENDBRANCH   2   3
ENDBRANCH   1   2
BRANCH   1  67
ATOM     67  C   UNL A   1      33.890  28.890  26.578  1.00  0.00     0.275 C 
BRANCH  67  68
ATOM     68  O   UNL A   1      33.284  27.591  26.677  1.00  0.00    -0.458 OA
BRANCH  68  69
ATOM     69  C   UNL A   1      31.970  27.562  27.041  1.00  0.00     0.340 C 
ATOM     70  O   UNL A   1      31.508  27.811  28.132  1.00  0.00    -0.246 OA
BRANCH  69  71
ATOM     71  C   UNL A   1      31.151  27.277  25.839  1.00  0.00     0.084 A 
ATOM     72  C   UNL A   1      31.111  28.251  24.830  1.00  0.00     0.033 A 
ATOM     73  C   UNL A   1      30.424  26.074  25.718  1.00  0.00     0.056 A 
ATOM     74  C   UNL A   1      30.291  28.060  23.726  1.00  0.00     0.018 A 
ATOM     75  C   UNL A   1      29.457  26.028  24.710  1.00  0.00     0.028 A 
ATOM     76  Br  UNL A   1      30.388  29.239  22.257  1.00  0.00    -0.051 Br
ATOM     77  C   UNL A   1      29.402  26.996  23.703  1.00  0.00     0.018 A 
BRANCH  73  78
ATOM     78  N   UNL A   1      30.687  24.997  26.603  1.00  0.00    -0.320 N 
ATOM     79  C   UNL A   1      31.535  23.903  26.576  1.00  0.00     0.265 C 
ATOM     80  H   UNL A   1      30.142  25.038  27.423  1.00  0.00     0.170 HD
ATOM     81  O   UNL A   1      31.492  23.140  27.544  1.00  0.00    -0.268 OA
BRANCH  79  82
ATOM     82  C   UNL A   1      32.447  23.676  25.476  1.00  0.00     0.093 A 
ATOM     83  C   UNL A   1      32.185  23.456  24.135  1.00  0.00     0.027 A 
ATOM     84  S   UNL A   1      34.136  23.728  25.784  1.00  0.00    -0.123 S 
ATOM     85  C   UNL A   1      33.376  23.186  23.392  1.00  0.00     0.028 A 
ATOM     86  C   UNL A   1      34.491  23.309  24.182  1.00  0.00     0.071 A 
ATOM     87  Br  UNL A   1      36.236  23.039  23.558  1.00  0.00    -0.039 Br
ENDBRANCH  79  82
ENDBRANCH  73  78
ENDBRANCH  69  71
ENDBRANCH  68  69
ENDBRANCH  67  68
ENDBRANCH   1  67
TORSDOF 16
ENDMDL
MODEL 2
REMARK VINA RESULT:     -10.9      6.964     12.363
REMARK SMILES O=C(OCCOC(=O)c1cc(Br)ccc1NC(=O)c1ccc(Br)s1)c1ccc(-c2c3nc(c(-c4ccc(S(=O)(=O)[O-])cc4)c4ccc([nH]4)c(-c4ccc(S(=O)(=O)[O-])cc4)c4nc(c(-c5ccc(S(=O)(=O)[O-])cc5)c5ccc2[nH]5)C=C4)C=C3)cc1
REMARK SMILES IDX 4 1 3 2 2 3 1 4 25 5 26 6 84 7 27 8 83 9 28 10 29 11 30 12
REMARK SMILES IDX 77 13 31 14 82 15 76 16 78 17 32 18 81 19 75 20 74 21 33 23
REMARK SMILES IDX 63 24 44 25 62 26 45 27 48 28 61 29 79 30 46 31 47 32 60 34
REMARK SMILES IDX 80 35 49 36 34 37 35 38 43 39 36 40 42 41 37 42 38 43 39 44
REMARK SMILES IDX 40 45 41 46 64 47 65 48 73 49 66 50 72 51 67 52 68 53 69 54
REMARK SMILES IDX 70 55 71 56 50 57 51 58 59 59 52 60 58 61 53 62 54 63 55 64
REMARK SMILES IDX 56 65 57 66 5 67 6 68 7 69 8 70 9 71 10 72 15 73 11 74 14 75
REMARK SMILES IDX 12 76 13 77 16 78 17 79 18 81 19 82 20 83 24 84 21 85 22 86
REMARK SMILES IDX 23 87
REMARK H PARENT 78 22 48 33 16 80
REMARK Flexibility Score: inf
ROOT
ATOM      1  C   UNL A   1      38.335  23.417  26.281  1.00  0.00     0.275 C 
ENDROOT
BRANCH   1   2
ATOM      2  O   UNL A   1      39.196  24.496  25.894  1.00  0.00    -0.458 OA
BRANCH   2   3
ATOM      3  C   UNL A   1      40.252  25.047  26.533  1.00  0.00     0.338 C 
ATOM      4  O   UNL A   1      41.381  24.693  26.193  1.00  0.00    -0.246 OA
BRANCH   3   5
ATOM      5  C   UNL A   1      40.139  25.966  27.712  1.00  0.00     0.060 A 
ATOM      6  C   UNL A   1      39.254  25.845  28.785  1.00  0.00     0.016 A 
ATOM      7  C   UNL A   1      41.034  27.051  27.729  1.00  0.00     0.016 A 
ATOM      8  C   UNL A   1      39.305  26.718  29.876  1.00  0.00     0.010 A 
ATOM      9  C   UNL A   1      41.115  27.907  28.829  1.00  0.00     0.010 A 
ATOM     10  C   UNL A   1      40.238  27.751  29.909  1.00  0.00    -0.014 A 
BRANCH  10  11
ATOM     11  C   UNL A   1      40.150  28.803  30.945  1.00  0.00     0.031 A 
ATOM     12  C   UNL A   1      41.013  28.642  32.161  1.00  0.00     0.074 A 
ATOM     13  C   UNL A   1      39.358  29.882  30.805  1.00  0.00     0.049 A 
ATOM     14  N   UNL A   1      41.064  29.371  33.242  1.00  0.00    -0.248 NA
ATOM     15  C   UNL A   1      41.949  27.504  32.153  1.00  0.00     0.031 C 
ATOM     16  C   UNL A   1      38.564  30.206  29.622  1.00  0.00     0.029 A 
ATOM     17  N   UNL A   1      39.080  30.905  31.678  1.00  0.00    -0.354 N 
ATOM     18  C   UNL A   1      42.039  28.781  34.034  1.00  0.00     0.074 A 
ATOM     19  C   UNL A   1      42.483  27.585  33.358  1.00  0.00     0.031 C 
ATOM     20  C   UNL A   1      37.847  31.317  29.863  1.00  0.00     0.029 A 
ATOM     21  C   UNL A   1      38.110  31.768  31.222  1.00  0.00     0.049 A 
ATOM     22  H   UNL A   1      39.531  31.011  32.546  1.00  0.00     0.167 HD
ATOM     23  C   UNL A   1      42.559  29.224  35.201  1.00  0.00     0.031 A 
ATOM     24  C   UNL A   1      37.490  32.794  31.839  1.00  0.00     0.031 A 
ATOM     25  C   UNL A   1      42.108  30.413  35.861  1.00  0.00     0.049 A 
ATOM     26  C   UNL A   1      37.966  33.189  33.210  1.00  0.00     0.074 A 
ATOM     27  C   UNL A   1      42.561  30.970  37.040  1.00  0.00     0.029 A 
ATOM     28  N   UNL A   1      41.086  31.229  35.391  1.00  0.00    -0.354 N 
ATOM     29  N   UNL A   1      38.905  32.635  33.940  1.00  0.00    -0.248 NA
ATOM     30  C   UNL A   1      37.341  34.368  33.820  1.00  0.00     0.031 C 
ATOM     31  C   UNL A   1      41.775  32.094  37.313  1.00  0.00     0.029 A 
ATOM     32  C   UNL A   1      40.878  32.274  36.269  1.00  0.00     0.049 A 
ATOM     33  H   UNL A   1      40.585  31.083  34.556  1.00  0.00     0.167 HD
ATOM     34  C   UNL A   1      39.035  33.439  35.065  1.00  0.00     0.074 A 
ATOM     35  C   UNL A   1      38.056  34.501  34.931  1.00  0.00     0.031 C 
ATOM     36  C   UNL A   1      39.905  33.327  36.098  1.00  0.00     0.031 A 
BRANCH  23  37
ATOM     37  C   UNL A   1      43.646  28.384  35.811  1.00  0.00    -0.014 A 
ATOM     38  C   UNL A   1      44.997  28.582  35.466  1.00  0.00     0.010 A 
ATOM     39  C   UNL A   1      43.307  27.334  36.680  1.00  0.00     0.010 A 
ATOM     40  C   UNL A   1      45.979  27.697  35.915  1.00  0.00     0.020 A 
ATOM     41  C   UNL A   1      44.292  26.466  37.161  1.00  0.00     0.020 A 
ATOM     42  C   UNL A   1      45.617  26.637  36.750  1.00  0.00     0.054 A 
BRANCH  42  43
ATOM     43  S   UNL A   1      46.903  25.482  37.293  1.00  0.00     0.124 S 
ATOM     44  O   UNL A   1      46.163  24.225  37.374  1.00  0.00    -0.237 OA
ATOM     45  O   UNL A   1      47.884  25.564  36.214  1.00  0.00    -0.237 OA
ATOM     46  O   UNL A   1      47.343  26.030  38.574  1.00  0.00    -0.744 OA
ENDBRANCH  42  43
ENDBRANCH  23  37
BRANCH  24  47
ATOM     47  C   UNL A   1      36.369  33.508  31.164  1.00  0.00    -0.014 A 
ATOM     48  C   UNL A   1      35.192  33.837  31.857  1.00  0.00     0.010 A 
ATOM     49  C   UNL A   1      36.487  33.881  29.812  1.00  0.00     0.010 A 
ATOM     50  C   UNL A   1      34.152  34.514  31.209  1.00  0.00     0.020 A 
ATOM     51  C   UNL A   1      35.458  34.575  29.165  1.00  0.00     0.020 A 
ATOM     52  C   UNL A   1      34.292  34.883  29.868  1.00  0.00     0.054 A 
BRANCH  52  53
ATOM     53  S   UNL A   1      32.948  35.805  29.068  1.00  0.00     0.124 S 
ATOM     54  O   UNL A   1      32.365  34.796  28.189  1.00  0.00    -0.237 OA
ATOM     55  O   UNL A   1      32.125  36.205  30.207  1.00  0.00    -0.237 OA
ATOM     56  O   UNL A   1      33.637  36.902  28.391  1.00  0.00    -0.744 OA
ENDBRANCH  52  53
ENDBRANCH  24  47
BRANCH  36  57
ATOM     57  C   UNL A   1      39.904  34.417  37.131  1.00  0.00    -0.014 A 
ATOM     58  C   UNL A   1      40.605  35.616  36.937  1.00  0.00     0.010 A 
ATOM     59  C   UNL A   1      39.088  34.268  38.270  1.00  0.00     0.010 A 
ATOM     60  C   UNL A   1      40.497  36.649  37.871  1.00  0.00     0.020 A 
ATOM     61  C   UNL A   1      38.954  35.308  39.187  1.00  0.00     0.020 A 
ATOM     62  C   UNL A   1      39.664  36.492  38.985  1.00  0.00     0.054 A 
BRANCH  62  63
ATOM     63  S   UNL A   1      39.471  37.881  40.133  1.00  0.00     0.124 S 
ATOM     64  O   UNL A   1      38.277  38.542  39.612  1.00  0.00    -0.237 OA
ATOM     65  O   UNL A   1      39.308  37.210  41.421  1.00  0.00    -0.237 OA
ATOM     66  O   UNL A   1      40.716  38.631  39.982  1.00  0.00    -0.744 OA
ENDBRANCH  62  63
ENDBRANCH  36  57
ENDBRANCH  10  11
ENDBRANCH   3   5
ENDBRANCH   2   3
ENDBRANCH   1   2
BRANCH   1  67
ATOM     67  C   UNL A   1      37.072  23.275  25.426  1.00  0.00     0.275 C 
BRANCH  67  68
ATOM     68  O   UNL A   1      36.365  22.034  25.585  1.00  0.00    -0.458 OA
BRANCH  68  69
ATOM     69  C   UNL A   1      35.201  22.086  26.293  1.00  0.00     0.340 C 
ATOM     70  O   UNL A   1      34.914  22.866  27.174  1.00  0.00    -0.246 OA
BRANCH  69  71
ATOM     71  C   UNL A   1      34.260  21.086  25.735  1.00  0.00     0.084 A 
ATOM     72  C   UNL A   1      34.806  19.941  25.133  1.00  0.00     0.033 A 
ATOM     73  C   UNL A   1      32.864  21.281  25.794  1.00  0.00     0.056 A 
ATOM     74  C   UNL A   1      33.963  19.021  24.525  1.00  0.00     0.018 A 
ATOM     75  C   UNL A   1      32.083  20.451  24.987  1.00  0.00     0.028 A 
ATOM     76  Br  UNL A   1      34.645  17.373  23.909  1.00  0.00    -0.051 Br
ATOM     77  C   UNL A   1      32.616  19.312  24.375  1.00  0.00     0.018 A 
BRANCH  73  78
ATOM     78  N   UNL A   1      32.327  22.289  26.636  1.00  0.00    -0.320 N 
ATOM     79  C   UNL A   1      31.844  23.570  26.430  1.00  0.00     0.265 C 
ATOM     80  H   UNL A   1      32.289  22.014  27.581  1.00  0.00     0.170 HD
ATOM     81  O   UNL A   1      31.452  24.185  27.425  1.00  0.00    -0.268 OA
BRANCH  79  82
ATOM     82  C   UNL A   1      31.777  24.154  25.108  1.00  0.00     0.093 A 
ATOM     83  C   UNL A   1      30.819  24.007  24.119  1.00  0.00     0.027 A 
ATOM     84  S   UNL A   1      33.005  25.255  24.632  1.00  0.00    -0.123 S 
ATOM     85  C   UNL A   1      31.179  24.691  22.917  1.00  0.00     0.028 A 
ATOM     86  C   UNL A   1      32.341  25.402  23.081  1.00  0.00     0.071 A 
ATOM     87  Br  UNL A   1      33.123  26.433  21.726  1.00  0.00    -0.039 Br
ENDBRANCH  79  82
ENDBRANCH  73  78
ENDBRANCH  69  71
ENDBRANCH  68  69
ENDBRANCH  67  68
ENDBRANCH   1  67
TORSDOF 16
ENDMDL
MODEL 3
REMARK VINA RESULT:     -10.8      3.408      4.152
REMARK SMILES O=C(OCCOC(=O)c1cc(Br)ccc1NC(=O)c1ccc(Br)s1)c1ccc(-c2c3nc(c(-c4ccc(S(=O)(=O)[O-])cc4)c4ccc([nH]4)c(-c4ccc(S(=O)(=O)[O-])cc4)c4nc(c(-c5ccc(S(=O)(=O)[O-])cc5)c5ccc2[nH]5)C=C4)C=C3)cc1
REMARK SMILES IDX 4 1 3 2 2 3 1 4 25 5 26 6 84 7 27 8 83 9 28 10 29 11 30 12
REMARK SMILES IDX 77 13 31 14 82 15 76 16 78 17 32 18 81 19 75 20 74 21 33 23
REMARK SMILES IDX 63 24 44 25 62 26 45 27 48 28 61 29 79 30 46 31 47 32 60 34
REMARK SMILES IDX 80 35 49 36 34 37 35 38 43 39 36 40 42 41 37 42 38 43 39 44
REMARK SMILES IDX 40 45 41 46 64 47 65 48 73 49 66 50 72 51 67 52 68 53 69 54
REMARK SMILES IDX 70 55 71 56 50 57 51 58 59 59 52 60 58 61 53 62 54 63 55 64
REMARK SMILES IDX 56 65 57 66 5 67 6 68 7 69 8 70 9 71 10 72 15 73 11 74 14 75
REMARK SMILES IDX 12 76 13 77 16 78 17 79 18 81 19 82 20 83 24 84 21 85 22 86
REMARK SMILES IDX 23 87
REMARK H PARENT 78 22 48 33 16 80
REMARK Flexibility Score: inf
ROOT
ATOM      1  C   UNL A   1      32.245  29.359  27.048  1.00  0.00     0.275 C 
ENDROOT
BRANCH   1   2
ATOM      2  O   UNL A   1      33.677  29.352  27.103  1.00  0.00    -0.458 OA
BRANCH   2   3
ATOM      3  C   UNL A   1      34.535  30.170  27.752  1.00  0.00     0.338 C 
ATOM      4  O   UNL A   1      34.143  31.298  28.049  1.00  0.00    -0.246 OA
BRANCH   3   5
ATOM      5  C   UNL A   1      35.972  29.842  28.024  1.00  0.00     0.060 A 
ATOM      6  C   UNL A   1      37.040  29.958  27.131  1.00  0.00     0.016 A 
ATOM      7  C   UNL A   1      36.260  29.383  29.321  1.00  0.00     0.016 A 
ATOM      8  C   UNL A   1      38.356  29.706  27.530  1.00  0.00     0.010 A 
ATOM      9  C   UNL A   1      37.574  29.162  29.738  1.00  0.00     0.010 A 
ATOM     10  C   UNL A   1      38.634  29.312  28.837  1.00  0.00    -0.014 A 
BRANCH  10  11
ATOM     11  C   UNL A   1      39.984  28.833  29.200  1.00  0.00     0.031 A 
ATOM     12  C   UNL A   1      40.907  29.815  29.859  1.00  0.00     0.074 A 
ATOM     13  C   UNL A   1      40.377  27.564  28.984  1.00  0.00     0.049 A 
ATOM     14  N   UNL A   1      42.159  29.675  30.200  1.00  0.00    -0.248 NA
ATOM     15  C   UNL A   1      40.335  31.135  30.182  1.00  0.00     0.031 C 
ATOM     16  C   UNL A   1      39.535  26.492  28.459  1.00  0.00     0.029 A 
ATOM     17  N   UNL A   1      41.597  26.962  29.170  1.00  0.00    -0.354 N 
ATOM     18  C   UNL A   1      42.516  30.885  30.780  1.00  0.00     0.074 A 
ATOM     19  C   UNL A   1      41.387  31.775  30.657  1.00  0.00     0.031 C 
ATOM     20  C   UNL A   1      40.276  25.380  28.312  1.00  0.00     0.029 A 
ATOM     21  C   UNL A   1      41.648  25.667  28.708  1.00  0.00     0.049 A 
ATOM     22  H   UNL A   1      42.362  27.414  29.593  1.00  0.00     0.167 HD
ATOM     23  C   UNL A   1      43.668  31.210  31.406  1.00  0.00     0.031 A 
ATOM     24  C   UNL A   1      42.688  24.816  28.598  1.00  0.00     0.031 A 
ATOM     25  C   UNL A   1      44.782  30.316  31.520  1.00  0.00     0.049 A 
ATOM     26  C   UNL A   1      44.016  25.244  29.158  1.00  0.00     0.074 A 
ATOM     27  C   UNL A   1      45.998  30.525  32.138  1.00  0.00     0.029 A 
ATOM     28  N   UNL A   1      44.810  29.031  30.991  1.00  0.00    -0.354 N 
ATOM     29  N   UNL A   1      44.335  26.383  29.724  1.00  0.00    -0.248 NA
ATOM     30  C   UNL A   1      45.107  24.263  29.113  1.00  0.00     0.031 C 
ATOM     31  C   UNL A   1      46.784  29.387  31.935  1.00  0.00     0.029 A 
ATOM     32  C   UNL A   1      46.032  28.443  31.248  1.00  0.00     0.049 A 
ATOM     33  H   UNL A   1      44.068  28.604  30.504  1.00  0.00     0.167 HD
ATOM     34  C   UNL A   1      45.643  26.234  30.167  1.00  0.00     0.074 A 
ATOM     35  C   UNL A   1      46.064  24.901  29.777  1.00  0.00     0.031 C 
ATOM     36  C   UNL A   1      46.414  27.106  30.861  1.00  0.00     0.031 A 
BRANCH  23  37
ATOM     37  C   UNL A   1      43.750  32.598  31.979  1.00  0.00    -0.014 A 
ATOM     38  C   UNL A   1      43.205  32.896  33.243  1.00  0.00     0.010 A 
ATOM     39  C   UNL A   1      44.308  33.634  31.212  1.00  0.00     0.010 A 
ATOM     40  C   UNL A   1      43.146  34.215  33.695  1.00  0.00     0.020 A 
ATOM     41  C   UNL A   1      44.282  34.952  31.676  1.00  0.00     0.020 A 
ATOM     42  C   UNL A   1      43.674  35.237  32.901  1.00  0.00     0.054 A 
BRANCH  42  43
ATOM     43  S   UNL A   1      43.555  36.945  33.494  1.00  0.00     0.124 S 
ATOM     44  O   UNL A   1      44.798  37.088  34.248  1.00  0.00    -0.237 OA
ATOM     45  O   UNL A   1      43.483  37.711  32.252  1.00  0.00    -0.237 OA
ATOM     46  O   UNL A   1      42.335  36.949  34.297  1.00  0.00    -0.744 OA
ENDBRANCH  42  43
ENDBRANCH  23  37
BRANCH  24  47
ATOM     47  C   UNL A   1      42.505  23.491  27.941  1.00  0.00    -0.014 A 
ATOM     48  C   UNL A   1      42.783  23.310  26.575  1.00  0.00     0.010 A 
ATOM     49  C   UNL A   1      42.064  22.387  28.695  1.00  0.00     0.010 A 
ATOM     50  C   UNL A   1      42.613  22.056  25.976  1.00  0.00     0.020 A 
ATOM     51  C   UNL A   1      41.911  21.127  28.105  1.00  0.00     0.020 A 
ATOM     52  C   UNL A   1      42.182  20.971  26.745  1.00  0.00     0.054 A 
BRANCH  52  53
ATOM     53  S   UNL A   1      42.019  19.346  25.951  1.00  0.00     0.124 S 
ATOM     54  O   UNL A   1      42.861  19.496  24.769  1.00  0.00    -0.237 OA
ATOM     55  O   UNL A   1      42.529  18.444  26.981  1.00  0.00    -0.237 OA
ATOM     56  O   UNL A   1      40.586  19.233  25.688  1.00  0.00    -0.744 OA
ENDBRANCH  52  53
ENDBRANCH  24  47
BRANCH  36  57
ATOM     57  C   UNL A   1      47.764  26.631  31.319  1.00  0.00    -0.014 A 
ATOM     58  C   UNL A   1      47.931  25.948  32.532  1.00  0.00     0.010 A 
ATOM     59  C   UNL A   1      48.864  26.784  30.453  1.00  0.00     0.010 A 
ATOM     60  C   UNL A   1      49.181  25.429  32.877  1.00  0.00     0.020 A 
ATOM     61  C   UNL A   1      50.105  26.241  30.780  1.00  0.00     0.020 A 
ATOM     62  C   UNL A   1      50.257  25.571  31.994  1.00  0.00     0.054 A 
BRANCH  62  63
ATOM     63  S   UNL A   1      51.845  24.811  32.425  1.00  0.00     0.124 S 
ATOM     64  O   UNL A   1      52.739  25.384  31.422  1.00  0.00    -0.237 OA
ATOM     65  O   UNL A   1      52.059  25.271  33.795  1.00  0.00    -0.237 OA
ATOM     66  O   UNL A   1      51.592  23.378  32.289  1.00  0.00    -0.744 OA
ENDBRANCH  62  63
ENDBRANCH  36  57
ENDBRANCH  10  11
ENDBRANCH   3   5
ENDBRANCH   2   3
ENDBRANCH   1   2
BRANCH   1  67
ATOM     67  C   UNL A   1      31.586  28.038  27.456  1.00  0.00     0.275 C 
BRANCH  67  68
ATOM     68  O   UNL A   1      31.110  27.233  26.365  1.00  0.00    -0.458 OA
BRANCH  68  69
ATOM     69  C   UNL A   1      31.694  26.010  26.214  1.00  0.00     0.340 C 
ATOM     70  O   UNL A   1      31.674  25.088  26.998  1.00  0.00    -0.246 OA
BRANCH  69  71
ATOM     71  C   UNL A   1      32.286  25.931  24.857  1.00  0.00     0.084 A 
ATOM     72  C   UNL A   1      32.764  27.118  24.282  1.00  0.00     0.033 A 
ATOM     73  C   UNL A   1      32.354  24.706  24.159  1.00  0.00     0.056 A 
ATOM     74  C   UNL A   1      33.250  27.101  22.982  1.00  0.00     0.018 A 
ATOM     75  C   UNL A   1      32.641  24.781  22.794  1.00  0.00     0.028 A 
ATOM     76  Br  UNL A   1      34.102  28.625  22.268  1.00  0.00    -0.051 Br
ATOM     77  C   UNL A   1      33.112  25.959  22.208  1.00  0.00     0.018 A 
BRANCH  73  78
ATOM     78  N   UNL A   1      32.125  23.487  24.848  1.00  0.00    -0.320 N 
ATOM     79  C   UNL A   1      32.931  22.442  25.267  1.00  0.00     0.265 C 
ATOM     80  H   UNL A   1      31.177  23.355  25.080  1.00  0.00     0.170 HD
ATOM     81  O   UNL A   1      32.375  21.507  25.847  1.00  0.00    -0.268 OA
BRANCH  79  82
ATOM     82  C   UNL A   1      34.362  22.455  25.057  1.00  0.00     0.093 A 
ATOM     83  C   UNL A   1      35.094  22.200  23.910  1.00  0.00     0.027 A 
ATOM     84  S   UNL A   1      35.382  22.899  26.365  1.00  0.00    -0.123 S 
ATOM     85  C   UNL A   1      36.502  22.231  24.153  1.00  0.00     0.028 A 
ATOM     86  C   UNL A   1      36.773  22.602  25.447  1.00  0.00     0.071 A 
ATOM     87  Br  UNL A   1      38.507  22.762  26.135  1.00  0.00    -0.039 Br
ENDBRANCH  79  82
ENDBRANCH  73  78
ENDBRANCH  69  71
ENDBRANCH  68  69
ENDBRANCH  67  68
ENDBRANCH   1  67
TORSDOF 16
ENDMDL
