MODEL 1
REMARK VINA RESULT:     -10.7      0.000      0.000
REMARK SMILES Nc1nonc1C(=O)N1[C@@H]2CC[C@H]1C[C@H](CC(=O)OCCOC(=O)c1ccc(-c3c4nc(c(-c5ccc(S(=O)(=O)[O-])cc5)c5ccc([nH]5)c(-c5ccc(S(=O)(=O)[O-])cc5)c5nc(c(-c6ccc(S(=O)(=O)[O-])cc6)c6ccc3[nH]6)C=C5)C=C4)cc1)C2
REMARK SMILES IDX 20 1 19 2 17 3 18 4 16 5 15 6 9 7 10 8 13 9 11 10 85 11
REMARK SMILES IDX 12 12 14 13 7 14 8 15 6 16 2 17 3 18 4 19 5 20 1 21 21 24
REMARK SMILES IDX 22 25 23 26 24 27 25 28 26 29 84 30 27 31 83 32 28 33 29 34
REMARK SMILES IDX 30 35 77 36 31 37 82 38 76 39 78 40 32 41 81 42 75 43 74 44
REMARK SMILES IDX 33 46 63 47 44 48 62 49 45 50 48 51 61 52 79 53 46 54 47 55
REMARK SMILES IDX 60 57 80 58 49 59 34 60 35 61 43 62 36 63 42 64 37 65 38 66
REMARK SMILES IDX 39 67 40 68 41 69 64 70 65 71 73 72 66 73 72 74 67 75 68 76
REMARK SMILES IDX 69 77 70 78 71 79 50 80 51 81 59 82 52 83 58 84 53 85 54 86
REMARK SMILES IDX 55 87 56 88 57 89
REMARK H PARENT 1 22 1 23 78 45 48 56
REMARK Flexibility Score: inf
ROOT
ATOM      1  C   UNL A   1      38.554  20.615  25.171  1.00  0.00     0.274 C 
ENDROOT
BRANCH   1   2
ATOM      2  O   UNL A   1      38.664  21.766  26.028  1.00  0.00    -0.462 OA
BRANCH   2   3
ATOM      3  C   UNL A   1      37.896  22.832  25.699  1.00  0.00     0.306 C 
ATOM      4  O   UNL A   1      37.957  23.932  26.233  1.00  0.00    -0.252 OA
BRANCH   3   5
ATOM      5  C   UNL A   1      36.869  22.502  24.641  1.00  0.00     0.126 C 
BRANCH   5   6
ATOM      6  C   UNL A   1      35.378  22.701  25.004  1.00  0.00     0.004 C 
ATOM      7  N   UNL A   1      33.527  20.567  25.167  1.00  0.00    -0.331 N 
ATOM      8  C   UNL A   1      33.687  21.318  26.400  1.00  0.00     0.086 C 
ATOM      9  C   UNL A   1      33.179  21.560  24.166  1.00  0.00     0.086 C 
ATOM     10  C   UNL A   1      32.584  22.383  26.361  1.00  0.00     0.027 C 
ATOM     11  C   UNL A   1      35.087  21.925  26.324  1.00  0.00     0.029 C 
ATOM     12  C   UNL A   1      32.163  22.449  24.892  1.00  0.00     0.027 C 
ATOM     13  C   UNL A   1      34.441  22.355  23.809  1.00  0.00     0.029 C 
BRANCH   7  14
ATOM     14  C   UNL A   1      32.898  19.322  25.195  1.00  0.00     0.280 C 
ATOM     15  O   UNL A   1      32.167  19.005  26.132  1.00  0.00    -0.267 OA
BRANCH  14  16
ATOM     16  C   UNL A   1      33.234  18.401  24.105  1.00  0.00     0.216 A 
ATOM     17  C   UNL A   1      34.343  17.532  23.913  1.00  0.00     0.201 A 
ATOM     18  N   UNL A   1      34.193  16.852  22.780  1.00  0.00    -0.032 NA
ATOM     19  O   UNL A   1      32.970  17.257  22.274  1.00  0.00    -0.242 OA
ATOM     20  N   UNL A   1      32.384  18.217  23.081  1.00  0.00    -0.042 NA
BRANCH  17  21
ATOM     21  N   UNL A   1      35.388  17.363  24.737  1.00  0.00    -0.379 N 
ATOM     22  H   UNL A   1      36.167  16.841  24.441  1.00  0.00     0.158 HD
ATOM     23  H   UNL A   1      35.374  17.762  25.636  1.00  0.00     0.158 HD
ENDBRANCH  17  21
ENDBRANCH  14  16
ENDBRANCH   7  14
ENDBRANCH   5   6
ENDBRANCH   3   5
ENDBRANCH   2   3
ENDBRANCH   1   2
BRANCH   1  24
ATOM     24  C   UNL A   1      39.403  19.462  25.706  1.00  0.00     0.275 C 
BRANCH  24  25
ATOM     25  O   UNL A   1      40.438  19.944  26.583  1.00  0.00    -0.458 OA
BRANCH  25  26
ATOM     26  C   UNL A   1      41.686  19.974  26.059  1.00  0.00     0.338 C 
ATOM     27  O   UNL A   1      42.211  19.135  25.350  1.00  0.00    -0.246 OA
BRANCH  26  28
ATOM     28  C   UNL A   1      42.303  21.269  26.380  1.00  0.00     0.060 A 
ATOM     29  C   UNL A   1      42.649  21.543  27.706  1.00  0.00     0.016 A 
ATOM     30  C   UNL A   1      42.501  22.223  25.383  1.00  0.00     0.016 A 
ATOM     31  C   UNL A   1      43.217  22.769  28.043  1.00  0.00     0.010 A 
ATOM     32  C   UNL A   1      43.072  23.452  25.722  1.00  0.00     0.010 A 
ATOM     33  C   UNL A   1      43.436  23.731  27.052  1.00  0.00    -0.014 A 
BRANCH  33  34
ATOM     34  C   UNL A   1      44.033  25.040  27.401  1.00  0.00     0.031 A 
ATOM     35  C   UNL A   1      43.156  26.150  27.902  1.00  0.00     0.074 A 
ATOM     36  C   UNL A   1      45.355  25.234  27.244  1.00  0.00     0.049 A 
ATOM     37  N   UNL A   1      43.458  27.402  28.129  1.00  0.00    -0.248 NA
ATOM     38  C   UNL A   1      41.753  25.805  28.183  1.00  0.00     0.031 C 
ATOM     39  C   UNL A   1      46.315  24.216  26.810  1.00  0.00     0.029 A 
ATOM     40  N   UNL A   1      46.118  26.361  27.418  1.00  0.00    -0.354 N 
ATOM     41  C   UNL A   1      42.281  28.002  28.557  1.00  0.00     0.074 A 
ATOM     42  C   UNL A   1      41.256  26.979  28.546  1.00  0.00     0.031 C 
ATOM     43  C   UNL A   1      47.537  24.769  26.741  1.00  0.00     0.029 A 
ATOM     44  C   UNL A   1      47.438  26.188  27.071  1.00  0.00     0.049 A 
ATOM     45  H   UNL A   1      45.757  27.211  27.758  1.00  0.00     0.167 HD
ATOM     46  C   UNL A   1      42.075  29.290  28.919  1.00  0.00     0.031 A 
ATOM     47  C   UNL A   1      48.443  27.080  26.987  1.00  0.00     0.031 A 
ATOM     48  C   UNL A   1      43.098  30.302  28.915  1.00  0.00     0.049 A 
ATOM     49  C   UNL A   1      48.174  28.521  27.322  1.00  0.00     0.074 A 
ATOM     50  C   UNL A   1      42.992  31.636  29.268  1.00  0.00     0.029 A 
ATOM     51  N   UNL A   1      44.416  30.093  28.533  1.00  0.00    -0.354 N 
ATOM     52  N   UNL A   1      47.055  29.078  27.720  1.00  0.00    -0.248 NA
ATOM     53  C   UNL A   1      49.300  29.455  27.192  1.00  0.00     0.031 C 
ATOM     54  C   UNL A   1      44.234  32.244  29.053  1.00  0.00     0.029 A 
ATOM     55  C   UNL A   1      45.127  31.277  28.618  1.00  0.00     0.049 A 
ATOM     56  H   UNL A   1      44.789  29.229  28.243  1.00  0.00     0.167 HD
ATOM     57  C   UNL A   1      47.345  30.424  27.901  1.00  0.00     0.074 A 
ATOM     58  C   UNL A   1      48.749  30.596  27.586  1.00  0.00     0.031 C 
ATOM     59  C   UNL A   1      46.524  31.429  28.294  1.00  0.00     0.031 A 
BRANCH  46  60
ATOM     60  C   UNL A   1      40.676  29.683  29.309  1.00  0.00    -0.014 A 
ATOM     61  C   UNL A   1      39.660  29.818  28.346  1.00  0.00     0.010 A 
ATOM     62  C   UNL A   1      40.368  29.902  30.664  1.00  0.00     0.010 A 
ATOM     63  C   UNL A   1      38.373  30.208  28.726  1.00  0.00     0.020 A 
ATOM     64  C   UNL A   1      39.076  30.270  31.051  1.00  0.00     0.020 A 
ATOM     65  C   UNL A   1      38.092  30.439  30.076  1.00  0.00     0.054 A 
BRANCH  65  66
ATOM     66  S   UNL A   1      36.414  30.946  30.543  1.00  0.00     0.124 S 
ATOM     67  O   UNL A   1      36.062  29.935  31.538  1.00  0.00    -0.237 OA
ATOM     68  O   UNL A   1      36.618  32.295  31.065  1.00  0.00    -0.237 OA
ATOM     69  O   UNL A   1      35.667  30.873  29.290  1.00  0.00    -0.744 OA
ENDBRANCH  65  66
ENDBRANCH  46  60
BRANCH  47  70
ATOM     70  C   UNL A   1      49.786  26.636  26.523  1.00  0.00    -0.014 A 
ATOM     71  C   UNL A   1      50.700  26.059  27.420  1.00  0.00     0.010 A 
ATOM     72  C   UNL A   1      50.144  26.768  25.169  1.00  0.00     0.010 A 
ATOM     73  C   UNL A   1      51.952  25.625  26.971  1.00  0.00     0.020 A 
ATOM     74  C   UNL A   1      51.384  26.313  24.712  1.00  0.00     0.020 A 
ATOM     75  C   UNL A   1      52.284  25.752  25.619  1.00  0.00     0.054 A 
BRANCH  75  76
ATOM     76  S   UNL A   1      53.887  25.122  25.045  1.00  0.00     0.124 S 
ATOM     77  O   UNL A   1      54.752  25.412  26.184  1.00  0.00    -0.237 OA
ATOM     78  O   UNL A   1      53.605  23.709  24.808  1.00  0.00    -0.237 OA
ATOM     79  O   UNL A   1      54.150  25.907  23.842  1.00  0.00    -0.744 OA
ENDBRANCH  75  76
ENDBRANCH  47  70
BRANCH  59  80
ATOM     80  C   UNL A   1      47.125  32.801  28.427  1.00  0.00    -0.014 A 
ATOM     81  C   UNL A   1      47.081  33.719  27.362  1.00  0.00     0.010 A 
ATOM     82  C   UNL A   1      47.682  33.199  29.656  1.00  0.00     0.010 A 
ATOM     83  C   UNL A   1      47.604  35.006  27.519  1.00  0.00     0.020 A 
ATOM     84  C   UNL A   1      48.183  34.492  29.823  1.00  0.00     0.020 A 
ATOM     85  C   UNL A   1      48.150  35.385  28.749  1.00  0.00     0.054 A 
BRANCH  85  86
ATOM     86  S   UNL A   1      48.768  37.079  28.947  1.00  0.00     0.124 S 
ATOM     87  O   UNL A   1      48.288  37.425  30.282  1.00  0.00    -0.237 OA
ATOM     88  O   UNL A   1      50.215  36.910  28.822  1.00  0.00    -0.237 OA
ATOM     89  O   UNL A   1      48.136  37.808  27.849  1.00  0.00    -0.744 OA
ENDBRANCH  85  86
ENDBRANCH  59  80
ENDBRANCH  33  34
ENDBRANCH  26  28
ENDBRANCH  25  26
ENDBRANCH  24  25
ENDBRANCH   1  24
TORSDOF 18
ENDMDL
MODEL 2
REMARK VINA RESULT:     -10.6      6.303      9.812
REMARK SMILES Nc1nonc1C(=O)N1[C@@H]2CC[C@H]1C[C@H](CC(=O)OCCOC(=O)c1ccc(-c3c4nc(c(-c5ccc(S(=O)(=O)[O-])cc5)c5ccc([nH]5)c(-c5ccc(S(=O)(=O)[O-])cc5)c5nc(c(-c6ccc(S(=O)(=O)[O-])cc6)c6ccc3[nH]6)C=C5)C=C4)cc1)C2
REMARK SMILES IDX 20 1 19 2 17 3 18 4 16 5 15 6 9 7 10 8 13 9 11 10 85 11
REMARK SMILES IDX 12 12 14 13 7 14 8 15 6 16 2 17 3 18 4 19 5 20 1 21 21 24
REMARK SMILES IDX 22 25 23 26 24 27 25 28 26 29 84 30 27 31 83 32 28 33 29 34
REMARK SMILES IDX 30 35 77 36 31 37 82 38 76 39 78 40 32 41 81 42 75 43 74 44
REMARK SMILES IDX 33 46 63 47 44 48 62 49 45 50 48 51 61 52 79 53 46 54 47 55
REMARK SMILES IDX 60 57 80 58 49 59 34 60 35 61 43 62 36 63 42 64 37 65 38 66
REMARK SMILES IDX 39 67 40 68 41 69 64 70 65 71 73 72 66 73 72 74 67 75 68 76
REMARK SMILES IDX 69 77 70 78 71 79 50 80 51 81 59 82 52 83 58 84 53 85 54 86
REMARK SMILES IDX 55 87 56 88 57 89
REMARK H PARENT 1 22 1 23 78 45 48 56
REMARK Flexibility Score: inf
ROOT
ATOM      1  C   UNL A   1      45.755  25.556  26.631  1.00  0.00     0.274 C 
ENDROOT
BRANCH   1   2
ATOM      2  O   UNL A   1      45.366  25.949  27.959  1.00  0.00    -0.462 OA
BRANCH   2   3
ATOM      3  C   UNL A   1      44.704  25.019  28.689  1.00  0.00     0.306 C 
ATOM      4  O   UNL A   1      44.318  25.174  29.840  1.00  0.00    -0.252 OA
BRANCH   3   5
ATOM      5  C   UNL A   1      44.560  23.705  27.957  1.00  0.00     0.126 C 
BRANCH   5   6
ATOM      6  C   UNL A   1      43.125  23.202  27.666  1.00  0.00     0.004 C 
ATOM      7  N   UNL A   1      42.579  20.760  26.345  1.00  0.00    -0.331 N 
ATOM      8  C   UNL A   1      42.025  20.854  27.684  1.00  0.00     0.086 C 
ATOM      9  C   UNL A   1      42.067  21.925  25.644  1.00  0.00     0.086 C 
ATOM     10  C   UNL A   1      40.597  21.379  27.486  1.00  0.00     0.027 C 
ATOM     11  C   UNL A   1      42.916  21.854  28.420  1.00  0.00     0.029 C 
ATOM     12  C   UNL A   1      40.597  21.976  26.078  1.00  0.00     0.027 C 
ATOM     13  C   UNL A   1      42.825  23.163  26.138  1.00  0.00     0.029 C 
BRANCH   7  14
ATOM     14  C   UNL A   1      42.654  19.517  25.716  1.00  0.00     0.280 C 
ATOM     15  O   UNL A   1      41.662  18.793  25.630  1.00  0.00    -0.267 OA
BRANCH  14  16
ATOM     16  C   UNL A   1      43.983  19.100  25.259  1.00  0.00     0.216 A 
ATOM     17  C   UNL A   1      44.895  19.695  24.346  1.00  0.00     0.201 A 
ATOM     18  N   UNL A   1      46.006  18.967  24.278  1.00  0.00    -0.032 NA
ATOM     19  O   UNL A   1      45.816  17.933  25.180  1.00  0.00    -0.242 OA
ATOM     20  N   UNL A   1      44.569  18.007  25.776  1.00  0.00    -0.042 NA
BRANCH  17  21
ATOM     21  N   UNL A   1      44.723  20.833  23.659  1.00  0.00    -0.379 N 
ATOM     22  H   UNL A   1      44.705  20.816  22.675  1.00  0.00     0.158 HD
ATOM     23  H   UNL A   1      44.614  21.685  24.139  1.00  0.00     0.158 HD
ENDBRANCH  17  21
ENDBRANCH  14  16
ENDBRANCH   7  14
ENDBRANCH   5   6
ENDBRANCH   3   5
ENDBRANCH   2   3
ENDBRANCH   1   2
BRANCH   1  24
ATOM     24  C   UNL A   1      45.074  26.441  25.587  1.00  0.00     0.275 C 
BRANCH  24  25
ATOM     25  O   UNL A   1      43.644  26.283  25.626  1.00  0.00    -0.458 OA
BRANCH  25  26
ATOM     26  C   UNL A   1      42.922  27.414  25.445  1.00  0.00     0.338 C 
ATOM     27  O   UNL A   1      42.517  27.873  24.392  1.00  0.00    -0.246 OA
BRANCH  26  28
ATOM     28  C   UNL A   1      42.578  27.971  26.761  1.00  0.00     0.060 A 
ATOM     29  C   UNL A   1      41.775  27.220  27.625  1.00  0.00     0.016 A 
ATOM     30  C   UNL A   1      43.012  29.245  27.124  1.00  0.00     0.016 A 
ATOM     31  C   UNL A   1      41.417  27.731  28.870  1.00  0.00     0.010 A 
ATOM     32  C   UNL A   1      42.654  29.756  28.374  1.00  0.00     0.010 A 
ATOM     33  C   UNL A   1      41.858  29.001  29.255  1.00  0.00    -0.014 A 
BRANCH  33  34
ATOM     34  C   UNL A   1      41.477  29.556  30.574  1.00  0.00     0.031 A 
ATOM     35  C   UNL A   1      40.272  30.442  30.691  1.00  0.00     0.074 A 
ATOM     36  C   UNL A   1      42.228  29.280  31.656  1.00  0.00     0.049 A 
ATOM     37  N   UNL A   1      39.853  31.133  31.719  1.00  0.00    -0.248 NA
ATOM     38  C   UNL A   1      39.428  30.568  29.491  1.00  0.00     0.031 C 
ATOM     39  C   UNL A   1      43.394  28.394  31.674  1.00  0.00     0.029 A 
ATOM     40  N   UNL A   1      42.131  29.731  32.948  1.00  0.00    -0.354 N 
ATOM     41  C   UNL A   1      38.711  31.796  31.287  1.00  0.00     0.074 A 
ATOM     42  C   UNL A   1      38.510  31.432  29.899  1.00  0.00     0.031 C 
ATOM     43  C   UNL A   1      43.910  28.376  32.914  1.00  0.00     0.029 A 
ATOM     44  C   UNL A   1      43.147  29.288  33.761  1.00  0.00     0.049 A 
ATOM     45  H   UNL A   1      41.404  30.316  33.262  1.00  0.00     0.167 HD
ATOM     46  C   UNL A   1      37.909  32.634  31.985  1.00  0.00     0.031 A 
ATOM     47  C   UNL A   1      43.455  29.613  35.031  1.00  0.00     0.031 A 
ATOM     48  C   UNL A   1      38.124  32.998  33.360  1.00  0.00     0.049 A 
ATOM     49  C   UNL A   1      42.593  30.605  35.763  1.00  0.00     0.074 A 
ATOM     50  C   UNL A   1      37.367  33.837  34.158  1.00  0.00     0.029 A 
ATOM     51  N   UNL A   1      39.179  32.548  34.141  1.00  0.00    -0.354 N 
ATOM     52  N   UNL A   1      41.519  31.229  35.342  1.00  0.00    -0.248 NA
ATOM     53  C   UNL A   1      42.987  30.940  37.137  1.00  0.00     0.031 C 
ATOM     54  C   UNL A   1      37.991  33.932  35.407  1.00  0.00     0.029 A 
ATOM     55  C   UNL A   1      39.107  33.110  35.403  1.00  0.00     0.049 A 
ATOM     56  H   UNL A   1      39.877  31.921  33.840  1.00  0.00     0.167 HD
ATOM     57  C   UNL A   1      41.100  32.020  36.404  1.00  0.00     0.074 A 
ATOM     58  C   UNL A   1      42.027  31.784  37.493  1.00  0.00     0.031 C 
ATOM     59  C   UNL A   1      40.043  32.867  36.473  1.00  0.00     0.031 A 
BRANCH  46  60
ATOM     60  C   UNL A   1      36.747  33.248  31.251  1.00  0.00    -0.014 A 
ATOM     61  C   UNL A   1      36.912  33.839  29.986  1.00  0.00     0.010 A 
ATOM     62  C   UNL A   1      35.465  33.214  31.829  1.00  0.00     0.010 A 
ATOM     63  C   UNL A   1      35.826  34.427  29.333  1.00  0.00     0.020 A 
ATOM     64  C   UNL A   1      34.370  33.779  31.168  1.00  0.00     0.020 A 
ATOM     65  C   UNL A   1      34.563  34.400  29.933  1.00  0.00     0.054 A 
BRANCH  65  66
ATOM     66  S   UNL A   1      33.168  35.170  29.065  1.00  0.00     0.124 S 
ATOM     67  O   UNL A   1      32.734  34.091  28.180  1.00  0.00    -0.237 OA
ATOM     68  O   UNL A   1      32.251  35.496  30.154  1.00  0.00    -0.237 OA
ATOM     69  O   UNL A   1      33.769  36.321  28.395  1.00  0.00    -0.744 OA
ENDBRANCH  65  66
ENDBRANCH  46  60
BRANCH  47  70
ATOM     70  C   UNL A   1      44.662  29.024  35.671  1.00  0.00    -0.014 A 
ATOM     71  C   UNL A   1      44.578  27.820  36.392  1.00  0.00     0.010 A 
ATOM     72  C   UNL A   1      45.912  29.657  35.539  1.00  0.00     0.010 A 
ATOM     73  C   UNL A   1      45.721  27.263  36.972  1.00  0.00     0.020 A 
ATOM     74  C   UNL A   1      47.061  29.089  36.096  1.00  0.00     0.020 A 
ATOM     75  C   UNL A   1      46.956  27.899  36.818  1.00  0.00     0.054 A 
BRANCH  75  76
ATOM     76  S   UNL A   1      48.439  27.124  37.523  1.00  0.00     0.124 S 
ATOM     77  O   UNL A   1      48.908  26.303  36.412  1.00  0.00    -0.237 OA
ATOM     78  O   UNL A   1      49.272  28.278  37.853  1.00  0.00    -0.237 OA
ATOM     79  O   UNL A   1      47.923  26.387  38.674  1.00  0.00    -0.744 OA
ENDBRANCH  75  76
ENDBRANCH  47  70
BRANCH  59  80
ATOM     80  C   UNL A   1      39.816  33.585  37.775  1.00  0.00    -0.014 A 
ATOM     81  C   UNL A   1      40.405  34.837  38.025  1.00  0.00     0.010 A 
ATOM     82  C   UNL A   1      38.949  33.028  38.733  1.00  0.00     0.010 A 
ATOM     83  C   UNL A   1      40.146  35.511  39.222  1.00  0.00     0.020 A 
ATOM     84  C   UNL A   1      38.670  33.711  39.919  1.00  0.00     0.020 A 
ATOM     85  C   UNL A   1      39.278  34.944  40.161  1.00  0.00     0.054 A 
BRANCH  85  86
ATOM     86  S   UNL A   1      38.911  35.865  41.680  1.00  0.00     0.124 S 
ATOM     87  O   UNL A   1      40.009  35.461  42.553  1.00  0.00    -0.237 OA
ATOM     88  O   UNL A   1      38.944  37.255  41.229  1.00  0.00    -0.237 OA
ATOM     89  O   UNL A   1      37.591  35.375  42.071  1.00  0.00    -0.744 OA
ENDBRANCH  85  86
ENDBRANCH  59  80
ENDBRANCH  33  34
ENDBRANCH  26  28
ENDBRANCH  25  26
ENDBRANCH  24  25
ENDBRANCH   1  24
TORSDOF 18
ENDMDL
MODEL 3
REMARK VINA RESULT:     -10.5      3.874      8.224
REMARK SMILES Nc1nonc1C(=O)N1[C@@H]2CC[C@H]1C[C@H](CC(=O)OCCOC(=O)c1ccc(-c3c4nc(c(-c5ccc(S(=O)(=O)[O-])cc5)c5ccc([nH]5)c(-c5ccc(S(=O)(=O)[O-])cc5)c5nc(c(-c6ccc(S(=O)(=O)[O-])cc6)c6ccc3[nH]6)C=C5)C=C4)cc1)C2
REMARK SMILES IDX 20 1 19 2 17 3 18 4 16 5 15 6 9 7 10 8 13 9 11 10 85 11
REMARK SMILES IDX 12 12 14 13 7 14 8 15 6 16 2 17 3 18 4 19 5 20 1 21 21 24
REMARK SMILES IDX 22 25 23 26 24 27 25 28 26 29 84 30 27 31 83 32 28 33 29 34
REMARK SMILES IDX 30 35 77 36 31 37 82 38 76 39 78 40 32 41 81 42 75 43 74 44
REMARK SMILES IDX 33 46 63 47 44 48 62 49 45 50 48 51 61 52 79 53 46 54 47 55
REMARK SMILES IDX 60 57 80 58 49 59 34 60 35 61 43 62 36 63 42 64 37 65 38 66
REMARK SMILES IDX 39 67 40 68 41 69 64 70 65 71 73 72 66 73 72 74 67 75 68 76
REMARK SMILES IDX 69 77 70 78 71 79 50 80 51 81 59 82 52 83 58 84 53 85 54 86
REMARK SMILES IDX 55 87 56 88 57 89
REMARK H PARENT 1 22 1 23 78 45 48 56
REMARK Flexibility Score: inf
ROOT
ATOM      1  C   UNL A   1      32.099  29.916  25.742  1.00  0.00     0.274 C 
ENDROOT
BRANCH   1   2
ATOM      2  O   UNL A   1      31.515  28.898  24.910  1.00  0.00    -0.462 OA
BRANCH   2   3
ATOM      3  C   UNL A   1      31.946  28.855  23.626  1.00  0.00     0.306 C 
ATOM      4  O   UNL A   1      31.220  28.883  22.641  1.00  0.00    -0.252 OA
BRANCH   3   5
ATOM      5  C   UNL A   1      33.443  28.675  23.524  1.00  0.00     0.126 C 
BRANCH   5   6
ATOM      6  C   UNL A   1      34.003  27.240  23.673  1.00  0.00     0.004 C 
ATOM      7  N   UNL A   1      32.355  24.956  23.953  1.00  0.00    -0.331 N 
ATOM      8  C   UNL A   1      33.230  24.927  22.794  1.00  0.00     0.086 C 
ATOM      9  C   UNL A   1      33.240  25.174  25.084  1.00  0.00     0.086 C 
ATOM     10  C   UNL A   1      34.487  24.183  23.264  1.00  0.00     0.027 C 
ATOM     11  C   UNL A   1      33.511  26.393  22.462  1.00  0.00     0.029 C 
ATOM     12  C   UNL A   1      34.420  24.241  24.791  1.00  0.00     0.027 C 
ATOM     13  C   UNL A   1      33.689  26.641  25.077  1.00  0.00     0.029 C 
BRANCH   7  14
ATOM     14  C   UNL A   1      31.290  24.061  24.034  1.00  0.00     0.280 C 
ATOM     15  O   UNL A   1      30.801  23.568  23.018  1.00  0.00    -0.267 OA
BRANCH  14  16
ATOM     16  C   UNL A   1      30.741  23.824  25.373  1.00  0.00     0.216 A 
ATOM     17  C   UNL A   1      30.932  22.760  26.295  1.00  0.00     0.201 A 
ATOM     18  N   UNL A   1      30.252  23.001  27.412  1.00  0.00    -0.032 NA
ATOM     19  O   UNL A   1      29.663  24.239  27.216  1.00  0.00    -0.242 OA
ATOM     20  N   UNL A   1      29.954  24.742  25.959  1.00  0.00    -0.042 NA
BRANCH  17  21
ATOM     21  N   UNL A   1      31.698  21.672  26.125  1.00  0.00    -0.379 N 
ATOM     22  H   UNL A   1      32.217  21.561  25.297  1.00  0.00     0.158 HD
ATOM     23  H   UNL A   1      31.740  20.986  26.828  1.00  0.00     0.158 HD
ENDBRANCH  17  21
ENDBRANCH  14  16
ENDBRANCH   7  14
ENDBRANCH   5   6
ENDBRANCH   3   5
ENDBRANCH   2   3
ENDBRANCH   1   2
BRANCH   1  24
ATOM     24  C   UNL A   1      32.317  29.391  27.161  1.00  0.00     0.275 C 
BRANCH  24  25
ATOM     25  O   UNL A   1      33.720  29.295  27.469  1.00  0.00    -0.458 OA
BRANCH  25  26
ATOM     26  C   UNL A   1      34.301  30.429  27.927  1.00  0.00     0.338 C 
ATOM     27  O   UNL A   1      33.769  31.507  28.120  1.00  0.00    -0.246 OA
BRANCH  26  28
ATOM     28  C   UNL A   1      35.695  30.133  28.287  1.00  0.00     0.060 A 
ATOM     29  C   UNL A   1      36.668  30.141  27.284  1.00  0.00     0.016 A 
ATOM     30  C   UNL A   1      36.032  29.811  29.601  1.00  0.00     0.016 A 
ATOM     31  C   UNL A   1      37.994  29.846  27.592  1.00  0.00     0.010 A 
ATOM     32  C   UNL A   1      37.362  29.517  29.909  1.00  0.00     0.010 A 
ATOM     33  C   UNL A   1      38.351  29.535  28.909  1.00  0.00    -0.014 A 
BRANCH  33  34
ATOM     34  C   UNL A   1      39.756  29.213  29.245  1.00  0.00     0.031 A 
ATOM     35  C   UNL A   1      40.644  30.270  29.832  1.00  0.00     0.074 A 
ATOM     36  C   UNL A   1      40.235  27.979  29.002  1.00  0.00     0.049 A 
ATOM     37  N   UNL A   1      41.930  30.231  30.066  1.00  0.00    -0.248 NA
ATOM     38  C   UNL A   1      39.999  31.541  30.202  1.00  0.00     0.031 C 
ATOM     39  C   UNL A   1      39.454  26.856  28.478  1.00  0.00     0.029 A 
ATOM     40  N   UNL A   1      41.500  27.468  29.147  1.00  0.00    -0.354 N 
ATOM     41  C   UNL A   1      42.256  31.476  30.589  1.00  0.00     0.074 A 
ATOM     42  C   UNL A   1      41.033  32.252  30.626  1.00  0.00     0.031 C 
ATOM     43  C   UNL A   1      40.261  25.791  28.336  1.00  0.00     0.029 A 
ATOM     44  C   UNL A   1      41.622  26.172  28.705  1.00  0.00     0.049 A 
ATOM     45  H   UNL A   1      42.248  27.980  29.531  1.00  0.00     0.167 HD
ATOM     46  C   UNL A   1      43.465  31.930  30.995  1.00  0.00     0.031 A 
ATOM     47  C   UNL A   1      42.712  25.393  28.572  1.00  0.00     0.031 A 
ATOM     48  C   UNL A   1      44.676  31.154  30.943  1.00  0.00     0.049 A 
ATOM     49  C   UNL A   1      44.058  25.943  28.958  1.00  0.00     0.074 A 
ATOM     50  C   UNL A   1      45.952  31.521  31.333  1.00  0.00     0.029 A 
ATOM     51  N   UNL A   1      44.762  29.854  30.465  1.00  0.00    -0.354 N 
ATOM     52  N   UNL A   1      44.353  27.125  29.446  1.00  0.00    -0.248 NA
ATOM     53  C   UNL A   1      45.216  25.060  28.771  1.00  0.00     0.031 C 
ATOM     54  C   UNL A   1      46.818  30.460  31.046  1.00  0.00     0.029 A 
ATOM     55  C   UNL A   1      46.072  29.413  30.527  1.00  0.00     0.049 A 
ATOM     56  H   UNL A   1      44.002  29.324  30.130  1.00  0.00     0.167 HD
ATOM     57  C   UNL A   1      45.729  27.121  29.637  1.00  0.00     0.074 A 
ATOM     58  C   UNL A   1      46.206  25.815  29.229  1.00  0.00     0.031 C 
ATOM     59  C   UNL A   1      46.528  28.110  30.109  1.00  0.00     0.031 A 
BRANCH  46  60
ATOM     60  C   UNL A   1      43.540  33.349  31.491  1.00  0.00    -0.014 A 
ATOM     61  C   UNL A   1      43.832  34.413  30.619  1.00  0.00     0.010 A 
ATOM     62  C   UNL A   1      43.294  33.624  32.848  1.00  0.00     0.010 A 
ATOM     63  C   UNL A   1      43.922  35.720  31.104  1.00  0.00     0.020 A 
ATOM     64  C   UNL A   1      43.360  34.933  33.333  1.00  0.00     0.020 A 
ATOM     65  C   UNL A   1      43.693  35.970  32.461  1.00  0.00     0.054 A 
BRANCH  65  66
ATOM     66  S   UNL A   1      43.816  37.676  33.066  1.00  0.00     0.124 S 
ATOM     67  O   UNL A   1      42.670  37.757  33.968  1.00  0.00    -0.237 OA
ATOM     68  O   UNL A   1      45.126  37.694  33.713  1.00  0.00    -0.237 OA
ATOM     69  O   UNL A   1      43.713  38.483  31.853  1.00  0.00    -0.744 OA
ENDBRANCH  65  66
ENDBRANCH  46  60
BRANCH  47  70
ATOM     70  C   UNL A   1      42.575  24.024  28.005  1.00  0.00    -0.014 A 
ATOM     71  C   UNL A   1      42.478  22.904  28.848  1.00  0.00     0.010 A 
ATOM     72  C   UNL A   1      42.517  23.839  26.611  1.00  0.00     0.010 A 
ATOM     73  C   UNL A   1      42.328  21.624  28.307  1.00  0.00     0.020 A 
ATOM     74  C   UNL A   1      42.343  22.564  26.068  1.00  0.00     0.020 A 
ATOM     75  C   UNL A   1      42.258  21.462  26.920  1.00  0.00     0.054 A 
BRANCH  75  76
ATOM     76  S   UNL A   1      41.998  19.799  26.241  1.00  0.00     0.124 S 
ATOM     77  O   UNL A   1      42.355  18.950  27.373  1.00  0.00    -0.237 OA
ATOM     78  O   UNL A   1      40.580  19.820  25.889  1.00  0.00    -0.237 OA
ATOM     79  O   UNL A   1      42.913  19.748  25.104  1.00  0.00    -0.744 OA
ENDBRANCH  75  76
ENDBRANCH  47  70
BRANCH  59  80
ATOM     80  C   UNL A   1      47.997  27.814  30.232  1.00  0.00    -0.014 A 
ATOM     81  C   UNL A   1      48.527  27.240  31.401  1.00  0.00     0.010 A 
ATOM     82  C   UNL A   1      48.847  28.051  29.136  1.00  0.00     0.010 A 
ATOM     83  C   UNL A   1      49.887  26.929  31.480  1.00  0.00     0.020 A 
ATOM     84  C   UNL A   1      50.202  27.719  29.204  1.00  0.00     0.020 A 
ATOM     85  C   UNL A   1      50.716  27.168  30.380  1.00  0.00     0.054 A 
BRANCH  85  86
ATOM     86  S   UNL A   1      52.465  26.701  30.485  1.00  0.00     0.124 S 
ATOM     87  O   UNL A   1      52.770  26.348  29.101  1.00  0.00    -0.237 OA
ATOM     88  O   UNL A   1      53.096  27.924  30.976  1.00  0.00    -0.237 OA
ATOM     89  O   UNL A   1      52.469  25.584  31.428  1.00  0.00    -0.744 OA
ENDBRANCH  85  86
ENDBRANCH  59  80
ENDBRANCH  33  34
ENDBRANCH  26  28
ENDBRANCH  25  26
ENDBRANCH  24  25
ENDBRANCH   1  24
TORSDOF 18
ENDMDL
