MODEL 1
REMARK VINA RESULT:     -12.7      0.000      0.000
REMARK SMILES COc1cc(C)cc2c1[C@@H](C)[C@@H](CC(=O)N[C@@H](Cc1c[nH]c3ccccc13)C(=O)OCCOC(=O)c1ccc(-c3c4nc(c(-c5ccc(S(=O)(=O)[O-])cc5)c5ccc([nH]5)c(-c5ccc(S(=O)(=O)[O-])cc5)c5nc(c(-c6ccc(S(=O)(=O)[O-])cc6)c6ccc3[nH]6)C=C5)C=C4)cc1)C(=O)O2
REMARK SMILES IDX 31 1 30 2 28 3 29 4 17 5 16 6 14 7 15 8 13 10 12 11 3 12
REMARK SMILES IDX 4 13 9 14 5 15 8 16 10 17 6 18 7 19 98 20 11 21 96 22 97 23
REMARK SMILES IDX 2 24 1 25 18 26 19 27 20 28 27 29 21 30 22 31 26 32 23 34
REMARK SMILES IDX 25 35 24 36 32 37 33 38 34 39 35 40 36 41 37 42 95 43 38 44
REMARK SMILES IDX 94 45 39 46 40 47 41 48 88 49 42 50 93 51 87 52 89 53 43 54
REMARK SMILES IDX 92 55 86 56 85 57 44 59 74 60 55 61 73 62 56 63 59 64 72 65
REMARK SMILES IDX 90 66 57 67 58 68 71 70 91 71 60 72 45 73 46 74 54 75 47 76
REMARK SMILES IDX 53 77 48 78 49 79 50 80 51 81 52 82 75 83 76 84 84 85 77 86
REMARK SMILES IDX 83 87 78 88 79 89 80 90 81 91 82 92 61 93 62 94 70 95 63 96
REMARK SMILES IDX 69 97 64 98 65 99 66 100 67 101 68 102
REMARK H PARENT 16 9 21 33 89 58 59 69
REMARK Flexibility Score: inf
ROOT
ATOM      1  C   UNL A   1      35.786  23.904  25.372  1.00  0.00     0.274 C 
ENDROOT
BRANCH   1   2
ATOM      2  O   UNL A   1      34.427  23.428  25.280  1.00  0.00    -0.461 OA
BRANCH   2   3
ATOM      3  C   UNL A   1      34.052  23.005  24.050  1.00  0.00     0.329 C 
ATOM      4  O   UNL A   1      34.786  23.002  23.064  1.00  0.00    -0.250 OA
BRANCH   3   5
ATOM      5  C   UNL A   1      32.583  22.603  23.947  1.00  0.00     0.196 C 
BRANCH   5   6
ATOM      6  N   UNL A   1      31.631  23.362  23.152  1.00  0.00    -0.342 N 
ATOM      7  C   UNL A   1      30.985  24.520  23.517  1.00  0.00     0.221 C 
ATOM      8  O   UNL A   1      29.850  24.744  23.098  1.00  0.00    -0.275 OA
ATOM      9  H   UNL A   1      31.426  23.008  22.257  1.00  0.00     0.164 HD
BRANCH   7  10
ATOM     10  C   UNL A   1      31.767  25.594  24.261  1.00  0.00     0.116 C 
BRANCH  10  11
ATOM     11  C   UNL A   1      33.082  26.136  23.655  1.00  0.00     0.116 C 
ATOM     12  C   UNL A   1      31.805  29.443  24.733  1.00  0.00     0.126 A 
ATOM     13  C   UNL A   1      30.531  29.965  24.455  1.00  0.00     0.050 A 
ATOM     14  C   UNL A   1      32.351  28.481  23.876  1.00  0.00     0.041 A 
ATOM     15  C   UNL A   1      29.805  29.542  23.324  1.00  0.00    -0.044 A 
ATOM     16  C   UNL A   1      31.698  28.248  22.657  1.00  0.00     0.138 A 
ATOM     17  C   UNL A   1      33.496  27.535  24.208  1.00  0.00     0.038 C 
ATOM     18  C   UNL A   1      28.356  29.868  23.128  1.00  0.00     0.044 C 
ATOM     19  C   UNL A   1      30.446  28.768  22.367  1.00  0.00     0.051 A 
ATOM     20  O   UNL A   1      32.227  27.348  21.715  1.00  0.00    -0.426 OA
ATOM     21  C   UNL A   1      33.908  27.402  25.676  1.00  0.00     0.014 C 
ATOM     22  C   UNL A   1      33.047  26.322  22.162  1.00  0.00     0.315 C 
ATOM     23  O   UNL A   1      33.678  25.619  21.381  1.00  0.00    -0.251 OA
BRANCH  12  24
ATOM     24  O   UNL A   1      32.588  29.869  25.766  1.00  0.00    -0.496 OA
ATOM     25  C   UNL A   1      31.937  30.475  26.878  1.00  0.00     0.278 C 
ENDBRANCH  12  24
ENDBRANCH  10  11
ENDBRANCH   7  10
ENDBRANCH   5   6
BRANCH   5  26
ATOM     26  C   UNL A   1      32.535  21.100  23.683  1.00  0.00     0.074 C 
BRANCH  26  27
ATOM     27  C   UNL A   1      33.078  20.004  24.567  1.00  0.00    -0.020 A 
ATOM     28  C   UNL A   1      33.063  20.202  25.943  1.00  0.00     0.087 A 
ATOM     29  C   UNL A   1      33.348  18.596  24.381  1.00  0.00     0.003 A 
ATOM     30  N   UNL A   1      32.874  18.986  26.529  1.00  0.00    -0.361 N 
ATOM     31  C   UNL A   1      33.085  17.987  25.616  1.00  0.00     0.046 A 
ATOM     32  C   UNL A   1      33.680  17.723  23.320  1.00  0.00     0.010 A 
ATOM     33  H   UNL A   1      32.622  18.847  27.470  1.00  0.00     0.166 HD
ATOM     34  C   UNL A   1      33.017  16.599  25.803  1.00  0.00     0.026 A 
ATOM     35  C   UNL A   1      33.692  16.331  23.507  1.00  0.00     0.001 A 
ATOM     36  C   UNL A   1      33.333  15.776  24.725  1.00  0.00     0.002 A 
ENDBRANCH  26  27
ENDBRANCH   5  26
ENDBRANCH   3   5
ENDBRANCH   2   3
ENDBRANCH   1   2
BRANCH   1  37
ATOM     37  C   UNL A   1      36.731  22.765  25.753  1.00  0.00     0.275 C 
BRANCH  37  38
ATOM     38  O   UNL A   1      38.074  23.010  25.288  1.00  0.00    -0.458 OA
BRANCH  38  39
ATOM     39  C   UNL A   1      39.045  22.794  26.214  1.00  0.00     0.338 C 
ATOM     40  O   UNL A   1      39.626  21.750  26.418  1.00  0.00    -0.246 OA
BRANCH  39  41
ATOM     41  C   UNL A   1      39.410  24.066  26.882  1.00  0.00     0.060 A 
ATOM     42  C   UNL A   1      39.102  24.358  28.218  1.00  0.00     0.016 A 
ATOM     43  C   UNL A   1      40.129  24.988  26.126  1.00  0.00     0.016 A 
ATOM     44  C   UNL A   1      39.506  25.579  28.790  1.00  0.00     0.010 A 
ATOM     45  C   UNL A   1      40.505  26.206  26.693  1.00  0.00     0.010 A 
ATOM     46  C   UNL A   1      40.197  26.531  28.026  1.00  0.00    -0.014 A 
BRANCH  46  47
ATOM     47  C   UNL A   1      40.684  27.826  28.591  1.00  0.00     0.031 A 
ATOM     48  C   UNL A   1      42.097  28.019  29.089  1.00  0.00     0.074 A 
ATOM     49  C   UNL A   1      39.787  28.812  28.789  1.00  0.00     0.049 A 
ATOM     50  N   UNL A   1      42.607  29.018  29.769  1.00  0.00    -0.248 NA
ATOM     51  C   UNL A   1      43.042  26.922  28.861  1.00  0.00     0.031 C 
ATOM     52  C   UNL A   1      38.380  28.756  28.392  1.00  0.00     0.029 A 
ATOM     53  N   UNL A   1      39.920  30.040  29.387  1.00  0.00    -0.354 N 
ATOM     54  C   UNL A   1      43.907  28.637  30.104  1.00  0.00     0.074 A 
ATOM     55  C   UNL A   1      44.082  27.293  29.597  1.00  0.00     0.031 C 
ATOM     56  C   UNL A   1      37.776  29.894  28.763  1.00  0.00     0.029 A 
ATOM     57  C   UNL A   1      38.757  30.770  29.400  1.00  0.00     0.049 A 
ATOM     58  H   UNL A   1      40.767  30.366  29.771  1.00  0.00     0.167 HD
ATOM     59  C   UNL A   1      44.873  29.350  30.741  1.00  0.00     0.031 A 
ATOM     60  C   UNL A   1      38.504  32.023  29.827  1.00  0.00     0.031 A 
ATOM     61  C   UNL A   1      44.721  30.730  31.134  1.00  0.00     0.049 A 
ATOM     62  C   UNL A   1      39.626  32.867  30.353  1.00  0.00     0.074 A 
ATOM     63  C   UNL A   1      45.671  31.578  31.680  1.00  0.00     0.029 A 
ATOM     64  N   UNL A   1      43.562  31.477  30.987  1.00  0.00    -0.354 N 
ATOM     65  N   UNL A   1      40.867  32.519  30.591  1.00  0.00    -0.248 NA
ATOM     66  C   UNL A   1      39.334  34.282  30.619  1.00  0.00     0.031 C 
ATOM     67  C   UNL A   1      45.077  32.824  31.899  1.00  0.00     0.029 A 
ATOM     68  C   UNL A   1      43.774  32.771  31.431  1.00  0.00     0.049 A 
ATOM     69  H   UNL A   1      42.714  31.137  30.622  1.00  0.00     0.167 HD
ATOM     70  C   UNL A   1      41.510  33.677  31.009  1.00  0.00     0.074 A 
ATOM     71  C   UNL A   1      40.527  34.739  30.980  1.00  0.00     0.031 C 
ATOM     72  C   UNL A   1      42.803  33.836  31.381  1.00  0.00     0.031 A 
BRANCH  59  73
ATOM     73  C   UNL A   1      46.207  28.689  31.024  1.00  0.00    -0.014 A 
ATOM     74  C   UNL A   1      47.210  28.679  30.031  1.00  0.00     0.010 A 
ATOM     75  C   UNL A   1      46.441  27.983  32.217  1.00  0.00     0.010 A 
ATOM     76  C   UNL A   1      48.408  27.981  30.225  1.00  0.00     0.020 A 
ATOM     77  C   UNL A   1      47.655  27.319  32.433  1.00  0.00     0.020 A 
ATOM     78  C   UNL A   1      48.624  27.307  31.428  1.00  0.00     0.054 A 
BRANCH  78  79
ATOM     79  S   UNL A   1      50.197  26.440  31.691  1.00  0.00     0.124 S 
ATOM     80  O   UNL A   1      49.755  25.090  32.023  1.00  0.00    -0.237 OA
ATOM     81  O   UNL A   1      50.868  26.587  30.401  1.00  0.00    -0.237 OA
ATOM     82  O   UNL A   1      50.813  27.185  32.788  1.00  0.00    -0.744 OA
ENDBRANCH  78  79
ENDBRANCH  59  73
BRANCH  60  83
ATOM     83  C   UNL A   1      37.148  32.578  29.593  1.00  0.00    -0.014 A 
ATOM     84  C   UNL A   1      36.800  33.144  28.354  1.00  0.00     0.010 A 
ATOM     85  C   UNL A   1      36.258  32.686  30.677  1.00  0.00     0.010 A 
ATOM     86  C   UNL A   1      35.605  33.858  28.219  1.00  0.00     0.020 A 
ATOM     87  C   UNL A   1      35.056  33.381  30.540  1.00  0.00     0.020 A 
ATOM     88  C   UNL A   1      34.753  33.989  29.320  1.00  0.00     0.054 A 
BRANCH  88  89
ATOM     89  S   UNL A   1      33.254  34.998  29.155  1.00  0.00     0.124 S 
ATOM     90  O   UNL A   1      32.739  34.988  30.522  1.00  0.00    -0.237 OA
ATOM     91  O   UNL A   1      33.780  36.277  28.688  1.00  0.00    -0.237 OA
ATOM     92  O   UNL A   1      32.455  34.262  28.180  1.00  0.00    -0.744 OA
ENDBRANCH  88  89
ENDBRANCH  60  83
BRANCH  72  93
ATOM     93  C   UNL A   1      43.275  35.206  31.790  1.00  0.00    -0.014 A 
ATOM     94  C   UNL A   1      43.061  35.648  33.109  1.00  0.00     0.010 A 
ATOM     95  C   UNL A   1      43.768  36.111  30.834  1.00  0.00     0.010 A 
ATOM     96  C   UNL A   1      43.287  36.982  33.456  1.00  0.00     0.020 A 
ATOM     97  C   UNL A   1      44.016  37.443  31.183  1.00  0.00     0.020 A 
ATOM     98  C   UNL A   1      43.743  37.876  32.483  1.00  0.00     0.054 A 
BRANCH  98  99
ATOM     99  S   UNL A   1      43.955  39.622  32.927  1.00  0.00     0.124 S 
ATOM    100  O   UNL A   1      44.272  39.540  34.350  1.00  0.00    -0.237 OA
ATOM    101  O   UNL A   1      45.053  40.045  32.060  1.00  0.00    -0.237 OA
ATOM    102  O   UNL A   1      42.658  40.215  32.610  1.00  0.00    -0.744 OA
ENDBRANCH  98  99
ENDBRANCH  72  93
ENDBRANCH  46  47
ENDBRANCH  39  41
ENDBRANCH  38  39
ENDBRANCH  37  38
ENDBRANCH   1  37
TORSDOF 20
ENDMDL
MODEL 2
REMARK VINA RESULT:     -12.2      1.934      2.444
REMARK SMILES COc1cc(C)cc2c1[C@@H](C)[C@@H](CC(=O)N[C@@H](Cc1c[nH]c3ccccc13)C(=O)OCCOC(=O)c1ccc(-c3c4nc(c(-c5ccc(S(=O)(=O)[O-])cc5)c5ccc([nH]5)c(-c5ccc(S(=O)(=O)[O-])cc5)c5nc(c(-c6ccc(S(=O)(=O)[O-])cc6)c6ccc3[nH]6)C=C5)C=C4)cc1)C(=O)O2
REMARK SMILES IDX 31 1 30 2 28 3 29 4 17 5 16 6 14 7 15 8 13 10 12 11 3 12
REMARK SMILES IDX 4 13 9 14 5 15 8 16 10 17 6 18 7 19 98 20 11 21 96 22 97 23
REMARK SMILES IDX 2 24 1 25 18 26 19 27 20 28 27 29 21 30 22 31 26 32 23 34
REMARK SMILES IDX 25 35 24 36 32 37 33 38 34 39 35 40 36 41 37 42 95 43 38 44
REMARK SMILES IDX 94 45 39 46 40 47 41 48 88 49 42 50 93 51 87 52 89 53 43 54
REMARK SMILES IDX 92 55 86 56 85 57 44 59 74 60 55 61 73 62 56 63 59 64 72 65
REMARK SMILES IDX 90 66 57 67 58 68 71 70 91 71 60 72 45 73 46 74 54 75 47 76
REMARK SMILES IDX 53 77 48 78 49 79 50 80 51 81 52 82 75 83 76 84 84 85 77 86
REMARK SMILES IDX 83 87 78 88 79 89 80 90 81 91 82 92 61 93 62 94 70 95 63 96
REMARK SMILES IDX 69 97 64 98 65 99 66 100 67 101 68 102
REMARK H PARENT 16 9 21 33 89 58 59 69
REMARK Flexibility Score: inf
ROOT
ATOM      1  C   UNL A   1      35.874  20.851  25.286  1.00  0.00     0.274 C 
ENDROOT
BRANCH   1   2
ATOM      2  O   UNL A   1      35.035  22.012  25.454  1.00  0.00    -0.461 OA
BRANCH   2   3
ATOM      3  C   UNL A   1      34.277  22.329  24.379  1.00  0.00     0.329 C 
ATOM      4  O   UNL A   1      34.719  22.511  23.247  1.00  0.00    -0.250 OA
BRANCH   3   5
ATOM      5  C   UNL A   1      32.798  22.540  24.695  1.00  0.00     0.196 C 
BRANCH   5   6
ATOM      6  N   UNL A   1      31.917  23.274  23.801  1.00  0.00    -0.342 N 
ATOM      7  C   UNL A   1      31.305  24.480  24.047  1.00  0.00     0.221 C 
ATOM      8  O   UNL A   1      30.201  24.717  23.558  1.00  0.00    -0.275 OA
ATOM      9  H   UNL A   1      31.738  22.862  22.925  1.00  0.00     0.164 HD
BRANCH   7  10
ATOM     10  C   UNL A   1      32.097  25.576  24.748  1.00  0.00     0.116 C 
BRANCH  10  11
ATOM     11  C   UNL A   1      33.373  26.140  24.080  1.00  0.00     0.116 C 
ATOM     12  C   UNL A   1      31.797  29.441  24.667  1.00  0.00     0.126 A 
ATOM     13  C   UNL A   1      30.489  29.805  24.310  1.00  0.00     0.050 A 
ATOM     14  C   UNL A   1      32.439  28.420  23.960  1.00  0.00     0.041 A 
ATOM     15  C   UNL A   1      29.823  29.166  23.246  1.00  0.00    -0.044 A 
ATOM     16  C   UNL A   1      31.832  27.960  22.783  1.00  0.00     0.138 A 
ATOM     17  C   UNL A   1      33.655  27.634  24.430  1.00  0.00     0.038 C 
ATOM     18  C   UNL A   1      28.355  29.333  22.996  1.00  0.00     0.044 C 
ATOM     19  C   UNL A   1      30.546  28.323  22.412  1.00  0.00     0.051 A 
ATOM     20  O   UNL A   1      32.453  26.986  21.981  1.00  0.00    -0.426 OA
ATOM     21  C   UNL A   1      34.049  27.746  25.905  1.00  0.00     0.014 C 
ATOM     22  C   UNL A   1      33.350  26.110  22.575  1.00  0.00     0.315 C 
ATOM     23  O   UNL A   1      34.053  25.361  21.906  1.00  0.00    -0.251 OA
BRANCH  12  24
ATOM     24  O   UNL A   1      32.521  30.076  25.634  1.00  0.00    -0.496 OA
ATOM     25  C   UNL A   1      31.904  30.260  26.903  1.00  0.00     0.278 C 
ENDBRANCH  12  24
ENDBRANCH  10  11
ENDBRANCH   7  10
ENDBRANCH   5   6
BRANCH   5  26
ATOM     26  C   UNL A   1      32.227  21.197  25.145  1.00  0.00     0.074 C 
BRANCH  26  27
ATOM     27  C   UNL A   1      32.196  19.912  24.354  1.00  0.00    -0.020 A 
ATOM     28  C   UNL A   1      32.051  19.993  22.974  1.00  0.00     0.087 A 
ATOM     29  C   UNL A   1      32.605  18.551  24.621  1.00  0.00     0.003 A 
ATOM     30  N   UNL A   1      32.741  18.953  22.428  1.00  0.00    -0.361 N 
ATOM     31  C   UNL A   1      33.053  18.036  23.396  1.00  0.00     0.046 A 
ATOM     32  C   UNL A   1      32.760  17.703  25.741  1.00  0.00     0.010 A 
ATOM     33  H   UNL A   1      32.981  18.873  21.477  1.00  0.00     0.166 HD
ATOM     34  C   UNL A   1      33.734  16.818  23.264  1.00  0.00     0.026 A 
ATOM     35  C   UNL A   1      33.371  16.445  25.616  1.00  0.00     0.001 A 
ATOM     36  C   UNL A   1      33.881  16.023  24.399  1.00  0.00     0.002 A 
ENDBRANCH  26  27
ENDBRANCH   5  26
ENDBRANCH   3   5
ENDBRANCH   2   3
ENDBRANCH   1   2
BRANCH   1  37
ATOM     37  C   UNL A   1      37.306  21.265  24.953  1.00  0.00     0.275 C 
BRANCH  37  38
ATOM     38  O   UNL A   1      37.828  22.201  25.918  1.00  0.00    -0.458 OA
BRANCH  38  39
ATOM     39  C   UNL A   1      39.117  21.978  26.287  1.00  0.00     0.338 C 
ATOM     40  O   UNL A   1      39.736  20.944  26.157  1.00  0.00    -0.246 OA
BRANCH  39  41
ATOM     41  C   UNL A   1      39.737  23.235  26.771  1.00  0.00     0.060 A 
ATOM     42  C   UNL A   1      40.617  23.298  27.860  1.00  0.00     0.016 A 
ATOM     43  C   UNL A   1      39.438  24.396  26.062  1.00  0.00     0.016 A 
ATOM     44  C   UNL A   1      41.187  24.527  28.243  1.00  0.00     0.010 A 
ATOM     45  C   UNL A   1      39.987  25.614  26.463  1.00  0.00     0.010 A 
ATOM     46  C   UNL A   1      40.862  25.708  27.561  1.00  0.00    -0.014 A 
BRANCH  46  47
ATOM     47  C   UNL A   1      41.466  27.032  27.899  1.00  0.00     0.031 A 
ATOM     48  C   UNL A   1      42.943  27.315  27.759  1.00  0.00     0.074 A 
ATOM     49  C   UNL A   1      40.681  27.961  28.479  1.00  0.00     0.049 A 
ATOM     50  N   UNL A   1      43.633  28.347  28.184  1.00  0.00    -0.248 NA
ATOM     51  C   UNL A   1      43.766  26.280  27.127  1.00  0.00     0.031 C 
ATOM     52  C   UNL A   1      39.243  27.816  28.711  1.00  0.00     0.029 A 
ATOM     53  N   UNL A   1      40.982  29.196  28.995  1.00  0.00    -0.354 N 
ATOM     54  C   UNL A   1      44.972  28.049  27.930  1.00  0.00     0.074 A 
ATOM     55  C   UNL A   1      44.996  26.718  27.365  1.00  0.00     0.031 C 
ATOM     56  C   UNL A   1      38.787  28.915  29.329  1.00  0.00     0.029 A 
ATOM     57  C   UNL A   1      39.892  29.853  29.514  1.00  0.00     0.049 A 
ATOM     58  H   UNL A   1      41.891  29.576  28.993  1.00  0.00     0.167 HD
ATOM     59  C   UNL A   1      46.074  28.823  28.118  1.00  0.00     0.031 A 
ATOM     60  C   UNL A   1      39.771  31.088  30.038  1.00  0.00     0.031 A 
ATOM     61  C   UNL A   1      46.022  30.193  28.571  1.00  0.00     0.049 A 
ATOM     62  C   UNL A   1      40.959  32.003  30.062  1.00  0.00     0.074 A 
ATOM     63  C   UNL A   1      47.063  31.101  28.686  1.00  0.00     0.029 A 
ATOM     64  N   UNL A   1      44.869  30.864  28.944  1.00  0.00    -0.354 N 
ATOM     65  N   UNL A   1      42.202  31.734  29.747  1.00  0.00    -0.248 NA
ATOM     66  C   UNL A   1      40.724  33.398  30.460  1.00  0.00     0.031 C 
ATOM     67  C   UNL A   1      46.545  32.307  29.164  1.00  0.00     0.029 A 
ATOM     68  C   UNL A   1      45.172  32.170  29.288  1.00  0.00     0.049 A 
ATOM     69  H   UNL A   1      43.967  30.470  28.962  1.00  0.00     0.167 HD
ATOM     70  C   UNL A   1      42.893  32.931  29.881  1.00  0.00     0.074 A 
ATOM     71  C   UNL A   1      41.930  33.930  30.295  1.00  0.00     0.031 C 
ATOM     72  C   UNL A   1      44.210  33.172  29.678  1.00  0.00     0.031 A 
BRANCH  59  73
ATOM     73  C   UNL A   1      47.439  28.249  27.796  1.00  0.00    -0.014 A 
ATOM     74  C   UNL A   1      47.973  28.393  26.498  1.00  0.00     0.010 A 
ATOM     75  C   UNL A   1      48.151  27.474  28.729  1.00  0.00     0.010 A 
ATOM     76  C   UNL A   1      49.180  27.777  26.143  1.00  0.00     0.020 A 
ATOM     77  C   UNL A   1      49.378  26.892  28.392  1.00  0.00     0.020 A 
ATOM     78  C   UNL A   1      49.877  27.032  27.095  1.00  0.00     0.054 A 
BRANCH  78  79
ATOM     79  S   UNL A   1      51.462  26.272  26.643  1.00  0.00     0.124 S 
ATOM     80  O   UNL A   1      51.556  26.576  25.218  1.00  0.00    -0.237 OA
ATOM     81  O   UNL A   1      52.414  26.973  27.502  1.00  0.00    -0.237 OA
ATOM     82  O   UNL A   1      51.267  24.861  26.971  1.00  0.00    -0.744 OA
ENDBRANCH  78  79
ENDBRANCH  59  73
BRANCH  60  83
ATOM     83  C   UNL A   1      38.413  31.556  30.410  1.00  0.00    -0.014 A 
ATOM     84  C   UNL A   1      37.584  32.197  29.473  1.00  0.00     0.010 A 
ATOM     85  C   UNL A   1      38.020  31.504  31.760  1.00  0.00     0.010 A 
ATOM     86  C   UNL A   1      36.407  32.827  29.891  1.00  0.00     0.020 A 
ATOM     87  C   UNL A   1      36.836  32.115  32.176  1.00  0.00     0.020 A 
ATOM     88  C   UNL A   1      36.055  32.799  31.244  1.00  0.00     0.054 A 
BRANCH  88  89
ATOM     89  S   UNL A   1      34.576  33.701  31.784  1.00  0.00     0.124 S 
ATOM     90  O   UNL A   1      35.164  34.854  32.462  1.00  0.00    -0.237 OA
ATOM     91  O   UNL A   1      33.898  33.987  30.523  1.00  0.00    -0.237 OA
ATOM     92  O   UNL A   1      33.894  32.745  32.653  1.00  0.00    -0.744 OA
ENDBRANCH  88  89
ENDBRANCH  60  83
BRANCH  72  93
ATOM     93  C   UNL A   1      44.731  34.570  29.882  1.00  0.00    -0.014 A 
ATOM     94  C   UNL A   1      45.068  35.002  31.178  1.00  0.00     0.010 A 
ATOM     95  C   UNL A   1      44.720  35.502  28.830  1.00  0.00     0.010 A 
ATOM     96  C   UNL A   1      45.341  36.349  31.430  1.00  0.00     0.020 A 
ATOM     97  C   UNL A   1      45.014  36.847  29.073  1.00  0.00     0.020 A 
ATOM     98  C   UNL A   1      45.291  37.266  30.377  1.00  0.00     0.054 A 
BRANCH  98  99
ATOM     99  S   UNL A   1      45.569  39.024  30.732  1.00  0.00     0.124 S 
ATOM    100  O   UNL A   1      44.801  39.213  31.960  1.00  0.00    -0.237 OA
ATOM    101  O   UNL A   1      47.021  39.099  30.878  1.00  0.00    -0.237 OA
ATOM    102  O   UNL A   1      45.034  39.700  29.551  1.00  0.00    -0.744 OA
ENDBRANCH  98  99
ENDBRANCH  72  93
ENDBRANCH  46  47
ENDBRANCH  39  41
ENDBRANCH  38  39
ENDBRANCH  37  38
ENDBRANCH   1  37
TORSDOF 20
ENDMDL
MODEL 3
REMARK VINA RESULT:     -11.7      2.202      7.789
REMARK SMILES COc1cc(C)cc2c1[C@@H](C)[C@@H](CC(=O)N[C@@H](Cc1c[nH]c3ccccc13)C(=O)OCCOC(=O)c1ccc(-c3c4nc(c(-c5ccc(S(=O)(=O)[O-])cc5)c5ccc([nH]5)c(-c5ccc(S(=O)(=O)[O-])cc5)c5nc(c(-c6ccc(S(=O)(=O)[O-])cc6)c6ccc3[nH]6)C=C5)C=C4)cc1)C(=O)O2
REMARK SMILES IDX 31 1 30 2 28 3 29 4 17 5 16 6 14 7 15 8 13 10 12 11 3 12
REMARK SMILES IDX 4 13 9 14 5 15 8 16 10 17 6 18 7 19 98 20 11 21 96 22 97 23
REMARK SMILES IDX 2 24 1 25 18 26 19 27 20 28 27 29 21 30 22 31 26 32 23 34
REMARK SMILES IDX 25 35 24 36 32 37 33 38 34 39 35 40 36 41 37 42 95 43 38 44
REMARK SMILES IDX 94 45 39 46 40 47 41 48 88 49 42 50 93 51 87 52 89 53 43 54
REMARK SMILES IDX 92 55 86 56 85 57 44 59 74 60 55 61 73 62 56 63 59 64 72 65
REMARK SMILES IDX 90 66 57 67 58 68 71 70 91 71 60 72 45 73 46 74 54 75 47 76
REMARK SMILES IDX 53 77 48 78 49 79 50 80 51 81 52 82 75 83 76 84 84 85 77 86
REMARK SMILES IDX 83 87 78 88 79 89 80 90 81 91 82 92 61 93 62 94 70 95 63 96
REMARK SMILES IDX 69 97 64 98 65 99 66 100 67 101 68 102
REMARK H PARENT 16 9 21 33 89 58 59 69
REMARK Flexibility Score: inf
ROOT
ATOM      1  C   UNL A   1      35.800  21.103  25.514  1.00  0.00     0.274 C 
ENDROOT
BRANCH   1   2
ATOM      2  O   UNL A   1      35.130  22.375  25.385  1.00  0.00    -0.461 OA
BRANCH   2   3
ATOM      3  C   UNL A   1      34.326  22.489  24.303  1.00  0.00     0.329 C 
ATOM      4  O   UNL A   1      34.723  22.496  23.140  1.00  0.00    -0.250 OA
BRANCH   3   5
ATOM      5  C   UNL A   1      32.852  22.705  24.638  1.00  0.00     0.196 C 
BRANCH   5   6
ATOM      6  N   UNL A   1      31.951  23.403  23.734  1.00  0.00    -0.342 N 
ATOM      7  C   UNL A   1      31.308  24.597  23.964  1.00  0.00     0.221 C 
ATOM      8  O   UNL A   1      30.198  24.797  23.471  1.00  0.00    -0.275 OA
ATOM      9  H   UNL A   1      31.784  22.974  22.864  1.00  0.00     0.164 HD
BRANCH   7  10
ATOM     10  C   UNL A   1      32.071  25.723  24.648  1.00  0.00     0.116 C 
BRANCH  10  11
ATOM     11  C   UNL A   1      33.350  26.287  23.989  1.00  0.00     0.116 C 
ATOM     12  C   UNL A   1      31.854  29.593  24.735  1.00  0.00     0.126 A 
ATOM     13  C   UNL A   1      30.549  29.999  24.409  1.00  0.00     0.050 A 
ATOM     14  C   UNL A   1      32.465  28.589  23.977  1.00  0.00     0.041 A 
ATOM     15  C   UNL A   1      29.857  29.419  23.328  1.00  0.00    -0.044 A 
ATOM     16  C   UNL A   1      31.834  28.193  22.789  1.00  0.00     0.138 A 
ATOM     17  C   UNL A   1      33.669  27.759  24.398  1.00  0.00     0.038 C 
ATOM     18  C   UNL A   1      28.390  29.628  23.104  1.00  0.00     0.044 C 
ATOM     19  C   UNL A   1      30.552  28.598  22.451  1.00  0.00     0.051 A 
ATOM     20  O   UNL A   1      32.425  27.241  21.939  1.00  0.00    -0.426 OA
ATOM     21  C   UNL A   1      34.083  27.800  25.871  1.00  0.00     0.014 C 
ATOM     22  C   UNL A   1      33.309  26.321  22.484  1.00  0.00     0.315 C 
ATOM     23  O   UNL A   1      33.988  25.587  21.775  1.00  0.00    -0.251 OA
BRANCH  12  24
ATOM     24  O   UNL A   1      32.603  30.171  25.718  1.00  0.00    -0.496 OA
ATOM     25  C   UNL A   1      31.920  30.631  26.879  1.00  0.00     0.278 C 
ENDBRANCH  12  24
ENDBRANCH  10  11
ENDBRANCH   7  10
ENDBRANCH   5   6
BRANCH   5  26
ATOM     26  C   UNL A   1      32.295  21.377  25.147  1.00  0.00     0.074 C 
BRANCH  26  27
ATOM     27  C   UNL A   1      32.185  20.085  24.376  1.00  0.00    -0.020 A 
ATOM     28  C   UNL A   1      31.993  20.152  23.001  1.00  0.00     0.087 A 
ATOM     29  C   UNL A   1      32.549  18.712  24.649  1.00  0.00     0.003 A 
ATOM     30  N   UNL A   1      32.621  19.078  22.447  1.00  0.00    -0.361 N 
ATOM     31  C   UNL A   1      32.932  18.163  23.417  1.00  0.00     0.046 A 
ATOM     32  C   UNL A   1      32.711  17.873  25.775  1.00  0.00     0.010 A 
ATOM     33  H   UNL A   1      32.823  18.976  21.489  1.00  0.00     0.166 HD
ATOM     34  C   UNL A   1      33.559  16.916  23.279  1.00  0.00     0.026 A 
ATOM     35  C   UNL A   1      33.267  16.590  25.647  1.00  0.00     0.001 A 
ATOM     36  C   UNL A   1      33.715  16.132  24.419  1.00  0.00     0.002 A 
ENDBRANCH  26  27
ENDBRANCH   5  26
ENDBRANCH   3   5
ENDBRANCH   2   3
ENDBRANCH   1   2
BRANCH   1  37
ATOM     37  C   UNL A   1      37.279  21.234  25.153  1.00  0.00     0.275 C 
BRANCH  37  38
ATOM     38  O   UNL A   1      37.937  22.230  25.962  1.00  0.00    -0.458 OA
BRANCH  38  39
ATOM     39  C   UNL A   1      39.223  21.937  26.288  1.00  0.00     0.338 C 
ATOM     40  O   UNL A   1      39.807  20.899  26.060  1.00  0.00    -0.246 OA
BRANCH  39  41
ATOM     41  C   UNL A   1      39.891  23.129  26.866  1.00  0.00     0.060 A 
ATOM     42  C   UNL A   1      40.841  23.066  27.894  1.00  0.00     0.016 A 
ATOM     43  C   UNL A   1      39.562  24.363  26.310  1.00  0.00     0.016 A 
ATOM     44  C   UNL A   1      41.450  24.241  28.372  1.00  0.00     0.010 A 
ATOM     45  C   UNL A   1      40.153  25.525  26.804  1.00  0.00     0.010 A 
ATOM     46  C   UNL A   1      41.098  25.492  27.846  1.00  0.00    -0.014 A 
BRANCH  46  47
ATOM     47  C   UNL A   1      41.740  26.767  28.287  1.00  0.00     0.031 A 
ATOM     48  C   UNL A   1      40.957  27.910  28.890  1.00  0.00     0.074 A 
ATOM     49  C   UNL A   1      43.045  26.954  28.007  1.00  0.00     0.049 A 
ATOM     50  N   UNL A   1      41.345  29.137  29.147  1.00  0.00    -0.248 NA
ATOM     51  C   UNL A   1      39.540  27.673  29.175  1.00  0.00     0.031 C 
ATOM     52  C   UNL A   1      43.921  25.954  27.396  1.00  0.00     0.029 A 
ATOM     53  N   UNL A   1      43.854  28.048  28.182  1.00  0.00    -0.354 N 
ATOM     54  C   UNL A   1      40.205  29.827  29.557  1.00  0.00     0.074 A 
ATOM     55  C   UNL A   1      39.104  28.893  29.461  1.00  0.00     0.031 C 
ATOM     56  C   UNL A   1      45.143  26.481  27.238  1.00  0.00     0.029 A 
ATOM     57  C   UNL A   1      45.146  27.845  27.761  1.00  0.00     0.049 A 
ATOM     58  H   UNL A   1      43.540  28.896  28.571  1.00  0.00     0.167 HD
ATOM     59  C   UNL A   1      40.090  31.106  30.005  1.00  0.00     0.031 A 
ATOM     60  C   UNL A   1      46.232  28.641  27.827  1.00  0.00     0.031 A 
ATOM     61  C   UNL A   1      41.216  31.987  30.208  1.00  0.00     0.049 A 
ATOM     62  C   UNL A   1      46.133  29.977  28.498  1.00  0.00     0.074 A 
ATOM     63  C   UNL A   1      41.225  33.256  30.762  1.00  0.00     0.029 A 
ATOM     64  N   UNL A   1      42.532  31.678  29.904  1.00  0.00    -0.354 N 
ATOM     65  N   UNL A   1      45.064  30.585  28.952  1.00  0.00    -0.248 NA
ATOM     66  C   UNL A   1      47.385  30.714  28.716  1.00  0.00     0.031 C 
ATOM     67  C   UNL A   1      42.539  33.730  30.758  1.00  0.00     0.029 A 
ATOM     68  C   UNL A   1      43.358  32.731  30.259  1.00  0.00     0.049 A 
ATOM     69  H   UNL A   1      42.835  30.835  29.496  1.00  0.00     0.167 HD
ATOM     70  C   UNL A   1      45.517  31.763  29.533  1.00  0.00     0.074 A 
ATOM     71  C   UNL A   1      46.957  31.778  29.385  1.00  0.00     0.031 C 
ATOM     72  C   UNL A   1      44.795  32.738  30.134  1.00  0.00     0.031 A 
BRANCH  59  73
ATOM     73  C   UNL A   1      38.717  31.640  30.358  1.00  0.00    -0.014 A 
ATOM     74  C   UNL A   1      37.961  32.331  29.387  1.00  0.00     0.010 A 
ATOM     75  C   UNL A   1      38.211  31.565  31.668  1.00  0.00     0.010 A 
ATOM     76  C   UNL A   1      36.740  32.931  29.717  1.00  0.00     0.020 A 
ATOM     77  C   UNL A   1      36.971  32.126  31.993  1.00  0.00     0.020 A 
ATOM     78  C   UNL A   1      36.251  32.822  31.019  1.00  0.00     0.054 A 
BRANCH  78  79
ATOM     79  S   UNL A   1      34.646  33.564  31.430  1.00  0.00     0.124 S 
ATOM     80  O   UNL A   1      35.037  34.831  32.041  1.00  0.00    -0.237 OA
ATOM     81  O   UNL A   1      33.992  33.665  30.128  1.00  0.00    -0.237 OA
ATOM     82  O   UNL A   1      34.047  32.589  32.340  1.00  0.00    -0.744 OA
ENDBRANCH  78  79
ENDBRANCH  59  73
BRANCH  60  83
ATOM     83  C   UNL A   1      47.533  28.079  27.384  1.00  0.00    -0.014 A 
ATOM     84  C   UNL A   1      48.394  27.440  28.293  1.00  0.00     0.010 A 
ATOM     85  C   UNL A   1      47.977  28.339  26.075  1.00  0.00     0.010 A 
ATOM     86  C   UNL A   1      49.701  27.118  27.914  1.00  0.00     0.020 A 
ATOM     87  C   UNL A   1      49.275  28.001  25.689  1.00  0.00     0.020 A 
ATOM     88  C   UNL A   1      50.138  27.422  26.621  1.00  0.00     0.054 A 
BRANCH  88  89
ATOM     89  S   UNL A   1      51.864  27.085  26.175  1.00  0.00     0.124 S 
ATOM     90  O   UNL A   1      51.708  26.342  24.927  1.00  0.00    -0.237 OA
ATOM     91  O   UNL A   1      52.427  28.425  26.046  1.00  0.00    -0.237 OA
ATOM     92  O   UNL A   1      52.362  26.308  27.308  1.00  0.00    -0.744 OA
ENDBRANCH  88  89
ENDBRANCH  60  83
BRANCH  72  93
ATOM     93  C   UNL A   1      45.520  33.929  30.702  1.00  0.00    -0.014 A 
ATOM     94  C   UNL A   1      45.848  35.008  29.861  1.00  0.00     0.010 A 
ATOM     95  C   UNL A   1      46.025  33.904  32.014  1.00  0.00     0.010 A 
ATOM     96  C   UNL A   1      46.706  36.018  30.303  1.00  0.00     0.020 A 
ATOM     97  C   UNL A   1      46.867  34.925  32.468  1.00  0.00     0.020 A 
ATOM     98  C   UNL A   1      47.226  35.958  31.598  1.00  0.00     0.054 A 
BRANCH  98  99
ATOM     99  S   UNL A   1      48.401  37.234  32.132  1.00  0.00     0.124 S 
ATOM    100  O   UNL A   1      49.313  36.473  32.980  1.00  0.00    -0.237 OA
ATOM    101  O   UNL A   1      48.962  37.705  30.867  1.00  0.00    -0.237 OA
ATOM    102  O   UNL A   1      47.560  38.204  32.830  1.00  0.00    -0.744 OA
ENDBRANCH  98  99
ENDBRANCH  72  93
ENDBRANCH  46  47
ENDBRANCH  39  41
ENDBRANCH  38  39
ENDBRANCH  37  38
ENDBRANCH   1  37
TORSDOF 20
ENDMDL
