MODEL 1
REMARK VINA RESULT:     -11.6      0.000      0.000
REMARK SMILES O=C(OCCOC(=O)c1ccc(-c2c3nc(c(-c4ccc(S(=O)(=O)[O-])cc4)c4ccc([nH]4)c(-c4ccc(S(=O)(=O)[O-])cc4)c4nc(c(-c5ccc(S(=O)(=O)[O-])cc5)c5ccc2[nH]5)C=C4)C=C3)cc1)C1=Cc2cc(Cl)c(Cl)c(Cl)c2O[C@@H]1C(F)(F)F
REMARK SMILES IDX 5 1 4 2 3 3 2 4 1 5 69 6 70 7 81 8 71 9 80 10 72 11 79 12
REMARK SMILES IDX 73 13 77 14 74 15 75 16 78 17 76 18 82 19 83 20 84 21 85 22
REMARK SMILES IDX 6 23 7 24 8 25 9 26 10 27 68 28 11 29 67 30 12 31 13 32
REMARK SMILES IDX 14 33 61 34 15 35 66 36 60 37 62 38 16 39 65 40 59 41 58 42
REMARK SMILES IDX 17 44 47 45 28 46 46 47 29 48 32 49 45 50 63 51 30 52 31 53
REMARK SMILES IDX 44 55 64 56 33 57 18 58 19 59 27 60 20 61 26 62 21 63 22 64
REMARK SMILES IDX 23 65 24 66 25 67 48 68 49 69 57 70 50 71 56 72 51 73 52 74
REMARK SMILES IDX 53 75 54 76 55 77 34 78 35 79 43 80 36 81 42 82 37 83 38 84
REMARK SMILES IDX 39 85 40 86 41 87
REMARK H PARENT 62 43 32 54
REMARK Flexibility Score: inf
ROOT
ATOM      1  C   UNL A   1      32.354  29.945  26.822  1.00  0.00     0.275 C 
ENDROOT
BRANCH   1   2
ATOM      2  C   UNL A   1      31.851  28.546  27.244  1.00  0.00     0.275 C 
BRANCH   2   3
ATOM      3  O   UNL A   1      31.409  27.744  26.119  1.00  0.00    -0.459 OA
BRANCH   3   4
ATOM      4  C   UNL A   1      31.856  26.460  26.060  1.00  0.00     0.338 C 
ATOM      5  O   UNL A   1      31.543  25.607  26.877  1.00  0.00    -0.246 OA
BRANCH   4   6
ATOM      6  C   UNL A   1      32.674  26.184  24.854  1.00  0.00     0.087 C 
ATOM      7  C   UNL A   1      33.973  25.936  25.091  1.00  0.00     0.027 C 
ATOM      8  C   UNL A   1      32.038  25.652  23.611  1.00  0.00     0.316 C 
ATOM      9  C   UNL A   1      34.378  24.593  24.635  1.00  0.00     0.020 A 
ATOM     10  O   UNL A   1      32.253  24.229  23.500  1.00  0.00    -0.474 OA
ATOM     11  C   UNL A   1      35.565  24.048  25.124  1.00  0.00     0.034 A 
ATOM     12  C   UNL A   1      33.435  23.748  24.016  1.00  0.00     0.148 A 
ATOM     13  C   UNL A   1      35.767  22.664  25.095  1.00  0.00     0.062 A 
ATOM     14  C   UNL A   1      33.617  22.355  24.025  1.00  0.00     0.103 A 
ATOM     15  Cl  UNL A   1      37.243  22.074  25.781  1.00  0.00    -0.083 Cl
ATOM     16  C   UNL A   1      34.778  21.804  24.589  1.00  0.00     0.082 A 
ATOM     17  Cl  UNL A   1      32.331  21.340  23.442  1.00  0.00    -0.079 Cl
ATOM     18  Cl  UNL A   1      34.966  20.082  24.718  1.00  0.00    -0.081 Cl
BRANCH   8  19
ATOM     19  C   UNL A   1      32.431  26.422  22.341  1.00  0.00     0.430 C 
ATOM     20  F   UNL A   1      32.616  27.735  22.616  1.00  0.00    -0.167 F 
ATOM     21  F   UNL A   1      33.567  25.956  21.778  1.00  0.00    -0.167 F 
ATOM     22  F   UNL A   1      31.456  26.343  21.405  1.00  0.00    -0.167 F 
ENDBRANCH   8  19
ENDBRANCH   4   6
ENDBRANCH   3   4
ENDBRANCH   2   3
ENDBRANCH   1   2
BRANCH   1  23
ATOM     23  O   UNL A   1      33.786  30.020  26.802  1.00  0.00    -0.458 OA
BRANCH  23  24
ATOM     24  C   UNL A   1      34.284  31.082  27.486  1.00  0.00     0.338 C 
ATOM     25  O   UNL A   1      33.663  32.084  27.805  1.00  0.00    -0.246 OA
BRANCH  24  26
ATOM     26  C   UNL A   1      35.628  30.745  28.012  1.00  0.00     0.060 A 
ATOM     27  C   UNL A   1      35.884  29.395  28.266  1.00  0.00     0.016 A 
ATOM     28  C   UNL A   1      36.639  31.696  28.201  1.00  0.00     0.016 A 
ATOM     29  C   UNL A   1      37.125  29.000  28.764  1.00  0.00     0.010 A 
ATOM     30  C   UNL A   1      37.897  31.290  28.671  1.00  0.00     0.010 A 
ATOM     31  C   UNL A   1      38.132  29.945  29.001  1.00  0.00    -0.014 A 
BRANCH  31  32
ATOM     32  C   UNL A   1      39.343  29.505  29.746  1.00  0.00     0.031 A 
ATOM     33  C   UNL A   1      39.513  29.937  31.180  1.00  0.00     0.074 A 
ATOM     34  C   UNL A   1      40.207  28.621  29.210  1.00  0.00     0.049 A 
ATOM     35  N   UNL A   1      40.323  29.468  32.094  1.00  0.00    -0.248 NA
ATOM     36  C   UNL A   1      38.651  31.035  31.648  1.00  0.00     0.031 C 
ATOM     37  C   UNL A   1      40.179  28.132  27.832  1.00  0.00     0.029 A 
ATOM     38  N   UNL A   1      41.266  27.953  29.779  1.00  0.00    -0.354 N 
ATOM     39  C   UNL A   1      40.033  30.177  33.254  1.00  0.00     0.074 A 
ATOM     40  C   UNL A   1      39.037  31.167  32.908  1.00  0.00     0.031 C 
ATOM     41  C   UNL A   1      41.159  27.225  27.668  1.00  0.00     0.029 A 
ATOM     42  C   UNL A   1      41.880  27.062  28.930  1.00  0.00     0.049 A 
ATOM     43  H   UNL A   1      41.557  28.098  30.708  1.00  0.00     0.167 HD
ATOM     44  C   UNL A   1      40.518  30.002  34.505  1.00  0.00     0.031 A 
ATOM     45  C   UNL A   1      42.891  26.197  29.149  1.00  0.00     0.031 A 
ATOM     46  C   UNL A   1      41.539  29.053  34.852  1.00  0.00     0.049 A 
ATOM     47  C   UNL A   1      43.460  26.058  30.540  1.00  0.00     0.074 A 
ATOM     48  C   UNL A   1      42.101  28.805  36.091  1.00  0.00     0.029 A 
ATOM     49  N   UNL A   1      42.161  28.202  33.951  1.00  0.00    -0.354 N 
ATOM     50  N   UNL A   1      43.107  26.674  31.644  1.00  0.00    -0.248 NA
ATOM     51  C   UNL A   1      44.544  25.081  30.719  1.00  0.00     0.031 C 
ATOM     52  C   UNL A   1      43.099  27.836  35.932  1.00  0.00     0.029 A 
ATOM     53  C   UNL A   1      43.117  27.442  34.603  1.00  0.00     0.049 A 
ATOM     54  H   UNL A   1      41.954  28.147  32.991  1.00  0.00     0.167 HD
ATOM     55  C   UNL A   1      43.905  26.136  32.651  1.00  0.00     0.074 A 
ATOM     56  C   UNL A   1      44.740  25.130  32.029  1.00  0.00     0.031 C 
ATOM     57  C   UNL A   1      43.943  26.445  33.971  1.00  0.00     0.031 A 
BRANCH  44  58
ATOM     58  C   UNL A   1      39.929  30.864  35.589  1.00  0.00    -0.014 A 
ATOM     59  C   UNL A   1      40.667  31.936  36.127  1.00  0.00     0.010 A 
ATOM     60  C   UNL A   1      38.635  30.610  36.074  1.00  0.00     0.010 A 
ATOM     61  C   UNL A   1      40.139  32.708  37.163  1.00  0.00     0.020 A 
ATOM     62  C   UNL A   1      38.092  31.399  37.094  1.00  0.00     0.020 A 
ATOM     63  C   UNL A   1      38.857  32.431  37.644  1.00  0.00     0.054 A 
BRANCH  63  64
ATOM     64  S   UNL A   1      38.197  33.452  38.990  1.00  0.00     0.124 S 
ATOM     65  O   UNL A   1      38.958  32.965  40.138  1.00  0.00    -0.237 OA
ATOM     66  O   UNL A   1      38.521  34.808  38.552  1.00  0.00    -0.237 OA
ATOM     67  O   UNL A   1      36.773  33.129  39.005  1.00  0.00    -0.744 OA
ENDBRANCH  63  64
ENDBRANCH  44  58
BRANCH  45  68
ATOM     68  C   UNL A   1      43.433  25.371  28.031  1.00  0.00    -0.014 A 
ATOM     69  C   UNL A   1      42.851  24.139  27.684  1.00  0.00     0.010 A 
ATOM     70  C   UNL A   1      44.578  25.802  27.336  1.00  0.00     0.010 A 
ATOM     71  C   UNL A   1      43.426  23.335  26.695  1.00  0.00     0.020 A 
ATOM     72  C   UNL A   1      45.139  25.014  26.326  1.00  0.00     0.020 A 
ATOM     73  C   UNL A   1      44.570  23.776  26.025  1.00  0.00     0.054 A 
BRANCH  73  74
ATOM     74  S   UNL A   1      45.297  22.724  24.736  1.00  0.00     0.124 S 
ATOM     75  O   UNL A   1      45.940  23.704  23.869  1.00  0.00    -0.237 OA
ATOM     76  O   UNL A   1      46.198  21.865  25.501  1.00  0.00    -0.237 OA
ATOM     77  O   UNL A   1      44.139  22.041  24.160  1.00  0.00    -0.744 OA
ENDBRANCH  73  74
ENDBRANCH  45  68
BRANCH  57  78
ATOM     78  C   UNL A   1      44.901  25.669  34.840  1.00  0.00    -0.014 A 
ATOM     79  C   UNL A   1      46.210  26.125  35.075  1.00  0.00     0.010 A 
ATOM     80  C   UNL A   1      44.469  24.481  35.462  1.00  0.00     0.010 A 
ATOM     81  C   UNL A   1      47.083  25.385  35.877  1.00  0.00     0.020 A 
ATOM     82  C   UNL A   1      45.330  23.755  36.289  1.00  0.00     0.020 A 
ATOM     83  C   UNL A   1      46.640  24.202  36.475  1.00  0.00     0.054 A 
BRANCH  83  84
ATOM     84  S   UNL A   1      47.785  23.270  37.528  1.00  0.00     0.124 S 
ATOM     85  O   UNL A   1      47.708  24.007  38.787  1.00  0.00    -0.237 OA
ATOM     86  O   UNL A   1      47.194  21.934  37.544  1.00  0.00    -0.237 OA
ATOM     87  O   UNL A   1      49.062  23.369  36.824  1.00  0.00    -0.744 OA
ENDBRANCH  83  84
ENDBRANCH  57  78
ENDBRANCH  31  32
ENDBRANCH  24  26
ENDBRANCH  23  24
ENDBRANCH   1  23
TORSDOF 15
ENDMDL
MODEL 2
REMARK VINA RESULT:     -11.5      5.737     10.562
REMARK SMILES O=C(OCCOC(=O)c1ccc(-c2c3nc(c(-c4ccc(S(=O)(=O)[O-])cc4)c4ccc([nH]4)c(-c4ccc(S(=O)(=O)[O-])cc4)c4nc(c(-c5ccc(S(=O)(=O)[O-])cc5)c5ccc2[nH]5)C=C4)C=C3)cc1)C1=Cc2cc(Cl)c(Cl)c(Cl)c2O[C@@H]1C(F)(F)F
REMARK SMILES IDX 5 1 4 2 3 3 2 4 1 5 69 6 70 7 81 8 71 9 80 10 72 11 79 12
REMARK SMILES IDX 73 13 77 14 74 15 75 16 78 17 76 18 82 19 83 20 84 21 85 22
REMARK SMILES IDX 6 23 7 24 8 25 9 26 10 27 68 28 11 29 67 30 12 31 13 32
REMARK SMILES IDX 14 33 61 34 15 35 66 36 60 37 62 38 16 39 65 40 59 41 58 42
REMARK SMILES IDX 17 44 47 45 28 46 46 47 29 48 32 49 45 50 63 51 30 52 31 53
REMARK SMILES IDX 44 55 64 56 33 57 18 58 19 59 27 60 20 61 26 62 21 63 22 64
REMARK SMILES IDX 23 65 24 66 25 67 48 68 49 69 57 70 50 71 56 72 51 73 52 74
REMARK SMILES IDX 53 75 54 76 55 77 34 78 35 79 43 80 36 81 42 82 37 83 38 84
REMARK SMILES IDX 39 85 40 86 41 87
REMARK H PARENT 62 43 32 54
REMARK Flexibility Score: inf
ROOT
ATOM      1  C   UNL A   1      33.421  32.646  27.926  1.00  0.00     0.275 C 
ENDROOT
BRANCH   1   2
ATOM      2  C   UNL A   1      33.781  34.147  28.017  1.00  0.00     0.275 C 
BRANCH   2   3
ATOM      3  O   UNL A   1      34.122  34.564  29.364  1.00  0.00    -0.459 OA
BRANCH   3   4
ATOM      4  C   UNL A   1      35.266  34.059  29.898  1.00  0.00     0.338 C 
ATOM      5  O   UNL A   1      36.313  33.973  29.273  1.00  0.00    -0.246 OA
BRANCH   4   6
ATOM      6  C   UNL A   1      35.137  33.723  31.337  1.00  0.00     0.087 C 
ATOM      7  C   UNL A   1      35.212  32.412  31.624  1.00  0.00     0.027 C 
ATOM      8  C   UNL A   1      35.488  34.726  32.386  1.00  0.00     0.316 C 
ATOM      9  C   UNL A   1      36.339  32.099  32.523  1.00  0.00     0.020 A 
ATOM     10  O   UNL A   1      36.798  34.457  32.929  1.00  0.00    -0.474 OA
ATOM     11  C   UNL A   1      36.771  30.777  32.621  1.00  0.00     0.034 A 
ATOM     12  C   UNL A   1      37.176  33.135  32.985  1.00  0.00     0.148 A 
ATOM     13  C   UNL A   1      38.064  30.493  33.075  1.00  0.00     0.062 A 
ATOM     14  C   UNL A   1      38.488  32.854  33.400  1.00  0.00     0.103 A 
ATOM     15  Cl  UNL A   1      38.534  28.827  33.105  1.00  0.00    -0.083 Cl
ATOM     16  C   UNL A   1      38.946  31.528  33.424  1.00  0.00     0.082 A 
ATOM     17  Cl  UNL A   1      39.553  34.181  33.759  1.00  0.00    -0.079 Cl
ATOM     18  Cl  UNL A   1      40.601  31.172  33.818  1.00  0.00    -0.081 Cl
BRANCH   8  19
ATOM     19  C   UNL A   1      34.409  34.889  33.468  1.00  0.00     0.430 C 
ATOM     20  F   UNL A   1      34.614  34.016  34.482  1.00  0.00    -0.167 F 
ATOM     21  F   UNL A   1      34.383  36.132  33.996  1.00  0.00    -0.167 F 
ATOM     22  F   UNL A   1      33.178  34.637  32.965  1.00  0.00    -0.167 F 
ENDBRANCH   8  19
ENDBRANCH   4   6
ENDBRANCH   3   4
ENDBRANCH   2   3
ENDBRANCH   1   2
BRANCH   1  23
ATOM     23  O   UNL A   1      34.470  31.876  27.323  1.00  0.00    -0.458 OA
BRANCH  23  24
ATOM     24  C   UNL A   1      34.456  30.567  27.682  1.00  0.00     0.338 C 
ATOM     25  O   UNL A   1      33.504  29.808  27.588  1.00  0.00    -0.246 OA
BRANCH  24  26
ATOM     26  C   UNL A   1      35.839  30.119  27.974  1.00  0.00     0.060 A 
ATOM     27  C   UNL A   1      36.089  29.658  29.270  1.00  0.00     0.016 A 
ATOM     28  C   UNL A   1      36.856  30.087  27.012  1.00  0.00     0.016 A 
ATOM     29  C   UNL A   1      37.366  29.221  29.622  1.00  0.00     0.010 A 
ATOM     30  C   UNL A   1      38.130  29.616  27.360  1.00  0.00     0.010 A 
ATOM     31  C   UNL A   1      38.406  29.225  28.682  1.00  0.00    -0.014 A 
BRANCH  31  32
ATOM     32  C   UNL A   1      39.790  28.974  29.168  1.00  0.00     0.031 A 
ATOM     33  C   UNL A   1      40.425  27.635  28.896  1.00  0.00     0.074 A 
ATOM     34  C   UNL A   1      40.524  29.961  29.717  1.00  0.00     0.049 A 
ATOM     35  N   UNL A   1      41.683  27.286  28.977  1.00  0.00    -0.248 NA
ATOM     36  C   UNL A   1      39.527  26.549  28.468  1.00  0.00     0.031 C 
ATOM     37  C   UNL A   1      40.036  31.297  30.057  1.00  0.00     0.029 A 
ATOM     38  N   UNL A   1      41.856  29.996  30.057  1.00  0.00    -0.354 N 
ATOM     39  C   UNL A   1      41.734  25.960  28.563  1.00  0.00     0.074 A 
ATOM     40  C   UNL A   1      40.372  25.541  28.316  1.00  0.00     0.031 C 
ATOM     41  C   UNL A   1      41.057  32.029  30.536  1.00  0.00     0.029 A 
ATOM     42  C   UNL A   1      42.275  31.219  30.530  1.00  0.00     0.049 A 
ATOM     43  H   UNL A   1      42.454  29.220  29.971  1.00  0.00     0.167 HD
ATOM     44  C   UNL A   1      42.814  25.168  28.366  1.00  0.00     0.031 A 
ATOM     45  C   UNL A   1      43.502  31.644  30.893  1.00  0.00     0.031 A 
ATOM     46  C   UNL A   1      44.166  25.559  28.649  1.00  0.00     0.049 A 
ATOM     47  C   UNL A   1      44.686  30.725  30.722  1.00  0.00     0.074 A 
ATOM     48  C   UNL A   1      45.328  24.825  28.489  1.00  0.00     0.029 A 
ATOM     49  N   UNL A   1      44.538  26.790  29.167  1.00  0.00    -0.354 N 
ATOM     50  N   UNL A   1      44.724  29.504  30.240  1.00  0.00    -0.248 NA
ATOM     51  C   UNL A   1      46.000  31.256  31.114  1.00  0.00     0.031 C 
ATOM     52  C   UNL A   1      46.399  25.596  28.954  1.00  0.00     0.029 A 
ATOM     53  C   UNL A   1      45.909  26.830  29.351  1.00  0.00     0.049 A 
ATOM     54  H   UNL A   1      43.919  27.526  29.371  1.00  0.00     0.167 HD
ATOM     55  C   UNL A   1      46.067  29.136  30.244  1.00  0.00     0.074 A 
ATOM     56  C   UNL A   1      46.810  30.270  30.753  1.00  0.00     0.031 C 
ATOM     57  C   UNL A   1      46.636  27.965  29.861  1.00  0.00     0.031 A 
BRANCH  44  58
ATOM     58  C   UNL A   1      42.556  23.796  27.804  1.00  0.00    -0.014 A 
ATOM     59  C   UNL A   1      42.312  22.708  28.665  1.00  0.00     0.010 A 
ATOM     60  C   UNL A   1      42.553  23.585  26.416  1.00  0.00     0.010 A 
ATOM     61  C   UNL A   1      42.117  21.426  28.148  1.00  0.00     0.020 A 
ATOM     62  C   UNL A   1      42.331  22.307  25.893  1.00  0.00     0.020 A 
ATOM     63  C   UNL A   1      42.133  21.233  26.765  1.00  0.00     0.054 A 
BRANCH  63  64
ATOM     64  S   UNL A   1      41.876  19.557  26.121  1.00  0.00     0.124 S 
ATOM     65  O   UNL A   1      42.293  18.732  27.253  1.00  0.00    -0.237 OA
ATOM     66  O   UNL A   1      40.444  19.542  25.829  1.00  0.00    -0.237 OA
ATOM     67  O   UNL A   1      42.748  19.496  24.952  1.00  0.00    -0.744 OA
ENDBRANCH  63  64
ENDBRANCH  44  58
BRANCH  45  68
ATOM     68  C   UNL A   1      43.692  33.017  31.446  1.00  0.00    -0.014 A 
ATOM     69  C   UNL A   1      43.555  33.275  32.821  1.00  0.00     0.010 A 
ATOM     70  C   UNL A   1      43.966  34.088  30.577  1.00  0.00     0.010 A 
ATOM     71  C   UNL A   1      43.646  34.581  33.312  1.00  0.00     0.020 A 
ATOM     72  C   UNL A   1      44.087  35.392  31.067  1.00  0.00     0.020 A 
ATOM     73  C   UNL A   1      43.907  35.633  32.430  1.00  0.00     0.054 A 
BRANCH  73  74
ATOM     74  S   UNL A   1      44.032  37.321  33.086  1.00  0.00     0.124 S 
ATOM     75  O   UNL A   1      44.014  38.124  31.868  1.00  0.00    -0.237 OA
ATOM     76  O   UNL A   1      42.844  37.422  33.929  1.00  0.00    -0.237 OA
ATOM     77  O   UNL A   1      45.301  37.313  33.811  1.00  0.00    -0.744 OA
ENDBRANCH  73  74
ENDBRANCH  45  68
BRANCH  57  78
ATOM     78  C   UNL A   1      48.137  27.859  29.950  1.00  0.00    -0.014 A 
ATOM     79  C   UNL A   1      48.964  28.248  28.880  1.00  0.00     0.010 A 
ATOM     80  C   UNL A   1      48.733  27.397  31.140  1.00  0.00     0.010 A 
ATOM     81  C   UNL A   1      50.353  28.133  28.982  1.00  0.00     0.020 A 
ATOM     82  C   UNL A   1      50.122  27.310  31.255  1.00  0.00     0.020 A 
ATOM     83  C   UNL A   1      50.924  27.661  30.167  1.00  0.00     0.054 A 
BRANCH  83  84
ATOM     84  S   UNL A   1      52.729  27.540  30.282  1.00  0.00     0.124 S 
ATOM     85  O   UNL A   1      52.927  26.105  30.464  1.00  0.00    -0.237 OA
ATOM     86  O   UNL A   1      53.171  28.079  28.998  1.00  0.00    -0.237 OA
ATOM     87  O   UNL A   1      53.059  28.366  31.442  1.00  0.00    -0.744 OA
ENDBRANCH  83  84
ENDBRANCH  57  78
ENDBRANCH  31  32
ENDBRANCH  24  26
ENDBRANCH  23  24
ENDBRANCH   1  23
TORSDOF 15
ENDMDL
MODEL 3
REMARK VINA RESULT:     -11.5      4.246      8.606
REMARK SMILES O=C(OCCOC(=O)c1ccc(-c2c3nc(c(-c4ccc(S(=O)(=O)[O-])cc4)c4ccc([nH]4)c(-c4ccc(S(=O)(=O)[O-])cc4)c4nc(c(-c5ccc(S(=O)(=O)[O-])cc5)c5ccc2[nH]5)C=C4)C=C3)cc1)C1=Cc2cc(Cl)c(Cl)c(Cl)c2O[C@@H]1C(F)(F)F
REMARK SMILES IDX 5 1 4 2 3 3 2 4 1 5 69 6 70 7 81 8 71 9 80 10 72 11 79 12
REMARK SMILES IDX 73 13 77 14 74 15 75 16 78 17 76 18 82 19 83 20 84 21 85 22
REMARK SMILES IDX 6 23 7 24 8 25 9 26 10 27 68 28 11 29 67 30 12 31 13 32
REMARK SMILES IDX 14 33 61 34 15 35 66 36 60 37 62 38 16 39 65 40 59 41 58 42
REMARK SMILES IDX 17 44 47 45 28 46 46 47 29 48 32 49 45 50 63 51 30 52 31 53
REMARK SMILES IDX 44 55 64 56 33 57 18 58 19 59 27 60 20 61 26 62 21 63 22 64
REMARK SMILES IDX 23 65 24 66 25 67 48 68 49 69 57 70 50 71 56 72 51 73 52 74
REMARK SMILES IDX 53 75 54 76 55 77 34 78 35 79 43 80 36 81 42 82 37 83 38 84
REMARK SMILES IDX 39 85 40 86 41 87
REMARK H PARENT 62 43 32 54
REMARK Flexibility Score: inf
ROOT
ATOM      1  C   UNL A   1      32.998  29.809  26.496  1.00  0.00     0.275 C 
ENDROOT
BRANCH   1   2
ATOM      2  C   UNL A   1      31.905  28.734  26.297  1.00  0.00     0.275 C 
BRANCH   2   3
ATOM      3  O   UNL A   1      32.172  27.516  27.038  1.00  0.00    -0.459 OA
BRANCH   3   4
ATOM      4  C   UNL A   1      31.938  26.339  26.398  1.00  0.00     0.338 C 
ATOM      5  O   UNL A   1      31.068  25.552  26.744  1.00  0.00    -0.246 OA
BRANCH   4   6
ATOM      6  C   UNL A   1      32.774  26.159  25.186  1.00  0.00     0.087 C 
ATOM      7  C   UNL A   1      34.085  25.988  25.419  1.00  0.00     0.027 C 
ATOM      8  C   UNL A   1      32.176  25.631  23.923  1.00  0.00     0.316 C 
ATOM      9  C   UNL A   1      34.579  24.691  24.917  1.00  0.00     0.020 A 
ATOM     10  O   UNL A   1      32.484  24.230  23.762  1.00  0.00    -0.474 OA
ATOM     11  C   UNL A   1      35.798  24.209  25.391  1.00  0.00     0.034 A 
ATOM     12  C   UNL A   1      33.694  23.809  24.265  1.00  0.00     0.148 A 
ATOM     13  C   UNL A   1      36.090  22.842  25.314  1.00  0.00     0.062 A 
ATOM     14  C   UNL A   1      33.967  22.432  24.226  1.00  0.00     0.103 A 
ATOM     15  Cl  UNL A   1      37.601  22.326  25.984  1.00  0.00    -0.083 Cl
ATOM     16  C   UNL A   1      35.160  21.939  24.774  1.00  0.00     0.082 A 
ATOM     17  Cl  UNL A   1      32.751  21.356  23.602  1.00  0.00    -0.079 Cl
ATOM     18  Cl  UNL A   1      35.460  20.229  24.843  1.00  0.00    -0.081 Cl
BRANCH   8  19
ATOM     19  C   UNL A   1      32.519  26.470  22.682  1.00  0.00     0.430 C 
ATOM     20  F   UNL A   1      31.561  26.337  21.735  1.00  0.00    -0.167 F 
ATOM     21  F   UNL A   1      32.642  27.786  22.959  1.00  0.00    -0.167 F 
ATOM     22  F   UNL A   1      33.686  26.063  22.130  1.00  0.00    -0.167 F 
ENDBRANCH   8  19
ENDBRANCH   4   6
ENDBRANCH   3   4
ENDBRANCH   2   3
ENDBRANCH   1   2
BRANCH   1  23
ATOM     23  O   UNL A   1      33.971  29.414  27.472  1.00  0.00    -0.458 OA
BRANCH  23  24
ATOM     24  C   UNL A   1      34.706  30.449  27.954  1.00  0.00     0.338 C 
ATOM     25  O   UNL A   1      34.268  31.525  28.332  1.00  0.00    -0.246 OA
BRANCH  24  26
ATOM     26  C   UNL A   1      36.097  29.998  28.194  1.00  0.00     0.060 A 
ATOM     27  C   UNL A   1      36.385  29.495  29.467  1.00  0.00     0.016 A 
ATOM     28  C   UNL A   1      37.088  30.002  27.205  1.00  0.00     0.016 A 
ATOM     29  C   UNL A   1      37.671  29.053  29.770  1.00  0.00     0.010 A 
ATOM     30  C   UNL A   1      38.373  29.526  27.503  1.00  0.00     0.010 A 
ATOM     31  C   UNL A   1      38.686  29.092  28.803  1.00  0.00    -0.014 A 
BRANCH  31  32
ATOM     32  C   UNL A   1      40.083  28.831  29.244  1.00  0.00     0.031 A 
ATOM     33  C   UNL A   1      40.704  27.492  28.940  1.00  0.00     0.074 A 
ATOM     34  C   UNL A   1      40.839  29.810  29.779  1.00  0.00     0.049 A 
ATOM     35  N   UNL A   1      41.963  27.138  28.978  1.00  0.00    -0.248 NA
ATOM     36  C   UNL A   1      39.789  26.414  28.529  1.00  0.00     0.031 C 
ATOM     37  C   UNL A   1      40.366  31.144  30.148  1.00  0.00     0.029 A 
ATOM     38  N   UNL A   1      42.180  29.837  30.078  1.00  0.00    -0.354 N 
ATOM     39  C   UNL A   1      41.995  25.816  28.550  1.00  0.00     0.074 A 
ATOM     40  C   UNL A   1      40.625  25.405  28.341  1.00  0.00     0.031 C 
ATOM     41  C   UNL A   1      41.405  31.868  30.601  1.00  0.00     0.029 A 
ATOM     42  C   UNL A   1      42.618  31.053  30.550  1.00  0.00     0.049 A 
ATOM     43  H   UNL A   1      42.772  29.059  29.965  1.00  0.00     0.167 HD
ATOM     44  C   UNL A   1      43.065  25.022  28.311  1.00  0.00     0.031 A 
ATOM     45  C   UNL A   1      43.858  31.470  30.878  1.00  0.00     0.031 A 
ATOM     46  C   UNL A   1      44.427  25.405  28.556  1.00  0.00     0.049 A 
ATOM     47  C   UNL A   1      45.033  30.548  30.662  1.00  0.00     0.074 A 
ATOM     48  C   UNL A   1      45.580  24.668  28.353  1.00  0.00     0.029 A 
ATOM     49  N   UNL A   1      44.820  26.629  29.073  1.00  0.00    -0.354 N 
ATOM     50  N   UNL A   1      45.050  29.332  30.167  1.00  0.00    -0.248 NA
ATOM     51  C   UNL A   1      46.360  31.070  31.017  1.00  0.00     0.031 C 
ATOM     52  C   UNL A   1      46.669  25.430  28.792  1.00  0.00     0.029 A 
ATOM     53  C   UNL A   1      46.196  26.663  29.215  1.00  0.00     0.049 A 
ATOM     54  H   UNL A   1      44.210  27.366  29.304  1.00  0.00     0.167 HD
ATOM     55  C   UNL A   1      46.392  28.958  30.125  1.00  0.00     0.074 A 
ATOM     56  C   UNL A   1      47.155  30.085  30.622  1.00  0.00     0.031 C 
ATOM     57  C   UNL A   1      46.944  27.789  29.713  1.00  0.00     0.031 A 
BRANCH  44  58
ATOM     58  C   UNL A   1      42.784  23.656  27.744  1.00  0.00    -0.014 A 
ATOM     59  C   UNL A   1      42.537  22.566  28.602  1.00  0.00     0.010 A 
ATOM     60  C   UNL A   1      42.763  23.453  26.354  1.00  0.00     0.010 A 
ATOM     61  C   UNL A   1      42.320  21.290  28.079  1.00  0.00     0.020 A 
ATOM     62  C   UNL A   1      42.520  22.182  25.827  1.00  0.00     0.020 A 
ATOM     63  C   UNL A   1      42.319  21.105  26.695  1.00  0.00     0.054 A 
BRANCH  63  64
ATOM     64  S   UNL A   1      42.034  19.436  26.044  1.00  0.00     0.124 S 
ATOM     65  O   UNL A   1      42.877  19.431  24.850  1.00  0.00    -0.237 OA
ATOM     66  O   UNL A   1      42.492  18.583  27.138  1.00  0.00    -0.237 OA
ATOM     67  O   UNL A   1      40.596  19.402  25.791  1.00  0.00    -0.744 OA
ENDBRANCH  63  64
ENDBRANCH  44  58
BRANCH  45  68
ATOM     68  C   UNL A   1      44.071  32.836  31.438  1.00  0.00    -0.014 A 
ATOM     69  C   UNL A   1      44.015  33.074  32.823  1.00  0.00     0.010 A 
ATOM     70  C   UNL A   1      44.284  33.922  30.570  1.00  0.00     0.010 A 
ATOM     71  C   UNL A   1      44.126  34.374  33.326  1.00  0.00     0.020 A 
ATOM     72  C   UNL A   1      44.424  35.220  31.071  1.00  0.00     0.020 A 
ATOM     73  C   UNL A   1      44.325  35.440  32.445  1.00  0.00     0.054 A 
BRANCH  73  74
ATOM     74  S   UNL A   1      44.477  37.121  33.117  1.00  0.00     0.124 S 
ATOM     75  O   UNL A   1      44.928  37.874  31.952  1.00  0.00    -0.237 OA
ATOM     76  O   UNL A   1      43.117  37.405  33.568  1.00  0.00    -0.237 OA
ATOM     77  O   UNL A   1      45.461  36.973  34.187  1.00  0.00    -0.744 OA
ENDBRANCH  73  74
ENDBRANCH  45  68
BRANCH  57  78
ATOM     78  C   UNL A   1      48.446  27.677  29.755  1.00  0.00    -0.014 A 
ATOM     79  C   UNL A   1      49.111  27.170  30.886  1.00  0.00     0.010 A 
ATOM     80  C   UNL A   1      49.204  28.049  28.627  1.00  0.00     0.010 A 
ATOM     81  C   UNL A   1      50.506  27.083  30.907  1.00  0.00     0.020 A 
ATOM     82  C   UNL A   1      50.596  27.934  28.633  1.00  0.00     0.020 A 
ATOM     83  C   UNL A   1      51.241  27.469  29.781  1.00  0.00     0.054 A 
BRANCH  83  84
ATOM     84  S   UNL A   1      53.048  27.327  29.824  1.00  0.00     0.124 S 
ATOM     85  O   UNL A   1      53.302  26.364  28.756  1.00  0.00    -0.237 OA
ATOM     86  O   UNL A   1      53.486  28.695  29.555  1.00  0.00    -0.237 OA
ATOM     87  O   UNL A   1      53.326  26.847  31.176  1.00  0.00    -0.744 OA
ENDBRANCH  83  84
ENDBRANCH  57  78
ENDBRANCH  31  32
ENDBRANCH  24  26
ENDBRANCH  23  24
ENDBRANCH   1  23
TORSDOF 15
ENDMDL
