MODEL 1
REMARK VINA RESULT:     -11.0      0.000      0.000
REMARK SMILES O=C(OCCOC(=O)c1noc(-c2ccccc2C(F)(F)F)n1)c1ccc(-c2c3nc(c(-c4ccc(S(=O)(=O)[O-])cc4)c4ccc([nH]4)c(-c4ccc(S(=O)(=O)[O-])cc4)c4nc(c(-c5ccc(S(=O)(=O)[O-])cc5)c5ccc2[nH]5)C=C4)C=C3)cc1
REMARK SMILES IDX 4 1 3 2 2 3 1 4 24 5 25 6 83 7 26 8 82 9 27 10 28 11 29 12
REMARK SMILES IDX 76 13 30 14 81 15 75 16 77 17 31 18 80 19 74 20 73 21 32 23
REMARK SMILES IDX 62 24 43 25 61 26 44 27 47 28 60 29 78 30 45 31 46 32 59 34
REMARK SMILES IDX 79 35 48 36 33 37 34 38 42 39 35 40 41 41 36 42 37 43 38 44
REMARK SMILES IDX 39 45 40 46 63 47 64 48 72 49 65 50 71 51 66 52 67 53 68 54
REMARK SMILES IDX 69 55 70 56 49 57 50 58 58 59 51 60 57 61 52 62 53 63 54 64
REMARK SMILES IDX 55 65 56 66 5 67 6 68 7 69 8 70 9 71 10 72 23 73 11 74 12 75
REMARK SMILES IDX 13 76 14 77 18 78 15 79 17 80 16 81 19 82 20 83 21 84 22 85
REMARK H PARENT 77 22 47 33
REMARK Flexibility Score: inf
ROOT
ATOM      1  C   UNL A   1      33.366  29.691  25.980  1.00  0.00     0.275 C 
ENDROOT
BRANCH   1   2
ATOM      2  O   UNL A   1      33.562  29.870  27.394  1.00  0.00    -0.458 OA
BRANCH   2   3
ATOM      3  C   UNL A   1      34.508  30.615  28.018  1.00  0.00     0.338 C 
ATOM      4  O   UNL A   1      34.326  31.819  28.175  1.00  0.00    -0.246 OA
BRANCH   3   5
ATOM      5  C   UNL A   1      35.860  30.064  28.329  1.00  0.00     0.060 A 
ATOM      6  C   UNL A   1      36.268  29.598  29.581  1.00  0.00     0.016 A 
ATOM      7  C   UNL A   1      36.805  30.088  27.286  1.00  0.00     0.016 A 
ATOM      8  C   UNL A   1      37.561  29.102  29.774  1.00  0.00     0.010 A 
ATOM      9  C   UNL A   1      38.108  29.618  27.482  1.00  0.00     0.010 A 
ATOM     10  C   UNL A   1      38.491  29.117  28.732  1.00  0.00    -0.014 A 
BRANCH  10  11
ATOM     11  C   UNL A   1      39.897  28.747  29.013  1.00  0.00     0.031 A 
ATOM     12  C   UNL A   1      40.799  29.774  29.637  1.00  0.00     0.074 A 
ATOM     13  C   UNL A   1      40.340  27.497  28.783  1.00  0.00     0.049 A 
ATOM     14  N   UNL A   1      42.038  29.651  30.032  1.00  0.00    -0.248 NA
ATOM     15  C   UNL A   1      40.218  31.106  29.874  1.00  0.00     0.031 C 
ATOM     16  C   UNL A   1      39.537  26.395  28.252  1.00  0.00     0.029 A 
ATOM     17  N   UNL A   1      41.583  26.944  28.962  1.00  0.00    -0.354 N 
ATOM     18  C   UNL A   1      42.365  30.865  30.621  1.00  0.00     0.074 A 
ATOM     19  C   UNL A   1      41.223  31.738  30.461  1.00  0.00     0.031 C 
ATOM     20  C   UNL A   1      40.322  25.315  28.090  1.00  0.00     0.029 A 
ATOM     21  C   UNL A   1      41.677  25.645  28.521  1.00  0.00     0.049 A 
ATOM     22  H   UNL A   1      42.336  27.432  29.366  1.00  0.00     0.167 HD
ATOM     23  C   UNL A   1      43.501  31.211  31.270  1.00  0.00     0.031 A 
ATOM     24  C   UNL A   1      42.742  24.822  28.462  1.00  0.00     0.031 A 
ATOM     25  C   UNL A   1      44.653  30.360  31.375  1.00  0.00     0.049 A 
ATOM     26  C   UNL A   1      44.060  25.299  29.008  1.00  0.00     0.074 A 
ATOM     27  C   UNL A   1      45.865  30.616  31.992  1.00  0.00     0.029 A 
ATOM     28  N   UNL A   1      44.741  29.089  30.827  1.00  0.00    -0.354 N 
ATOM     29  N   UNL A   1      44.344  26.445  29.580  1.00  0.00    -0.248 NA
ATOM     30  C   UNL A   1      45.191  24.367  28.919  1.00  0.00     0.031 C 
ATOM     31  C   UNL A   1      46.702  29.515  31.776  1.00  0.00     0.029 A 
ATOM     32  C   UNL A   1      45.995  28.555  31.067  1.00  0.00     0.049 A 
ATOM     33  H   UNL A   1      44.017  28.632  30.339  1.00  0.00     0.167 HD
ATOM     34  C   UNL A   1      45.677  26.351  29.967  1.00  0.00     0.074 A 
ATOM     35  C   UNL A   1      46.144  25.046  29.544  1.00  0.00     0.031 C 
ATOM     36  C   UNL A   1      46.436  27.254  30.634  1.00  0.00     0.031 A 
BRANCH  23  37
ATOM     37  C   UNL A   1      43.530  32.572  31.910  1.00  0.00    -0.014 A 
ATOM     38  C   UNL A   1      43.093  32.744  33.237  1.00  0.00     0.010 A 
ATOM     39  C   UNL A   1      43.980  33.687  31.184  1.00  0.00     0.010 A 
ATOM     40  C   UNL A   1      43.060  34.017  33.812  1.00  0.00     0.020 A 
ATOM     41  C   UNL A   1      43.968  34.960  31.763  1.00  0.00     0.020 A 
ATOM     42  C   UNL A   1      43.488  35.119  33.066  1.00  0.00     0.054 A 
BRANCH  42  43
ATOM     43  S   UNL A   1      43.421  36.763  33.830  1.00  0.00     0.124 S 
ATOM     44  O   UNL A   1      42.135  36.719  34.522  1.00  0.00    -0.237 OA
ATOM     45  O   UNL A   1      44.599  36.765  34.694  1.00  0.00    -0.237 OA
ATOM     46  O   UNL A   1      43.485  37.676  32.692  1.00  0.00    -0.744 OA
ENDBRANCH  42  43
ENDBRANCH  23  37
BRANCH  24  47
ATOM     47  C   UNL A   1      42.628  23.489  27.813  1.00  0.00    -0.014 A 
ATOM     48  C   UNL A   1      42.858  23.305  26.440  1.00  0.00     0.010 A 
ATOM     49  C   UNL A   1      42.244  22.386  28.593  1.00  0.00     0.010 A 
ATOM     50  C   UNL A   1      42.697  22.039  25.863  1.00  0.00     0.020 A 
ATOM     51  C   UNL A   1      42.107  21.117  28.028  1.00  0.00     0.020 A 
ATOM     52  C   UNL A   1      42.323  20.953  26.660  1.00  0.00     0.054 A 
BRANCH  52  53
ATOM     53  S   UNL A   1      42.147  19.311  25.907  1.00  0.00     0.124 S 
ATOM     54  O   UNL A   1      42.984  19.433  24.719  1.00  0.00    -0.237 OA
ATOM     55  O   UNL A   1      42.653  18.426  26.953  1.00  0.00    -0.237 OA
ATOM     56  O   UNL A   1      40.711  19.209  25.656  1.00  0.00    -0.744 OA
ENDBRANCH  52  53
ENDBRANCH  24  47
BRANCH  36  57
ATOM     57  C   UNL A   1      47.831  26.836  30.999  1.00  0.00    -0.014 A 
ATOM     58  C   UNL A   1      48.925  27.132  30.167  1.00  0.00     0.010 A 
ATOM     59  C   UNL A   1      48.051  26.175  32.221  1.00  0.00     0.010 A 
ATOM     60  C   UNL A   1      50.215  26.750  30.543  1.00  0.00     0.020 A 
ATOM     61  C   UNL A   1      49.341  25.814  32.609  1.00  0.00     0.020 A 
ATOM     62  C   UNL A   1      50.415  26.092  31.761  1.00  0.00     0.054 A 
BRANCH  62  63
ATOM     63  S   UNL A   1      52.103  25.650  32.254  1.00  0.00     0.124 S 
ATOM     64  O   UNL A   1      52.870  26.017  31.066  1.00  0.00    -0.237 OA
ATOM     65  O   UNL A   1      52.326  26.488  33.429  1.00  0.00    -0.237 OA
ATOM     66  O   UNL A   1      52.018  24.217  32.525  1.00  0.00    -0.744 OA
ENDBRANCH  62  63
ENDBRANCH  36  57
ENDBRANCH  10  11
ENDBRANCH   3   5
ENDBRANCH   2   3
ENDBRANCH   1   2
BRANCH   1  67
ATOM     67  C   UNL A   1      33.675  28.279  25.475  1.00  0.00     0.275 C 
BRANCH  67  68
ATOM     68  O   UNL A   1      32.861  27.890  24.362  1.00  0.00    -0.456 OA
BRANCH  68  69
ATOM     69  C   UNL A   1      33.560  27.579  23.220  1.00  0.00     0.380 C 
ATOM     70  O   UNL A   1      34.028  28.425  22.464  1.00  0.00    -0.242 OA
BRANCH  69  71
ATOM     71  C   UNL A   1      33.756  26.138  23.048  1.00  0.00     0.281 A 
ATOM     72  N   UNL A   1      33.767  25.577  21.825  1.00  0.00    -0.049 NA
ATOM     73  N   UNL A   1      33.970  25.235  24.080  1.00  0.00    -0.181 NA
ATOM     74  O   UNL A   1      34.000  24.231  22.080  1.00  0.00    -0.333 OA
ATOM     75  C   UNL A   1      34.082  24.097  23.435  1.00  0.00     0.259 A 
BRANCH  75  76
ATOM     76  C   UNL A   1      34.134  22.725  23.908  1.00  0.00     0.052 A 
ATOM     77  C   UNL A   1      32.930  22.016  24.077  1.00  0.00     0.014 A 
ATOM     78  C   UNL A   1      35.353  22.111  24.258  1.00  0.00     0.068 A 
ATOM     79  C   UNL A   1      32.927  20.724  24.600  1.00  0.00     0.001 A 
ATOM     80  C   UNL A   1      35.328  20.813  24.800  1.00  0.00     0.014 A 
ATOM     81  C   UNL A   1      34.124  20.132  24.984  1.00  0.00     0.001 A 
BRANCH  78  82
ATOM     82  C   UNL A   1      36.691  22.783  24.048  1.00  0.00     0.417 C 
ATOM     83  F   UNL A   1      36.821  23.929  24.774  1.00  0.00    -0.166 F 
ATOM     84  F   UNL A   1      37.735  21.988  24.404  1.00  0.00    -0.166 F 
ATOM     85  F   UNL A   1      36.930  23.166  22.761  1.00  0.00    -0.166 F 
ENDBRANCH  78  82
ENDBRANCH  75  76
ENDBRANCH  69  71
ENDBRANCH  68  69
ENDBRANCH  67  68
ENDBRANCH   1  67
TORSDOF 16
ENDMDL
MODEL 2
REMARK VINA RESULT:     -10.9      4.445     10.467
REMARK SMILES O=C(OCCOC(=O)c1noc(-c2ccccc2C(F)(F)F)n1)c1ccc(-c2c3nc(c(-c4ccc(S(=O)(=O)[O-])cc4)c4ccc([nH]4)c(-c4ccc(S(=O)(=O)[O-])cc4)c4nc(c(-c5ccc(S(=O)(=O)[O-])cc5)c5ccc2[nH]5)C=C4)C=C3)cc1
REMARK SMILES IDX 4 1 3 2 2 3 1 4 24 5 25 6 83 7 26 8 82 9 27 10 28 11 29 12
REMARK SMILES IDX 76 13 30 14 81 15 75 16 77 17 31 18 80 19 74 20 73 21 32 23
REMARK SMILES IDX 62 24 43 25 61 26 44 27 47 28 60 29 78 30 45 31 46 32 59 34
REMARK SMILES IDX 79 35 48 36 33 37 34 38 42 39 35 40 41 41 36 42 37 43 38 44
REMARK SMILES IDX 39 45 40 46 63 47 64 48 72 49 65 50 71 51 66 52 67 53 68 54
REMARK SMILES IDX 69 55 70 56 49 57 50 58 58 59 51 60 57 61 52 62 53 63 54 64
REMARK SMILES IDX 55 65 56 66 5 67 6 68 7 69 8 70 9 71 10 72 23 73 11 74 12 75
REMARK SMILES IDX 13 76 14 77 18 78 15 79 17 80 16 81 19 82 20 83 21 84 22 85
REMARK H PARENT 77 22 47 33
REMARK Flexibility Score: inf
ROOT
ATOM      1  C   UNL A   1      40.616  19.938  26.607  1.00  0.00     0.275 C 
ENDROOT
BRANCH   1   2
ATOM      2  O   UNL A   1      40.623  21.325  26.226  1.00  0.00    -0.458 OA
BRANCH   2   3
ATOM      3  C   UNL A   1      39.691  22.271  26.500  1.00  0.00     0.338 C 
ATOM      4  O   UNL A   1      38.533  22.110  26.123  1.00  0.00    -0.246 OA
BRANCH   3   5
ATOM      5  C   UNL A   1      40.067  23.603  27.057  1.00  0.00     0.060 A 
ATOM      6  C   UNL A   1      39.586  24.831  26.597  1.00  0.00     0.016 A 
ATOM      7  C   UNL A   1      41.035  23.607  28.079  1.00  0.00     0.016 A 
ATOM      8  C   UNL A   1      40.003  26.029  27.184  1.00  0.00     0.010 A 
ATOM      9  C   UNL A   1      41.475  24.806  28.651  1.00  0.00     0.010 A 
ATOM     10  C   UNL A   1      40.955  26.027  28.206  1.00  0.00    -0.014 A 
BRANCH  10  11
ATOM     11  C   UNL A   1      41.501  27.316  28.687  1.00  0.00     0.031 A 
ATOM     12  C   UNL A   1      42.992  27.468  28.800  1.00  0.00     0.074 A 
ATOM     13  C   UNL A   1      40.686  28.355  28.949  1.00  0.00     0.049 A 
ATOM     14  N   UNL A   1      43.690  28.521  29.131  1.00  0.00    -0.248 NA
ATOM     15  C   UNL A   1      43.802  26.283  28.469  1.00  0.00     0.031 C 
ATOM     16  C   UNL A   1      39.231  28.351  28.803  1.00  0.00     0.029 A 
ATOM     17  N   UNL A   1      40.970  29.619  29.402  1.00  0.00    -0.354 N 
ATOM     18  C   UNL A   1      45.020  28.149  28.986  1.00  0.00     0.074 A 
ATOM     19  C   UNL A   1      45.033  26.750  28.615  1.00  0.00     0.031 C 
ATOM     20  C   UNL A   1      38.743  29.534  29.217  1.00  0.00     0.029 A 
ATOM     21  C   UNL A   1      39.851  30.383  29.641  1.00  0.00     0.049 A 
ATOM     22  H   UNL A   1      41.887  29.947  29.543  1.00  0.00     0.167 HD
ATOM     23  C   UNL A   1      46.130  28.912  29.112  1.00  0.00     0.031 A 
ATOM     24  C   UNL A   1      39.740  31.622  30.158  1.00  0.00     0.031 A 
ATOM     25  C   UNL A   1      46.114  30.284  29.536  1.00  0.00     0.049 A 
ATOM     26  C   UNL A   1      40.992  32.388  30.487  1.00  0.00     0.074 A 
ATOM     27  C   UNL A   1      47.180  31.146  29.719  1.00  0.00     0.029 A 
ATOM     28  N   UNL A   1      44.966  30.989  29.866  1.00  0.00    -0.354 N 
ATOM     29  N   UNL A   1      42.241  32.025  30.324  1.00  0.00    -0.248 NA
ATOM     30  C   UNL A   1      40.817  33.733  31.049  1.00  0.00     0.031 C 
ATOM     31  C   UNL A   1      46.678  32.360  30.204  1.00  0.00     0.029 A 
ATOM     32  C   UNL A   1      45.296  32.268  30.276  1.00  0.00     0.049 A 
ATOM     33  H   UNL A   1      44.049  30.631  29.814  1.00  0.00     0.167 HD
ATOM     34  C   UNL A   1      43.005  33.120  30.715  1.00  0.00     0.074 A 
ATOM     35  C   UNL A   1      42.074  34.147  31.142  1.00  0.00     0.031 C 
ATOM     36  C   UNL A   1      44.351  33.271  30.698  1.00  0.00     0.031 A 
BRANCH  23  37
ATOM     37  C   UNL A   1      47.444  28.259  28.783  1.00  0.00    -0.014 A 
ATOM     38  C   UNL A   1      47.887  28.182  27.448  1.00  0.00     0.010 A 
ATOM     39  C   UNL A   1      48.237  27.706  29.802  1.00  0.00     0.010 A 
ATOM     40  C   UNL A   1      49.076  27.521  27.134  1.00  0.00     0.020 A 
ATOM     41  C   UNL A   1      49.439  27.061  29.493  1.00  0.00     0.020 A 
ATOM     42  C   UNL A   1      49.840  26.955  28.159  1.00  0.00     0.054 A 
BRANCH  42  43
ATOM     43  S   UNL A   1      51.372  26.088  27.723  1.00  0.00     0.124 S 
ATOM     44  O   UNL A   1      51.991  27.027  26.789  1.00  0.00    -0.237 OA
ATOM     45  O   UNL A   1      52.043  25.952  29.013  1.00  0.00    -0.237 OA
ATOM     46  O   UNL A   1      50.907  24.837  27.131  1.00  0.00    -0.744 OA
ENDBRANCH  42  43
ENDBRANCH  23  37
BRANCH  24  47
ATOM     47  C   UNL A   1      38.400  32.196  30.453  1.00  0.00    -0.014 A 
ATOM     48  C   UNL A   1      37.692  32.960  29.512  1.00  0.00     0.010 A 
ATOM     49  C   UNL A   1      37.842  31.995  31.726  1.00  0.00     0.010 A 
ATOM     50  C   UNL A   1      36.451  33.517  29.848  1.00  0.00     0.020 A 
ATOM     51  C   UNL A   1      36.594  32.526  32.058  1.00  0.00     0.020 A 
ATOM     52  C   UNL A   1      35.910  33.297  31.118  1.00  0.00     0.054 A 
BRANCH  52  53
ATOM     53  S   UNL A   1      34.289  33.998  31.532  1.00  0.00     0.124 S 
ATOM     54  O   UNL A   1      33.649  34.072  30.224  1.00  0.00    -0.237 OA
ATOM     55  O   UNL A   1      33.739  33.008  32.454  1.00  0.00    -0.237 OA
ATOM     56  O   UNL A   1      34.624  35.285  32.140  1.00  0.00    -0.744 OA
ENDBRANCH  52  53
ENDBRANCH  24  47
BRANCH  36  57
ATOM     57  C   UNL A   1      44.894  34.613  31.098  1.00  0.00    -0.014 A 
ATOM     58  C   UNL A   1      45.066  35.641  30.156  1.00  0.00     0.010 A 
ATOM     59  C   UNL A   1      45.191  34.856  32.450  1.00  0.00     0.010 A 
ATOM     60  C   UNL A   1      45.552  36.887  30.560  1.00  0.00     0.020 A 
ATOM     61  C   UNL A   1      45.653  36.107  32.860  1.00  0.00     0.020 A 
ATOM     62  C   UNL A   1      45.844  37.112  31.910  1.00  0.00     0.054 A 
BRANCH  62  63
ATOM     63  S   UNL A   1      46.425  38.751  32.422  1.00  0.00     0.124 S 
ATOM     64  O   UNL A   1      47.799  38.470  32.831  1.00  0.00    -0.237 OA
ATOM     65  O   UNL A   1      46.282  39.539  31.201  1.00  0.00    -0.237 OA
ATOM     66  O   UNL A   1      45.513  39.118  33.503  1.00  0.00    -0.744 OA
ENDBRANCH  62  63
ENDBRANCH  36  57
ENDBRANCH  10  11
ENDBRANCH   3   5
ENDBRANCH   2   3
ENDBRANCH   1   2
BRANCH   1  67
ATOM     67  C   UNL A   1      42.007  19.304  26.705  1.00  0.00     0.275 C 
BRANCH  67  68
ATOM     68  O   UNL A   1      42.596  19.041  25.426  1.00  0.00    -0.456 OA
BRANCH  68  69
ATOM     69  C   UNL A   1      43.914  19.415  25.313  1.00  0.00     0.380 C 
ATOM     70  O   UNL A   1      44.852  18.649  25.512  1.00  0.00    -0.242 OA
BRANCH  69  71
ATOM     71  C   UNL A   1      44.075  20.796  24.852  1.00  0.00     0.281 A 
ATOM     72  N   UNL A   1      44.528  21.070  23.614  1.00  0.00    -0.049 NA
ATOM     73  N   UNL A   1      43.765  21.925  25.597  1.00  0.00    -0.181 NA
ATOM     74  O   UNL A   1      44.514  22.458  23.556  1.00  0.00    -0.333 OA
ATOM     75  C   UNL A   1      44.078  22.897  24.772  1.00  0.00     0.259 A 
BRANCH  75  76
ATOM     76  C   UNL A   1      44.176  24.333  24.970  1.00  0.00     0.052 A 
ATOM     77  C   UNL A   1      42.997  25.100  24.999  1.00  0.00     0.014 A 
ATOM     78  C   UNL A   1      45.424  24.978  25.074  1.00  0.00     0.068 A 
ATOM     79  C   UNL A   1      43.048  26.488  25.111  1.00  0.00     0.001 A 
ATOM     80  C   UNL A   1      45.456  26.382  25.169  1.00  0.00     0.014 A 
ATOM     81  C   UNL A   1      44.278  27.131  25.173  1.00  0.00     0.001 A 
BRANCH  78  82
ATOM     82  C   UNL A   1      46.731  24.220  25.114  1.00  0.00     0.417 C 
ATOM     83  F   UNL A   1      47.763  24.981  25.576  1.00  0.00    -0.166 F 
ATOM     84  F   UNL A   1      46.676  23.127  25.920  1.00  0.00    -0.166 F 
ATOM     85  F   UNL A   1      47.157  23.772  23.899  1.00  0.00    -0.166 F 
ENDBRANCH  78  82
ENDBRANCH  75  76
ENDBRANCH  69  71
ENDBRANCH  68  69
ENDBRANCH  67  68
ENDBRANCH   1  67
TORSDOF 16
ENDMDL
MODEL 3
REMARK VINA RESULT:     -10.6      3.037      9.473
REMARK SMILES O=C(OCCOC(=O)c1noc(-c2ccccc2C(F)(F)F)n1)c1ccc(-c2c3nc(c(-c4ccc(S(=O)(=O)[O-])cc4)c4ccc([nH]4)c(-c4ccc(S(=O)(=O)[O-])cc4)c4nc(c(-c5ccc(S(=O)(=O)[O-])cc5)c5ccc2[nH]5)C=C4)C=C3)cc1
REMARK SMILES IDX 4 1 3 2 2 3 1 4 24 5 25 6 83 7 26 8 82 9 27 10 28 11 29 12
REMARK SMILES IDX 76 13 30 14 81 15 75 16 77 17 31 18 80 19 74 20 73 21 32 23
REMARK SMILES IDX 62 24 43 25 61 26 44 27 47 28 60 29 78 30 45 31 46 32 59 34
REMARK SMILES IDX 79 35 48 36 33 37 34 38 42 39 35 40 41 41 36 42 37 43 38 44
REMARK SMILES IDX 39 45 40 46 63 47 64 48 72 49 65 50 71 51 66 52 67 53 68 54
REMARK SMILES IDX 69 55 70 56 49 57 50 58 58 59 51 60 57 61 52 62 53 63 54 64
REMARK SMILES IDX 55 65 56 66 5 67 6 68 7 69 8 70 9 71 10 72 23 73 11 74 12 75
REMARK SMILES IDX 13 76 14 77 18 78 15 79 17 80 16 81 19 82 20 83 21 84 22 85
REMARK H PARENT 77 22 47 33
REMARK Flexibility Score: inf
ROOT
ATOM      1  C   UNL A   1      36.533  22.118  25.782  1.00  0.00     0.275 C 
ENDROOT
BRANCH   1   2
ATOM      2  O   UNL A   1      37.840  22.576  25.394  1.00  0.00    -0.458 OA
BRANCH   2   3
ATOM      3  C   UNL A   1      38.937  22.730  26.177  1.00  0.00     0.338 C 
ATOM      4  O   UNL A   1      39.543  21.739  26.574  1.00  0.00    -0.246 OA
BRANCH   3   5
ATOM      5  C   UNL A   1      39.309  24.056  26.751  1.00  0.00     0.060 A 
ATOM      6  C   UNL A   1      40.100  25.014  26.112  1.00  0.00     0.016 A 
ATOM      7  C   UNL A   1      38.878  24.316  28.065  1.00  0.00     0.016 A 
ATOM      8  C   UNL A   1      40.397  26.229  26.736  1.00  0.00     0.010 A 
ATOM      9  C   UNL A   1      39.196  25.520  28.703  1.00  0.00     0.010 A 
ATOM     10  C   UNL A   1      39.956  26.487  28.036  1.00  0.00    -0.014 A 
BRANCH  10  11
ATOM     11  C   UNL A   1      40.431  27.706  28.730  1.00  0.00     0.031 A 
ATOM     12  C   UNL A   1      41.821  27.713  29.302  1.00  0.00     0.074 A 
ATOM     13  C   UNL A   1      39.663  28.810  28.787  1.00  0.00     0.049 A 
ATOM     14  N   UNL A   1      42.465  28.686  29.887  1.00  0.00    -0.248 NA
ATOM     15  C   UNL A   1      42.594  26.466  29.171  1.00  0.00     0.031 C 
ATOM     16  C   UNL A   1      38.329  28.948  28.203  1.00  0.00     0.029 A 
ATOM     17  N   UNL A   1      39.895  30.029  29.374  1.00  0.00    -0.354 N 
ATOM     18  C   UNL A   1      43.740  28.194  30.136  1.00  0.00     0.074 A 
ATOM     19  C   UNL A   1      43.753  26.810  29.711  1.00  0.00     0.031 C 
ATOM     20  C   UNL A   1      37.835  30.160  28.512  1.00  0.00     0.029 A 
ATOM     21  C   UNL A   1      38.823  30.888  29.300  1.00  0.00     0.049 A 
ATOM     22  H   UNL A   1      40.746  30.265  29.806  1.00  0.00     0.167 HD
ATOM     23  C   UNL A   1      44.815  28.845  30.637  1.00  0.00     0.031 A 
ATOM     24  C   UNL A   1      38.659  32.118  29.825  1.00  0.00     0.031 A 
ATOM     25  C   UNL A   1      44.780  30.200  31.110  1.00  0.00     0.049 A 
ATOM     26  C   UNL A   1      39.806  32.753  30.563  1.00  0.00     0.074 A 
ATOM     27  C   UNL A   1      45.805  30.953  31.656  1.00  0.00     0.029 A 
ATOM     28  N   UNL A   1      43.649  31.002  31.110  1.00  0.00    -0.354 N 
ATOM     29  N   UNL A   1      41.011  32.279  30.769  1.00  0.00    -0.248 NA
ATOM     30  C   UNL A   1      39.577  34.094  31.117  1.00  0.00     0.031 C 
ATOM     31  C   UNL A   1      45.278  32.195  32.030  1.00  0.00     0.029 A 
ATOM     32  C   UNL A   1      43.939  32.232  31.671  1.00  0.00     0.049 A 
ATOM     33  H   UNL A   1      42.767  30.734  30.761  1.00  0.00     0.167 HD
ATOM     34  C   UNL A   1      41.702  33.286  31.434  1.00  0.00     0.074 A 
ATOM     35  C   UNL A   1      40.773  34.384  31.612  1.00  0.00     0.031 C 
ATOM     36  C   UNL A   1      42.996  33.308  31.838  1.00  0.00     0.031 A 
BRANCH  23  37
ATOM     37  C   UNL A   1      46.109  28.079  30.690  1.00  0.00    -0.014 A 
ATOM     38  C   UNL A   1      46.410  27.266  31.799  1.00  0.00     0.010 A 
ATOM     39  C   UNL A   1      47.035  28.177  29.638  1.00  0.00     0.010 A 
ATOM     40  C   UNL A   1      47.637  26.604  31.878  1.00  0.00     0.020 A 
ATOM     41  C   UNL A   1      48.256  27.499  29.705  1.00  0.00     0.020 A 
ATOM     42  C   UNL A   1      48.557  26.733  30.834  1.00  0.00     0.054 A 
BRANCH  42  43
ATOM     43  S   UNL A   1      50.150  25.875  30.968  1.00  0.00     0.124 S 
ATOM     44  O   UNL A   1      51.095  26.988  30.906  1.00  0.00    -0.237 OA
ATOM     45  O   UNL A   1      50.048  25.209  32.264  1.00  0.00    -0.237 OA
ATOM     46  O   UNL A   1      50.161  24.984  29.811  1.00  0.00    -0.744 OA
ENDBRANCH  42  43
ENDBRANCH  23  37
BRANCH  24  47
ATOM     47  C   UNL A   1      37.345  32.808  29.727  1.00  0.00    -0.014 A 
ATOM     48  C   UNL A   1      36.993  33.589  28.614  1.00  0.00     0.010 A 
ATOM     49  C   UNL A   1      36.443  32.703  30.798  1.00  0.00     0.010 A 
ATOM     50  C   UNL A   1      35.762  34.256  28.583  1.00  0.00     0.020 A 
ATOM     51  C   UNL A   1      35.204  33.345  30.762  1.00  0.00     0.020 A 
ATOM     52  C   UNL A   1      34.875  34.130  29.657  1.00  0.00     0.054 A 
BRANCH  52  53
ATOM     53  S   UNL A   1      33.270  34.974  29.593  1.00  0.00     0.124 S 
ATOM     54  O   UNL A   1      32.514  34.115  28.689  1.00  0.00    -0.237 OA
ATOM     55  O   UNL A   1      32.845  34.957  30.990  1.00  0.00    -0.237 OA
ATOM     56  O   UNL A   1      33.607  36.296  29.068  1.00  0.00    -0.744 OA
ENDBRANCH  52  53
ENDBRANCH  24  47
BRANCH  36  57
ATOM     57  C   UNL A   1      43.496  34.582  32.457  1.00  0.00    -0.014 A 
ATOM     58  C   UNL A   1      44.046  35.609  31.673  1.00  0.00     0.010 A 
ATOM     59  C   UNL A   1      43.367  34.765  33.845  1.00  0.00     0.010 A 
ATOM     60  C   UNL A   1      44.483  36.792  32.273  1.00  0.00     0.020 A 
ATOM     61  C   UNL A   1      43.780  35.955  34.444  1.00  0.00     0.020 A 
ATOM     62  C   UNL A   1      44.348  36.957  33.655  1.00  0.00     0.054 A 
BRANCH  62  63
ATOM     63  S   UNL A   1      44.875  38.521  34.408  1.00  0.00     0.124 S 
ATOM     64  O   UNL A   1      43.600  39.204  34.610  1.00  0.00    -0.237 OA
ATOM     65  O   UNL A   1      45.551  38.080  35.626  1.00  0.00    -0.237 OA
ATOM     66  O   UNL A   1      45.749  39.113  33.398  1.00  0.00    -0.744 OA
ENDBRANCH  62  63
ENDBRANCH  36  57
ENDBRANCH  10  11
ENDBRANCH   3   5
ENDBRANCH   2   3
ENDBRANCH   1   2
BRANCH   1  67
ATOM     67  C   UNL A   1      35.516  23.238  26.015  1.00  0.00     0.275 C 
BRANCH  67  68
ATOM     68  O   UNL A   1      34.470  22.869  26.922  1.00  0.00    -0.456 OA
BRANCH  68  69
ATOM     69  C   UNL A   1      33.237  22.702  26.340  1.00  0.00     0.380 C 
ATOM     70  O   UNL A   1      32.821  21.619  25.938  1.00  0.00    -0.242 OA
BRANCH  69  71
ATOM     71  C   UNL A   1      32.444  23.934  26.327  1.00  0.00     0.281 A 
ATOM     72  N   UNL A   1      31.392  24.095  27.151  1.00  0.00    -0.049 NA
ATOM     73  N   UNL A   1      32.695  25.033  25.518  1.00  0.00    -0.181 NA
ATOM     74  O   UNL A   1      30.934  25.373  26.856  1.00  0.00    -0.333 OA
ATOM     75  C   UNL A   1      31.734  25.858  25.864  1.00  0.00     0.259 A 
BRANCH  75  76
ATOM     76  C   UNL A   1      31.291  27.115  25.286  1.00  0.00     0.052 A 
ATOM     77  C   UNL A   1      30.492  27.090  24.129  1.00  0.00     0.014 A 
ATOM     78  C   UNL A   1      31.694  28.354  25.822  1.00  0.00     0.068 A 
ATOM     79  C   UNL A   1      30.108  28.271  23.498  1.00  0.00     0.001 A 
ATOM     80  C   UNL A   1      31.311  29.536  25.161  1.00  0.00     0.014 A 
ATOM     81  C   UNL A   1      30.537  29.493  24.000  1.00  0.00     0.001 A 
BRANCH  78  82
ATOM     82  C   UNL A   1      32.500  28.466  27.096  1.00  0.00     0.417 C 
ATOM     83  F   UNL A   1      32.952  29.733  27.320  1.00  0.00    -0.166 F 
ATOM     84  F   UNL A   1      31.784  28.118  28.199  1.00  0.00    -0.166 F 
ATOM     85  F   UNL A   1      33.624  27.696  27.118  1.00  0.00    -0.166 F 
ENDBRANCH  78  82
ENDBRANCH  75  76
ENDBRANCH  69  71
ENDBRANCH  68  69
ENDBRANCH  67  68
ENDBRANCH   1  67
TORSDOF 16
ENDMDL
