MODEL 1
REMARK VINA RESULT:     -11.0      0.000      0.000
REMARK SMILES Cc1c(Cl)cc2c(c1C)O[C@H](C(F)(F)F)C(C(=O)OCCOC(=O)c1ccc(-c3c4nc(c(-c5ccc(S(=O)(=O)[O-])cc5)c5ccc([nH]5)c(-c5ccc(S(=O)(=O)[O-])cc5)c5nc(c(-c6ccc(S(=O)(=O)[O-])cc6)c6ccc3[nH]6)C=C5)C=C4)cc1)=C2
REMARK SMILES IDX 21 1 20 2 19 3 17 4 18 5 16 6 1 7 2 8 3 9 8 10 4 11 5 12
REMARK SMILES IDX 7 13 9 14 6 15 10 16 85 17 11 18 12 19 13 20 14 21 15 22
REMARK SMILES IDX 22 23 23 24 24 25 25 26 26 27 84 28 27 29 83 30 28 31 29 32
REMARK SMILES IDX 30 33 77 34 31 35 82 36 76 37 78 38 32 39 81 40 75 41 74 42
REMARK SMILES IDX 33 44 63 45 44 46 62 47 45 48 48 49 61 50 79 51 46 52 47 53
REMARK SMILES IDX 60 55 80 56 49 57 34 58 35 59 43 60 36 61 42 62 37 63 38 64
REMARK SMILES IDX 39 65 40 66 41 67 64 68 65 69 73 70 66 71 72 72 67 73 68 74
REMARK SMILES IDX 69 75 70 76 71 77 50 78 51 79 59 80 52 81 58 82 53 83 54 84
REMARK SMILES IDX 55 85 56 86 57 87
REMARK H PARENT 78 43 48 54
REMARK Flexibility Score: inf
ROOT
ATOM      1  C   UNL A   1      33.523  28.950  25.425  1.00  0.00     0.275 C 
ENDROOT
BRANCH   1   2
ATOM      2  C   UNL A   1      32.301  28.062  25.188  1.00  0.00     0.275 C 
BRANCH   2   3
ATOM      3  O   UNL A   1      32.677  26.685  24.968  1.00  0.00    -0.459 OA
BRANCH   3   4
ATOM      4  C   UNL A   1      32.109  25.791  25.809  1.00  0.00     0.338 C 
ATOM      5  O   UNL A   1      31.124  25.978  26.507  1.00  0.00    -0.246 OA
BRANCH   4   6
ATOM      6  C   UNL A   1      32.832  24.507  25.783  1.00  0.00     0.087 C 
ATOM      7  C   UNL A   1      37.319  19.860  24.912  1.00  0.00     0.046 C 
ATOM      8  C   UNL A   1      36.480  21.057  25.283  1.00  0.00    -0.026 A 
ATOM      9  C   UNL A   1      37.079  22.249  25.735  1.00  0.00     0.045 A 
ATOM     10  C   UNL A   1      35.065  21.012  25.140  1.00  0.00    -0.004 A 
ATOM     11  Cl  UNL A   1      38.787  22.425  25.935  1.00  0.00    -0.084 Cl
ATOM     12  C   UNL A   1      36.301  23.369  26.024  1.00  0.00     0.032 A 
ATOM     13  C   UNL A   1      34.295  22.158  25.427  1.00  0.00     0.131 A 
ATOM     14  C   UNL A   1      34.340  19.777  24.666  1.00  0.00     0.049 C 
ATOM     15  C   UNL A   1      34.917  23.328  25.852  1.00  0.00     0.019 A 
ATOM     16  O   UNL A   1      32.934  22.065  25.281  1.00  0.00    -0.475 OA
ATOM     17  C   UNL A   1      34.138  24.528  26.061  1.00  0.00     0.027 C 
ATOM     18  C   UNL A   1      32.128  23.280  25.291  1.00  0.00     0.316 C 
BRANCH  18  19
ATOM     19  C   UNL A   1      31.535  23.495  23.889  1.00  0.00     0.430 C 
ATOM     20  F   UNL A   1      31.404  22.320  23.226  1.00  0.00    -0.167 F 
ATOM     21  F   UNL A   1      30.296  24.039  23.950  1.00  0.00    -0.167 F 
ATOM     22  F   UNL A   1      32.298  24.308  23.126  1.00  0.00    -0.167 F 
ENDBRANCH  18  19
ENDBRANCH   4   6
ENDBRANCH   3   4
ENDBRANCH   2   3
ENDBRANCH   1   2
BRANCH   1  23
ATOM     23  O   UNL A   1      34.048  28.756  26.751  1.00  0.00    -0.458 OA
BRANCH  23  24
ATOM     24  C   UNL A   1      34.279  29.896  27.440  1.00  0.00     0.338 C 
ATOM     25  O   UNL A   1      33.478  30.781  27.690  1.00  0.00    -0.246 OA
BRANCH  24  26
ATOM     26  C   UNL A   1      35.652  29.914  27.964  1.00  0.00     0.060 A 
ATOM     27  C   UNL A   1      36.685  30.173  27.074  1.00  0.00     0.016 A 
ATOM     28  C   UNL A   1      35.935  29.449  29.244  1.00  0.00     0.016 A 
ATOM     29  C   UNL A   1      37.982  29.782  27.385  1.00  0.00     0.010 A 
ATOM     30  C   UNL A   1      37.268  29.227  29.615  1.00  0.00     0.010 A 
ATOM     31  C   UNL A   1      38.307  29.333  28.671  1.00  0.00    -0.014 A 
BRANCH  31  32
ATOM     32  C   UNL A   1      39.716  28.973  29.012  1.00  0.00     0.031 A 
ATOM     33  C   UNL A   1      40.609  29.955  29.733  1.00  0.00     0.074 A 
ATOM     34  C   UNL A   1      40.199  27.750  28.696  1.00  0.00     0.049 A 
ATOM     35  N   UNL A   1      41.899  29.895  29.948  1.00  0.00    -0.248 NA
ATOM     36  C   UNL A   1      39.975  31.172  30.272  1.00  0.00     0.031 C 
ATOM     37  C   UNL A   1      39.437  26.672  28.056  1.00  0.00     0.029 A 
ATOM     38  N   UNL A   1      41.442  27.196  28.886  1.00  0.00    -0.354 N 
ATOM     39  C   UNL A   1      42.239  31.082  30.591  1.00  0.00     0.074 A 
ATOM     40  C   UNL A   1      41.022  31.852  30.720  1.00  0.00     0.031 C 
ATOM     41  C   UNL A   1      40.201  25.574  27.974  1.00  0.00     0.029 A 
ATOM     42  C   UNL A   1      41.544  25.902  28.431  1.00  0.00     0.049 A 
ATOM     43  H   UNL A   1      42.188  27.679  29.308  1.00  0.00     0.167 HD
ATOM     44  C   UNL A   1      43.453  31.490  31.035  1.00  0.00     0.031 A 
ATOM     45  C   UNL A   1      42.603  25.076  28.333  1.00  0.00     0.031 A 
ATOM     46  C   UNL A   1      44.652  30.698  30.936  1.00  0.00     0.049 A 
ATOM     47  C   UNL A   1      43.951  25.578  28.758  1.00  0.00     0.074 A 
ATOM     48  C   UNL A   1      45.933  31.021  31.350  1.00  0.00     0.029 A 
ATOM     49  N   UNL A   1      44.716  29.417  30.406  1.00  0.00    -0.354 N 
ATOM     50  N   UNL A   1      44.265  26.734  29.291  1.00  0.00    -0.248 NA
ATOM     51  C   UNL A   1      45.090  24.676  28.548  1.00  0.00     0.031 C 
ATOM     52  C   UNL A   1      46.781  29.960  31.019  1.00  0.00     0.029 A 
ATOM     53  C   UNL A   1      46.017  28.946  30.461  1.00  0.00     0.049 A 
ATOM     54  H   UNL A   1      43.949  28.919  30.043  1.00  0.00     0.167 HD
ATOM     55  C   UNL A   1      45.638  26.692  29.499  1.00  0.00     0.074 A 
ATOM     56  C   UNL A   1      46.089  25.389  29.050  1.00  0.00     0.031 C 
ATOM     57  C   UNL A   1      46.451  27.648  30.010  1.00  0.00     0.031 A 
BRANCH  44  58
ATOM     58  C   UNL A   1      43.562  32.869  31.639  1.00  0.00    -0.014 A 
ATOM     59  C   UNL A   1      43.450  33.077  33.025  1.00  0.00     0.010 A 
ATOM     60  C   UNL A   1      43.847  33.969  30.807  1.00  0.00     0.010 A 
ATOM     61  C   UNL A   1      43.589  34.361  33.562  1.00  0.00     0.020 A 
ATOM     62  C   UNL A   1      44.017  35.250  31.343  1.00  0.00     0.020 A 
ATOM     63  C   UNL A   1      43.873  35.440  32.718  1.00  0.00     0.054 A 
BRANCH  63  64
ATOM     64  S   UNL A   1      44.078  37.087  33.450  1.00  0.00     0.124 S 
ATOM     65  O   UNL A   1      45.415  36.995  34.032  1.00  0.00    -0.237 OA
ATOM     66  O   UNL A   1      43.957  37.968  32.291  1.00  0.00    -0.237 OA
ATOM     67  O   UNL A   1      42.986  37.178  34.416  1.00  0.00    -0.744 OA
ENDBRANCH  63  64
ENDBRANCH  44  58
BRANCH  45  68
ATOM     68  C   UNL A   1      42.428  23.709  27.764  1.00  0.00    -0.014 A 
ATOM     69  C   UNL A   1      42.708  23.459  26.410  1.00  0.00     0.010 A 
ATOM     70  C   UNL A   1      42.019  22.640  28.585  1.00  0.00     0.010 A 
ATOM     71  C   UNL A   1      42.584  22.167  25.889  1.00  0.00     0.020 A 
ATOM     72  C   UNL A   1      41.928  21.342  28.077  1.00  0.00     0.020 A 
ATOM     73  C   UNL A   1      42.203  21.115  26.728  1.00  0.00     0.054 A 
BRANCH  73  74
ATOM     74  S   UNL A   1      42.114  19.438  26.042  1.00  0.00     0.124 S 
ATOM     75  O   UNL A   1      42.638  18.632  27.139  1.00  0.00    -0.237 OA
ATOM     76  O   UNL A   1      40.687  19.286  25.770  1.00  0.00    -0.237 OA
ATOM     77  O   UNL A   1      42.964  19.507  24.855  1.00  0.00    -0.744 OA
ENDBRANCH  73  74
ENDBRANCH  45  68
BRANCH  57  78
ATOM     78  C   UNL A   1      47.911  27.314  30.146  1.00  0.00    -0.014 A 
ATOM     79  C   UNL A   1      48.815  27.564  29.099  1.00  0.00     0.010 A 
ATOM     80  C   UNL A   1      48.394  26.803  31.365  1.00  0.00     0.010 A 
ATOM     81  C   UNL A   1      50.174  27.287  29.261  1.00  0.00     0.020 A 
ATOM     82  C   UNL A   1      49.757  26.553  31.540  1.00  0.00     0.020 A 
ATOM     83  C   UNL A   1      50.636  26.788  30.483  1.00  0.00     0.054 A 
BRANCH  83  84
ATOM     84  S   UNL A   1      52.414  26.489  30.682  1.00  0.00     0.124 S 
ATOM     85  O   UNL A   1      52.862  27.723  31.320  1.00  0.00    -0.237 OA
ATOM     86  O   UNL A   1      52.442  25.298  31.529  1.00  0.00    -0.237 OA
ATOM     87  O   UNL A   1      52.888  26.287  29.315  1.00  0.00    -0.744 OA
ENDBRANCH  83  84
ENDBRANCH  57  78
ENDBRANCH  31  32
ENDBRANCH  24  26
ENDBRANCH  23  24
ENDBRANCH   1  23
TORSDOF 15
ENDMDL
MODEL 2
REMARK VINA RESULT:     -10.7      2.885      9.253
REMARK SMILES Cc1c(Cl)cc2c(c1C)O[C@H](C(F)(F)F)C(C(=O)OCCOC(=O)c1ccc(-c3c4nc(c(-c5ccc(S(=O)(=O)[O-])cc5)c5ccc([nH]5)c(-c5ccc(S(=O)(=O)[O-])cc5)c5nc(c(-c6ccc(S(=O)(=O)[O-])cc6)c6ccc3[nH]6)C=C5)C=C4)cc1)=C2
REMARK SMILES IDX 21 1 20 2 19 3 17 4 18 5 16 6 1 7 2 8 3 9 8 10 4 11 5 12
REMARK SMILES IDX 7 13 9 14 6 15 10 16 85 17 11 18 12 19 13 20 14 21 15 22
REMARK SMILES IDX 22 23 23 24 24 25 25 26 26 27 84 28 27 29 83 30 28 31 29 32
REMARK SMILES IDX 30 33 77 34 31 35 82 36 76 37 78 38 32 39 81 40 75 41 74 42
REMARK SMILES IDX 33 44 63 45 44 46 62 47 45 48 48 49 61 50 79 51 46 52 47 53
REMARK SMILES IDX 60 55 80 56 49 57 34 58 35 59 43 60 36 61 42 62 37 63 38 64
REMARK SMILES IDX 39 65 40 66 41 67 64 68 65 69 73 70 66 71 72 72 67 73 68 74
REMARK SMILES IDX 69 75 70 76 71 77 50 78 51 79 59 80 52 81 58 82 53 83 54 84
REMARK SMILES IDX 55 85 56 86 57 87
REMARK H PARENT 78 43 48 54
REMARK Flexibility Score: inf
ROOT
ATOM      1  C   UNL A   1      36.022  23.466  25.873  1.00  0.00     0.275 C 
ENDROOT
BRANCH   1   2
ATOM      2  C   UNL A   1      35.168  22.886  24.745  1.00  0.00     0.275 C 
BRANCH   2   3
ATOM      3  O   UNL A   1      33.901  23.569  24.632  1.00  0.00    -0.459 OA
BRANCH   3   4
ATOM      4  C   UNL A   1      33.689  24.200  23.455  1.00  0.00     0.338 C 
ATOM      5  O   UNL A   1      33.850  23.727  22.340  1.00  0.00    -0.246 OA
BRANCH   4   6
ATOM      6  C   UNL A   1      33.212  25.578  23.671  1.00  0.00     0.087 C 
ATOM      7  C   UNL A   1      31.616  31.309  26.335  1.00  0.00     0.046 C 
ATOM      8  C   UNL A   1      32.253  30.050  25.802  1.00  0.00    -0.026 A 
ATOM      9  C   UNL A   1      33.483  29.591  26.310  1.00  0.00     0.045 A 
ATOM     10  C   UNL A   1      31.594  29.282  24.802  1.00  0.00    -0.004 A 
ATOM     11  Cl  UNL A   1      34.368  30.432  27.534  1.00  0.00    -0.084 Cl
ATOM     12  C   UNL A   1      34.039  28.398  25.852  1.00  0.00     0.032 A 
ATOM     13  C   UNL A   1      32.167  28.072  24.358  1.00  0.00     0.131 A 
ATOM     14  C   UNL A   1      30.276  29.700  24.200  1.00  0.00     0.049 C 
ATOM     15  C   UNL A   1      33.374  27.634  24.893  1.00  0.00     0.019 A 
ATOM     16  O   UNL A   1      31.498  27.369  23.387  1.00  0.00    -0.475 OA
ATOM     17  C   UNL A   1      33.916  26.351  24.503  1.00  0.00     0.027 C 
ATOM     18  C   UNL A   1      31.893  25.996  23.097  1.00  0.00     0.316 C 
BRANCH  18  19
ATOM     19  C   UNL A   1      30.764  25.050  23.538  1.00  0.00     0.430 C 
ATOM     20  F   UNL A   1      30.717  23.944  22.756  1.00  0.00    -0.167 F 
ATOM     21  F   UNL A   1      30.947  24.612  24.807  1.00  0.00    -0.167 F 
ATOM     22  F   UNL A   1      29.548  25.637  23.483  1.00  0.00    -0.167 F 
ENDBRANCH  18  19
ENDBRANCH   4   6
ENDBRANCH   3   4
ENDBRANCH   2   3
ENDBRANCH   1   2
BRANCH   1  23
ATOM     23  O   UNL A   1      37.303  23.899  25.378  1.00  0.00    -0.458 OA
BRANCH  23  24
ATOM     24  C   UNL A   1      38.365  23.299  25.959  1.00  0.00     0.338 C 
ATOM     25  O   UNL A   1      38.706  22.133  25.846  1.00  0.00    -0.246 OA
BRANCH  24  26
ATOM     26  C   UNL A   1      39.166  24.277  26.707  1.00  0.00     0.060 A 
ATOM     27  C   UNL A   1      38.929  24.408  28.069  1.00  0.00     0.016 A 
ATOM     28  C   UNL A   1      39.957  25.211  26.045  1.00  0.00     0.016 A 
ATOM     29  C   UNL A   1      39.308  25.569  28.730  1.00  0.00     0.010 A 
ATOM     30  C   UNL A   1      40.490  26.291  26.763  1.00  0.00     0.010 A 
ATOM     31  C   UNL A   1      40.124  26.518  28.102  1.00  0.00    -0.014 A 
BRANCH  31  32
ATOM     32  C   UNL A   1      40.577  27.735  28.843  1.00  0.00     0.031 A 
ATOM     33  C   UNL A   1      41.971  27.810  29.419  1.00  0.00     0.074 A 
ATOM     34  C   UNL A   1      39.745  28.790  28.985  1.00  0.00     0.049 A 
ATOM     35  N   UNL A   1      42.478  28.694  30.242  1.00  0.00    -0.248 NA
ATOM     36  C   UNL A   1      42.918  26.749  29.034  1.00  0.00     0.031 C 
ATOM     37  C   UNL A   1      38.391  28.890  28.429  1.00  0.00     0.029 A 
ATOM     38  N   UNL A   1      39.918  29.993  29.625  1.00  0.00    -0.354 N 
ATOM     39  C   UNL A   1      43.774  28.267  30.516  1.00  0.00     0.074 A 
ATOM     40  C   UNL A   1      43.974  27.037  29.783  1.00  0.00     0.031 C 
ATOM     41  C   UNL A   1      37.890  30.105  28.688  1.00  0.00     0.029 A 
ATOM     42  C   UNL A   1      38.827  30.827  29.538  1.00  0.00     0.049 A 
ATOM     43  H   UNL A   1      40.745  30.237  30.099  1.00  0.00     0.167 HD
ATOM     44  C   UNL A   1      44.711  28.849  31.304  1.00  0.00     0.031 A 
ATOM     45  C   UNL A   1      38.569  32.015  30.117  1.00  0.00     0.031 A 
ATOM     46  C   UNL A   1      44.515  30.096  31.999  1.00  0.00     0.049 A 
ATOM     47  C   UNL A   1      39.589  32.602  31.047  1.00  0.00     0.074 A 
ATOM     48  C   UNL A   1      45.398  30.768  32.826  1.00  0.00     0.029 A 
ATOM     49  N   UNL A   1      43.365  30.869  31.931  1.00  0.00    -0.354 N 
ATOM     50  N   UNL A   1      40.778  32.143  31.355  1.00  0.00    -0.248 NA
ATOM     51  C   UNL A   1      39.226  33.852  31.724  1.00  0.00     0.031 C 
ATOM     52  C   UNL A   1      44.762  31.918  33.303  1.00  0.00     0.029 A 
ATOM     53  C   UNL A   1      43.508  31.999  32.719  1.00  0.00     0.049 A 
ATOM     54  H   UNL A   1      42.566  30.646  31.402  1.00  0.00     0.167 HD
ATOM     55  C   UNL A   1      41.315  33.060  32.249  1.00  0.00     0.074 A 
ATOM     56  C   UNL A   1      40.327  34.107  32.418  1.00  0.00     0.031 C 
ATOM     57  C   UNL A   1      42.515  33.033  32.877  1.00  0.00     0.031 A 
BRANCH  44  58
ATOM     58  C   UNL A   1      46.027  28.134  31.490  1.00  0.00    -0.014 A 
ATOM     59  C   UNL A   1      47.149  28.433  30.696  1.00  0.00     0.010 A 
ATOM     60  C   UNL A   1      46.160  27.187  32.525  1.00  0.00     0.010 A 
ATOM     61  C   UNL A   1      48.365  27.779  30.913  1.00  0.00     0.020 A 
ATOM     62  C   UNL A   1      47.383  26.552  32.764  1.00  0.00     0.020 A 
ATOM     63  C   UNL A   1      48.476  26.843  31.947  1.00  0.00     0.054 A 
BRANCH  63  64
ATOM     64  S   UNL A   1      50.077  26.035  32.221  1.00  0.00     0.124 S 
ATOM     65  O   UNL A   1      50.002  24.899  31.306  1.00  0.00    -0.237 OA
ATOM     66  O   UNL A   1      51.029  27.078  31.850  1.00  0.00    -0.237 OA
ATOM     67  O   UNL A   1      50.055  25.691  33.641  1.00  0.00    -0.744 OA
ENDBRANCH  63  64
ENDBRANCH  44  58
BRANCH  45  68
ATOM     68  C   UNL A   1      37.266  32.696  29.865  1.00  0.00    -0.014 A 
ATOM     69  C   UNL A   1      36.138  32.389  30.644  1.00  0.00     0.010 A 
ATOM     70  C   UNL A   1      37.159  33.686  28.868  1.00  0.00     0.010 A 
ATOM     71  C   UNL A   1      34.929  33.060  30.433  1.00  0.00     0.020 A 
ATOM     72  C   UNL A   1      35.963  34.383  28.679  1.00  0.00     0.020 A 
ATOM     73  C   UNL A   1      34.852  34.058  29.458  1.00  0.00     0.054 A 
BRANCH  73  74
ATOM     74  S   UNL A   1      33.290  34.958  29.250  1.00  0.00     0.124 S 
ATOM     75  O   UNL A   1      32.766  34.976  30.612  1.00  0.00    -0.237 OA
ATOM     76  O   UNL A   1      33.737  36.246  28.726  1.00  0.00    -0.237 OA
ATOM     77  O   UNL A   1      32.542  34.133  28.303  1.00  0.00    -0.744 OA
ENDBRANCH  73  74
ENDBRANCH  45  68
BRANCH  57  78
ATOM     78  C   UNL A   1      42.848  34.186  33.783  1.00  0.00    -0.014 A 
ATOM     79  C   UNL A   1      42.538  34.149  35.153  1.00  0.00     0.010 A 
ATOM     80  C   UNL A   1      43.541  35.297  33.265  1.00  0.00     0.010 A 
ATOM     81  C   UNL A   1      42.894  35.212  35.986  1.00  0.00     0.020 A 
ATOM     82  C   UNL A   1      43.925  36.348  34.100  1.00  0.00     0.020 A 
ATOM     83  C   UNL A   1      43.590  36.302  35.454  1.00  0.00     0.054 A 
BRANCH  83  84
ATOM     84  S   UNL A   1      44.087  37.643  36.569  1.00  0.00     0.124 S 
ATOM     85  O   UNL A   1      44.028  38.809  35.691  1.00  0.00    -0.237 OA
ATOM     86  O   UNL A   1      43.061  37.587  37.608  1.00  0.00    -0.237 OA
ATOM     87  O   UNL A   1      45.427  37.257  37.002  1.00  0.00    -0.744 OA
ENDBRANCH  83  84
ENDBRANCH  57  78
ENDBRANCH  31  32
ENDBRANCH  24  26
ENDBRANCH  23  24
ENDBRANCH   1  23
TORSDOF 15
ENDMDL
MODEL 3
REMARK VINA RESULT:     -10.5      4.639     10.306
REMARK SMILES Cc1c(Cl)cc2c(c1C)O[C@H](C(F)(F)F)C(C(=O)OCCOC(=O)c1ccc(-c3c4nc(c(-c5ccc(S(=O)(=O)[O-])cc5)c5ccc([nH]5)c(-c5ccc(S(=O)(=O)[O-])cc5)c5nc(c(-c6ccc(S(=O)(=O)[O-])cc6)c6ccc3[nH]6)C=C5)C=C4)cc1)=C2
REMARK SMILES IDX 21 1 20 2 19 3 17 4 18 5 16 6 1 7 2 8 3 9 8 10 4 11 5 12
REMARK SMILES IDX 7 13 9 14 6 15 10 16 85 17 11 18 12 19 13 20 14 21 15 22
REMARK SMILES IDX 22 23 23 24 24 25 25 26 26 27 84 28 27 29 83 30 28 31 29 32
REMARK SMILES IDX 30 33 77 34 31 35 82 36 76 37 78 38 32 39 81 40 75 41 74 42
REMARK SMILES IDX 33 44 63 45 44 46 62 47 45 48 48 49 61 50 79 51 46 52 47 53
REMARK SMILES IDX 60 55 80 56 49 57 34 58 35 59 43 60 36 61 42 62 37 63 38 64
REMARK SMILES IDX 39 65 40 66 41 67 64 68 65 69 73 70 66 71 72 72 67 73 68 74
REMARK SMILES IDX 69 75 70 76 71 77 50 78 51 79 59 80 52 81 58 82 53 83 54 84
REMARK SMILES IDX 55 85 56 86 57 87
REMARK H PARENT 78 43 48 54
REMARK Flexibility Score: inf
ROOT
ATOM      1  C   UNL A   1      39.302  22.320  26.331  1.00  0.00     0.275 C 
ENDROOT
BRANCH   1   2
ATOM      2  C   UNL A   1      38.151  21.597  25.631  1.00  0.00     0.275 C 
BRANCH   2   3
ATOM      3  O   UNL A   1      36.966  22.422  25.565  1.00  0.00    -0.459 OA
BRANCH   3   4
ATOM      4  C   UNL A   1      35.833  21.776  25.208  1.00  0.00     0.338 C 
ATOM      5  O   UNL A   1      35.714  20.576  25.013  1.00  0.00    -0.246 OA
BRANCH   4   6
ATOM      6  C   UNL A   1      34.706  22.716  25.084  1.00  0.00     0.087 C 
ATOM      7  C   UNL A   1      31.043  28.099  24.753  1.00  0.00     0.046 C 
ATOM      8  C   UNL A   1      32.022  26.962  24.596  1.00  0.00    -0.026 A 
ATOM      9  C   UNL A   1      33.228  27.136  23.892  1.00  0.00     0.045 A 
ATOM     10  C   UNL A   1      31.756  25.701  25.199  1.00  0.00    -0.004 A 
ATOM     11  Cl  UNL A   1      33.665  28.626  23.130  1.00  0.00    -0.084 Cl
ATOM     12  C   UNL A   1      34.152  26.097  23.797  1.00  0.00     0.032 A 
ATOM     13  C   UNL A   1      32.707  24.663  25.102  1.00  0.00     0.131 A 
ATOM     14  C   UNL A   1      30.488  25.424  25.968  1.00  0.00     0.049 C 
ATOM     15  C   UNL A   1      33.899  24.873  24.416  1.00  0.00     0.019 A 
ATOM     16  O   UNL A   1      32.404  23.462  25.693  1.00  0.00    -0.475 OA
ATOM     17  C   UNL A   1      34.912  23.841  24.392  1.00  0.00     0.027 C 
ATOM     18  C   UNL A   1      33.451  22.463  25.863  1.00  0.00     0.316 C 
BRANCH  18  19
ATOM     19  C   UNL A   1      33.745  22.302  27.364  1.00  0.00     0.430 C 
ATOM     20  F   UNL A   1      34.754  23.117  27.756  1.00  0.00    -0.167 F 
ATOM     21  F   UNL A   1      32.671  22.633  28.121  1.00  0.00    -0.167 F 
ATOM     22  F   UNL A   1      34.096  21.038  27.688  1.00  0.00    -0.167 F 
ENDBRANCH  18  19
ENDBRANCH   4   6
ENDBRANCH   3   4
ENDBRANCH   2   3
ENDBRANCH   1   2
BRANCH   1  23
ATOM     23  O   UNL A   1      39.103  23.745  26.310  1.00  0.00    -0.458 OA
BRANCH  23  24
ATOM     24  C   UNL A   1      40.215  24.475  26.547  1.00  0.00     0.338 C 
ATOM     25  O   UNL A   1      41.323  24.310  26.063  1.00  0.00    -0.246 OA
BRANCH  24  26
ATOM     26  C   UNL A   1      39.909  25.610  27.429  1.00  0.00     0.060 A 
ATOM     27  C   UNL A   1      40.520  26.827  27.159  1.00  0.00     0.016 A 
ATOM     28  C   UNL A   1      39.232  25.421  28.629  1.00  0.00     0.016 A 
ATOM     29  C   UNL A   1      40.630  27.784  28.160  1.00  0.00     0.010 A 
ATOM     30  C   UNL A   1      39.192  26.463  29.567  1.00  0.00     0.010 A 
ATOM     31  C   UNL A   1      39.941  27.638  29.371  1.00  0.00    -0.014 A 
BRANCH  31  32
ATOM     32  C   UNL A   1      40.018  28.703  30.417  1.00  0.00     0.031 A 
ATOM     33  C   UNL A   1      41.078  28.650  31.492  1.00  0.00     0.074 A 
ATOM     34  C   UNL A   1      39.147  29.737  30.397  1.00  0.00     0.049 A 
ATOM     35  N   UNL A   1      41.188  29.371  32.580  1.00  0.00    -0.248 NA
ATOM     36  C   UNL A   1      42.148  27.650  31.335  1.00  0.00     0.031 C 
ATOM     37  C   UNL A   1      38.108  29.958  29.385  1.00  0.00     0.029 A 
ATOM     38  N   UNL A   1      39.005  30.810  31.242  1.00  0.00    -0.354 N 
ATOM     39  C   UNL A   1      42.297  28.877  33.260  1.00  0.00     0.074 A 
ATOM     40  C   UNL A   1      42.820  27.784  32.470  1.00  0.00     0.031 C 
ATOM     41  C   UNL A   1      37.491  31.122  29.626  1.00  0.00     0.029 A 
ATOM     42  C   UNL A   1      37.994  31.669  30.878  1.00  0.00     0.049 A 
ATOM     43  H   UNL A   1      39.574  30.953  32.033  1.00  0.00     0.167 HD
ATOM     44  C   UNL A   1      42.831  29.297  34.433  1.00  0.00     0.031 A 
ATOM     45  C   UNL A   1      37.479  32.748  31.498  1.00  0.00     0.031 A 
ATOM     46  C   UNL A   1      42.325  30.412  35.192  1.00  0.00     0.049 A 
ATOM     47  C   UNL A   1      38.035  33.147  32.833  1.00  0.00     0.074 A 
ATOM     48  C   UNL A   1      42.790  30.916  36.394  1.00  0.00     0.029 A 
ATOM     49  N   UNL A   1      41.255  31.210  34.812  1.00  0.00    -0.354 N 
ATOM     50  N   UNL A   1      39.034  32.618  33.497  1.00  0.00    -0.248 NA
ATOM     51  C   UNL A   1      37.382  34.273  33.512  1.00  0.00     0.031 C 
ATOM     52  C   UNL A   1      41.967  31.982  36.769  1.00  0.00     0.029 A 
ATOM     53  C   UNL A   1      41.031  32.188  35.768  1.00  0.00     0.049 A 
ATOM     54  H   UNL A   1      40.732  31.097  33.986  1.00  0.00     0.167 HD
ATOM     55  C   UNL A   1      39.142  33.359  34.667  1.00  0.00     0.074 A 
ATOM     56  C   UNL A   1      38.118  34.383  34.609  1.00  0.00     0.031 C 
ATOM     57  C   UNL A   1      40.008  33.200  35.697  1.00  0.00     0.031 A 
BRANCH  44  58
ATOM     58  C   UNL A   1      44.005  28.533  34.994  1.00  0.00    -0.014 A 
ATOM     59  C   UNL A   1      45.331  28.927  34.740  1.00  0.00     0.010 A 
ATOM     60  C   UNL A   1      43.773  27.435  35.845  1.00  0.00     0.010 A 
ATOM     61  C   UNL A   1      46.400  28.220  35.299  1.00  0.00     0.020 A 
ATOM     62  C   UNL A   1      44.839  26.744  36.432  1.00  0.00     0.020 A 
ATOM     63  C   UNL A   1      46.147  27.134  36.144  1.00  0.00     0.054 A 
BRANCH  63  64
ATOM     64  S   UNL A   1      47.556  26.257  36.879  1.00  0.00     0.124 S 
ATOM     65  O   UNL A   1      47.079  26.004  38.237  1.00  0.00    -0.237 OA
ATOM     66  O   UNL A   1      47.678  25.078  36.027  1.00  0.00    -0.237 OA
ATOM     67  O   UNL A   1      48.654  27.214  36.776  1.00  0.00    -0.744 OA
ENDBRANCH  63  64
ENDBRANCH  44  58
BRANCH  45  68
ATOM     68  C   UNL A   1      36.344  33.489  30.877  1.00  0.00    -0.014 A 
ATOM     69  C   UNL A   1      35.175  33.749  31.611  1.00  0.00     0.010 A 
ATOM     70  C   UNL A   1      36.444  33.975  29.559  1.00  0.00     0.010 A 
ATOM     71  C   UNL A   1      34.128  34.481  31.040  1.00  0.00     0.020 A 
ATOM     72  C   UNL A   1      35.417  34.737  28.997  1.00  0.00     0.020 A 
ATOM     73  C   UNL A   1      34.260  34.978  29.739  1.00  0.00     0.054 A 
BRANCH  73  74
ATOM     74  S   UNL A   1      32.916  35.980  29.047  1.00  0.00     0.124 S 
ATOM     75  O   UNL A   1      32.192  36.388  30.247  1.00  0.00    -0.237 OA
ATOM     76  O   UNL A   1      33.640  37.041  28.353  1.00  0.00    -0.237 OA
ATOM     77  O   UNL A   1      32.205  35.047  28.176  1.00  0.00    -0.744 OA
ENDBRANCH  73  74
ENDBRANCH  45  68
BRANCH  57  78
ATOM     78  C   UNL A   1      39.913  34.177  36.836  1.00  0.00    -0.014 A 
ATOM     79  C   UNL A   1      40.368  35.500  36.700  1.00  0.00     0.010 A 
ATOM     80  C   UNL A   1      39.299  33.781  38.039  1.00  0.00     0.010 A 
ATOM     81  C   UNL A   1      40.231  36.404  37.756  1.00  0.00     0.020 A 
ATOM     82  C   UNL A   1      39.134  34.690  39.086  1.00  0.00     0.020 A 
ATOM     83  C   UNL A   1      39.610  35.993  38.940  1.00  0.00     0.054 A 
BRANCH  83  84
ATOM     84  S   UNL A   1      39.399  37.204  40.274  1.00  0.00     0.124 S 
ATOM     85  O   UNL A   1      38.898  38.370  39.552  1.00  0.00    -0.237 OA
ATOM     86  O   UNL A   1      38.432  36.545  41.150  1.00  0.00    -0.237 OA
ATOM     87  O   UNL A   1      40.741  37.345  40.832  1.00  0.00    -0.744 OA
ENDBRANCH  83  84
ENDBRANCH  57  78
ENDBRANCH  31  32
ENDBRANCH  24  26
ENDBRANCH  23  24
ENDBRANCH   1  23
TORSDOF 15
ENDMDL
