MODEL 1
REMARK VINA RESULT:     -10.7      0.000      0.000
REMARK SMILES C[NH2+][C@]1(C(=O)OCCOC(=O)c2ccc(-c3c4nc(c(-c5ccc(S(=O)(=O)[O-])cc5)c5ccc([nH]5)c(-c5ccc(S(=O)(=O)[O-])cc5)c5nc(c(-c6ccc(S(=O)(=O)[O-])cc6)c6ccc3[nH]6)C=C5)C=C4)cc2)CC[C@@H](OCCCc2ccccc2)C1
REMARK SMILES IDX 7 1 6 2 4 3 5 4 3 5 72 6 85 7 73 8 74 9 2 10 1 11 75 14
REMARK SMILES IDX 76 15 77 16 78 17 79 18 80 19 84 20 81 21 83 22 82 23 8 24
REMARK SMILES IDX 9 25 10 26 11 27 12 28 13 29 71 30 14 31 70 32 15 33 16 34
REMARK SMILES IDX 17 35 64 36 18 37 69 38 63 39 65 40 19 41 68 42 62 43 61 44
REMARK SMILES IDX 20 46 50 47 31 48 49 49 32 50 35 51 48 52 66 53 33 54 34 55
REMARK SMILES IDX 47 57 67 58 36 59 21 60 22 61 30 62 23 63 29 64 24 65 25 66
REMARK SMILES IDX 26 67 27 68 28 69 51 70 52 71 60 72 53 73 59 74 54 75 55 76
REMARK SMILES IDX 56 77 57 78 58 79 37 80 38 81 46 82 39 83 45 84 40 85 41 86
REMARK SMILES IDX 42 87 43 88 44 89
REMARK H PARENT 2 12 2 13 65 45 35 56
REMARK Flexibility Score: inf
ROOT
ATOM      1  C   UNL A   1      33.928  29.636  27.412  1.00  0.00     0.274 C 
ENDROOT
BRANCH   1   2
ATOM      2  O   UNL A   1      33.580  28.036  26.874  1.00  0.00    -0.457 OA
BRANCH   2   3
ATOM      3  C   UNL A   1      32.412  26.599  26.541  1.00  0.00     0.368 C 
ATOM      4  O   UNL A   1      31.197  26.530  26.924  1.00  0.00    -0.245 OA
BRANCH   3   5
ATOM      5  C   UNL A   1      32.687  25.258  25.464  1.00  0.00     0.196 C 
ATOM      6  C   UNL A   1      31.930  24.608  24.274  1.00  0.00     0.084 C 
ATOM      7  C   UNL A   1      34.004  25.776  24.772  1.00  0.00     0.113 C 
ATOM      8  C   UNL A   1      32.922  24.406  23.133  1.00  0.00     0.039 C 
ATOM      9  C   UNL A   1      33.885  25.570  23.272  1.00  0.00     0.125 C 
BRANCH   5  10
ATOM     10  N   UNL A   1      33.010  24.123  26.431  1.00  0.00    -0.334 N 
ATOM     11  C   UNL A   1      32.115  22.988  26.547  1.00  0.00     0.331 C 
ATOM     12  H   UNL A   1      33.920  23.753  26.157  1.00  0.00     0.347 HD
ATOM     13  H   UNL A   1      32.939  24.571  27.345  1.00  0.00     0.347 HD
ENDBRANCH   5  10
BRANCH   9  14
ATOM     14  O   UNL A   1      33.312  26.599  22.472  1.00  0.00    -0.378 OA
BRANCH  14  15
ATOM     15  C   UNL A   1      33.902  27.878  22.364  1.00  0.00     0.161 C 
BRANCH  15  16
ATOM     16  C   UNL A   1      32.796  28.923  22.527  1.00  0.00     0.033 C 
BRANCH  16  17
ATOM     17  C   UNL A   1      31.894  28.844  23.772  1.00  0.00     0.038 C 
BRANCH  17  18
ATOM     18  C   UNL A   1      30.394  28.743  23.615  1.00  0.00    -0.048 A 
ATOM     19  C   UNL A   1      29.370  30.183  23.263  1.00  0.00     0.004 A 
ATOM     20  C   UNL A   1      29.638  27.102  23.787  1.00  0.00     0.004 A 
ATOM     21  C   UNL A   1      27.573  30.037  23.127  1.00  0.00     0.000 A 
ATOM     22  C   UNL A   1      27.836  26.946  23.797  1.00  0.00     0.000 A 
ATOM     23  C   UNL A   1      26.781  28.417  23.459  1.00  0.00     0.000 A 
ENDBRANCH  17  18
ENDBRANCH  16  17
ENDBRANCH  15  16
ENDBRANCH  14  15
ENDBRANCH   9  14
ENDBRANCH   3   5
ENDBRANCH   2   3
ENDBRANCH   1   2
BRANCH   1  24
ATOM     24  C   UNL A   1      35.461  30.028  27.622  1.00  0.00     0.275 C 
BRANCH  24  25
ATOM     25  O   UNL A   1      36.392  28.961  28.017  1.00  0.00    -0.458 OA
BRANCH  25  26
ATOM     26  C   UNL A   1      37.396  29.294  28.879  1.00  0.00     0.338 C 
ATOM     27  O   UNL A   1      37.199  29.674  30.033  1.00  0.00    -0.246 OA
BRANCH  26  28
ATOM     28  C   UNL A   1      38.804  29.001  28.379  1.00  0.00     0.060 A 
ATOM     29  C   UNL A   1      39.889  28.702  29.213  1.00  0.00     0.016 A 
ATOM     30  C   UNL A   1      39.104  29.227  27.032  1.00  0.00     0.016 A 
ATOM     31  C   UNL A   1      41.221  28.810  28.780  1.00  0.00     0.010 A 
ATOM     32  C   UNL A   1      40.435  29.180  26.560  1.00  0.00     0.010 A 
ATOM     33  C   UNL A   1      41.523  29.002  27.433  1.00  0.00    -0.014 A 
BRANCH  33  34
ATOM     34  C   UNL A   1      42.928  28.954  26.908  1.00  0.00     0.031 A 
ATOM     35  C   UNL A   1      43.522  27.654  26.414  1.00  0.00     0.074 A 
ATOM     36  C   UNL A   1      43.721  30.047  26.955  1.00  0.00     0.049 A 
ATOM     37  N   UNL A   1      44.781  27.315  26.275  1.00  0.00    -0.248 NA
ATOM     38  C   UNL A   1      42.573  26.595  26.037  1.00  0.00     0.031 C 
ATOM     39  C   UNL A   1      43.298  31.403  27.314  1.00  0.00     0.029 A 
ATOM     40  N   UNL A   1      45.076  30.179  26.738  1.00  0.00    -0.354 N 
ATOM     41  C   UNL A   1      44.778  25.985  25.862  1.00  0.00     0.074 A 
ATOM     42  C   UNL A   1      43.389  25.586  25.758  1.00  0.00     0.031 C 
ATOM     43  C   UNL A   1      44.363  32.218  27.315  1.00  0.00     0.029 A 
ATOM     44  C   UNL A   1      45.559  31.429  27.059  1.00  0.00     0.049 A 
ATOM     45  H   UNL A   1      45.642  29.452  26.390  1.00  0.00     0.167 HD
ATOM     46  C   UNL A   1      45.835  25.170  25.612  1.00  0.00     0.031 A 
ATOM     47  C   UNL A   1      46.817  31.887  27.217  1.00  0.00     0.031 A 
ATOM     48  C   UNL A   1      47.216  25.582  25.699  1.00  0.00     0.049 A 
ATOM     49  C   UNL A   1      47.975  30.950  27.027  1.00  0.00     0.074 A 
ATOM     50  C   UNL A   1      48.357  24.833  25.461  1.00  0.00     0.029 A 
ATOM     51  N   UNL A   1      47.646  26.855  26.045  1.00  0.00    -0.354 N 
ATOM     52  N   UNL A   1      47.961  29.679  26.704  1.00  0.00    -0.248 NA
ATOM     53  C   UNL A   1      49.319  31.508  27.233  1.00  0.00     0.031 C 
ATOM     54  C   UNL A   1      49.473  25.634  25.716  1.00  0.00     0.029 A 
ATOM     55  C   UNL A   1      49.031  26.905  26.048  1.00  0.00     0.049 A 
ATOM     56  H   UNL A   1      47.054  27.613  26.256  1.00  0.00     0.167 HD
ATOM     57  C   UNL A   1      49.296  29.294  26.640  1.00  0.00     0.074 A 
ATOM     58  C   UNL A   1      50.088  30.467  26.945  1.00  0.00     0.031 C 
ATOM     59  C   UNL A   1      49.815  28.075  26.351  1.00  0.00     0.031 A 
BRANCH  46  60
ATOM     60  C   UNL A   1      45.553  23.724  25.279  1.00  0.00    -0.014 A 
ATOM     61  C   UNL A   1      45.378  23.288  23.954  1.00  0.00     0.010 A 
ATOM     62  C   UNL A   1      45.525  22.771  26.316  1.00  0.00     0.010 A 
ATOM     63  C   UNL A   1      45.137  21.938  23.677  1.00  0.00     0.020 A 
ATOM     64  C   UNL A   1      45.313  21.415  26.042  1.00  0.00     0.020 A 
ATOM     65  C   UNL A   1      45.102  21.010  24.724  1.00  0.00     0.054 A 
BRANCH  65  66
ATOM     66  S   UNL A   1      44.798  19.264  24.334  1.00  0.00     0.124 S 
ATOM     67  O   UNL A   1      46.050  18.640  24.752  1.00  0.00    -0.237 OA
ATOM     68  O   UNL A   1      43.634  18.948  25.160  1.00  0.00    -0.237 OA
ATOM     69  O   UNL A   1      44.554  19.266  22.894  1.00  0.00    -0.744 OA
ENDBRANCH  65  66
ENDBRANCH  46  60
BRANCH  47  70
ATOM     70  C   UNL A   1      47.041  33.299  27.641  1.00  0.00    -0.014 A 
ATOM     71  C   UNL A   1      47.179  34.317  26.684  1.00  0.00     0.010 A 
ATOM     72  C   UNL A   1      47.091  33.635  29.008  1.00  0.00     0.010 A 
ATOM     73  C   UNL A   1      47.371  35.643  27.084  1.00  0.00     0.020 A 
ATOM     74  C   UNL A   1      47.248  34.964  29.412  1.00  0.00     0.020 A 
ATOM     75  C   UNL A   1      47.397  35.960  28.445  1.00  0.00     0.054 A 
BRANCH  75  76
ATOM     76  S   UNL A   1      47.577  37.697  28.936  1.00  0.00     0.124 S 
ATOM     77  O   UNL A   1      46.198  38.072  29.236  1.00  0.00    -0.237 OA
ATOM     78  O   UNL A   1      48.474  37.609  30.086  1.00  0.00    -0.237 OA
ATOM     79  O   UNL A   1      48.155  38.330  27.753  1.00  0.00    -0.744 OA
ENDBRANCH  75  76
ENDBRANCH  47  70
BRANCH  59  80
ATOM     80  C   UNL A   1      51.316  27.957  26.300  1.00  0.00    -0.014 A 
ATOM     81  C   UNL A   1      52.060  27.542  27.418  1.00  0.00     0.010 A 
ATOM     82  C   UNL A   1      51.989  28.232  25.094  1.00  0.00     0.010 A 
ATOM     83  C   UNL A   1      53.452  27.437  27.341  1.00  0.00     0.020 A 
ATOM     84  C   UNL A   1      53.377  28.099  25.005  1.00  0.00     0.020 A 
ATOM     85  C   UNL A   1      54.102  27.717  26.134  1.00  0.00     0.054 A 
BRANCH  85  86
ATOM     86  S   UNL A   1      55.905  27.533  26.048  1.00  0.00     0.124 S 
ATOM     87  O   UNL A   1      56.360  28.910  26.224  1.00  0.00    -0.237 OA
ATOM     88  O   UNL A   1      56.189  26.631  27.162  1.00  0.00    -0.237 OA
ATOM     89  O   UNL A   1      56.134  26.965  24.721  1.00  0.00    -0.744 OA
ENDBRANCH  85  86
ENDBRANCH  59  80
ENDBRANCH  33  34
ENDBRANCH  26  28
ENDBRANCH  25  26
ENDBRANCH  24  25
ENDBRANCH   1  24
TORSDOF 20
ENDMDL
MODEL 2
REMARK VINA RESULT:     -10.5      6.039      8.022
REMARK SMILES C[NH2+][C@]1(C(=O)OCCOC(=O)c2ccc(-c3c4nc(c(-c5ccc(S(=O)(=O)[O-])cc5)c5ccc([nH]5)c(-c5ccc(S(=O)(=O)[O-])cc5)c5nc(c(-c6ccc(S(=O)(=O)[O-])cc6)c6ccc3[nH]6)C=C5)C=C4)cc2)CC[C@@H](OCCCc2ccccc2)C1
REMARK SMILES IDX 7 1 6 2 4 3 5 4 3 5 72 6 85 7 73 8 74 9 2 10 1 11 75 14
REMARK SMILES IDX 76 15 77 16 78 17 79 18 80 19 84 20 81 21 83 22 82 23 8 24
REMARK SMILES IDX 9 25 10 26 11 27 12 28 13 29 71 30 14 31 70 32 15 33 16 34
REMARK SMILES IDX 17 35 64 36 18 37 69 38 63 39 65 40 19 41 68 42 62 43 61 44
REMARK SMILES IDX 20 46 50 47 31 48 49 49 32 50 35 51 48 52 66 53 33 54 34 55
REMARK SMILES IDX 47 57 67 58 36 59 21 60 22 61 30 62 23 63 29 64 24 65 25 66
REMARK SMILES IDX 26 67 27 68 28 69 51 70 52 71 60 72 53 73 59 74 54 75 55 76
REMARK SMILES IDX 56 77 57 78 58 79 37 80 38 81 46 82 39 83 45 84 40 85 41 86
REMARK SMILES IDX 42 87 43 88 44 89
REMARK H PARENT 2 12 2 13 65 45 35 56
REMARK Flexibility Score: inf
ROOT
ATOM      1  C   UNL A   1      31.661  28.221  27.758  1.00  0.00     0.274 C 
ENDROOT
BRANCH   1   2
ATOM      2  O   UNL A   1      31.024  26.999  26.723  1.00  0.00    -0.457 OA
BRANCH   2   3
ATOM      3  C   UNL A   1      30.430  26.359  25.056  1.00  0.00     0.368 C 
ATOM      4  O   UNL A   1      29.248  25.958  24.796  1.00  0.00    -0.245 OA
BRANCH   3   5
ATOM      5  C   UNL A   1      31.289  26.437  23.542  1.00  0.00     0.196 C 
ATOM      6  C   UNL A   1      32.748  26.735  23.100  1.00  0.00     0.084 C 
ATOM      7  C   UNL A   1      31.108  24.940  23.089  1.00  0.00     0.113 C 
ATOM      8  C   UNL A   1      33.177  25.651  22.116  1.00  0.00     0.039 C 
ATOM      9  C   UNL A   1      32.441  24.411  22.590  1.00  0.00     0.125 C 
BRANCH   5  10
ATOM     10  N   UNL A   1      30.399  27.353  22.709  1.00  0.00    -0.334 N 
ATOM     11  C   UNL A   1      30.827  28.705  22.404  1.00  0.00     0.331 C 
ATOM     12  H   UNL A   1      30.249  26.884  21.815  1.00  0.00     0.347 HD
ATOM     13  H   UNL A   1      29.586  27.494  23.308  1.00  0.00     0.347 HD
ENDBRANCH   5  10
BRANCH   9  14
ATOM     14  O   UNL A   1      33.337  23.802  23.514  1.00  0.00    -0.378 OA
BRANCH  14  15
ATOM     15  C   UNL A   1      32.930  23.426  24.813  1.00  0.00     0.161 C 
BRANCH  15  16
ATOM     16  C   UNL A   1      33.851  24.124  25.816  1.00  0.00     0.033 C 
BRANCH  16  17
ATOM     17  C   UNL A   1      35.238  24.588  25.333  1.00  0.00     0.038 C 
BRANCH  17  18
ATOM     18  C   UNL A   1      36.430  23.667  25.457  1.00  0.00    -0.048 A 
ATOM     19  C   UNL A   1      36.437  22.011  24.747  1.00  0.00     0.004 A 
ATOM     20  C   UNL A   1      37.883  24.286  26.353  1.00  0.00     0.004 A 
ATOM     21  C   UNL A   1      37.860  20.916  24.954  1.00  0.00     0.000 A 
ATOM     22  C   UNL A   1      39.262  23.168  26.697  1.00  0.00     0.000 A 
ATOM     23  C   UNL A   1      39.268  21.466  25.992  1.00  0.00     0.000 A 
ENDBRANCH  17  18
ENDBRANCH  16  17
ENDBRANCH  15  16
ENDBRANCH  14  15
ENDBRANCH   9  14
ENDBRANCH   3   5
ENDBRANCH   2   3
ENDBRANCH   1   2
BRANCH   1  24
ATOM     24  C   UNL A   1      32.177  29.570  27.077  1.00  0.00     0.275 C 
BRANCH  24  25
ATOM     25  O   UNL A   1      33.623  29.716  26.860  1.00  0.00    -0.458 OA
BRANCH  25  26
ATOM     26  C   UNL A   1      34.272  30.672  27.587  1.00  0.00     0.338 C 
ATOM     27  O   UNL A   1      33.771  31.759  27.871  1.00  0.00    -0.246 OA
BRANCH  26  28
ATOM     28  C   UNL A   1      35.605  30.242  28.182  1.00  0.00     0.060 A 
ATOM     29  C   UNL A   1      35.754  29.675  29.453  1.00  0.00     0.016 A 
ATOM     30  C   UNL A   1      36.786  30.603  27.524  1.00  0.00     0.016 A 
ATOM     31  C   UNL A   1      36.990  29.640  30.120  1.00  0.00     0.010 A 
ATOM     32  C   UNL A   1      38.048  30.422  28.133  1.00  0.00     0.010 A 
ATOM     33  C   UNL A   1      38.172  29.966  29.458  1.00  0.00    -0.014 A 
BRANCH  33  34
ATOM     34  C   UNL A   1      39.523  29.781  30.082  1.00  0.00     0.031 A 
ATOM     35  C   UNL A   1      40.446  28.681  29.611  1.00  0.00     0.074 A 
ATOM     36  C   UNL A   1      39.904  30.531  31.141  1.00  0.00     0.049 A 
ATOM     37  N   UNL A   1      41.459  28.122  30.228  1.00  0.00    -0.248 NA
ATOM     38  C   UNL A   1      40.189  28.131  28.270  1.00  0.00     0.031 C 
ATOM     39  C   UNL A   1      39.188  31.692  31.676  1.00  0.00     0.029 A 
ATOM     40  N   UNL A   1      40.980  30.395  31.992  1.00  0.00    -0.354 N 
ATOM     41  C   UNL A   1      41.915  27.111  29.386  1.00  0.00     0.074 A 
ATOM     42  C   UNL A   1      41.076  27.147  28.205  1.00  0.00     0.031 C 
ATOM     43  C   UNL A   1      39.824  32.144  32.766  1.00  0.00     0.029 A 
ATOM     44  C   UNL A   1      40.931  31.250  33.071  1.00  0.00     0.049 A 
ATOM     45  H   UNL A   1      41.709  29.749  31.844  1.00  0.00     0.167 HD
ATOM     46  C   UNL A   1      42.924  26.227  29.588  1.00  0.00     0.031 A 
ATOM     47  C   UNL A   1      41.633  31.279  34.221  1.00  0.00     0.031 A 
ATOM     48  C   UNL A   1      43.767  26.211  30.760  1.00  0.00     0.049 A 
ATOM     49  C   UNL A   1      42.685  30.237  34.472  1.00  0.00     0.074 A 
ATOM     50  C   UNL A   1      44.819  25.359  31.055  1.00  0.00     0.029 A 
ATOM     51  N   UNL A   1      43.662  27.091  31.827  1.00  0.00    -0.354 N 
ATOM     52  N   UNL A   1      43.063  29.246  33.700  1.00  0.00    -0.248 NA
ATOM     53  C   UNL A   1      43.400  30.312  35.754  1.00  0.00     0.031 C 
ATOM     54  C   UNL A   1      45.311  25.687  32.322  1.00  0.00     0.029 A 
ATOM     55  C   UNL A   1      44.612  26.788  32.789  1.00  0.00     0.049 A 
ATOM     56  H   UNL A   1      43.008  27.825  31.891  1.00  0.00     0.167 HD
ATOM     57  C   UNL A   1      44.079  28.597  34.393  1.00  0.00     0.074 A 
ATOM     58  C   UNL A   1      44.266  29.314  35.637  1.00  0.00     0.031 C 
ATOM     59  C   UNL A   1      44.795  27.505  34.026  1.00  0.00     0.031 A 
BRANCH  46  60
ATOM     60  C   UNL A   1      43.145  25.151  28.550  1.00  0.00    -0.014 A 
ATOM     61  C   UNL A   1      44.045  25.323  27.483  1.00  0.00     0.010 A 
ATOM     62  C   UNL A   1      42.479  23.917  28.684  1.00  0.00     0.010 A 
ATOM     63  C   UNL A   1      44.240  24.300  26.548  1.00  0.00     0.020 A 
ATOM     64  C   UNL A   1      42.693  22.881  27.768  1.00  0.00     0.020 A 
ATOM     65  C   UNL A   1      43.559  23.087  26.695  1.00  0.00     0.054 A 
BRANCH  65  66
ATOM     66  S   UNL A   1      43.841  21.774  25.473  1.00  0.00     0.124 S 
ATOM     67  O   UNL A   1      42.925  20.734  25.932  1.00  0.00    -0.237 OA
ATOM     68  O   UNL A   1      43.475  22.422  24.216  1.00  0.00    -0.237 OA
ATOM     69  O   UNL A   1      45.261  21.462  25.619  1.00  0.00    -0.744 OA
ENDBRANCH  65  66
ENDBRANCH  46  60
BRANCH  47  70
ATOM     70  C   UNL A   1      41.312  32.301  35.258  1.00  0.00    -0.014 A 
ATOM     71  C   UNL A   1      41.900  33.576  35.208  1.00  0.00     0.010 A 
ATOM     72  C   UNL A   1      40.395  32.012  36.287  1.00  0.00     0.010 A 
ATOM     73  C   UNL A   1      41.584  34.540  36.169  1.00  0.00     0.020 A 
ATOM     74  C   UNL A   1      40.050  32.985  37.231  1.00  0.00     0.020 A 
ATOM     75  C   UNL A   1      40.656  34.241  37.171  1.00  0.00     0.054 A 
BRANCH  75  76
ATOM     76  S   UNL A   1      40.210  35.533  38.365  1.00  0.00     0.124 S 
ATOM     77  O   UNL A   1      41.447  35.681  39.127  1.00  0.00    -0.237 OA
ATOM     78  O   UNL A   1      39.862  36.656  37.499  1.00  0.00    -0.237 OA
ATOM     79  O   UNL A   1      39.089  34.949  39.098  1.00  0.00    -0.744 OA
ENDBRANCH  75  76
ENDBRANCH  47  70
BRANCH  59  80
ATOM     80  C   UNL A   1      45.885  27.047  34.959  1.00  0.00    -0.014 A 
ATOM     81  C   UNL A   1      47.115  27.723  35.041  1.00  0.00     0.010 A 
ATOM     82  C   UNL A   1      45.655  25.939  35.797  1.00  0.00     0.010 A 
ATOM     83  C   UNL A   1      48.108  27.279  35.920  1.00  0.00     0.020 A 
ATOM     84  C   UNL A   1      46.634  25.511  36.697  1.00  0.00     0.020 A 
ATOM     85  C   UNL A   1      47.861  26.174  36.742  1.00  0.00     0.054 A 
BRANCH  85  86
ATOM     86  S   UNL A   1      49.150  25.643  37.903  1.00  0.00     0.124 S 
ATOM     87  O   UNL A   1      48.898  24.207  38.000  1.00  0.00    -0.237 OA
ATOM     88  O   UNL A   1      50.380  26.019  37.211  1.00  0.00    -0.237 OA
ATOM     89  O   UNL A   1      48.864  26.409  39.114  1.00  0.00    -0.744 OA
ENDBRANCH  85  86
ENDBRANCH  59  80
ENDBRANCH  33  34
ENDBRANCH  26  28
ENDBRANCH  25  26
ENDBRANCH  24  25
ENDBRANCH   1  24
TORSDOF 20
ENDMDL
MODEL 3
REMARK VINA RESULT:     -10.4     11.100     18.125
REMARK SMILES C[NH2+][C@]1(C(=O)OCCOC(=O)c2ccc(-c3c4nc(c(-c5ccc(S(=O)(=O)[O-])cc5)c5ccc([nH]5)c(-c5ccc(S(=O)(=O)[O-])cc5)c5nc(c(-c6ccc(S(=O)(=O)[O-])cc6)c6ccc3[nH]6)C=C5)C=C4)cc2)CC[C@@H](OCCCc2ccccc2)C1
REMARK SMILES IDX 7 1 6 2 4 3 5 4 3 5 72 6 85 7 73 8 74 9 2 10 1 11 75 14
REMARK SMILES IDX 76 15 77 16 78 17 79 18 80 19 84 20 81 21 83 22 82 23 8 24
REMARK SMILES IDX 9 25 10 26 11 27 12 28 13 29 71 30 14 31 70 32 15 33 16 34
REMARK SMILES IDX 17 35 64 36 18 37 69 38 63 39 65 40 19 41 68 42 62 43 61 44
REMARK SMILES IDX 20 46 50 47 31 48 49 49 32 50 35 51 48 52 66 53 33 54 34 55
REMARK SMILES IDX 47 57 67 58 36 59 21 60 22 61 30 62 23 63 29 64 24 65 25 66
REMARK SMILES IDX 26 67 27 68 28 69 51 70 52 71 60 72 53 73 59 74 54 75 55 76
REMARK SMILES IDX 56 77 57 78 58 79 37 80 38 81 46 82 39 83 45 84 40 85 41 86
REMARK SMILES IDX 42 87 43 88 44 89
REMARK H PARENT 2 12 2 13 65 45 35 56
REMARK Flexibility Score: inf
ROOT
ATOM      1  C   UNL A   1      46.239  21.669  37.639  1.00  0.00     0.274 C 
ENDROOT
BRANCH   1   2
ATOM      2  O   UNL A   1      46.372  20.654  39.025  1.00  0.00    -0.457 OA
BRANCH   2   3
ATOM      3  C   UNL A   1      45.849  20.087  40.742  1.00  0.00     0.368 C 
ATOM      4  O   UNL A   1      44.965  20.651  41.469  1.00  0.00    -0.245 OA
BRANCH   3   5
ATOM      5  C   UNL A   1      46.274  18.588  41.521  1.00  0.00     0.196 C 
ATOM      6  C   UNL A   1      45.817  17.821  42.791  1.00  0.00     0.084 C 
ATOM      7  C   UNL A   1      45.859  17.597  40.370  1.00  0.00     0.113 C 
ATOM      8  C   UNL A   1      45.569  16.366  42.404  1.00  0.00     0.039 C 
ATOM      9  C   UNL A   1      45.072  16.446  40.972  1.00  0.00     0.125 C 
BRANCH   5  10
ATOM     10  N   UNL A   1      47.793  18.687  41.610  1.00  0.00    -0.334 N 
ATOM     11  C   UNL A   1      48.628  17.855  40.765  1.00  0.00     0.331 C 
ATOM     12  H   UNL A   1      48.037  19.655  41.402  1.00  0.00     0.347 HD
ATOM     13  H   UNL A   1      47.994  18.342  42.549  1.00  0.00     0.347 HD
ENDBRANCH   5  10
BRANCH   9  14
ATOM     14  O   UNL A   1      43.658  16.560  41.096  1.00  0.00    -0.378 OA
BRANCH  14  15
ATOM     15  C   UNL A   1      42.779  16.080  40.099  1.00  0.00     0.161 C 
BRANCH  15  16
ATOM     16  C   UNL A   1      42.281  14.700  40.533  1.00  0.00     0.033 C 
BRANCH  16  17
ATOM     17  C   UNL A   1      41.701  14.547  41.952  1.00  0.00     0.038 C 
BRANCH  17  18
ATOM     18  C   UNL A   1      42.200  13.445  42.858  1.00  0.00    -0.048 A 
ATOM     19  C   UNL A   1      43.536  13.709  44.039  1.00  0.00     0.004 A 
ATOM     20  C   UNL A   1      41.402  11.820  42.728  1.00  0.00     0.004 A 
ATOM     21  C   UNL A   1      44.142  12.359  45.076  1.00  0.00     0.000 A 
ATOM     22  C   UNL A   1      42.078  10.417  43.647  1.00  0.00     0.000 A 
ATOM     23  C   UNL A   1      43.456  10.674  44.841  1.00  0.00     0.000 A 
ENDBRANCH  17  18
ENDBRANCH  16  17
ENDBRANCH  15  16
ENDBRANCH  14  15
ENDBRANCH   9  14
ENDBRANCH   3   5
ENDBRANCH   2   3
ENDBRANCH   1   2
BRANCH   1  24
ATOM     24  C   UNL A   1      45.632  23.131  37.850  1.00  0.00     0.275 C 
BRANCH  24  25
ATOM     25  O   UNL A   1      46.573  24.258  37.918  1.00  0.00    -0.458 OA
BRANCH  25  26
ATOM     26  C   UNL A   1      46.213  25.330  38.681  1.00  0.00     0.338 C 
ATOM     27  O   UNL A   1      46.645  25.527  39.817  1.00  0.00    -0.246 OA
BRANCH  26  28
ATOM     28  C   UNL A   1      45.364  26.376  37.973  1.00  0.00     0.060 A 
ATOM     29  C   UNL A   1      43.972  26.305  37.843  1.00  0.00     0.016 A 
ATOM     30  C   UNL A   1      46.004  27.375  37.231  1.00  0.00     0.016 A 
ATOM     31  C   UNL A   1      43.267  27.054  36.887  1.00  0.00     0.010 A 
ATOM     32  C   UNL A   1      45.274  28.238  36.383  1.00  0.00     0.010 A 
ATOM     33  C   UNL A   1      43.893  28.073  36.170  1.00  0.00    -0.014 A 
BRANCH  33  34
ATOM     34  C   UNL A   1      43.140  29.002  35.266  1.00  0.00     0.031 A 
ATOM     35  C   UNL A   1      42.417  30.206  35.827  1.00  0.00     0.074 A 
ATOM     36  C   UNL A   1      43.011  28.732  33.948  1.00  0.00     0.049 A 
ATOM     37  N   UNL A   1      41.436  30.904  35.309  1.00  0.00    -0.248 NA
ATOM     38  C   UNL A   1      42.851  30.680  37.151  1.00  0.00     0.031 C 
ATOM     39  C   UNL A   1      43.707  27.671  33.215  1.00  0.00     0.029 A 
ATOM     40  N   UNL A   1      42.205  29.310  32.991  1.00  0.00    -0.354 N 
ATOM     41  C   UNL A   1      41.088  31.852  36.267  1.00  0.00     0.074 A 
ATOM     42  C   UNL A   1      41.977  31.649  37.393  1.00  0.00     0.031 C 
ATOM     43  C   UNL A   1      43.286  27.658  31.942  1.00  0.00     0.029 A 
ATOM     44  C   UNL A   1      42.219  28.636  31.789  1.00  0.00     0.049 A 
ATOM     45  H   UNL A   1      41.670  30.121  33.151  1.00  0.00     0.167 HD
ATOM     46  C   UNL A   1      40.107  32.790  36.220  1.00  0.00     0.031 A 
ATOM     47  C   UNL A   1      41.421  28.724  30.706  1.00  0.00     0.031 A 
ATOM     48  C   UNL A   1      39.239  32.998  35.086  1.00  0.00     0.049 A 
ATOM     49  C   UNL A   1      40.282  29.703  30.703  1.00  0.00     0.074 A 
ATOM     50  C   UNL A   1      38.220  33.926  34.939  1.00  0.00     0.029 A 
ATOM     51  N   UNL A   1      39.289  32.276  33.902  1.00  0.00    -0.354 N 
ATOM     52  N   UNL A   1      39.920  30.547  31.639  1.00  0.00    -0.248 NA
ATOM     53  C   UNL A   1      39.438  29.734  29.500  1.00  0.00     0.031 C 
ATOM     54  C   UNL A   1      37.618  33.727  33.692  1.00  0.00     0.029 A 
ATOM     55  C   UNL A   1      38.306  32.722  33.032  1.00  0.00     0.049 A 
ATOM     56  H   UNL A   1      39.929  31.555  33.708  1.00  0.00     0.167 HD
ATOM     57  C   UNL A   1      38.823  31.229  31.125  1.00  0.00     0.074 A 
ATOM     58  C   UNL A   1      38.589  30.710  29.794  1.00  0.00     0.031 C 
ATOM     59  C   UNL A   1      38.078  32.202  31.707  1.00  0.00     0.031 A 
BRANCH  46  60
ATOM     60  C   UNL A   1      39.869  33.632  37.451  1.00  0.00    -0.014 A 
ATOM     61  C   UNL A   1      40.488  34.882  37.628  1.00  0.00     0.010 A 
ATOM     62  C   UNL A   1      38.955  33.184  38.425  1.00  0.00     0.010 A 
ATOM     63  C   UNL A   1      40.231  35.645  38.771  1.00  0.00     0.020 A 
ATOM     64  C   UNL A   1      38.673  33.956  39.557  1.00  0.00     0.020 A 
ATOM     65  C   UNL A   1      39.328  35.175  39.731  1.00  0.00     0.054 A 
BRANCH  65  66
ATOM     66  S   UNL A   1      39.006  36.192  41.200  1.00  0.00     0.124 S 
ATOM     67  O   UNL A   1      38.663  37.480  40.605  1.00  0.00    -0.237 OA
ATOM     68  O   UNL A   1      37.902  35.485  41.845  1.00  0.00    -0.237 OA
ATOM     69  O   UNL A   1      40.272  36.162  41.929  1.00  0.00    -0.744 OA
ENDBRANCH  65  66
ENDBRANCH  46  60
BRANCH  47  70
ATOM     70  C   UNL A   1      41.637  27.804  29.552  1.00  0.00    -0.014 A 
ATOM     71  C   UNL A   1      42.586  28.111  28.564  1.00  0.00     0.010 A 
ATOM     72  C   UNL A   1      40.912  26.601  29.452  1.00  0.00     0.010 A 
ATOM     73  C   UNL A   1      42.801  27.239  27.493  1.00  0.00     0.020 A 
ATOM     74  C   UNL A   1      41.148  25.709  28.402  1.00  0.00     0.020 A 
ATOM     75  C   UNL A   1      42.086  26.040  27.422  1.00  0.00     0.054 A 
BRANCH  75  76
ATOM     76  S   UNL A   1      42.433  24.893  26.060  1.00  0.00     0.124 S 
ATOM     77  O   UNL A   1      41.234  24.060  26.050  1.00  0.00    -0.237 OA
ATOM     78  O   UNL A   1      42.588  25.794  24.920  1.00  0.00    -0.237 OA
ATOM     79  O   UNL A   1      43.660  24.220  26.483  1.00  0.00    -0.744 OA
ENDBRANCH  75  76
ENDBRANCH  47  70
BRANCH  59  80
ATOM     80  C   UNL A   1      36.970  32.808  30.887  1.00  0.00    -0.014 A 
ATOM     81  C   UNL A   1      37.216  33.841  29.967  1.00  0.00     0.010 A 
ATOM     82  C   UNL A   1      35.661  32.304  31.016  1.00  0.00     0.010 A 
ATOM     83  C   UNL A   1      36.169  34.382  29.215  1.00  0.00     0.020 A 
ATOM     84  C   UNL A   1      34.618  32.822  30.245  1.00  0.00     0.020 A 
ATOM     85  C   UNL A   1      34.875  33.869  29.359  1.00  0.00     0.054 A 
BRANCH  85  86
ATOM     86  S   UNL A   1      33.541  34.561  28.342  1.00  0.00     0.124 S 
ATOM     87  O   UNL A   1      32.989  33.364  27.711  1.00  0.00    -0.237 OA
ATOM     88  O   UNL A   1      32.682  35.202  29.333  1.00  0.00    -0.237 OA
ATOM     89  O   UNL A   1      34.233  35.478  27.439  1.00  0.00    -0.744 OA
ENDBRANCH  85  86
ENDBRANCH  59  80
ENDBRANCH  33  34
ENDBRANCH  26  28
ENDBRANCH  25  26
ENDBRANCH  24  25
ENDBRANCH   1  24
TORSDOF 20
ENDMDL
