MODEL 1
REMARK VINA RESULT:      -8.9      0.000      0.000
REMARK SMILES O=C(Nc1ccc(C(=O)OCCOC(=O)c2ccc(-c3c4nc(c(-c5ccc(S(=O)(=O)[O-])cc5)c5ccc([nH]5)c(-c5ccc(S(=O)(=O)[O-])cc5)c5nc(c(-c6ccc(S(=O)(=O)[O-])cc6)c6ccc3[nH]6)C=C5)C=C4)cc2)cc1)c1cc(F)cc(Br)c1
REMARK SMILES IDX 12 1 11 2 10 3 8 4 9 5 7 6 4 7 5 8 77 9 6 10 76 11 3 12 1 13
REMARK SMILES IDX 2 14 78 16 79 17 85 18 80 19 83 20 81 21 82 22 84 23 13 24
REMARK SMILES IDX 14 25 15 26 16 27 17 28 75 29 18 30 74 31 19 32 20 33 21 34
REMARK SMILES IDX 68 35 22 36 73 37 67 38 69 39 23 40 72 41 66 42 65 43 24 45
REMARK SMILES IDX 54 46 35 47 53 48 36 49 39 50 52 51 70 52 37 53 38 54 51 56
REMARK SMILES IDX 71 57 40 58 25 59 26 60 34 61 27 62 33 63 28 64 29 65 30 66
REMARK SMILES IDX 31 67 32 68 55 69 56 70 64 71 57 72 63 73 58 74 59 75 60 76
REMARK SMILES IDX 61 77 62 78 41 79 42 80 50 81 43 82 49 83 44 84 45 85 46 86
REMARK SMILES IDX 47 87 48 88
REMARK H PARENT 3 15 69 44 39 55
REMARK Flexibility Score: inf
ROOT
ATOM      1  C   UNL A   1      33.393  31.834  27.309  1.00  0.00     0.275 C 
ENDROOT
BRANCH   1   2
ATOM      2  C   UNL A   1      33.522  33.226  27.930  1.00  0.00     0.275 C 
BRANCH   2   3
ATOM      3  O   UNL A   1      34.172  33.172  29.218  1.00  0.00    -0.458 OA
BRANCH   3   4
ATOM      4  C   UNL A   1      35.511  33.382  29.195  1.00  0.00     0.338 C 
ATOM      5  O   UNL A   1      36.136  33.958  28.323  1.00  0.00    -0.246 OA
BRANCH   4   6
ATOM      6  C   UNL A   1      36.166  32.851  30.413  1.00  0.00     0.060 A 
ATOM      7  C   UNL A   1      37.109  32.176  32.953  1.00  0.00     0.041 A 
ATOM      8  C   UNL A   1      35.929  31.610  32.496  1.00  0.00     0.027 A 
ATOM      9  C   UNL A   1      37.896  32.948  32.085  1.00  0.00     0.027 A 
ATOM     10  C   UNL A   1      35.440  31.996  31.252  1.00  0.00     0.018 A 
ATOM     11  C   UNL A   1      37.428  33.286  30.810  1.00  0.00     0.018 A 
BRANCH   7  12
ATOM     12  N   UNL A   1      37.379  32.039  34.324  1.00  0.00    -0.322 N 
ATOM     13  O   UNL A   1      38.268  31.031  36.160  1.00  0.00    -0.269 OA
ATOM     14  C   UNL A   1      38.210  31.126  34.938  1.00  0.00     0.255 C 
ATOM     15  H   UNL A   1      36.920  32.674  34.920  1.00  0.00     0.170 HD
BRANCH  14  16
ATOM     16  C   UNL A   1      39.110  30.287  34.115  1.00  0.00     0.044 A 
ATOM     17  C   UNL A   1      38.608  29.261  33.304  1.00  0.00     0.053 A 
ATOM     18  C   UNL A   1      40.486  30.504  34.220  1.00  0.00     0.029 A 
ATOM     19  C   UNL A   1      39.502  28.402  32.678  1.00  0.00     0.125 A 
ATOM     20  C   UNL A   1      41.360  29.634  33.572  1.00  0.00     0.021 A 
ATOM     21  F   UNL A   1      39.035  27.373  31.961  1.00  0.00    -0.207 F 
ATOM     22  C   UNL A   1      40.875  28.570  32.813  1.00  0.00     0.055 A 
ATOM     23  Br  UNL A   1      43.225  29.875  33.762  1.00  0.00    -0.051 Br
ENDBRANCH  14  16
ENDBRANCH   7  12
ENDBRANCH   4   6
ENDBRANCH   3   4
ENDBRANCH   2   3
ENDBRANCH   1   2
BRANCH   1  24
ATOM     24  O   UNL A   1      33.769  30.804  28.243  1.00  0.00    -0.458 OA
BRANCH  24  25
ATOM     25  C   UNL A   1      34.495  29.798  27.711  1.00  0.00     0.338 C 
ATOM     26  O   UNL A   1      34.130  28.985  26.875  1.00  0.00    -0.246 OA
BRANCH  25  27
ATOM     27  C   UNL A   1      35.879  29.835  28.200  1.00  0.00     0.060 A 
ATOM     28  C   UNL A   1      36.868  30.221  27.307  1.00  0.00     0.016 A 
ATOM     29  C   UNL A   1      36.229  29.271  29.422  1.00  0.00     0.016 A 
ATOM     30  C   UNL A   1      38.193  29.872  27.537  1.00  0.00     0.010 A 
ATOM     31  C   UNL A   1      37.585  29.082  29.726  1.00  0.00     0.010 A 
ATOM     32  C   UNL A   1      38.584  29.324  28.764  1.00  0.00    -0.014 A 
BRANCH  32  33
ATOM     33  C   UNL A   1      40.020  29.003  29.024  1.00  0.00     0.031 A 
ATOM     34  C   UNL A   1      40.943  30.040  29.622  1.00  0.00     0.074 A 
ATOM     35  C   UNL A   1      40.506  27.776  28.733  1.00  0.00     0.049 A 
ATOM     36  N   UNL A   1      42.246  30.010  29.752  1.00  0.00    -0.248 NA
ATOM     37  C   UNL A   1      40.324  31.280  30.120  1.00  0.00     0.031 C 
ATOM     38  C   UNL A   1      39.727  26.654  28.202  1.00  0.00     0.029 A 
ATOM     39  N   UNL A   1      41.774  27.261  28.851  1.00  0.00    -0.354 N 
ATOM     40  C   UNL A   1      42.606  31.246  30.283  1.00  0.00     0.074 A 
ATOM     41  C   UNL A   1      41.386  32.006  30.439  1.00  0.00     0.031 C 
ATOM     42  C   UNL A   1      40.514  25.576  28.094  1.00  0.00     0.029 A 
ATOM     43  C   UNL A   1      41.880  25.956  28.426  1.00  0.00     0.049 A 
ATOM     44  H   UNL A   1      42.535  27.776  29.205  1.00  0.00     0.167 HD
ATOM     45  C   UNL A   1      43.842  31.705  30.605  1.00  0.00     0.031 A 
ATOM     46  C   UNL A   1      42.953  25.160  28.259  1.00  0.00     0.031 A 
ATOM     47  C   UNL A   1      45.048  30.928  30.474  1.00  0.00     0.049 A 
ATOM     48  C   UNL A   1      44.315  25.709  28.563  1.00  0.00     0.074 A 
ATOM     49  C   UNL A   1      46.345  31.294  30.790  1.00  0.00     0.029 A 
ATOM     50  N   UNL A   1      45.107  29.627  29.996  1.00  0.00    -0.354 N 
ATOM     51  N   UNL A   1      44.641  26.893  29.023  1.00  0.00    -0.248 NA
ATOM     52  C   UNL A   1      45.456  24.821  28.312  1.00  0.00     0.031 C 
ATOM     53  C   UNL A   1      47.194  30.237  30.442  1.00  0.00     0.029 A 
ATOM     54  C   UNL A   1      46.420  29.185  29.981  1.00  0.00     0.049 A 
ATOM     55  H   UNL A   1      44.329  29.096  29.708  1.00  0.00     0.167 HD
ATOM     56  C   UNL A   1      46.025  26.885  29.138  1.00  0.00     0.074 A 
ATOM     57  C   UNL A   1      46.471  25.572  28.717  1.00  0.00     0.031 C 
ATOM     58  C   UNL A   1      46.851  27.876  29.555  1.00  0.00     0.031 A 
BRANCH  45  59
ATOM     59  C   UNL A   1      43.958  33.135  31.080  1.00  0.00    -0.014 A 
ATOM     60  C   UNL A   1      43.716  33.497  32.417  1.00  0.00     0.010 A 
ATOM     61  C   UNL A   1      44.345  34.134  30.166  1.00  0.00     0.010 A 
ATOM     62  C   UNL A   1      43.806  34.835  32.816  1.00  0.00     0.020 A 
ATOM     63  C   UNL A   1      44.468  35.467  30.568  1.00  0.00     0.020 A 
ATOM     64  C   UNL A   1      44.176  35.813  31.888  1.00  0.00     0.054 A 
BRANCH  64  65
ATOM     65  S   UNL A   1      44.282  37.540  32.434  1.00  0.00     0.124 S 
ATOM     66  O   UNL A   1      43.226  37.603  33.441  1.00  0.00    -0.237 OA
ATOM     67  O   UNL A   1      45.646  37.629  32.950  1.00  0.00    -0.237 OA
ATOM     68  O   UNL A   1      44.027  38.307  31.216  1.00  0.00    -0.744 OA
ENDBRANCH  64  65
ENDBRANCH  45  59
BRANCH  46  69
ATOM     69  C   UNL A   1      42.774  23.777  27.734  1.00  0.00    -0.014 A 
ATOM     70  C   UNL A   1      42.500  22.710  28.605  1.00  0.00     0.010 A 
ATOM     71  C   UNL A   1      42.838  23.529  26.348  1.00  0.00     0.010 A 
ATOM     72  C   UNL A   1      42.297  21.420  28.102  1.00  0.00     0.020 A 
ATOM     73  C   UNL A   1      42.600  22.250  25.840  1.00  0.00     0.020 A 
ATOM     74  C   UNL A   1      42.339  21.202  26.722  1.00  0.00     0.054 A 
BRANCH  74  75
ATOM     75  S   UNL A   1      42.003  19.534  26.091  1.00  0.00     0.124 S 
ATOM     76  O   UNL A   1      42.828  19.494  24.887  1.00  0.00    -0.237 OA
ATOM     77  O   UNL A   1      42.449  18.686  27.193  1.00  0.00    -0.237 OA
ATOM     78  O   UNL A   1      40.560  19.538  25.862  1.00  0.00    -0.744 OA
ENDBRANCH  74  75
ENDBRANCH  46  69
BRANCH  58  79
ATOM     79  C   UNL A   1      48.322  27.564  29.622  1.00  0.00    -0.014 A 
ATOM     80  C   UNL A   1      49.176  27.823  28.534  1.00  0.00     0.010 A 
ATOM     81  C   UNL A   1      48.863  27.041  30.810  1.00  0.00     0.010 A 
ATOM     82  C   UNL A   1      50.541  27.533  28.625  1.00  0.00     0.020 A 
ATOM     83  C   UNL A   1      50.232  26.782  30.915  1.00  0.00     0.020 A 
ATOM     84  C   UNL A   1      51.059  27.017  29.817  1.00  0.00     0.054 A 
BRANCH  84  85
ATOM     85  S   UNL A   1      52.840  26.692  29.923  1.00  0.00     0.124 S 
ATOM     86  O   UNL A   1      53.136  26.179  28.589  1.00  0.00    -0.237 OA
ATOM     87  O   UNL A   1      53.387  28.012  30.226  1.00  0.00    -0.237 OA
ATOM     88  O   UNL A   1      52.950  25.716  31.004  1.00  0.00    -0.744 OA
ENDBRANCH  84  85
ENDBRANCH  58  79
ENDBRANCH  32  33
ENDBRANCH  25  27
ENDBRANCH  24  25
ENDBRANCH   1  24
TORSDOF 16
ENDMDL
MODEL 2
REMARK VINA RESULT:      -8.9      5.419     11.883
REMARK SMILES O=C(Nc1ccc(C(=O)OCCOC(=O)c2ccc(-c3c4nc(c(-c5ccc(S(=O)(=O)[O-])cc5)c5ccc([nH]5)c(-c5ccc(S(=O)(=O)[O-])cc5)c5nc(c(-c6ccc(S(=O)(=O)[O-])cc6)c6ccc3[nH]6)C=C5)C=C4)cc2)cc1)c1cc(F)cc(Br)c1
REMARK SMILES IDX 12 1 11 2 10 3 8 4 9 5 7 6 4 7 5 8 77 9 6 10 76 11 3 12 1 13
REMARK SMILES IDX 2 14 78 16 79 17 85 18 80 19 83 20 81 21 82 22 84 23 13 24
REMARK SMILES IDX 14 25 15 26 16 27 17 28 75 29 18 30 74 31 19 32 20 33 21 34
REMARK SMILES IDX 68 35 22 36 73 37 67 38 69 39 23 40 72 41 66 42 65 43 24 45
REMARK SMILES IDX 54 46 35 47 53 48 36 49 39 50 52 51 70 52 37 53 38 54 51 56
REMARK SMILES IDX 71 57 40 58 25 59 26 60 34 61 27 62 33 63 28 64 29 65 30 66
REMARK SMILES IDX 31 67 32 68 55 69 56 70 64 71 57 72 63 73 58 74 59 75 60 76
REMARK SMILES IDX 61 77 62 78 41 79 42 80 50 81 43 82 49 83 44 84 45 85 46 86
REMARK SMILES IDX 47 87 48 88
REMARK H PARENT 3 15 69 44 39 55
REMARK Flexibility Score: inf
ROOT
ATOM      1  C   UNL A   1      39.169  22.499  26.159  1.00  0.00     0.275 C 
ENDROOT
BRANCH   1   2
ATOM      2  C   UNL A   1      37.919  22.210  25.324  1.00  0.00     0.275 C 
BRANCH   2   3
ATOM      3  O   UNL A   1      37.292  23.428  24.872  1.00  0.00    -0.458 OA
BRANCH   3   4
ATOM      4  C   UNL A   1      36.432  23.281  23.834  1.00  0.00     0.338 C 
ATOM      5  O   UNL A   1      36.681  22.768  22.758  1.00  0.00    -0.246 OA
BRANCH   4   6
ATOM      6  C   UNL A   1      35.083  23.795  24.167  1.00  0.00     0.060 A 
ATOM      7  C   UNL A   1      32.469  24.313  25.001  1.00  0.00     0.041 A 
ATOM      8  C   UNL A   1      33.510  24.456  25.906  1.00  0.00     0.027 A 
ATOM      9  C   UNL A   1      32.749  24.071  23.648  1.00  0.00     0.027 A 
ATOM     10  C   UNL A   1      34.801  24.141  25.495  1.00  0.00     0.018 A 
ATOM     11  C   UNL A   1      34.058  23.814  23.225  1.00  0.00     0.018 A 
BRANCH   7  12
ATOM     12  N   UNL A   1      31.172  24.295  25.537  1.00  0.00    -0.322 N 
ATOM     13  O   UNL A   1      29.327  25.212  26.504  1.00  0.00    -0.269 OA
ATOM     14  C   UNL A   1      30.404  25.369  25.938  1.00  0.00     0.255 C 
ATOM     15  H   UNL A   1      30.759  23.408  25.638  1.00  0.00     0.170 HD
BRANCH  14  16
ATOM     16  C   UNL A   1      30.846  26.745  25.616  1.00  0.00     0.044 A 
ATOM     17  C   UNL A   1      31.485  27.545  26.571  1.00  0.00     0.053 A 
ATOM     18  C   UNL A   1      30.549  27.249  24.348  1.00  0.00     0.029 A 
ATOM     19  C   UNL A   1      31.735  28.878  26.272  1.00  0.00     0.125 A 
ATOM     20  C   UNL A   1      30.820  28.587  24.070  1.00  0.00     0.021 A 
ATOM     21  F   UNL A   1      32.276  29.673  27.203  1.00  0.00    -0.207 F 
ATOM     22  C   UNL A   1      31.398  29.412  25.033  1.00  0.00     0.055 A 
ATOM     23  Br  UNL A   1      30.359  29.300  22.382  1.00  0.00    -0.051 Br
ENDBRANCH  14  16
ENDBRANCH   7  12
ENDBRANCH   4   6
ENDBRANCH   3   4
ENDBRANCH   2   3
ENDBRANCH   1   2
BRANCH   1  24
ATOM     24  O   UNL A   1      39.058  23.758  26.850  1.00  0.00    -0.458 OA
BRANCH  24  25
ATOM     25  C   UNL A   1      40.100  24.596  26.664  1.00  0.00     0.338 C 
ATOM     26  O   UNL A   1      40.746  24.757  25.639  1.00  0.00    -0.246 OA
BRANCH  25  27
ATOM     27  C   UNL A   1      40.337  25.411  27.862  1.00  0.00     0.060 A 
ATOM     28  C   UNL A   1      39.300  25.530  28.776  1.00  0.00     0.016 A 
ATOM     29  C   UNL A   1      41.453  26.235  27.967  1.00  0.00     0.016 A 
ATOM     30  C   UNL A   1      39.276  26.590  29.673  1.00  0.00     0.010 A 
ATOM     31  C   UNL A   1      41.503  27.193  28.990  1.00  0.00     0.010 A 
ATOM     32  C   UNL A   1      40.390  27.426  29.821  1.00  0.00    -0.014 A 
BRANCH  32  33
ATOM     33  C   UNL A   1      40.377  28.530  30.827  1.00  0.00     0.031 A 
ATOM     34  C   UNL A   1      41.344  28.522  31.989  1.00  0.00     0.074 A 
ATOM     35  C   UNL A   1      39.503  29.553  30.703  1.00  0.00     0.049 A 
ATOM     36  N   UNL A   1      41.366  29.288  33.051  1.00  0.00    -0.248 NA
ATOM     37  C   UNL A   1      42.414  27.511  31.962  1.00  0.00     0.031 C 
ATOM     38  C   UNL A   1      38.544  29.727  29.608  1.00  0.00     0.029 A 
ATOM     39  N   UNL A   1      39.282  30.648  31.503  1.00  0.00    -0.354 N 
ATOM     40  C   UNL A   1      42.404  28.810  33.846  1.00  0.00     0.074 A 
ATOM     41  C   UNL A   1      42.980  27.681  33.149  1.00  0.00     0.031 C 
ATOM     42  C   UNL A   1      37.883  30.880  29.774  1.00  0.00     0.029 A 
ATOM     43  C   UNL A   1      38.275  31.468  31.046  1.00  0.00     0.049 A 
ATOM     44  H   UNL A   1      39.794  30.829  32.324  1.00  0.00     0.167 HD
ATOM     45  C   UNL A   1      42.834  29.267  35.049  1.00  0.00     0.031 A 
ATOM     46  C   UNL A   1      37.682  32.541  31.603  1.00  0.00     0.031 A 
ATOM     47  C   UNL A   1      42.273  30.411  35.721  1.00  0.00     0.049 A 
ATOM     48  C   UNL A   1      38.131  32.992  32.962  1.00  0.00     0.074 A 
ATOM     49  C   UNL A   1      42.647  30.967  36.933  1.00  0.00     0.029 A 
ATOM     50  N   UNL A   1      41.224  31.181  35.238  1.00  0.00    -0.354 N 
ATOM     51  N   UNL A   1      39.084  32.502  33.717  1.00  0.00    -0.248 NA
ATOM     52  C   UNL A   1      37.415  34.130  33.550  1.00  0.00     0.031 C 
ATOM     53  C   UNL A   1      41.784  32.032  37.211  1.00  0.00     0.029 A 
ATOM     54  C   UNL A   1      40.920  32.189  36.140  1.00  0.00     0.049 A 
ATOM     55  H   UNL A   1      40.763  31.032  34.381  1.00  0.00     0.167 HD
ATOM     56  C   UNL A   1      39.098  33.287  34.863  1.00  0.00     0.074 A 
ATOM     57  C   UNL A   1      38.071  34.296  34.690  1.00  0.00     0.031 C 
ATOM     58  C   UNL A   1      39.892  33.183  35.957  1.00  0.00     0.031 A 
BRANCH  45  59
ATOM     59  C   UNL A   1      43.931  28.494  35.744  1.00  0.00    -0.014 A 
ATOM     60  C   UNL A   1      45.292  28.761  35.510  1.00  0.00     0.010 A 
ATOM     61  C   UNL A   1      43.585  27.494  36.674  1.00  0.00     0.010 A 
ATOM     62  C   UNL A   1      46.282  28.007  36.150  1.00  0.00     0.020 A 
ATOM     63  C   UNL A   1      44.571  26.761  37.340  1.00  0.00     0.020 A 
ATOM     64  C   UNL A   1      45.915  27.008  37.056  1.00  0.00     0.054 A 
BRANCH  64  65
ATOM     65  S   UNL A   1      47.221  26.045  37.869  1.00  0.00     0.124 S 
ATOM     66  O   UNL A   1      46.471  24.912  38.404  1.00  0.00    -0.237 OA
ATOM     67  O   UNL A   1      48.124  25.734  36.764  1.00  0.00    -0.237 OA
ATOM     68  O   UNL A   1      47.760  26.963  38.871  1.00  0.00    -0.744 OA
ENDBRANCH  64  65
ENDBRANCH  45  59
BRANCH  46  69
ATOM     69  C   UNL A   1      36.567  33.224  30.890  1.00  0.00    -0.014 A 
ATOM     70  C   UNL A   1      35.282  33.276  31.453  1.00  0.00     0.010 A 
ATOM     71  C   UNL A   1      36.798  33.864  29.656  1.00  0.00     0.010 A 
ATOM     72  C   UNL A   1      34.247  33.951  30.796  1.00  0.00     0.020 A 
ATOM     73  C   UNL A   1      35.777  34.570  29.014  1.00  0.00     0.020 A 
ATOM     74  C   UNL A   1      34.505  34.601  29.586  1.00  0.00     0.054 A 
BRANCH  74  75
ATOM     75  S   UNL A   1      33.165  35.528  28.788  1.00  0.00     0.124 S 
ATOM     76  O   UNL A   1      33.902  36.515  28.006  1.00  0.00    -0.237 OA
ATOM     77  O   UNL A   1      32.481  34.492  28.018  1.00  0.00    -0.237 OA
ATOM     78  O   UNL A   1      32.401  36.064  29.913  1.00  0.00    -0.744 OA
ENDBRANCH  74  75
ENDBRANCH  46  69
BRANCH  58  79
ATOM     79  C   UNL A   1      39.711  34.215  37.039  1.00  0.00    -0.014 A 
ATOM     80  C   UNL A   1      38.992  33.928  38.213  1.00  0.00     0.010 A 
ATOM     81  C   UNL A   1      40.309  35.480  36.892  1.00  0.00     0.010 A 
ATOM     82  C   UNL A   1      38.849  34.901  39.207  1.00  0.00     0.020 A 
ATOM     83  C   UNL A   1      40.195  36.443  37.897  1.00  0.00     0.020 A 
ATOM     84  C   UNL A   1      39.453  36.151  39.043  1.00  0.00     0.054 A 
BRANCH  84  85
ATOM     85  S   UNL A   1      39.289  37.379  40.367  1.00  0.00     0.124 S 
ATOM     86  O   UNL A   1      40.667  37.831  40.535  1.00  0.00    -0.237 OA
ATOM     87  O   UNL A   1      38.373  38.356  39.783  1.00  0.00    -0.237 OA
ATOM     88  O   UNL A   1      38.744  36.614  41.484  1.00  0.00    -0.744 OA
ENDBRANCH  84  85
ENDBRANCH  58  79
ENDBRANCH  32  33
ENDBRANCH  25  27
ENDBRANCH  24  25
ENDBRANCH   1  24
TORSDOF 16
ENDMDL
MODEL 3
REMARK VINA RESULT:      -8.9      5.604     12.194
REMARK SMILES O=C(Nc1ccc(C(=O)OCCOC(=O)c2ccc(-c3c4nc(c(-c5ccc(S(=O)(=O)[O-])cc5)c5ccc([nH]5)c(-c5ccc(S(=O)(=O)[O-])cc5)c5nc(c(-c6ccc(S(=O)(=O)[O-])cc6)c6ccc3[nH]6)C=C5)C=C4)cc2)cc1)c1cc(F)cc(Br)c1
REMARK SMILES IDX 12 1 11 2 10 3 8 4 9 5 7 6 4 7 5 8 77 9 6 10 76 11 3 12 1 13
REMARK SMILES IDX 2 14 78 16 79 17 85 18 80 19 83 20 81 21 82 22 84 23 13 24
REMARK SMILES IDX 14 25 15 26 16 27 17 28 75 29 18 30 74 31 19 32 20 33 21 34
REMARK SMILES IDX 68 35 22 36 73 37 67 38 69 39 23 40 72 41 66 42 65 43 24 45
REMARK SMILES IDX 54 46 35 47 53 48 36 49 39 50 52 51 70 52 37 53 38 54 51 56
REMARK SMILES IDX 71 57 40 58 25 59 26 60 34 61 27 62 33 63 28 64 29 65 30 66
REMARK SMILES IDX 31 67 32 68 55 69 56 70 64 71 57 72 63 73 58 74 59 75 60 76
REMARK SMILES IDX 61 77 62 78 41 79 42 80 50 81 43 82 49 83 44 84 45 85 46 86
REMARK SMILES IDX 47 87 48 88
REMARK H PARENT 3 15 69 44 39 55
REMARK Flexibility Score: inf
ROOT
ATOM      1  C   UNL A   1      40.084  23.364  26.789  1.00  0.00     0.275 C 
ENDROOT
BRANCH   1   2
ATOM      2  C   UNL A   1      39.266  22.203  26.217  1.00  0.00     0.275 C 
BRANCH   2   3
ATOM      3  O   UNL A   1      37.923  22.614  25.889  1.00  0.00    -0.458 OA
BRANCH   3   4
ATOM      4  C   UNL A   1      37.130  21.638  25.381  1.00  0.00     0.338 C 
ATOM      5  O   UNL A   1      37.504  20.590  24.886  1.00  0.00    -0.246 OA
BRANCH   4   6
ATOM      6  C   UNL A   1      35.694  21.969  25.531  1.00  0.00     0.060 A 
ATOM      7  C   UNL A   1      33.020  22.338  26.243  1.00  0.00     0.041 A 
ATOM      8  C   UNL A   1      33.985  23.176  26.778  1.00  0.00     0.027 A 
ATOM      9  C   UNL A   1      33.368  21.427  25.235  1.00  0.00     0.027 A 
ATOM     10  C   UNL A   1      35.320  22.948  26.461  1.00  0.00     0.018 A 
ATOM     11  C   UNL A   1      34.707  21.241  24.873  1.00  0.00     0.018 A 
BRANCH   7  12
ATOM     12  N   UNL A   1      31.754  22.372  26.851  1.00  0.00    -0.322 N 
ATOM     13  O   UNL A   1      29.777  23.329  27.443  1.00  0.00    -0.269 OA
ATOM     14  C   UNL A   1      30.799  23.363  26.765  1.00  0.00     0.255 C 
ATOM     15  H   UNL A   1      31.520  21.593  27.404  1.00  0.00     0.170 HD
BRANCH  14  16
ATOM     16  C   UNL A   1      30.965  24.458  25.783  1.00  0.00     0.044 A 
ATOM     17  C   UNL A   1      30.969  24.205  24.406  1.00  0.00     0.053 A 
ATOM     18  C   UNL A   1      31.184  25.748  26.271  1.00  0.00     0.029 A 
ATOM     19  C   UNL A   1      31.288  25.238  23.534  1.00  0.00     0.125 A 
ATOM     20  C   UNL A   1      31.490  26.769  25.374  1.00  0.00     0.021 A 
ATOM     21  F   UNL A   1      31.370  24.992  22.221  1.00  0.00    -0.207 F 
ATOM     22  C   UNL A   1      31.561  26.517  24.005  1.00  0.00     0.055 A 
ATOM     23  Br  UNL A   1      31.858  28.504  26.027  1.00  0.00    -0.051 Br
ENDBRANCH  14  16
ENDBRANCH   7  12
ENDBRANCH   4   6
ENDBRANCH   3   4
ENDBRANCH   2   3
ENDBRANCH   1   2
BRANCH   1  24
ATOM     24  O   UNL A   1      39.278  24.548  26.943  1.00  0.00    -0.458 OA
BRANCH  24  25
ATOM     25  C   UNL A   1      39.936  25.708  26.733  1.00  0.00     0.338 C 
ATOM     26  O   UNL A   1      40.595  26.017  25.751  1.00  0.00    -0.246 OA
BRANCH  25  27
ATOM     27  C   UNL A   1      39.692  26.654  27.829  1.00  0.00     0.060 A 
ATOM     28  C   UNL A   1      40.186  27.943  27.690  1.00  0.00     0.016 A 
ATOM     29  C   UNL A   1      39.211  26.225  29.061  1.00  0.00     0.016 A 
ATOM     30  C   UNL A   1      40.385  28.741  28.809  1.00  0.00     0.010 A 
ATOM     31  C   UNL A   1      39.252  27.100  30.155  1.00  0.00     0.010 A 
ATOM     32  C   UNL A   1      39.895  28.350  30.061  1.00  0.00    -0.014 A 
BRANCH  32  33
ATOM     33  C   UNL A   1      40.064  29.239  31.250  1.00  0.00     0.031 A 
ATOM     34  C   UNL A   1      41.248  29.069  32.174  1.00  0.00     0.074 A 
ATOM     35  C   UNL A   1      39.160  30.210  31.506  1.00  0.00     0.049 A 
ATOM     36  N   UNL A   1      41.469  29.618  33.342  1.00  0.00    -0.248 NA
ATOM     37  C   UNL A   1      42.312  28.150  31.737  1.00  0.00     0.031 C 
ATOM     38  C   UNL A   1      37.994  30.531  30.677  1.00  0.00     0.029 A 
ATOM     39  N   UNL A   1      39.083  31.116  32.536  1.00  0.00    -0.354 N 
ATOM     40  C   UNL A   1      42.658  29.061  33.807  1.00  0.00     0.074 A 
ATOM     41  C   UNL A   1      43.104  28.125  32.800  1.00  0.00     0.031 C 
ATOM     42  C   UNL A   1      37.356  31.588  31.196  1.00  0.00     0.029 A 
ATOM     43  C   UNL A   1      37.987  31.945  32.458  1.00  0.00     0.049 A 
ATOM     44  H   UNL A   1      39.748  31.169  33.260  1.00  0.00     0.167 HD
ATOM     45  C   UNL A   1      43.314  29.306  34.969  1.00  0.00     0.031 A 
ATOM     46  C   UNL A   1      37.496  32.853  33.324  1.00  0.00     0.031 A 
ATOM     47  C   UNL A   1      42.878  30.265  35.953  1.00  0.00     0.049 A 
ATOM     48  C   UNL A   1      38.203  33.063  34.630  1.00  0.00     0.074 A 
ATOM     49  C   UNL A   1      43.479  30.601  37.153  1.00  0.00     0.029 A 
ATOM     50  N   UNL A   1      41.736  31.046  35.848  1.00  0.00    -0.354 N 
ATOM     51  N   UNL A   1      39.301  32.497  35.071  1.00  0.00    -0.248 NA
ATOM     52  C   UNL A   1      37.598  34.022  35.561  1.00  0.00     0.031 C 
ATOM     53  C   UNL A   1      42.668  31.538  37.802  1.00  0.00     0.029 A 
ATOM     54  C   UNL A   1      41.600  31.842  36.974  1.00  0.00     0.049 A 
ATOM     55  H   UNL A   1      41.112  31.035  35.086  1.00  0.00     0.167 HD
ATOM     56  C   UNL A   1      39.532  33.049  36.324  1.00  0.00     0.074 A 
ATOM     57  C   UNL A   1      38.469  34.006  36.561  1.00  0.00     0.031 C 
ATOM     58  C   UNL A   1      40.535  32.787  37.199  1.00  0.00     0.031 A 
BRANCH  45  59
ATOM     59  C   UNL A   1      44.547  28.485  35.267  1.00  0.00    -0.014 A 
ATOM     60  C   UNL A   1      44.474  27.245  35.928  1.00  0.00     0.010 A 
ATOM     61  C   UNL A   1      45.806  28.957  34.849  1.00  0.00     0.010 A 
ATOM     62  C   UNL A   1      45.638  26.524  36.213  1.00  0.00     0.020 A 
ATOM     63  C   UNL A   1      46.969  28.223  35.101  1.00  0.00     0.020 A 
ATOM     64  C   UNL A   1      46.879  27.020  35.803  1.00  0.00     0.054 A 
BRANCH  64  65
ATOM     65  S   UNL A   1      48.372  26.063  36.188  1.00  0.00     0.124 S 
ATOM     66  O   UNL A   1      48.472  25.182  35.027  1.00  0.00    -0.237 OA
ATOM     67  O   UNL A   1      49.400  27.098  36.280  1.00  0.00    -0.237 OA
ATOM     68  O   UNL A   1      48.045  25.399  37.448  1.00  0.00    -0.744 OA
ENDBRANCH  64  65
ENDBRANCH  45  59
BRANCH  46  69
ATOM     69  C   UNL A   1      36.244  33.589  32.993  1.00  0.00    -0.014 A 
ATOM     70  C   UNL A   1      34.990  32.982  33.166  1.00  0.00     0.010 A 
ATOM     71  C   UNL A   1      36.301  34.923  32.541  1.00  0.00     0.010 A 
ATOM     72  C   UNL A   1      33.815  33.691  32.889  1.00  0.00     0.020 A 
ATOM     73  C   UNL A   1      35.131  35.646  32.298  1.00  0.00     0.020 A 
ATOM     74  C   UNL A   1      33.895  35.021  32.466  1.00  0.00     0.054 A 
BRANCH  74  75
ATOM     75  S   UNL A   1      32.357  35.941  32.182  1.00  0.00     0.124 S 
ATOM     76  O   UNL A   1      31.345  34.981  32.611  1.00  0.00    -0.237 OA
ATOM     77  O   UNL A   1      32.527  37.109  33.042  1.00  0.00    -0.237 OA
ATOM     78  O   UNL A   1      32.386  36.223  30.748  1.00  0.00    -0.744 OA
ENDBRANCH  74  75
ENDBRANCH  46  69
BRANCH  58  79
ATOM     79  C   UNL A   1      40.556  33.580  38.478  1.00  0.00    -0.014 A 
ATOM     80  C   UNL A   1      41.162  34.848  38.545  1.00  0.00     0.010 A 
ATOM     81  C   UNL A   1      39.922  33.062  39.622  1.00  0.00     0.010 A 
ATOM     82  C   UNL A   1      41.159  35.569  39.743  1.00  0.00     0.020 A 
ATOM     83  C   UNL A   1      39.889  33.794  40.811  1.00  0.00     0.020 A 
ATOM     84  C   UNL A   1      40.521  35.037  40.867  1.00  0.00     0.054 A 
BRANCH  84  85
ATOM     85  S   UNL A   1      40.493  36.012  42.396  1.00  0.00     0.124 S 
ATOM     86  O   UNL A   1      40.482  34.971  43.420  1.00  0.00    -0.237 OA
ATOM     87  O   UNL A   1      41.727  36.789  42.301  1.00  0.00    -0.237 OA
ATOM     88  O   UNL A   1      39.263  36.792  42.288  1.00  0.00    -0.744 OA
ENDBRANCH  84  85
ENDBRANCH  58  79
ENDBRANCH  32  33
ENDBRANCH  25  27
ENDBRANCH  24  25
ENDBRANCH   1  24
TORSDOF 16
ENDMDL
