MODEL 1
REMARK VINA RESULT:     -11.9      0.000      0.000
REMARK SMILES Cc1ccc(-c2cc(Cl)cc3c2O[C@H](C(F)(F)F)C(C(=O)OCCOC(=O)c2ccc(-c4c5nc(c(-c6ccc(S(=O)(=O)[O-])cc6)c6ccc([nH]6)c(-c6ccc(S(=O)(=O)[O-])cc6)c6nc(c(-c7ccc(S(=O)(=O)[O-])cc7)c7ccc4[nH]7)C=C6)C=C5)cc2)=C3)cc1F
REMARK SMILES IDX 24 1 23 2 22 3 20 4 21 5 19 6 6 7 7 8 12 9 8 10 11 11 13 12
REMARK SMILES IDX 9 13 10 14 88 15 14 16 5 17 1 18 2 19 3 20 90 21 4 22 89 23
REMARK SMILES IDX 91 24 15 25 16 26 17 27 18 28 25 29 26 30 27 31 28 32 29 33
REMARK SMILES IDX 87 34 30 35 86 36 31 37 32 38 33 39 80 40 34 41 85 42 79 43
REMARK SMILES IDX 81 44 35 45 84 46 78 47 77 48 36 50 66 51 47 52 65 53 48 54
REMARK SMILES IDX 51 55 64 56 82 57 49 58 50 59 63 61 83 62 52 63 37 64 38 65
REMARK SMILES IDX 46 66 39 67 45 68 40 69 41 70 42 71 43 72 44 73 67 74 68 75
REMARK SMILES IDX 76 76 69 77 75 78 70 79 71 80 72 81 73 82 74 83 53 84 54 85
REMARK SMILES IDX 62 86 55 87 61 88 56 89 57 90 58 91 59 92 60 93
REMARK H PARENT 81 49 51 60
REMARK Flexibility Score: inf
ROOT
ATOM      1  C   UNL A   1      32.284  28.881  27.251  1.00  0.00     0.275 C 
ENDROOT
BRANCH   1   2
ATOM      2  C   UNL A   1      31.811  28.446  25.862  1.00  0.00     0.275 C 
BRANCH   2   3
ATOM      3  O   UNL A   1      31.903  27.014  25.694  1.00  0.00    -0.459 OA
BRANCH   3   4
ATOM      4  C   UNL A   1      32.650  26.592  24.647  1.00  0.00     0.338 C 
ATOM      5  O   UNL A   1      32.810  27.174  23.585  1.00  0.00    -0.246 OA
BRANCH   4   6
ATOM      6  C   UNL A   1      33.300  25.304  24.959  1.00  0.00     0.087 C 
ATOM      7  C   UNL A   1      35.236  21.610  25.426  1.00  0.00     0.026 A 
ATOM      8  C   UNL A   1      36.625  21.605  25.654  1.00  0.00     0.033 A 
ATOM      9  C   UNL A   1      34.569  22.848  25.332  1.00  0.00     0.135 A 
ATOM     10  C   UNL A   1      37.328  22.800  25.789  1.00  0.00     0.042 A 
ATOM     11  C   UNL A   1      35.291  24.037  25.424  1.00  0.00     0.019 A 
ATOM     12  O   UNL A   1      33.205  22.828  25.185  1.00  0.00    -0.475 OA
ATOM     13  Cl  UNL A   1      39.022  22.770  26.075  1.00  0.00    -0.084 Cl
ATOM     14  C   UNL A   1      36.667  24.016  25.672  1.00  0.00     0.032 A 
ATOM     15  C   UNL A   1      34.612  25.299  25.220  1.00  0.00     0.027 C 
ATOM     16  C   UNL A   1      32.496  24.045  24.834  1.00  0.00     0.316 C 
BRANCH   7  17
ATOM     17  C   UNL A   1      34.515  20.343  25.264  1.00  0.00    -0.012 A 
ATOM     18  C   UNL A   1      32.344  16.679  24.561  1.00  0.00     0.047 C 
ATOM     19  C   UNL A   1      33.091  17.945  24.840  1.00  0.00    -0.015 A 
ATOM     20  C   UNL A   1      32.498  19.004  25.532  1.00  0.00     0.007 A 
ATOM     21  C   UNL A   1      34.402  18.089  24.384  1.00  0.00     0.126 A 
ATOM     22  C   UNL A   1      33.204  20.191  25.743  1.00  0.00     0.009 A 
ATOM     23  C   UNL A   1      35.112  19.264  24.595  1.00  0.00     0.048 A 
ATOM     24  F   UNL A   1      34.991  17.087  23.715  1.00  0.00    -0.207 F 
ENDBRANCH   7  17
BRANCH  16  25
ATOM     25  C   UNL A   1      31.930  23.890  23.413  1.00  0.00     0.430 C 
ATOM     26  F   UNL A   1      31.605  22.601  23.149  1.00  0.00    -0.167 F 
ATOM     27  F   UNL A   1      30.798  24.614  23.242  1.00  0.00    -0.167 F 
ATOM     28  F   UNL A   1      32.812  24.286  22.467  1.00  0.00    -0.167 F 
ENDBRANCH  16  25
ENDBRANCH   4   6
ENDBRANCH   3   4
ENDBRANCH   2   3
ENDBRANCH   1   2
BRANCH   1  29
ATOM     29  O   UNL A   1      33.721  28.911  27.318  1.00  0.00    -0.458 OA
BRANCH  29  30
ATOM     30  C   UNL A   1      34.253  30.112  27.642  1.00  0.00     0.338 C 
ATOM     31  O   UNL A   1      33.688  31.192  27.660  1.00  0.00    -0.246 OA
BRANCH  30  32
ATOM     32  C   UNL A   1      35.625  29.925  28.128  1.00  0.00     0.060 A 
ATOM     33  C   UNL A   1      35.908  29.384  29.374  1.00  0.00     0.016 A 
ATOM     34  C   UNL A   1      36.654  30.156  27.226  1.00  0.00     0.016 A 
ATOM     35  C   UNL A   1      37.242  29.097  29.699  1.00  0.00     0.010 A 
ATOM     36  C   UNL A   1      37.940  29.702  27.478  1.00  0.00     0.010 A 
ATOM     37  C   UNL A   1      38.272  29.212  28.741  1.00  0.00    -0.014 A 
BRANCH  37  38
ATOM     38  C   UNL A   1      39.691  28.859  29.045  1.00  0.00     0.031 A 
ATOM     39  C   UNL A   1      40.575  29.809  29.827  1.00  0.00     0.074 A 
ATOM     40  C   UNL A   1      40.203  27.695  28.591  1.00  0.00     0.049 A 
ATOM     41  N   UNL A   1      41.826  29.661  30.186  1.00  0.00    -0.248 NA
ATOM     42  C   UNL A   1      40.005  31.109  30.228  1.00  0.00     0.031 C 
ATOM     43  C   UNL A   1      39.488  26.730  27.752  1.00  0.00     0.029 A 
ATOM     44  N   UNL A   1      41.430  27.109  28.790  1.00  0.00    -0.354 N 
ATOM     45  C   UNL A   1      42.183  30.842  30.829  1.00  0.00     0.074 A 
ATOM     46  C   UNL A   1      41.058  31.737  30.730  1.00  0.00     0.031 C 
ATOM     47  C   UNL A   1      40.246  25.635  27.593  1.00  0.00     0.029 A 
ATOM     48  C   UNL A   1      41.527  25.839  28.263  1.00  0.00     0.049 A 
ATOM     49  H   UNL A   1      42.170  27.553  29.263  1.00  0.00     0.167 HD
ATOM     50  C   UNL A   1      43.322  31.140  31.497  1.00  0.00     0.031 A 
ATOM     51  C   UNL A   1      42.520  24.928  28.327  1.00  0.00     0.031 A 
ATOM     52  C   UNL A   1      44.415  30.219  31.653  1.00  0.00     0.049 A 
ATOM     53  C   UNL A   1      43.768  25.266  29.095  1.00  0.00     0.074 A 
ATOM     54  C   UNL A   1      45.583  30.394  32.373  1.00  0.00     0.029 A 
ATOM     55  N   UNL A   1      44.466  28.948  31.103  1.00  0.00    -0.354 N 
ATOM     56  N   UNL A   1      44.051  26.362  29.759  1.00  0.00    -0.248 NA
ATOM     57  C   UNL A   1      44.828  24.248  29.136  1.00  0.00     0.031 C 
ATOM     58  C   UNL A   1      46.369  29.254  32.205  1.00  0.00     0.029 A 
ATOM     59  C   UNL A   1      45.657  28.335  31.450  1.00  0.00     0.049 A 
ATOM     60  H   UNL A   1      43.761  28.542  30.549  1.00  0.00     0.167 HD
ATOM     61  C   UNL A   1      45.308  26.157  30.315  1.00  0.00     0.074 A 
ATOM     62  C   UNL A   1      45.726  24.826  29.926  1.00  0.00     0.031 C 
ATOM     63  C   UNL A   1      46.051  27.000  31.072  1.00  0.00     0.031 A 
BRANCH  50  64
ATOM     64  C   UNL A   1      43.432  32.483  32.180  1.00  0.00    -0.014 A 
ATOM     65  C   UNL A   1      44.050  33.563  31.523  1.00  0.00     0.010 A 
ATOM     66  C   UNL A   1      43.044  32.638  33.524  1.00  0.00     0.010 A 
ATOM     67  C   UNL A   1      44.314  34.755  32.207  1.00  0.00     0.020 A 
ATOM     68  C   UNL A   1      43.272  33.840  34.200  1.00  0.00     0.020 A 
ATOM     69  C   UNL A   1      43.933  34.880  33.545  1.00  0.00     0.054 A 
BRANCH  69  70
ATOM     70  S   UNL A   1      44.331  36.412  34.432  1.00  0.00     0.124 S 
ATOM     71  O   UNL A   1      43.014  36.870  34.863  1.00  0.00    -0.237 OA
ATOM     72  O   UNL A   1      45.217  35.944  35.494  1.00  0.00    -0.237 OA
ATOM     73  O   UNL A   1      44.977  37.239  33.414  1.00  0.00    -0.744 OA
ENDBRANCH  69  70
ENDBRANCH  50  64
BRANCH  51  74
ATOM     74  C   UNL A   1      42.319  23.583  27.713  1.00  0.00    -0.014 A 
ATOM     75  C   UNL A   1      41.780  22.520  28.462  1.00  0.00     0.010 A 
ATOM     76  C   UNL A   1      42.756  23.333  26.399  1.00  0.00     0.010 A 
ATOM     77  C   UNL A   1      41.745  21.225  27.937  1.00  0.00     0.020 A 
ATOM     78  C   UNL A   1      42.690  22.045  25.857  1.00  0.00     0.020 A 
ATOM     79  C   UNL A   1      42.216  20.993  26.642  1.00  0.00     0.054 A 
BRANCH  79  80
ATOM     80  S   UNL A   1      42.223  19.293  26.010  1.00  0.00     0.124 S 
ATOM     81  O   UNL A   1      43.123  19.403  24.864  1.00  0.00    -0.237 OA
ATOM     82  O   UNL A   1      42.737  18.532  27.145  1.00  0.00    -0.237 OA
ATOM     83  O   UNL A   1      40.822  19.043  25.680  1.00  0.00    -0.744 OA
ENDBRANCH  79  80
ENDBRANCH  51  74
BRANCH  63  84
ATOM     84  C   UNL A   1      47.400  26.537  31.557  1.00  0.00    -0.014 A 
ATOM     85  C   UNL A   1      48.480  26.481  30.655  1.00  0.00     0.010 A 
ATOM     86  C   UNL A   1      47.547  25.985  32.840  1.00  0.00     0.010 A 
ATOM     87  C   UNL A   1      49.662  25.826  31.006  1.00  0.00     0.020 A 
ATOM     88  C   UNL A   1      48.741  25.359  33.207  1.00  0.00     0.020 A 
ATOM     89  C   UNL A   1      49.777  25.253  32.275  1.00  0.00     0.054 A 
BRANCH  89  90
ATOM     90  S   UNL A   1      51.287  24.335  32.682  1.00  0.00     0.124 S 
ATOM     91  O   UNL A   1      52.326  25.177  32.098  1.00  0.00    -0.237 OA
ATOM     92  O   UNL A   1      51.253  24.296  34.142  1.00  0.00    -0.237 OA
ATOM     93  O   UNL A   1      51.090  23.043  32.028  1.00  0.00    -0.744 OA
ENDBRANCH  89  90
ENDBRANCH  63  84
ENDBRANCH  37  38
ENDBRANCH  30  32
ENDBRANCH  29  30
ENDBRANCH   1  29
TORSDOF 16
ENDMDL
MODEL 2
REMARK VINA RESULT:     -11.8      1.398      8.112
REMARK SMILES Cc1ccc(-c2cc(Cl)cc3c2O[C@H](C(F)(F)F)C(C(=O)OCCOC(=O)c2ccc(-c4c5nc(c(-c6ccc(S(=O)(=O)[O-])cc6)c6ccc([nH]6)c(-c6ccc(S(=O)(=O)[O-])cc6)c6nc(c(-c7ccc(S(=O)(=O)[O-])cc7)c7ccc4[nH]7)C=C6)C=C5)cc2)=C3)cc1F
REMARK SMILES IDX 24 1 23 2 22 3 20 4 21 5 19 6 6 7 7 8 12 9 8 10 11 11 13 12
REMARK SMILES IDX 9 13 10 14 88 15 14 16 5 17 1 18 2 19 3 20 90 21 4 22 89 23
REMARK SMILES IDX 91 24 15 25 16 26 17 27 18 28 25 29 26 30 27 31 28 32 29 33
REMARK SMILES IDX 87 34 30 35 86 36 31 37 32 38 33 39 80 40 34 41 85 42 79 43
REMARK SMILES IDX 81 44 35 45 84 46 78 47 77 48 36 50 66 51 47 52 65 53 48 54
REMARK SMILES IDX 51 55 64 56 82 57 49 58 50 59 63 61 83 62 52 63 37 64 38 65
REMARK SMILES IDX 46 66 39 67 45 68 40 69 41 70 42 71 43 72 44 73 67 74 68 75
REMARK SMILES IDX 76 76 69 77 75 78 70 79 71 80 72 81 73 82 74 83 53 84 54 85
REMARK SMILES IDX 62 86 55 87 61 88 56 89 57 90 58 91 59 92 60 93
REMARK H PARENT 81 49 51 60
REMARK Flexibility Score: inf
ROOT
ATOM      1  C   UNL A   1      32.644  28.834  26.980  1.00  0.00     0.275 C 
ENDROOT
BRANCH   1   2
ATOM      2  C   UNL A   1      32.107  27.403  26.910  1.00  0.00     0.275 C 
BRANCH   2   3
ATOM      3  O   UNL A   1      31.786  27.021  25.554  1.00  0.00    -0.459 OA
BRANCH   3   4
ATOM      4  C   UNL A   1      32.844  26.844  24.728  1.00  0.00     0.338 C 
ATOM      5  O   UNL A   1      33.283  27.653  23.925  1.00  0.00    -0.246 OA
BRANCH   4   6
ATOM      6  C   UNL A   1      33.449  25.513  24.937  1.00  0.00     0.087 C 
ATOM      7  C   UNL A   1      35.284  21.745  25.117  1.00  0.00     0.026 A 
ATOM      8  C   UNL A   1      36.653  21.680  25.439  1.00  0.00     0.033 A 
ATOM      9  C   UNL A   1      34.646  23.001  25.117  1.00  0.00     0.135 A 
ATOM     10  C   UNL A   1      37.364  22.835  25.756  1.00  0.00     0.042 A 
ATOM     11  C   UNL A   1      35.379  24.154  25.393  1.00  0.00     0.019 A 
ATOM     12  O   UNL A   1      33.296  23.031  24.875  1.00  0.00    -0.475 OA
ATOM     13  Cl  UNL A   1      39.033  22.731  26.155  1.00  0.00    -0.084 Cl
ATOM     14  C   UNL A   1      36.734  24.072  25.733  1.00  0.00     0.032 A 
ATOM     15  C   UNL A   1      34.738  25.447  25.286  1.00  0.00     0.027 C 
ATOM     16  C   UNL A   1      32.635  24.297  24.615  1.00  0.00     0.316 C 
BRANCH   7  17
ATOM     17  C   UNL A   1      34.555  20.521  24.762  1.00  0.00    -0.012 A 
ATOM     18  C   UNL A   1      32.523  16.927  23.509  1.00  0.00     0.047 C 
ATOM     19  C   UNL A   1      33.201  18.178  23.967  1.00  0.00    -0.015 A 
ATOM     20  C   UNL A   1      32.554  19.417  23.922  1.00  0.00     0.007 A 
ATOM     21  C   UNL A   1      34.516  18.122  24.431  1.00  0.00     0.126 A 
ATOM     22  C   UNL A   1      33.225  20.577  24.318  1.00  0.00     0.009 A 
ATOM     23  C   UNL A   1      35.187  19.271  24.831  1.00  0.00     0.048 A 
ATOM     24  F   UNL A   1      35.157  16.946  24.481  1.00  0.00    -0.207 F 
ENDBRANCH   7  17
BRANCH  16  25
ATOM     25  C   UNL A   1      32.169  24.316  23.150  1.00  0.00     0.430 C 
ATOM     26  F   UNL A   1      31.868  23.069  22.712  1.00  0.00    -0.167 F 
ATOM     27  F   UNL A   1      31.050  25.060  22.988  1.00  0.00    -0.167 F 
ATOM     28  F   UNL A   1      33.115  24.816  22.321  1.00  0.00    -0.167 F 
ENDBRANCH  16  25
ENDBRANCH   4   6
ENDBRANCH   3   4
ENDBRANCH   2   3
ENDBRANCH   1   2
BRANCH   1  29
ATOM     29  O   UNL A   1      34.033  28.844  27.357  1.00  0.00    -0.458 OA
BRANCH  29  30
ATOM     30  C   UNL A   1      34.497  30.035  27.799  1.00  0.00     0.338 C 
ATOM     31  O   UNL A   1      33.863  31.062  27.965  1.00  0.00    -0.246 OA
BRANCH  30  32
ATOM     32  C   UNL A   1      35.900  29.893  28.209  1.00  0.00     0.060 A 
ATOM     33  C   UNL A   1      36.268  29.404  29.454  1.00  0.00     0.016 A 
ATOM     34  C   UNL A   1      36.868  30.109  27.238  1.00  0.00     0.016 A 
ATOM     35  C   UNL A   1      37.624  29.155  29.709  1.00  0.00     0.010 A 
ATOM     36  C   UNL A   1      38.176  29.690  27.429  1.00  0.00     0.010 A 
ATOM     37  C   UNL A   1      38.593  29.254  28.687  1.00  0.00    -0.014 A 
BRANCH  37  38
ATOM     38  C   UNL A   1      40.034  28.940  28.919  1.00  0.00     0.031 A 
ATOM     39  C   UNL A   1      40.596  27.578  28.567  1.00  0.00     0.074 A 
ATOM     40  C   UNL A   1      40.840  29.869  29.478  1.00  0.00     0.049 A 
ATOM     41  N   UNL A   1      41.823  27.136  28.695  1.00  0.00    -0.248 NA
ATOM     42  C   UNL A   1      39.664  26.562  28.042  1.00  0.00     0.031 C 
ATOM     43  C   UNL A   1      40.408  31.189  29.945  1.00  0.00     0.029 A 
ATOM     44  N   UNL A   1      42.192  29.861  29.725  1.00  0.00    -0.354 N 
ATOM     45  C   UNL A   1      41.797  25.806  28.287  1.00  0.00     0.074 A 
ATOM     46  C   UNL A   1      40.423  25.477  27.998  1.00  0.00     0.031 C 
ATOM     47  C   UNL A   1      41.483  31.896  30.325  1.00  0.00     0.029 A 
ATOM     48  C   UNL A   1      42.674  31.065  30.192  1.00  0.00     0.049 A 
ATOM     49  H   UNL A   1      42.762  29.071  29.583  1.00  0.00     0.167 HD
ATOM     50  C   UNL A   1      42.828  24.948  28.106  1.00  0.00     0.031 A 
ATOM     51  C   UNL A   1      43.934  31.468  30.462  1.00  0.00     0.031 A 
ATOM     52  C   UNL A   1      44.203  25.302  28.328  1.00  0.00     0.049 A 
ATOM     53  C   UNL A   1      45.069  30.509  30.232  1.00  0.00     0.074 A 
ATOM     54  C   UNL A   1      45.329  24.531  28.105  1.00  0.00     0.029 A 
ATOM     55  N   UNL A   1      44.641  26.529  28.799  1.00  0.00    -0.354 N 
ATOM     56  N   UNL A   1      45.025  29.281  29.771  1.00  0.00    -0.248 NA
ATOM     57  C   UNL A   1      46.424  30.986  30.543  1.00  0.00     0.031 C 
ATOM     58  C   UNL A   1      46.445  25.269  28.502  1.00  0.00     0.029 A 
ATOM     59  C   UNL A   1      46.021  26.530  28.894  1.00  0.00     0.049 A 
ATOM     60  H   UNL A   1      44.058  27.288  29.031  1.00  0.00     0.167 HD
ATOM     61  C   UNL A   1      46.345  28.847  29.717  1.00  0.00     0.074 A 
ATOM     62  C   UNL A   1      47.167  29.949  30.173  1.00  0.00     0.031 C 
ATOM     63  C   UNL A   1      46.828  27.642  29.331  1.00  0.00     0.031 A 
BRANCH  50  64
ATOM     64  C   UNL A   1      42.535  23.564  27.575  1.00  0.00    -0.014 A 
ATOM     65  C   UNL A   1      42.189  22.526  28.459  1.00  0.00     0.010 A 
ATOM     66  C   UNL A   1      42.733  23.261  26.215  1.00  0.00     0.010 A 
ATOM     67  C   UNL A   1      42.088  21.207  28.002  1.00  0.00     0.020 A 
ATOM     68  C   UNL A   1      42.597  21.951  25.747  1.00  0.00     0.020 A 
ATOM     69  C   UNL A   1      42.305  20.927  26.650  1.00  0.00     0.054 A 
BRANCH  69  70
ATOM     70  S   UNL A   1      42.223  19.206  26.085  1.00  0.00     0.124 S 
ATOM     71  O   UNL A   1      42.683  18.473  27.260  1.00  0.00    -0.237 OA
ATOM     72  O   UNL A   1      40.810  19.046  25.753  1.00  0.00    -0.237 OA
ATOM     73  O   UNL A   1      43.128  19.179  24.938  1.00  0.00    -0.744 OA
ENDBRANCH  69  70
ENDBRANCH  50  64
BRANCH  51  74
ATOM     74  C   UNL A   1      44.172  32.876  30.895  1.00  0.00    -0.014 A 
ATOM     75  C   UNL A   1      43.946  33.269  32.228  1.00  0.00     0.010 A 
ATOM     76  C   UNL A   1      44.534  33.854  29.952  1.00  0.00     0.010 A 
ATOM     77  C   UNL A   1      44.011  34.617  32.592  1.00  0.00     0.020 A 
ATOM     78  C   UNL A   1      44.635  35.200  30.320  1.00  0.00     0.020 A 
ATOM     79  C   UNL A   1      44.340  35.576  31.631  1.00  0.00     0.054 A 
BRANCH  79  80
ATOM     80  S   UNL A   1      44.351  37.325  32.115  1.00  0.00     0.124 S 
ATOM     81  O   UNL A   1      43.837  37.972  30.909  1.00  0.00    -0.237 OA
ATOM     82  O   UNL A   1      43.457  37.343  33.269  1.00  0.00    -0.237 OA
ATOM     83  O   UNL A   1      45.756  37.590  32.413  1.00  0.00    -0.744 OA
ENDBRANCH  79  80
ENDBRANCH  51  74
BRANCH  63  84
ATOM     84  C   UNL A   1      48.317  27.417  29.364  1.00  0.00    -0.014 A 
ATOM     85  C   UNL A   1      48.931  27.011  30.565  1.00  0.00     0.010 A 
ATOM     86  C   UNL A   1      49.121  27.787  28.272  1.00  0.00     0.010 A 
ATOM     87  C   UNL A   1      50.321  27.039  30.694  1.00  0.00     0.020 A 
ATOM     88  C   UNL A   1      50.514  27.782  28.387  1.00  0.00     0.020 A 
ATOM     89  C   UNL A   1      51.102  27.441  29.607  1.00  0.00     0.054 A 
BRANCH  89  90
ATOM     90  S   UNL A   1      52.900  27.551  29.821  1.00  0.00     0.124 S 
ATOM     91  O   UNL A   1      53.248  26.185  30.197  1.00  0.00    -0.237 OA
ATOM     92  O   UNL A   1      53.353  27.975  28.499  1.00  0.00    -0.237 OA
ATOM     93  O   UNL A   1      53.060  28.550  30.876  1.00  0.00    -0.744 OA
ENDBRANCH  89  90
ENDBRANCH  63  84
ENDBRANCH  37  38
ENDBRANCH  30  32
ENDBRANCH  29  30
ENDBRANCH   1  29
TORSDOF 16
ENDMDL
MODEL 3
REMARK VINA RESULT:     -11.7      4.837      7.441
REMARK SMILES Cc1ccc(-c2cc(Cl)cc3c2O[C@H](C(F)(F)F)C(C(=O)OCCOC(=O)c2ccc(-c4c5nc(c(-c6ccc(S(=O)(=O)[O-])cc6)c6ccc([nH]6)c(-c6ccc(S(=O)(=O)[O-])cc6)c6nc(c(-c7ccc(S(=O)(=O)[O-])cc7)c7ccc4[nH]7)C=C6)C=C5)cc2)=C3)cc1F
REMARK SMILES IDX 24 1 23 2 22 3 20 4 21 5 19 6 6 7 7 8 12 9 8 10 11 11 13 12
REMARK SMILES IDX 9 13 10 14 88 15 14 16 5 17 1 18 2 19 3 20 90 21 4 22 89 23
REMARK SMILES IDX 91 24 15 25 16 26 17 27 18 28 25 29 26 30 27 31 28 32 29 33
REMARK SMILES IDX 87 34 30 35 86 36 31 37 32 38 33 39 80 40 34 41 85 42 79 43
REMARK SMILES IDX 81 44 35 45 84 46 78 47 77 48 36 50 66 51 47 52 65 53 48 54
REMARK SMILES IDX 51 55 64 56 82 57 49 58 50 59 63 61 83 62 52 63 37 64 38 65
REMARK SMILES IDX 46 66 39 67 45 68 40 69 41 70 42 71 43 72 44 73 67 74 68 75
REMARK SMILES IDX 76 76 69 77 75 78 70 79 71 80 72 81 73 82 74 83 53 84 54 85
REMARK SMILES IDX 62 86 55 87 61 88 56 89 57 90 58 91 59 92 60 93
REMARK H PARENT 81 49 51 60
REMARK Flexibility Score: inf
ROOT
ATOM      1  C   UNL A   1      33.534  32.184  28.120  1.00  0.00     0.275 C 
ENDROOT
BRANCH   1   2
ATOM      2  C   UNL A   1      33.913  33.470  28.858  1.00  0.00     0.275 C 
BRANCH   2   3
ATOM      3  O   UNL A   1      33.879  33.289  30.291  1.00  0.00    -0.459 OA
BRANCH   3   4
ATOM      4  C   UNL A   1      34.599  34.180  31.013  1.00  0.00     0.338 C 
ATOM      5  O   UNL A   1      34.516  35.398  30.956  1.00  0.00    -0.246 OA
BRANCH   4   6
ATOM      6  C   UNL A   1      35.516  33.482  31.935  1.00  0.00     0.087 C 
ATOM      7  C   UNL A   1      38.411  31.804  34.466  1.00  0.00     0.026 A 
ATOM      8  C   UNL A   1      38.459  32.231  35.806  1.00  0.00     0.033 A 
ATOM      9  C   UNL A   1      37.402  32.315  33.627  1.00  0.00     0.135 A 
ATOM     10  C   UNL A   1      37.524  33.139  36.297  1.00  0.00     0.042 A 
ATOM     11  C   UNL A   1      36.499  33.257  34.118  1.00  0.00     0.019 A 
ATOM     12  O   UNL A   1      37.329  31.827  32.346  1.00  0.00    -0.475 OA
ATOM     13  Cl  UNL A   1      37.596  33.641  37.939  1.00  0.00    -0.084 Cl
ATOM     14  C   UNL A   1      36.545  33.656  35.458  1.00  0.00     0.032 A 
ATOM     15  C   UNL A   1      35.534  33.854  33.219  1.00  0.00     0.027 C 
ATOM     16  C   UNL A   1      36.483  32.487  31.367  1.00  0.00     0.316 C 
BRANCH   7  17
ATOM     17  C   UNL A   1      39.418  30.864  33.959  1.00  0.00    -0.012 A 
ATOM     18  C   UNL A   1      42.339  27.965  32.661  1.00  0.00     0.047 C 
ATOM     19  C   UNL A   1      41.343  28.994  33.091  1.00  0.00    -0.015 A 
ATOM     20  C   UNL A   1      41.743  30.182  33.710  1.00  0.00     0.007 A 
ATOM     21  C   UNL A   1      39.981  28.764  32.893  1.00  0.00     0.126 A 
ATOM     22  C   UNL A   1      40.789  31.108  34.139  1.00  0.00     0.009 A 
ATOM     23  C   UNL A   1      39.027  29.683  33.311  1.00  0.00     0.048 A 
ATOM     24  F   UNL A   1      39.575  27.631  32.302  1.00  0.00    -0.207 F 
ENDBRANCH   7  17
BRANCH  16  25
ATOM     25  C   UNL A   1      37.381  33.134  30.301  1.00  0.00     0.430 C 
ATOM     26  F   UNL A   1      38.560  32.477  30.183  1.00  0.00    -0.167 F 
ATOM     27  F   UNL A   1      36.804  33.109  29.076  1.00  0.00    -0.167 F 
ATOM     28  F   UNL A   1      37.666  34.425  30.590  1.00  0.00    -0.167 F 
ENDBRANCH  16  25
ENDBRANCH   4   6
ENDBRANCH   3   4
ENDBRANCH   2   3
ENDBRANCH   1   2
BRANCH   1  29
ATOM     29  O   UNL A   1      34.699  31.545  27.570  1.00  0.00    -0.458 OA
BRANCH  29  30
ATOM     30  C   UNL A   1      34.865  30.251  27.928  1.00  0.00     0.338 C 
ATOM     31  O   UNL A   1      34.045  29.352  27.857  1.00  0.00    -0.246 OA
BRANCH  30  32
ATOM     32  C   UNL A   1      36.266  30.020  28.299  1.00  0.00     0.060 A 
ATOM     33  C   UNL A   1      36.632  29.413  29.492  1.00  0.00     0.016 A 
ATOM     34  C   UNL A   1      37.228  30.282  27.334  1.00  0.00     0.016 A 
ATOM     35  C   UNL A   1      37.980  29.090  29.700  1.00  0.00     0.010 A 
ATOM     36  C   UNL A   1      38.521  29.797  27.465  1.00  0.00     0.010 A 
ATOM     37  C   UNL A   1      38.938  29.239  28.674  1.00  0.00    -0.014 A 
BRANCH  37  38
ATOM     38  C   UNL A   1      40.369  28.850  28.852  1.00  0.00     0.031 A 
ATOM     39  C   UNL A   1      41.352  29.795  29.512  1.00  0.00     0.074 A 
ATOM     40  C   UNL A   1      40.800  27.656  28.390  1.00  0.00     0.049 A 
ATOM     41  N   UNL A   1      42.627  29.618  29.754  1.00  0.00    -0.248 NA
ATOM     42  C   UNL A   1      40.861  31.125  29.921  1.00  0.00     0.031 C 
ATOM     43  C   UNL A   1      39.980  26.689  27.658  1.00  0.00     0.029 A 
ATOM     44  N   UNL A   1      42.023  27.037  28.490  1.00  0.00    -0.354 N 
ATOM     45  C   UNL A   1      43.080  30.807  30.318  1.00  0.00     0.074 A 
ATOM     46  C   UNL A   1      41.976  31.734  30.298  1.00  0.00     0.031 C 
ATOM     47  C   UNL A   1      40.687  25.565  27.464  1.00  0.00     0.029 A 
ATOM     48  C   UNL A   1      42.032  25.749  28.000  1.00  0.00     0.049 A 
ATOM     49  H   UNL A   1      42.818  27.472  28.875  1.00  0.00     0.167 HD
ATOM     50  C   UNL A   1      44.286  31.089  30.863  1.00  0.00     0.031 A 
ATOM     51  C   UNL A   1      43.000  24.809  28.000  1.00  0.00     0.031 A 
ATOM     52  C   UNL A   1      45.362  30.138  30.944  1.00  0.00     0.049 A 
ATOM     53  C   UNL A   1      44.326  25.131  28.631  1.00  0.00     0.074 A 
ATOM     54  C   UNL A   1      46.598  30.299  31.542  1.00  0.00     0.029 A 
ATOM     55  N   UNL A   1      45.322  28.850  30.436  1.00  0.00    -0.354 N 
ATOM     56  N   UNL A   1      44.703  26.238  29.228  1.00  0.00    -0.248 NA
ATOM     57  C   UNL A   1      45.355  24.082  28.606  1.00  0.00     0.031 C 
ATOM     58  C   UNL A   1      47.332  29.129  31.339  1.00  0.00     0.029 A 
ATOM     59  C   UNL A   1      46.523  28.210  30.687  1.00  0.00     0.049 A 
ATOM     60  H   UNL A   1      44.556  28.449  29.966  1.00  0.00     0.167 HD
ATOM     61  C   UNL A   1      46.003  26.010  29.666  1.00  0.00     0.074 A 
ATOM     62  C   UNL A   1      46.342  24.655  29.285  1.00  0.00     0.031 C 
ATOM     63  C   UNL A   1      46.839  26.852  30.319  1.00  0.00     0.031 A 
BRANCH  50  64
ATOM     64  C   UNL A   1      44.501  32.448  31.486  1.00  0.00    -0.014 A 
ATOM     65  C   UNL A   1      44.124  32.683  32.820  1.00  0.00     0.010 A 
ATOM     66  C   UNL A   1      44.952  33.530  30.707  1.00  0.00     0.010 A 
ATOM     67  C   UNL A   1      44.154  33.978  33.351  1.00  0.00     0.020 A 
ATOM     68  C   UNL A   1      45.020  34.819  31.244  1.00  0.00     0.020 A 
ATOM     69  C   UNL A   1      44.591  35.039  32.554  1.00  0.00     0.054 A 
BRANCH  69  70
ATOM     70  S   UNL A   1      44.574  36.718  33.240  1.00  0.00     0.124 S 
ATOM     71  O   UNL A   1      43.273  36.768  33.900  1.00  0.00    -0.237 OA
ATOM     72  O   UNL A   1      45.734  36.713  34.127  1.00  0.00    -0.237 OA
ATOM     73  O   UNL A   1      44.708  37.571  32.060  1.00  0.00    -0.744 OA
ENDBRANCH  69  70
ENDBRANCH  50  64
BRANCH  51  74
ATOM     74  C   UNL A   1      42.701  23.453  27.454  1.00  0.00    -0.014 A 
ATOM     75  C   UNL A   1      42.183  22.439  28.283  1.00  0.00     0.010 A 
ATOM     76  C   UNL A   1      43.024  23.140  26.121  1.00  0.00     0.010 A 
ATOM     77  C   UNL A   1      42.059  21.129  27.811  1.00  0.00     0.020 A 
ATOM     78  C   UNL A   1      42.868  21.837  25.634  1.00  0.00     0.020 A 
ATOM     79  C   UNL A   1      42.418  20.834  26.493  1.00  0.00     0.054 A 
BRANCH  79  80
ATOM     80  S   UNL A   1      42.312  19.113  25.927  1.00  0.00     0.124 S 
ATOM     81  O   UNL A   1      40.884  18.979  25.645  1.00  0.00    -0.237 OA
ATOM     82  O   UNL A   1      43.189  19.107  24.759  1.00  0.00    -0.237 OA
ATOM     83  O   UNL A   1      42.796  18.345  27.071  1.00  0.00    -0.744 OA
ENDBRANCH  79  80
ENDBRANCH  51  74
BRANCH  63  84
ATOM     84  C   UNL A   1      48.215  26.362  30.688  1.00  0.00    -0.014 A 
ATOM     85  C   UNL A   1      48.439  25.822  31.968  1.00  0.00     0.010 A 
ATOM     86  C   UNL A   1      49.312  26.608  29.845  1.00  0.00     0.010 A 
ATOM     87  C   UNL A   1      49.740  25.595  32.424  1.00  0.00     0.020 A 
ATOM     88  C   UNL A   1      50.613  26.350  30.284  1.00  0.00     0.020 A 
ATOM     89  C   UNL A   1      50.819  25.877  31.583  1.00  0.00     0.054 A 
BRANCH  89  90
ATOM     90  S   UNL A   1      52.502  25.655  32.222  1.00  0.00     0.124 S 
ATOM     91  O   UNL A   1      53.316  25.912  31.039  1.00  0.00    -0.237 OA
ATOM     92  O   UNL A   1      52.580  26.667  33.273  1.00  0.00    -0.237 OA
ATOM     93  O   UNL A   1      52.509  24.273  32.698  1.00  0.00    -0.744 OA
ENDBRANCH  89  90
ENDBRANCH  63  84
ENDBRANCH  37  38
ENDBRANCH  30  32
ENDBRANCH  29  30
ENDBRANCH   1  29
TORSDOF 16
ENDMDL
