MODEL 1
REMARK VINA RESULT:     -12.3      0.000      0.000
REMARK SMILES CC(=O)Nc1cc(NC(C)=O)cc(C(=O)Nc2ccc(Br)cc2C(=O)OCCOC(=O)c2ccc(-c3c4nc(c(-c5ccc(S(=O)(=O)[O-])cc5)c5ccc([nH]5)c(-c5ccc(S(=O)(=O)[O-])cc5)c5nc(c(-c6ccc(S(=O)(=O)[O-])cc6)c6ccc3[nH]6)C=C5)C=C4)cc2)c1
REMARK SMILES IDX 27 1 26 2 24 3 25 4 23 5 17 6 18 7 19 8 22 9 20 10 21 11
REMARK SMILES IDX 16 12 14 13 15 14 13 16 5 17 6 18 92 19 7 20 12 21 4 22 1 23
REMARK SMILES IDX 2 24 3 25 8 27 9 28 10 30 11 31 28 32 29 33 30 34 31 35
REMARK SMILES IDX 32 36 33 37 91 38 34 39 90 40 35 41 36 42 37 43 84 44 38 45
REMARK SMILES IDX 89 46 83 47 85 48 39 49 88 50 82 51 81 52 40 54 70 55 51 56
REMARK SMILES IDX 69 57 52 58 55 59 68 60 86 61 53 62 54 63 67 65 87 66 56 67
REMARK SMILES IDX 41 68 42 69 50 70 43 71 49 72 44 73 45 74 46 75 47 76 48 77
REMARK SMILES IDX 71 78 72 79 80 80 73 81 79 82 74 83 75 84 76 85 77 86 78 87
REMARK SMILES IDX 57 88 58 89 66 90 59 91 65 92 60 93 61 94 62 95 63 96 64 97
REMARK H PARENT 16 15 4 26 8 29 85 53 55 64
REMARK Flexibility Score: inf
ROOT
ATOM      1  C   UNL A   1      37.740  21.557  25.129  1.00  0.00     0.275 C 
ENDROOT
BRANCH   1   2
ATOM      2  O   UNL A   1      36.442  21.646  25.752  1.00  0.00    -0.458 OA
BRANCH   2   3
ATOM      3  C   UNL A   1      35.655  22.614  25.229  1.00  0.00     0.340 C 
ATOM      4  O   UNL A   1      35.841  23.812  25.342  1.00  0.00    -0.246 OA
BRANCH   3   5
ATOM      5  C   UNL A   1      34.489  22.077  24.502  1.00  0.00     0.084 A 
ATOM      6  C   UNL A   1      33.843  22.769  23.467  1.00  0.00     0.056 A 
ATOM      7  C   UNL A   1      32.713  22.180  22.871  1.00  0.00     0.028 A 
ATOM      8  C   UNL A   1      32.329  20.871  23.187  1.00  0.00     0.018 A 
ATOM      9  C   UNL A   1      34.080  20.774  24.831  1.00  0.00     0.033 A 
ATOM     10  C   UNL A   1      33.034  20.164  24.149  1.00  0.00     0.018 A 
ATOM     11  Br  UNL A   1      32.609  18.357  24.500  1.00  0.00    -0.051 Br
BRANCH   6  12
ATOM     12  N   UNL A   1      34.250  23.997  22.904  1.00  0.00    -0.321 N 
ATOM     13  C   UNL A   1      33.617  25.222  22.791  1.00  0.00     0.255 C 
ATOM     14  O   UNL A   1      34.067  26.051  22.000  1.00  0.00    -0.269 OA
ATOM     15  H   UNL A   1      35.156  23.980  22.519  1.00  0.00     0.170 HD
BRANCH  13  16
ATOM     16  C   UNL A   1      32.461  25.613  23.652  1.00  0.00     0.044 A 
ATOM     17  C   UNL A   1      31.094  25.285  25.617  1.00  0.00     0.044 A 
ATOM     18  C   UNL A   1      30.101  26.087  25.032  1.00  0.00     0.052 A 
ATOM     19  C   UNL A   1      32.314  25.137  24.962  1.00  0.00     0.040 A 
ATOM     20  C   UNL A   1      30.286  26.692  23.787  1.00  0.00     0.044 A 
ATOM     21  C   UNL A   1      31.471  26.434  23.090  1.00  0.00     0.040 A 
BRANCH  17  22
ATOM     22  N   UNL A   1      30.690  24.521  26.731  1.00  0.00    -0.326 N 
ATOM     23  C   UNL A   1      30.654  22.177  25.894  1.00  0.00     0.114 C 
ATOM     24  C   UNL A   1      30.259  23.238  26.876  1.00  0.00     0.221 C 
ATOM     25  O   UNL A   1      29.564  22.953  27.852  1.00  0.00    -0.275 OA
ATOM     26  H   UNL A   1      30.729  25.018  27.579  1.00  0.00     0.169 HD
ENDBRANCH  17  22
BRANCH  20  27
ATOM     27  N   UNL A   1      29.316  27.509  23.161  1.00  0.00    -0.326 N 
ATOM     28  C   UNL A   1      29.290  28.893  23.129  1.00  0.00     0.221 C 
ATOM     29  H   UNL A   1      28.581  27.043  22.699  1.00  0.00     0.169 HD
ATOM     30  C   UNL A   1      28.126  29.455  22.351  1.00  0.00     0.114 C 
ATOM     31  O   UNL A   1      30.102  29.654  23.641  1.00  0.00    -0.275 OA
ENDBRANCH  20  27
ENDBRANCH  13  16
ENDBRANCH   6  12
ENDBRANCH   3   5
ENDBRANCH   2   3
ENDBRANCH   1   2
BRANCH   1  32
ATOM     32  C   UNL A   1      38.897  21.937  26.060  1.00  0.00     0.275 C 
BRANCH  32  33
ATOM     33  O   UNL A   1      39.451  20.803  26.753  1.00  0.00    -0.458 OA
BRANCH  33  34
ATOM     34  C   UNL A   1      40.679  20.430  26.328  1.00  0.00     0.338 C 
ATOM     35  O   UNL A   1      40.974  19.394  25.751  1.00  0.00    -0.246 OA
BRANCH  34  36
ATOM     36  C   UNL A   1      41.674  21.480  26.589  1.00  0.00     0.060 A 
ATOM     37  C   UNL A   1      42.009  21.776  27.908  1.00  0.00     0.016 A 
ATOM     38  C   UNL A   1      42.085  22.321  25.558  1.00  0.00     0.016 A 
ATOM     39  C   UNL A   1      42.638  22.967  28.229  1.00  0.00     0.010 A 
ATOM     40  C   UNL A   1      42.822  23.467  25.872  1.00  0.00     0.010 A 
ATOM     41  C   UNL A   1      43.067  23.820  27.213  1.00  0.00    -0.014 A 
BRANCH  41  42
ATOM     42  C   UNL A   1      43.726  25.100  27.556  1.00  0.00     0.031 A 
ATOM     43  C   UNL A   1      42.900  26.226  28.111  1.00  0.00     0.074 A 
ATOM     44  C   UNL A   1      45.054  25.244  27.379  1.00  0.00     0.049 A 
ATOM     45  N   UNL A   1      43.204  27.489  28.237  1.00  0.00    -0.248 NA
ATOM     46  C   UNL A   1      41.541  25.885  28.570  1.00  0.00     0.031 C 
ATOM     47  C   UNL A   1      45.978  24.190  26.950  1.00  0.00     0.029 A 
ATOM     48  N   UNL A   1      45.860  26.341  27.539  1.00  0.00    -0.354 N 
ATOM     49  C   UNL A   1      42.061  28.104  28.734  1.00  0.00     0.074 A 
ATOM     50  C   UNL A   1      41.053  27.078  28.880  1.00  0.00     0.031 C 
ATOM     51  C   UNL A   1      47.223  24.686  26.899  1.00  0.00     0.029 A 
ATOM     52  C   UNL A   1      47.169  26.111  27.187  1.00  0.00     0.049 A 
ATOM     53  H   UNL A   1      45.534  27.209  27.873  1.00  0.00     0.167 HD
ATOM     54  C   UNL A   1      41.878  29.412  29.032  1.00  0.00     0.031 A 
ATOM     55  C   UNL A   1      48.199  26.967  27.048  1.00  0.00     0.031 A 
ATOM     56  C   UNL A   1      42.912  30.405  28.903  1.00  0.00     0.049 A 
ATOM     57  C   UNL A   1      47.947  28.427  27.295  1.00  0.00     0.074 A 
ATOM     58  C   UNL A   1      42.843  31.763  29.155  1.00  0.00     0.029 A 
ATOM     59  N   UNL A   1      44.214  30.137  28.500  1.00  0.00    -0.354 N 
ATOM     60  N   UNL A   1      46.841  29.018  27.684  1.00  0.00    -0.248 NA
ATOM     61  C   UNL A   1      49.075  29.339  27.071  1.00  0.00     0.031 C 
ATOM     62  C   UNL A   1      44.090  32.324  28.860  1.00  0.00     0.029 A 
ATOM     63  C   UNL A   1      44.954  31.306  28.484  1.00  0.00     0.049 A 
ATOM     64  H   UNL A   1      44.560  29.247  28.261  1.00  0.00     0.167 HD
ATOM     65  C   UNL A   1      47.149  30.369  27.780  1.00  0.00     0.074 A 
ATOM     66  C   UNL A   1      48.546  30.504  27.421  1.00  0.00     0.031 C 
ATOM     67  C   UNL A   1      46.349  31.405  28.135  1.00  0.00     0.031 A 
BRANCH  54  68
ATOM     68  C   UNL A   1      40.506  29.848  29.478  1.00  0.00    -0.014 A 
ATOM     69  C   UNL A   1      40.228  30.151  30.823  1.00  0.00     0.010 A 
ATOM     70  C   UNL A   1      39.483  29.990  28.522  1.00  0.00     0.010 A 
ATOM     71  C   UNL A   1      38.946  30.555  31.207  1.00  0.00     0.020 A 
ATOM     72  C   UNL A   1      38.207  30.421  28.897  1.00  0.00     0.020 A 
ATOM     73  C   UNL A   1      37.942  30.687  30.242  1.00  0.00     0.054 A 
BRANCH  73  74
ATOM     74  S   UNL A   1      36.295  31.239  30.766  1.00  0.00     0.124 S 
ATOM     75  O   UNL A   1      35.903  30.182  31.695  1.00  0.00    -0.237 OA
ATOM     76  O   UNL A   1      36.572  32.538  31.375  1.00  0.00    -0.237 OA
ATOM     77  O   UNL A   1      35.532  31.288  29.522  1.00  0.00    -0.744 OA
ENDBRANCH  73  74
ENDBRANCH  54  68
BRANCH  55  78
ATOM     78  C   UNL A   1      49.529  26.474  26.593  1.00  0.00    -0.014 A 
ATOM     79  C   UNL A   1      49.852  26.446  25.226  1.00  0.00     0.010 A 
ATOM     80  C   UNL A   1      50.484  26.031  27.528  1.00  0.00     0.010 A 
ATOM     81  C   UNL A   1      51.092  25.959  24.801  1.00  0.00     0.020 A 
ATOM     82  C   UNL A   1      51.738  25.578  27.109  1.00  0.00     0.020 A 
ATOM     83  C   UNL A   1      52.027  25.528  25.745  1.00  0.00     0.054 A 
BRANCH  83  84
ATOM     84  S   UNL A   1      53.636  24.920  25.170  1.00  0.00     0.124 S 
ATOM     85  O   UNL A   1      54.530  25.380  26.229  1.00  0.00    -0.237 OA
ATOM     86  O   UNL A   1      53.425  23.476  25.103  1.00  0.00    -0.237 OA
ATOM     87  O   UNL A   1      53.810  25.578  23.876  1.00  0.00    -0.744 OA
ENDBRANCH  83  84
ENDBRANCH  55  78
BRANCH  67  88
ATOM     88  C   UNL A   1      46.984  32.765  28.208  1.00  0.00    -0.014 A 
ATOM     89  C   UNL A   1      47.615  33.216  29.381  1.00  0.00     0.010 A 
ATOM     90  C   UNL A   1      47.002  33.577  27.059  1.00  0.00     0.010 A 
ATOM     91  C   UNL A   1      48.232  34.468  29.408  1.00  0.00     0.020 A 
ATOM     92  C   UNL A   1      47.644  34.815  27.075  1.00  0.00     0.020 A 
ATOM     93  C   UNL A   1      48.246  35.259  28.254  1.00  0.00     0.054 A 
BRANCH  93  94
ATOM     94  S   UNL A   1      49.108  36.852  28.300  1.00  0.00     0.124 S 
ATOM     95  O   UNL A   1      49.057  37.185  29.720  1.00  0.00    -0.237 OA
ATOM     96  O   UNL A   1      50.431  36.516  27.779  1.00  0.00    -0.237 OA
ATOM     97  O   UNL A   1      48.303  37.707  27.430  1.00  0.00    -0.744 OA
ENDBRANCH  93  94
ENDBRANCH  67  88
ENDBRANCH  41  42
ENDBRANCH  34  36
ENDBRANCH  33  34
ENDBRANCH  32  33
ENDBRANCH   1  32
TORSDOF 18
ENDMDL
MODEL 2
REMARK VINA RESULT:     -12.2      2.842      7.509
REMARK SMILES CC(=O)Nc1cc(NC(C)=O)cc(C(=O)Nc2ccc(Br)cc2C(=O)OCCOC(=O)c2ccc(-c3c4nc(c(-c5ccc(S(=O)(=O)[O-])cc5)c5ccc([nH]5)c(-c5ccc(S(=O)(=O)[O-])cc5)c5nc(c(-c6ccc(S(=O)(=O)[O-])cc6)c6ccc3[nH]6)C=C5)C=C4)cc2)c1
REMARK SMILES IDX 27 1 26 2 24 3 25 4 23 5 17 6 18 7 19 8 22 9 20 10 21 11
REMARK SMILES IDX 16 12 14 13 15 14 13 16 5 17 6 18 92 19 7 20 12 21 4 22 1 23
REMARK SMILES IDX 2 24 3 25 8 27 9 28 10 30 11 31 28 32 29 33 30 34 31 35
REMARK SMILES IDX 32 36 33 37 91 38 34 39 90 40 35 41 36 42 37 43 84 44 38 45
REMARK SMILES IDX 89 46 83 47 85 48 39 49 88 50 82 51 81 52 40 54 70 55 51 56
REMARK SMILES IDX 69 57 52 58 55 59 68 60 86 61 53 62 54 63 67 65 87 66 56 67
REMARK SMILES IDX 41 68 42 69 50 70 43 71 49 72 44 73 45 74 46 75 47 76 48 77
REMARK SMILES IDX 71 78 72 79 80 80 73 81 79 82 74 83 75 84 76 85 77 86 78 87
REMARK SMILES IDX 57 88 58 89 66 90 59 91 65 92 60 93 61 94 62 95 63 96 64 97
REMARK H PARENT 16 15 4 26 8 29 85 53 55 64
REMARK Flexibility Score: inf
ROOT
ATOM      1  C   UNL A   1      33.894  28.943  26.491  1.00  0.00     0.275 C 
ENDROOT
BRANCH   1   2
ATOM      2  O   UNL A   1      33.317  27.627  26.612  1.00  0.00    -0.458 OA
BRANCH   2   3
ATOM      3  C   UNL A   1      31.990  27.640  26.879  1.00  0.00     0.340 C 
ATOM      4  O   UNL A   1      31.494  27.855  27.970  1.00  0.00    -0.246 OA
BRANCH   3   5
ATOM      5  C   UNL A   1      31.162  27.333  25.699  1.00  0.00     0.084 A 
ATOM      6  C   UNL A   1      30.395  26.164  25.581  1.00  0.00     0.056 A 
ATOM      7  C   UNL A   1      29.674  25.953  24.391  1.00  0.00     0.028 A 
ATOM      8  C   UNL A   1      29.593  26.948  23.410  1.00  0.00     0.018 A 
ATOM      9  C   UNL A   1      31.095  28.315  24.696  1.00  0.00     0.033 A 
ATOM     10  C   UNL A   1      30.284  28.138  23.581  1.00  0.00     0.018 A 
ATOM     11  Br  UNL A   1      30.088  29.539  22.329  1.00  0.00    -0.051 Br
BRANCH   6  12
ATOM     12  N   UNL A   1      30.216  25.180  26.577  1.00  0.00    -0.321 N 
ATOM     13  C   UNL A   1      30.616  23.859  26.658  1.00  0.00     0.255 C 
ATOM     14  O   UNL A   1      30.086  23.129  27.496  1.00  0.00    -0.269 OA
ATOM     15  H   UNL A   1      29.711  25.493  27.362  1.00  0.00     0.170 HD
BRANCH  13  16
ATOM     16  C   UNL A   1      31.727  23.301  25.829  1.00  0.00     0.044 A 
ATOM     17  C   UNL A   1      32.594  21.614  24.332  1.00  0.00     0.044 A 
ATOM     18  C   UNL A   1      33.893  22.062  24.616  1.00  0.00     0.052 A 
ATOM     19  C   UNL A   1      31.509  22.306  24.866  1.00  0.00     0.040 A 
ATOM     20  C   UNL A   1      34.125  23.149  25.463  1.00  0.00     0.044 A 
ATOM     21  C   UNL A   1      33.029  23.756  26.084  1.00  0.00     0.040 A 
BRANCH  17  22
ATOM     22  N   UNL A   1      32.501  20.361  23.692  1.00  0.00    -0.326 N 
ATOM     23  C   UNL A   1      32.721  18.705  25.538  1.00  0.00     0.114 C 
ATOM     24  C   UNL A   1      32.773  19.088  24.089  1.00  0.00     0.221 C 
ATOM     25  O   UNL A   1      33.029  18.241  23.232  1.00  0.00    -0.275 OA
ATOM     26  H   UNL A   1      32.172  20.420  22.767  1.00  0.00     0.169 HD
ENDBRANCH  17  22
BRANCH  20  27
ATOM     27  N   UNL A   1      35.416  23.636  25.775  1.00  0.00    -0.326 N 
ATOM     28  C   UNL A   1      36.595  22.911  25.804  1.00  0.00     0.221 C 
ATOM     29  H   UNL A   1      35.482  24.594  25.994  1.00  0.00     0.169 HD
ATOM     30  C   UNL A   1      37.805  23.743  26.150  1.00  0.00     0.114 C 
ATOM     31  O   UNL A   1      36.727  21.716  25.569  1.00  0.00    -0.275 OA
ENDBRANCH  20  27
ENDBRANCH  13  16
ENDBRANCH   6  12
ENDBRANCH   3   5
ENDBRANCH   2   3
ENDBRANCH   1   2
BRANCH   1  32
ATOM     32  C   UNL A   1      34.618  29.416  27.757  1.00  0.00     0.275 C 
BRANCH  32  33
ATOM     33  O   UNL A   1      36.034  29.588  27.558  1.00  0.00    -0.458 OA
BRANCH  33  34
ATOM     34  C   UNL A   1      36.781  29.430  28.674  1.00  0.00     0.338 C 
ATOM     35  O   UNL A   1      36.423  29.610  29.828  1.00  0.00    -0.246 OA
BRANCH  34  36
ATOM     36  C   UNL A   1      38.125  28.933  28.350  1.00  0.00     0.060 A 
ATOM     37  C   UNL A   1      38.850  28.263  29.334  1.00  0.00     0.016 A 
ATOM     38  C   UNL A   1      38.751  29.335  27.173  1.00  0.00     0.016 A 
ATOM     39  C   UNL A   1      40.220  28.103  29.219  1.00  0.00     0.010 A 
ATOM     40  C   UNL A   1      40.114  29.070  27.006  1.00  0.00     0.010 A 
ATOM     41  C   UNL A   1      40.867  28.490  28.046  1.00  0.00    -0.014 A 
BRANCH  41  42
ATOM     42  C   UNL A   1      42.334  28.332  27.928  1.00  0.00     0.031 A 
ATOM     43  C   UNL A   1      43.229  29.474  28.318  1.00  0.00     0.074 A 
ATOM     44  C   UNL A   1      42.854  27.171  27.483  1.00  0.00     0.049 A 
ATOM     45  N   UNL A   1      44.496  29.654  28.063  1.00  0.00    -0.248 NA
ATOM     46  C   UNL A   1      42.608  30.568  29.087  1.00  0.00     0.031 C 
ATOM     47  C   UNL A   1      42.093  25.956  27.176  1.00  0.00     0.029 A 
ATOM     48  N   UNL A   1      44.152  26.823  27.211  1.00  0.00    -0.354 N 
ATOM     49  C   UNL A   1      44.812  30.903  28.586  1.00  0.00     0.074 A 
ATOM     50  C   UNL A   1      43.603  31.441  29.166  1.00  0.00     0.031 C 
ATOM     51  C   UNL A   1      42.938  24.994  26.777  1.00  0.00     0.029 A 
ATOM     52  C   UNL A   1      44.279  25.553  26.699  1.00  0.00     0.049 A 
ATOM     53  H   UNL A   1      44.917  27.422  27.367  1.00  0.00     0.167 HD
ATOM     54  C   UNL A   1      46.009  31.537  28.570  1.00  0.00     0.031 A 
ATOM     55  C   UNL A   1      45.346  24.931  26.163  1.00  0.00     0.031 A 
ATOM     56  C   UNL A   1      47.202  30.961  28.008  1.00  0.00     0.049 A 
ATOM     57  C   UNL A   1      46.639  25.690  26.073  1.00  0.00     0.074 A 
ATOM     58  C   UNL A   1      48.467  31.512  27.916  1.00  0.00     0.029 A 
ATOM     59  N   UNL A   1      47.278  29.688  27.458  1.00  0.00    -0.354 N 
ATOM     60  N   UNL A   1      46.913  26.904  26.493  1.00  0.00    -0.248 NA
ATOM     61  C   UNL A   1      47.763  25.005  25.425  1.00  0.00     0.031 C 
ATOM     62  C   UNL A   1      49.296  30.591  27.268  1.00  0.00     0.029 A 
ATOM     63  C   UNL A   1      48.564  29.441  27.013  1.00  0.00     0.049 A 
ATOM     64  H   UNL A   1      46.527  29.054  27.395  1.00  0.00     0.167 HD
ATOM     65  C   UNL A   1      48.250  27.115  26.186  1.00  0.00     0.074 A 
ATOM     66  C   UNL A   1      48.732  25.901  25.558  1.00  0.00     0.031 C 
ATOM     67  C   UNL A   1      49.014  28.214  26.404  1.00  0.00     0.031 A 
BRANCH  54  68
ATOM     68  C   UNL A   1      46.072  32.934  29.131  1.00  0.00    -0.014 A 
ATOM     69  C   UNL A   1      45.704  34.055  28.364  1.00  0.00     0.010 A 
ATOM     70  C   UNL A   1      46.476  33.124  30.466  1.00  0.00     0.010 A 
ATOM     71  C   UNL A   1      45.771  35.340  28.911  1.00  0.00     0.020 A 
ATOM     72  C   UNL A   1      46.517  34.405  31.026  1.00  0.00     0.020 A 
ATOM     73  C   UNL A   1      46.178  35.507  30.239  1.00  0.00     0.054 A 
BRANCH  73  74
ATOM     74  S   UNL A   1      46.228  37.184  30.931  1.00  0.00     0.124 S 
ATOM     75  O   UNL A   1      47.663  37.462  30.947  1.00  0.00    -0.237 OA
ATOM     76  O   UNL A   1      45.451  37.953  29.963  1.00  0.00    -0.237 OA
ATOM     77  O   UNL A   1      45.610  37.037  32.246  1.00  0.00    -0.744 OA
ENDBRANCH  73  74
ENDBRANCH  54  68
BRANCH  55  78
ATOM     78  C   UNL A   1      45.214  23.552  25.616  1.00  0.00    -0.014 A 
ATOM     79  C   UNL A   1      45.563  22.437  26.397  1.00  0.00     0.010 A 
ATOM     80  C   UNL A   1      44.735  23.344  24.309  1.00  0.00     0.010 A 
ATOM     81  C   UNL A   1      45.463  21.145  25.872  1.00  0.00     0.020 A 
ATOM     82  C   UNL A   1      44.598  22.053  23.793  1.00  0.00     0.020 A 
ATOM     83  C   UNL A   1      44.981  20.961  24.573  1.00  0.00     0.054 A 
BRANCH  83  84
ATOM     84  S   UNL A   1      44.840  19.274  23.922  1.00  0.00     0.124 S 
ATOM     85  O   UNL A   1      44.387  19.513  22.555  1.00  0.00    -0.237 OA
ATOM     86  O   UNL A   1      46.203  18.766  24.056  1.00  0.00    -0.237 OA
ATOM     87  O   UNL A   1      43.859  18.645  24.805  1.00  0.00    -0.744 OA
ENDBRANCH  83  84
ENDBRANCH  55  78
BRANCH  67  88
ATOM     88  C   UNL A   1      50.463  28.129  26.013  1.00  0.00    -0.014 A 
ATOM     89  C   UNL A   1      50.879  28.362  24.691  1.00  0.00     0.010 A 
ATOM     90  C   UNL A   1      51.428  27.872  27.005  1.00  0.00     0.010 A 
ATOM     91  C   UNL A   1      52.235  28.315  24.364  1.00  0.00     0.020 A 
ATOM     92  C   UNL A   1      52.786  27.855  26.687  1.00  0.00     0.020 A 
ATOM     93  C   UNL A   1      53.181  28.066  25.364  1.00  0.00     0.054 A 
BRANCH  93  94
ATOM     94  S   UNL A   1      54.938  28.072  24.923  1.00  0.00     0.124 S 
ATOM     95  O   UNL A   1      54.900  27.702  23.512  1.00  0.00    -0.237 OA
ATOM     96  O   UNL A   1      55.333  29.451  25.201  1.00  0.00    -0.237 OA
ATOM     97  O   UNL A   1      55.524  27.073  25.814  1.00  0.00    -0.744 OA
ENDBRANCH  93  94
ENDBRANCH  67  88
ENDBRANCH  41  42
ENDBRANCH  34  36
ENDBRANCH  33  34
ENDBRANCH  32  33
ENDBRANCH   1  32
TORSDOF 18
ENDMDL
MODEL 3
REMARK VINA RESULT:     -12.1      2.992      7.834
REMARK SMILES CC(=O)Nc1cc(NC(C)=O)cc(C(=O)Nc2ccc(Br)cc2C(=O)OCCOC(=O)c2ccc(-c3c4nc(c(-c5ccc(S(=O)(=O)[O-])cc5)c5ccc([nH]5)c(-c5ccc(S(=O)(=O)[O-])cc5)c5nc(c(-c6ccc(S(=O)(=O)[O-])cc6)c6ccc3[nH]6)C=C5)C=C4)cc2)c1
REMARK SMILES IDX 27 1 26 2 24 3 25 4 23 5 17 6 18 7 19 8 22 9 20 10 21 11
REMARK SMILES IDX 16 12 14 13 15 14 13 16 5 17 6 18 92 19 7 20 12 21 4 22 1 23
REMARK SMILES IDX 2 24 3 25 8 27 9 28 10 30 11 31 28 32 29 33 30 34 31 35
REMARK SMILES IDX 32 36 33 37 91 38 34 39 90 40 35 41 36 42 37 43 84 44 38 45
REMARK SMILES IDX 89 46 83 47 85 48 39 49 88 50 82 51 81 52 40 54 70 55 51 56
REMARK SMILES IDX 69 57 52 58 55 59 68 60 86 61 53 62 54 63 67 65 87 66 56 67
REMARK SMILES IDX 41 68 42 69 50 70 43 71 49 72 44 73 45 74 46 75 47 76 48 77
REMARK SMILES IDX 71 78 72 79 80 80 73 81 79 82 74 83 75 84 76 85 77 86 78 87
REMARK SMILES IDX 57 88 58 89 66 90 59 91 65 92 60 93 61 94 62 95 63 96 64 97
REMARK H PARENT 16 15 4 26 8 29 85 53 55 64
REMARK Flexibility Score: inf
ROOT
ATOM      1  C   UNL A   1      32.122  28.711  25.955  1.00  0.00     0.275 C 
ENDROOT
BRANCH   1   2
ATOM      2  O   UNL A   1      31.217  27.650  25.587  1.00  0.00    -0.458 OA
BRANCH   2   3
ATOM      3  C   UNL A   1      30.921  27.624  24.267  1.00  0.00     0.340 C 
ATOM      4  O   UNL A   1      30.290  28.476  23.669  1.00  0.00    -0.246 OA
BRANCH   3   5
ATOM      5  C   UNL A   1      31.425  26.415  23.589  1.00  0.00     0.084 A 
ATOM      6  C   UNL A   1      31.524  25.165  24.219  1.00  0.00     0.056 A 
ATOM      7  C   UNL A   1      32.059  24.088  23.489  1.00  0.00     0.028 A 
ATOM      8  C   UNL A   1      32.341  24.210  22.123  1.00  0.00     0.018 A 
ATOM      9  C   UNL A   1      31.735  26.534  22.224  1.00  0.00     0.033 A 
ATOM     10  C   UNL A   1      32.150  25.430  21.490  1.00  0.00     0.018 A 
ATOM     11  Br  UNL A   1      32.405  25.581  19.624  1.00  0.00    -0.051 Br
BRANCH   6  12
ATOM     12  N   UNL A   1      31.081  24.850  25.521  1.00  0.00    -0.321 N 
ATOM     13  C   UNL A   1      31.278  23.743  26.326  1.00  0.00     0.255 C 
ATOM     14  O   UNL A   1      30.545  23.582  27.302  1.00  0.00    -0.269 OA
ATOM     15  H   UNL A   1      30.525  25.550  25.934  1.00  0.00     0.170 HD
BRANCH  13  16
ATOM     16  C   UNL A   1      32.399  22.780  26.111  1.00  0.00     0.044 A 
ATOM     17  C   UNL A   1      33.213  20.519  25.856  1.00  0.00     0.044 A 
ATOM     18  C   UNL A   1      34.514  20.983  26.108  1.00  0.00     0.052 A 
ATOM     19  C   UNL A   1      32.175  21.442  25.759  1.00  0.00     0.040 A 
ATOM     20  C   UNL A   1      34.781  22.338  26.318  1.00  0.00     0.044 A 
ATOM     21  C   UNL A   1      33.708  23.235  26.335  1.00  0.00     0.040 A 
BRANCH  17  22
ATOM     22  N   UNL A   1      33.033  19.123  25.929  1.00  0.00    -0.326 N 
ATOM     23  C   UNL A   1      32.778  18.405  23.559  1.00  0.00     0.114 C 
ATOM     24  C   UNL A   1      32.615  18.187  25.033  1.00  0.00     0.221 C 
ATOM     25  O   UNL A   1      32.130  17.136  25.456  1.00  0.00    -0.275 OA
ATOM     26  H   UNL A   1      33.255  18.747  26.811  1.00  0.00     0.169 HD
ENDBRANCH  17  22
BRANCH  20  27
ATOM     27  N   UNL A   1      36.075  22.851  26.571  1.00  0.00    -0.326 N 
ATOM     28  C   UNL A   1      36.960  23.372  25.643  1.00  0.00     0.221 C 
ATOM     29  H   UNL A   1      36.377  22.835  27.508  1.00  0.00     0.169 HD
ATOM     30  C   UNL A   1      38.252  23.859  26.250  1.00  0.00     0.114 C 
ATOM     31  O   UNL A   1      36.779  23.477  24.436  1.00  0.00    -0.275 OA
ENDBRANCH  20  27
ENDBRANCH  13  16
ENDBRANCH   6  12
ENDBRANCH   3   5
ENDBRANCH   2   3
ENDBRANCH   1   2
BRANCH   1  32
ATOM     32  C   UNL A   1      32.584  28.646  27.415  1.00  0.00     0.275 C 
BRANCH  32  33
ATOM     33  O   UNL A   1      34.008  28.810  27.558  1.00  0.00    -0.458 OA
BRANCH  33  34
ATOM     34  C   UNL A   1      34.395  30.048  27.940  1.00  0.00     0.338 C 
ATOM     35  O   UNL A   1      33.692  31.044  28.024  1.00  0.00    -0.246 OA
BRANCH  34  36
ATOM     36  C   UNL A   1      35.812  30.068  28.328  1.00  0.00     0.060 A 
ATOM     37  C   UNL A   1      36.770  30.360  27.358  1.00  0.00     0.016 A 
ATOM     38  C   UNL A   1      36.203  29.569  29.567  1.00  0.00     0.016 A 
ATOM     39  C   UNL A   1      38.101  30.039  27.559  1.00  0.00     0.010 A 
ATOM     40  C   UNL A   1      37.562  29.353  29.813  1.00  0.00     0.010 A 
ATOM     41  C   UNL A   1      38.517  29.547  28.796  1.00  0.00    -0.014 A 
BRANCH  41  42
ATOM     42  C   UNL A   1      39.938  29.190  29.006  1.00  0.00     0.031 A 
ATOM     43  C   UNL A   1      40.889  30.235  29.516  1.00  0.00     0.074 A 
ATOM     44  C   UNL A   1      40.365  27.938  28.749  1.00  0.00     0.049 A 
ATOM     45  N   UNL A   1      42.195  30.228  29.530  1.00  0.00    -0.248 NA
ATOM     46  C   UNL A   1      40.289  31.462  30.071  1.00  0.00     0.031 C 
ATOM     47  C   UNL A   1      39.516  26.810  28.352  1.00  0.00     0.029 A 
ATOM     48  N   UNL A   1      41.626  27.403  28.782  1.00  0.00    -0.354 N 
ATOM     49  C   UNL A   1      42.574  31.464  30.039  1.00  0.00     0.074 A 
ATOM     50  C   UNL A   1      41.361  32.202  30.315  1.00  0.00     0.031 C 
ATOM     51  C   UNL A   1      40.276  25.716  28.199  1.00  0.00     0.029 A 
ATOM     52  C   UNL A   1      41.671  26.089  28.381  1.00  0.00     0.049 A 
ATOM     53  H   UNL A   1      42.422  27.909  29.067  1.00  0.00     0.167 HD
ATOM     54  C   UNL A   1      43.826  31.935  30.247  1.00  0.00     0.031 A 
ATOM     55  C   UNL A   1      42.724  25.290  28.123  1.00  0.00     0.031 A 
ATOM     56  C   UNL A   1      45.013  31.163  29.988  1.00  0.00     0.049 A 
ATOM     57  C   UNL A   1      44.104  25.864  28.272  1.00  0.00     0.074 A 
ATOM     58  C   UNL A   1      46.337  31.536  30.140  1.00  0.00     0.029 A 
ATOM     59  N   UNL A   1      45.016  29.848  29.539  1.00  0.00    -0.354 N 
ATOM     60  N   UNL A   1      44.459  27.063  28.673  1.00  0.00    -0.248 NA
ATOM     61  C   UNL A   1      45.226  24.986  27.921  1.00  0.00     0.031 C 
ATOM     62  C   UNL A   1      47.139  30.463  29.738  1.00  0.00     0.029 A 
ATOM     63  C   UNL A   1      46.316  29.400  29.395  1.00  0.00     0.049 A 
ATOM     64  H   UNL A   1      44.211  29.314  29.350  1.00  0.00     0.167 HD
ATOM     65  C   UNL A   1      45.847  27.073  28.651  1.00  0.00     0.074 A 
ATOM     66  C   UNL A   1      46.266  25.758  28.209  1.00  0.00     0.031 C 
ATOM     67  C   UNL A   1      46.700  28.078  28.967  1.00  0.00     0.031 A 
BRANCH  54  68
ATOM     68  C   UNL A   1      43.975  33.354  30.729  1.00  0.00    -0.014 A 
ATOM     69  C   UNL A   1      43.879  33.684  32.094  1.00  0.00     0.010 A 
ATOM     70  C   UNL A   1      44.250  34.374  29.799  1.00  0.00     0.010 A 
ATOM     71  C   UNL A   1      44.023  35.010  32.513  1.00  0.00     0.020 A 
ATOM     72  C   UNL A   1      44.423  35.697  30.218  1.00  0.00     0.020 A 
ATOM     73  C   UNL A   1      44.293  36.009  31.572  1.00  0.00     0.054 A 
BRANCH  73  74
ATOM     74  S   UNL A   1      44.503  37.716  32.149  1.00  0.00     0.124 S 
ATOM     75  O   UNL A   1      45.953  37.883  32.081  1.00  0.00    -0.237 OA
ATOM     76  O   UNL A   1      43.737  38.482  31.169  1.00  0.00    -0.237 OA
ATOM     77  O   UNL A   1      43.943  37.700  33.498  1.00  0.00    -0.744 OA
ENDBRANCH  73  74
ENDBRANCH  54  68
BRANCH  55  78
ATOM     78  C   UNL A   1      42.510  23.898  27.638  1.00  0.00    -0.014 A 
ATOM     79  C   UNL A   1      42.356  22.839  28.548  1.00  0.00     0.010 A 
ATOM     80  C   UNL A   1      42.454  23.623  26.258  1.00  0.00     0.010 A 
ATOM     81  C   UNL A   1      42.181  21.530  28.090  1.00  0.00     0.020 A 
ATOM     82  C   UNL A   1      42.242  22.321  25.796  1.00  0.00     0.020 A 
ATOM     83  C   UNL A   1      42.125  21.280  26.716  1.00  0.00     0.054 A 
BRANCH  83  84
ATOM     84  S   UNL A   1      41.875  19.575  26.146  1.00  0.00     0.124 S 
ATOM     85  O   UNL A   1      42.305  18.802  27.307  1.00  0.00    -0.237 OA
ATOM     86  O   UNL A   1      40.443  19.543  25.860  1.00  0.00    -0.237 OA
ATOM     87  O   UNL A   1      42.740  19.475  24.973  1.00  0.00    -0.744 OA
ENDBRANCH  83  84
ENDBRANCH  55  78
BRANCH  67  88
ATOM     88  C   UNL A   1      48.171  27.773  28.903  1.00  0.00    -0.014 A 
ATOM     89  C   UNL A   1      48.823  27.095  29.949  1.00  0.00     0.010 A 
ATOM     90  C   UNL A   1      48.893  28.116  27.747  1.00  0.00     0.010 A 
ATOM     91  C   UNL A   1      50.181  26.789  29.845  1.00  0.00     0.020 A 
ATOM     92  C   UNL A   1      50.243  27.785  27.629  1.00  0.00     0.020 A 
ATOM     93  C   UNL A   1      50.882  27.132  28.684  1.00  0.00     0.054 A 
BRANCH  93  94
ATOM     94  S   UNL A   1      52.629  26.667  28.552  1.00  0.00     0.124 S 
ATOM     95  O   UNL A   1      53.245  27.917  28.118  1.00  0.00    -0.237 OA
ATOM     96  O   UNL A   1      52.951  26.246  29.913  1.00  0.00    -0.237 OA
ATOM     97  O   UNL A   1      52.628  25.595  27.559  1.00  0.00    -0.744 OA
ENDBRANCH  93  94
ENDBRANCH  67  88
ENDBRANCH  41  42
ENDBRANCH  34  36
ENDBRANCH  33  34
ENDBRANCH  32  33
ENDBRANCH   1  32
TORSDOF 18
ENDMDL
