MODEL 1
REMARK VINA RESULT:     -10.3      0.000      0.000
REMARK SMILES C[C@H]1[NH2+]CC[C@H]1C(=O)N1CCC(C(=O)OCCOC(=O)c2ccc(-c3c4nc(c(-c5ccc(S(=O)(=O)[O-])cc5)c5ccc([nH]5)c(-c5ccc(S(=O)(=O)[O-])cc5)c5nc(c(-c6ccc(S(=O)(=O)[O-])cc6)c6ccc3[nH]6)C=C5)C=C4)cc2)CC1
REMARK SMILES IDX 17 1 16 2 15 3 13 4 14 5 12 6 7 7 8 8 9 9 10 10 82 11 11 12
REMARK SMILES IDX 81 13 6 14 1 15 2 16 3 17 4 18 5 21 18 22 19 23 20 24 21 25
REMARK SMILES IDX 22 26 80 27 23 28 79 29 24 30 25 31 26 32 73 33 27 34 78 35
REMARK SMILES IDX 72 36 74 37 28 38 77 39 71 40 70 41 29 43 59 44 40 45 58 46
REMARK SMILES IDX 41 47 44 48 57 49 75 50 42 51 43 52 56 54 76 55 45 56 30 57
REMARK SMILES IDX 31 58 39 59 32 60 38 61 33 62 34 63 35 64 36 65 37 66 60 67
REMARK SMILES IDX 61 68 69 69 62 70 68 71 63 72 64 73 65 74 66 75 67 76 46 77
REMARK SMILES IDX 47 78 55 79 48 80 54 81 49 82 50 83 51 84 52 85 53 86
REMARK H PARENT 3 19 3 20 74 42 44 53
REMARK Flexibility Score: inf
ROOT
ATOM      1  C   UNL A   1      33.090  28.377  26.361  1.00  0.00     0.275 C 
ENDROOT
BRANCH   1   2
ATOM      2  C   UNL A   1      31.612  28.178  26.715  1.00  0.00     0.274 C 
BRANCH   2   3
ATOM      3  O   UNL A   1      31.293  26.785  26.883  1.00  0.00    -0.462 OA
BRANCH   3   4
ATOM      4  C   UNL A   1      30.835  26.142  25.780  1.00  0.00     0.309 C 
ATOM      5  O   UNL A   1      29.996  26.599  25.010  1.00  0.00    -0.252 OA
BRANCH   4   6
ATOM      6  C   UNL A   1      31.538  24.825  25.518  1.00  0.00     0.103 C 
ATOM      7  C   UNL A   1      34.771  23.304  23.990  1.00  0.00     0.231 C 
ATOM      8  O   UNL A   1      34.846  24.275  23.236  1.00  0.00    -0.274 OA
ATOM      9  N   UNL A   1      33.612  23.012  24.691  1.00  0.00    -0.342 N 
ATOM     10  C   UNL A   1      32.345  23.026  23.969  1.00  0.00     0.120 C 
ATOM     11  C   UNL A   1      33.515  23.415  26.086  1.00  0.00     0.120 C 
ATOM     12  C   UNL A   1      31.643  24.383  24.055  1.00  0.00     0.037 C 
ATOM     13  C   UNL A   1      32.919  24.817  26.184  1.00  0.00     0.037 C 
BRANCH   7  14
ATOM     14  C   UNL A   1      35.912  22.300  24.092  1.00  0.00     0.142 C 
ATOM     15  C   UNL A   1      37.352  23.696  25.754  1.00  0.00     0.076 C 
ATOM     16  C   UNL A   1      37.286  22.815  24.509  1.00  0.00     0.192 C 
ATOM     17  N   UNL A   1      38.057  21.575  24.755  1.00  0.00    -0.343 N 
ATOM     18  C   UNL A   1      37.109  20.490  25.045  1.00  0.00     0.261 C 
ATOM     19  H   UNL A   1      38.682  21.709  25.550  1.00  0.00     0.346 HD
ATOM     20  H   UNL A   1      38.618  21.341  23.935  1.00  0.00     0.346 HD
ATOM     21  C   UNL A   1      35.710  21.078  24.966  1.00  0.00     0.081 C 
ENDBRANCH   7  14
ENDBRANCH   4   6
ENDBRANCH   3   4
ENDBRANCH   2   3
ENDBRANCH   1   2
BRANCH   1  22
ATOM     22  O   UNL A   1      33.905  28.638  27.521  1.00  0.00    -0.458 OA
BRANCH  22  23
ATOM     23  C   UNL A   1      34.451  29.874  27.561  1.00  0.00     0.338 C 
ATOM     24  O   UNL A   1      33.897  30.932  27.294  1.00  0.00    -0.246 OA
BRANCH  23  25
ATOM     25  C   UNL A   1      35.824  29.828  28.084  1.00  0.00     0.060 A 
ATOM     26  C   UNL A   1      36.864  30.039  27.181  1.00  0.00     0.016 A 
ATOM     27  C   UNL A   1      36.096  29.412  29.387  1.00  0.00     0.016 A 
ATOM     28  C   UNL A   1      38.176  29.763  27.542  1.00  0.00     0.010 A 
ATOM     29  C   UNL A   1      37.425  29.176  29.766  1.00  0.00     0.010 A 
ATOM     30  C   UNL A   1      38.470  29.314  28.833  1.00  0.00    -0.014 A 
BRANCH  30  31
ATOM     31  C   UNL A   1      39.866  28.927  29.156  1.00  0.00     0.031 A 
ATOM     32  C   UNL A   1      40.746  29.863  29.940  1.00  0.00     0.074 A 
ATOM     33  C   UNL A   1      40.319  27.704  28.817  1.00  0.00     0.049 A 
ATOM     34  N   UNL A   1      41.999  29.718  30.291  1.00  0.00    -0.248 NA
ATOM     35  C   UNL A   1      40.139  31.127  30.389  1.00  0.00     0.031 C 
ATOM     36  C   UNL A   1      39.545  26.681  28.110  1.00  0.00     0.029 A 
ATOM     37  N   UNL A   1      41.533  27.107  29.042  1.00  0.00    -0.354 N 
ATOM     38  C   UNL A   1      42.340  30.883  30.967  1.00  0.00     0.074 A 
ATOM     39  C   UNL A   1      41.165  31.728  30.974  1.00  0.00     0.031 C 
ATOM     40  C   UNL A   1      40.295  25.574  27.984  1.00  0.00     0.029 A 
ATOM     41  C   UNL A   1      41.615  25.826  28.553  1.00  0.00     0.049 A 
ATOM     42  H   UNL A   1      42.276  27.554  29.510  1.00  0.00     0.167 HD
ATOM     43  C   UNL A   1      43.525  31.221  31.531  1.00  0.00     0.031 A 
ATOM     44  C   UNL A   1      42.643  24.956  28.545  1.00  0.00     0.031 A 
ATOM     45  C   UNL A   1      44.688  30.374  31.541  1.00  0.00     0.049 A 
ATOM     46  C   UNL A   1      43.954  25.361  29.157  1.00  0.00     0.074 A 
ATOM     47  C   UNL A   1      45.942  30.634  32.072  1.00  0.00     0.029 A 
ATOM     48  N   UNL A   1      44.739  29.096  31.008  1.00  0.00    -0.354 N 
ATOM     49  N   UNL A   1      44.272  26.488  29.750  1.00  0.00    -0.248 NA
ATOM     50  C   UNL A   1      45.044  24.379  29.097  1.00  0.00     0.031 C 
ATOM     51  C   UNL A   1      46.757  29.521  31.835  1.00  0.00     0.029 A 
ATOM     52  C   UNL A   1      46.001  28.555  31.193  1.00  0.00     0.049 A 
ATOM     53  H   UNL A   1      43.989  28.639  30.563  1.00  0.00     0.167 HD
ATOM     54  C   UNL A   1      45.597  26.344  30.145  1.00  0.00     0.074 A 
ATOM     55  C   UNL A   1      46.013  25.016  29.741  1.00  0.00     0.031 C 
ATOM     56  C   UNL A   1      46.398  27.233  30.781  1.00  0.00     0.031 A 
BRANCH  43  57
ATOM     57  C   UNL A   1      43.631  32.590  32.144  1.00  0.00    -0.014 A 
ATOM     58  C   UNL A   1      43.525  32.779  33.534  1.00  0.00     0.010 A 
ATOM     59  C   UNL A   1      43.852  33.704  31.314  1.00  0.00     0.010 A 
ATOM     60  C   UNL A   1      43.597  34.065  34.078  1.00  0.00     0.020 A 
ATOM     61  C   UNL A   1      43.946  34.988  31.857  1.00  0.00     0.020 A 
ATOM     62  C   UNL A   1      43.798  35.163  33.234  1.00  0.00     0.054 A 
BRANCH  62  63
ATOM     63  S   UNL A   1      43.891  36.823  33.961  1.00  0.00     0.124 S 
ATOM     64  O   UNL A   1      43.389  37.656  32.871  1.00  0.00    -0.237 OA
ATOM     65  O   UNL A   1      43.015  36.717  35.125  1.00  0.00    -0.237 OA
ATOM     66  O   UNL A   1      45.310  36.986  34.267  1.00  0.00    -0.744 OA
ENDBRANCH  62  63
ENDBRANCH  43  57
BRANCH  44  67
ATOM     67  C   UNL A   1      42.475  23.620  27.913  1.00  0.00    -0.014 A 
ATOM     68  C   UNL A   1      42.818  23.418  26.565  1.00  0.00     0.010 A 
ATOM     69  C   UNL A   1      41.987  22.539  28.667  1.00  0.00     0.010 A 
ATOM     70  C   UNL A   1      42.667  22.158  25.980  1.00  0.00     0.020 A 
ATOM     71  C   UNL A   1      41.857  21.272  28.093  1.00  0.00     0.020 A 
ATOM     72  C   UNL A   1      42.188  21.092  26.749  1.00  0.00     0.054 A 
BRANCH  72  73
ATOM     73  S   UNL A   1      42.060  19.448  25.994  1.00  0.00     0.124 S 
ATOM     74  O   UNL A   1      40.626  19.335  25.753  1.00  0.00    -0.237 OA
ATOM     75  O   UNL A   1      42.895  19.577  24.801  1.00  0.00    -0.237 OA
ATOM     76  O   UNL A   1      42.596  18.561  27.024  1.00  0.00    -0.744 OA
ENDBRANCH  72  73
ENDBRANCH  44  67
BRANCH  56  77
ATOM     77  C   UNL A   1      47.794  26.781  31.106  1.00  0.00    -0.014 A 
ATOM     78  C   UNL A   1      48.844  26.951  30.186  1.00  0.00     0.010 A 
ATOM     79  C   UNL A   1      48.061  26.194  32.356  1.00  0.00     0.010 A 
ATOM     80  C   UNL A   1      50.131  26.504  30.496  1.00  0.00     0.020 A 
ATOM     81  C   UNL A   1      49.350  25.765  32.676  1.00  0.00     0.020 A 
ATOM     82  C   UNL A   1      50.374  25.905  31.736  1.00  0.00     0.054 A 
BRANCH  82  83
ATOM     83  S   UNL A   1      52.054  25.345  32.129  1.00  0.00     0.124 S 
ATOM     84  O   UNL A   1      52.312  26.028  33.394  1.00  0.00    -0.237 OA
ATOM     85  O   UNL A   1      51.900  23.895  32.220  1.00  0.00    -0.237 OA
ATOM     86  O   UNL A   1      52.846  25.811  30.994  1.00  0.00    -0.744 OA
ENDBRANCH  82  83
ENDBRANCH  56  77
ENDBRANCH  30  31
ENDBRANCH  23  25
ENDBRANCH  22  23
ENDBRANCH   1  22
TORSDOF 15
ENDMDL
MODEL 2
REMARK VINA RESULT:     -10.2      2.776      9.441
REMARK SMILES C[C@H]1[NH2+]CC[C@H]1C(=O)N1CCC(C(=O)OCCOC(=O)c2ccc(-c3c4nc(c(-c5ccc(S(=O)(=O)[O-])cc5)c5ccc([nH]5)c(-c5ccc(S(=O)(=O)[O-])cc5)c5nc(c(-c6ccc(S(=O)(=O)[O-])cc6)c6ccc3[nH]6)C=C5)C=C4)cc2)CC1
REMARK SMILES IDX 17 1 16 2 15 3 13 4 14 5 12 6 7 7 8 8 9 9 10 10 82 11 11 12
REMARK SMILES IDX 81 13 6 14 1 15 2 16 3 17 4 18 5 21 18 22 19 23 20 24 21 25
REMARK SMILES IDX 22 26 80 27 23 28 79 29 24 30 25 31 26 32 73 33 27 34 78 35
REMARK SMILES IDX 72 36 74 37 28 38 77 39 71 40 70 41 29 43 59 44 40 45 58 46
REMARK SMILES IDX 41 47 44 48 57 49 75 50 42 51 43 52 56 54 76 55 45 56 30 57
REMARK SMILES IDX 31 58 39 59 32 60 38 61 33 62 34 63 35 64 36 65 37 66 60 67
REMARK SMILES IDX 61 68 69 69 62 70 68 71 63 72 64 73 65 74 66 75 67 76 46 77
REMARK SMILES IDX 47 78 55 79 48 80 54 81 49 82 50 83 51 84 52 85 53 86
REMARK H PARENT 3 19 3 20 74 42 44 53
REMARK Flexibility Score: inf
ROOT
ATOM      1  C   UNL A   1      37.879  21.272  25.413  1.00  0.00     0.275 C 
ENDROOT
BRANCH   1   2
ATOM      2  C   UNL A   1      36.409  21.018  25.060  1.00  0.00     0.274 C 
BRANCH   2   3
ATOM      3  O   UNL A   1      35.533  21.436  26.123  1.00  0.00    -0.462 OA
BRANCH   3   4
ATOM      4  C   UNL A   1      34.229  21.603  25.787  1.00  0.00     0.309 C 
ATOM      5  O   UNL A   1      33.348  20.776  25.996  1.00  0.00    -0.252 OA
BRANCH   4   6
ATOM      6  C   UNL A   1      33.929  22.972  25.209  1.00  0.00     0.103 C 
ATOM      7  C   UNL A   1      32.367  26.419  26.094  1.00  0.00     0.231 C 
ATOM      8  O   UNL A   1      31.644  25.856  26.916  1.00  0.00    -0.274 OA
ATOM      9  N   UNL A   1      33.055  25.711  25.121  1.00  0.00    -0.342 N 
ATOM     10  C   UNL A   1      32.328  24.704  24.356  1.00  0.00     0.120 C 
ATOM     11  C   UNL A   1      34.461  25.405  25.337  1.00  0.00     0.120 C 
ATOM     12  C   UNL A   1      32.453  23.307  24.969  1.00  0.00     0.037 C 
ATOM     13  C   UNL A   1      34.599  24.064  26.052  1.00  0.00     0.037 C 
BRANCH   7  14
ATOM     14  C   UNL A   1      32.443  27.939  26.026  1.00  0.00     0.142 C 
ATOM     15  C   UNL A   1      30.610  28.219  24.195  1.00  0.00     0.076 C 
ATOM     16  C   UNL A   1      31.976  28.624  24.745  1.00  0.00     0.192 C 
ATOM     17  N   UNL A   1      31.940  30.057  25.116  1.00  0.00    -0.343 N 
ATOM     18  C   UNL A   1      31.804  30.154  26.576  1.00  0.00     0.261 C 
ATOM     19  H   UNL A   1      31.145  30.511  24.665  1.00  0.00     0.346 HD
ATOM     20  H   UNL A   1      32.796  30.521  24.812  1.00  0.00     0.346 HD
ATOM     21  C   UNL A   1      31.765  28.736  27.123  1.00  0.00     0.081 C 
ENDBRANCH   7  14
ENDBRANCH   4   6
ENDBRANCH   3   4
ENDBRANCH   2   3
ENDBRANCH   1   2
BRANCH   1  22
ATOM     22  O   UNL A   1      38.136  22.649  25.754  1.00  0.00    -0.458 OA
BRANCH  22  23
ATOM     23  C   UNL A   1      39.370  22.886  26.252  1.00  0.00     0.338 C 
ATOM     24  O   UNL A   1      40.356  22.168  26.151  1.00  0.00    -0.246 OA
BRANCH  23  25
ATOM     25  C   UNL A   1      39.440  24.215  26.876  1.00  0.00     0.060 A 
ATOM     26  C   UNL A   1      40.149  25.207  26.202  1.00  0.00     0.016 A 
ATOM     27  C   UNL A   1      38.977  24.439  28.173  1.00  0.00     0.016 A 
ATOM     28  C   UNL A   1      40.470  26.398  26.838  1.00  0.00     0.010 A 
ATOM     29  C   UNL A   1      39.263  25.659  28.800  1.00  0.00     0.010 A 
ATOM     30  C   UNL A   1      40.044  26.632  28.149  1.00  0.00    -0.014 A 
BRANCH  30  31
ATOM     31  C   UNL A   1      40.493  27.868  28.838  1.00  0.00     0.031 A 
ATOM     32  C   UNL A   1      41.916  27.991  29.314  1.00  0.00     0.074 A 
ATOM     33  C   UNL A   1      39.649  28.910  28.965  1.00  0.00     0.049 A 
ATOM     34  N   UNL A   1      42.487  28.974  29.963  1.00  0.00    -0.248 NA
ATOM     35  C   UNL A   1      42.814  26.862  29.022  1.00  0.00     0.031 C 
ATOM     36  C   UNL A   1      38.263  28.939  28.492  1.00  0.00     0.029 A 
ATOM     37  N   UNL A   1      39.840  30.153  29.513  1.00  0.00    -0.354 N 
ATOM     38  C   UNL A   1      43.796  28.570  30.189  1.00  0.00     0.074 A 
ATOM     39  C   UNL A   1      43.936  27.249  29.614  1.00  0.00     0.031 C 
ATOM     40  C   UNL A   1      37.740  30.150  28.744  1.00  0.00     0.029 A 
ATOM     41  C   UNL A   1      38.732  30.962  29.442  1.00  0.00     0.049 A 
ATOM     42  H   UNL A   1      40.691  30.439  29.918  1.00  0.00     0.167 HD
ATOM     43  C   UNL A   1      44.793  29.235  30.821  1.00  0.00     0.031 A 
ATOM     44  C   UNL A   1      38.528  32.210  29.904  1.00  0.00     0.031 A 
ATOM     45  C   UNL A   1      44.660  30.556  31.377  1.00  0.00     0.049 A 
ATOM     46  C   UNL A   1      39.642  32.920  30.620  1.00  0.00     0.074 A 
ATOM     47  C   UNL A   1      45.608  31.307  32.053  1.00  0.00     0.029 A 
ATOM     48  N   UNL A   1      43.512  31.328  31.312  1.00  0.00    -0.354 N 
ATOM     49  N   UNL A   1      40.861  32.501  30.867  1.00  0.00    -0.248 NA
ATOM     50  C   UNL A   1      39.352  34.269  31.121  1.00  0.00     0.031 C 
ATOM     51  C   UNL A   1      45.022  32.525  32.418  1.00  0.00     0.029 A 
ATOM     52  C   UNL A   1      43.724  32.546  31.936  1.00  0.00     0.049 A 
ATOM     53  H   UNL A   1      42.669  31.052  30.884  1.00  0.00     0.167 HD
ATOM     54  C   UNL A   1      41.487  33.542  31.542  1.00  0.00     0.074 A 
ATOM     55  C   UNL A   1      40.520  34.616  31.647  1.00  0.00     0.031 C 
ATOM     56  C   UNL A   1      42.748  33.602  32.034  1.00  0.00     0.031 A 
BRANCH  43  57
ATOM     57  C   UNL A   1      46.106  28.518  30.982  1.00  0.00    -0.014 A 
ATOM     58  C   UNL A   1      46.398  27.782  32.144  1.00  0.00     0.010 A 
ATOM     59  C   UNL A   1      47.056  28.574  29.946  1.00  0.00     0.010 A 
ATOM     60  C   UNL A   1      47.636  27.148  32.284  1.00  0.00     0.020 A 
ATOM     61  C   UNL A   1      48.286  27.923  30.074  1.00  0.00     0.020 A 
ATOM     62  C   UNL A   1      48.577  27.230  31.251  1.00  0.00     0.054 A 
BRANCH  62  63
ATOM     63  S   UNL A   1      50.176  26.397  31.451  1.00  0.00     0.124 S 
ATOM     64  O   UNL A   1      50.549  26.790  32.809  1.00  0.00    -0.237 OA
ATOM     65  O   UNL A   1      49.833  24.989  31.277  1.00  0.00    -0.237 OA
ATOM     66  O   UNL A   1      50.998  26.971  30.389  1.00  0.00    -0.744 OA
ENDBRANCH  62  63
ENDBRANCH  43  57
BRANCH  44  67
ATOM     67  C   UNL A   1      37.202  32.858  29.721  1.00  0.00    -0.014 A 
ATOM     68  C   UNL A   1      36.266  32.882  30.768  1.00  0.00     0.010 A 
ATOM     69  C   UNL A   1      36.880  33.472  28.497  1.00  0.00     0.010 A 
ATOM     70  C   UNL A   1      35.025  33.500  30.592  1.00  0.00     0.020 A 
ATOM     71  C   UNL A   1      35.651  34.113  28.325  1.00  0.00     0.020 A 
ATOM     72  C   UNL A   1      34.726  34.114  29.370  1.00  0.00     0.054 A 
BRANCH  72  73
ATOM     73  S   UNL A   1      33.139  34.971  29.179  1.00  0.00     0.124 S 
ATOM     74  O   UNL A   1      32.610  34.935  30.538  1.00  0.00    -0.237 OA
ATOM     75  O   UNL A   1      33.543  36.288  28.691  1.00  0.00    -0.237 OA
ATOM     76  O   UNL A   1      32.426  34.148  28.205  1.00  0.00    -0.744 OA
ENDBRANCH  72  73
ENDBRANCH  44  67
BRANCH  56  77
ATOM     77  C   UNL A   1      43.159  34.884  32.700  1.00  0.00    -0.014 A 
ATOM     78  C   UNL A   1      43.745  35.929  31.964  1.00  0.00     0.010 A 
ATOM     79  C   UNL A   1      42.937  35.053  34.079  1.00  0.00     0.010 A 
ATOM     80  C   UNL A   1      44.141  37.107  32.605  1.00  0.00     0.020 A 
ATOM     81  C   UNL A   1      43.313  36.236  34.718  1.00  0.00     0.020 A 
ATOM     82  C   UNL A   1      43.931  37.248  33.980  1.00  0.00     0.054 A 
BRANCH  82  83
ATOM     83  S   UNL A   1      44.436  38.789  34.793  1.00  0.00     0.124 S 
ATOM     84  O   UNL A   1      44.156  38.496  36.196  1.00  0.00    -0.237 OA
ATOM     85  O   UNL A   1      45.851  38.893  34.444  1.00  0.00    -0.237 OA
ATOM     86  O   UNL A   1      43.575  39.799  34.182  1.00  0.00    -0.744 OA
ENDBRANCH  82  83
ENDBRANCH  56  77
ENDBRANCH  30  31
ENDBRANCH  23  25
ENDBRANCH  22  23
ENDBRANCH   1  22
TORSDOF 15
ENDMDL
MODEL 3
REMARK VINA RESULT:     -10.2      3.844     10.690
REMARK SMILES C[C@H]1[NH2+]CC[C@H]1C(=O)N1CCC(C(=O)OCCOC(=O)c2ccc(-c3c4nc(c(-c5ccc(S(=O)(=O)[O-])cc5)c5ccc([nH]5)c(-c5ccc(S(=O)(=O)[O-])cc5)c5nc(c(-c6ccc(S(=O)(=O)[O-])cc6)c6ccc3[nH]6)C=C5)C=C4)cc2)CC1
REMARK SMILES IDX 17 1 16 2 15 3 13 4 14 5 12 6 7 7 8 8 9 9 10 10 82 11 11 12
REMARK SMILES IDX 81 13 6 14 1 15 2 16 3 17 4 18 5 21 18 22 19 23 20 24 21 25
REMARK SMILES IDX 22 26 80 27 23 28 79 29 24 30 25 31 26 32 73 33 27 34 78 35
REMARK SMILES IDX 72 36 74 37 28 38 77 39 71 40 70 41 29 43 59 44 40 45 58 46
REMARK SMILES IDX 41 47 44 48 57 49 75 50 42 51 43 52 56 54 76 55 45 56 30 57
REMARK SMILES IDX 31 58 39 59 32 60 38 61 33 62 34 63 35 64 36 65 37 66 60 67
REMARK SMILES IDX 61 68 69 69 62 70 68 71 63 72 64 73 65 74 66 75 67 76 46 77
REMARK SMILES IDX 47 78 55 79 48 80 54 81 49 82 50 83 51 84 52 85 53 86
REMARK H PARENT 3 19 3 20 74 42 44 53
REMARK Flexibility Score: inf
ROOT
ATOM      1  C   UNL A   1      40.534  20.845  26.506  1.00  0.00     0.275 C 
ENDROOT
BRANCH   1   2
ATOM      2  C   UNL A   1      41.903  20.179  26.336  1.00  0.00     0.274 C 
BRANCH   2   3
ATOM      3  O   UNL A   1      42.723  20.892  25.392  1.00  0.00    -0.462 OA
BRANCH   3   4
ATOM      4  C   UNL A   1      44.034  20.545  25.363  1.00  0.00     0.309 C 
ATOM      5  O   UNL A   1      44.444  19.399  25.206  1.00  0.00    -0.252 OA
BRANCH   4   6
ATOM      6  C   UNL A   1      44.971  21.734  25.439  1.00  0.00     0.103 C 
ATOM      7  C   UNL A   1      45.023  25.616  25.602  1.00  0.00     0.231 C 
ATOM      8  O   UNL A   1      43.953  25.635  24.993  1.00  0.00    -0.274 OA
ATOM      9  N   UNL A   1      45.809  24.477  25.662  1.00  0.00    -0.342 N 
ATOM     10  C   UNL A   1      46.067  23.748  24.425  1.00  0.00     0.120 C 
ATOM     11  C   UNL A   1      45.743  23.639  26.851  1.00  0.00     0.120 C 
ATOM     12  C   UNL A   1      45.058  22.621  24.194  1.00  0.00     0.037 C 
ATOM     13  C   UNL A   1      44.659  22.577  26.681  1.00  0.00     0.037 C 
BRANCH   7  14
ATOM     14  C   UNL A   1      45.600  26.886  26.214  1.00  0.00     0.142 C 
ATOM     15  C   UNL A   1      47.132  27.489  24.195  1.00  0.00     0.076 C 
ATOM     16  C   UNL A   1      46.952  27.378  25.707  1.00  0.00     0.192 C 
ATOM     17  N   UNL A   1      47.074  28.726  26.307  1.00  0.00    -0.343 N 
ATOM     18  C   UNL A   1      45.725  29.218  26.617  1.00  0.00     0.261 C 
ATOM     19  H   UNL A   1      47.529  29.358  25.647  1.00  0.00     0.346 HD
ATOM     20  H   UNL A   1      47.636  28.683  27.158  1.00  0.00     0.346 HD
ATOM     21  C   UNL A   1      44.742  28.136  26.205  1.00  0.00     0.081 C 
ENDBRANCH   7  14
ENDBRANCH   4   6
ENDBRANCH   3   4
ENDBRANCH   2   3
ENDBRANCH   1   2
BRANCH   1  22
ATOM     22  O   UNL A   1      40.551  22.242  26.152  1.00  0.00    -0.458 OA
BRANCH  22  23
ATOM     23  C   UNL A   1      39.340  22.843  26.165  1.00  0.00     0.338 C 
ATOM     24  O   UNL A   1      38.275  22.362  25.801  1.00  0.00    -0.246 OA
BRANCH  23  25
ATOM     25  C   UNL A   1      39.417  24.172  26.789  1.00  0.00     0.060 A 
ATOM     26  C   UNL A   1      40.158  25.151  26.130  1.00  0.00     0.016 A 
ATOM     27  C   UNL A   1      38.928  24.405  28.074  1.00  0.00     0.016 A 
ATOM     28  C   UNL A   1      40.485  26.338  26.772  1.00  0.00     0.010 A 
ATOM     29  C   UNL A   1      39.220  25.622  28.706  1.00  0.00     0.010 A 
ATOM     30  C   UNL A   1      40.033  26.581  28.073  1.00  0.00    -0.014 A 
BRANCH  30  31
ATOM     31  C   UNL A   1      40.486  27.809  28.771  1.00  0.00     0.031 A 
ATOM     32  C   UNL A   1      41.905  27.918  29.260  1.00  0.00     0.074 A 
ATOM     33  C   UNL A   1      39.650  28.859  28.894  1.00  0.00     0.049 A 
ATOM     34  N   UNL A   1      42.478  28.894  29.918  1.00  0.00    -0.248 NA
ATOM     35  C   UNL A   1      42.796  26.783  28.973  1.00  0.00     0.031 C 
ATOM     36  C   UNL A   1      38.269  28.902  28.407  1.00  0.00     0.029 A 
ATOM     37  N   UNL A   1      39.846  30.098  29.447  1.00  0.00    -0.354 N 
ATOM     38  C   UNL A   1      43.782  28.477  30.155  1.00  0.00     0.074 A 
ATOM     39  C   UNL A   1      43.916  27.158  29.576  1.00  0.00     0.031 C 
ATOM     40  C   UNL A   1      37.753  30.117  28.659  1.00  0.00     0.029 A 
ATOM     41  C   UNL A   1      38.746  30.917  29.370  1.00  0.00     0.049 A 
ATOM     42  H   UNL A   1      40.696  30.375  29.861  1.00  0.00     0.167 HD
ATOM     43  C   UNL A   1      44.779  29.132  30.799  1.00  0.00     0.031 A 
ATOM     44  C   UNL A   1      38.549  32.166  29.834  1.00  0.00     0.031 A 
ATOM     45  C   UNL A   1      44.652  30.451  31.359  1.00  0.00     0.049 A 
ATOM     46  C   UNL A   1      39.662  32.863  30.563  1.00  0.00     0.074 A 
ATOM     47  C   UNL A   1      45.600  31.192  32.046  1.00  0.00     0.029 A 
ATOM     48  N   UNL A   1      43.512  31.234  31.285  1.00  0.00    -0.354 N 
ATOM     49  N   UNL A   1      40.875  32.431  30.820  1.00  0.00    -0.248 NA
ATOM     50  C   UNL A   1      39.380  34.213  31.066  1.00  0.00     0.031 C 
ATOM     51  C   UNL A   1      45.022  32.414  32.410  1.00  0.00     0.029 A 
ATOM     52  C   UNL A   1      43.728  32.448  31.916  1.00  0.00     0.049 A 
ATOM     53  H   UNL A   1      42.670  30.967  30.849  1.00  0.00     0.167 HD
ATOM     54  C   UNL A   1      41.504  33.465  31.505  1.00  0.00     0.074 A 
ATOM     55  C   UNL A   1      40.545  34.547  31.604  1.00  0.00     0.031 C 
ATOM     56  C   UNL A   1      42.761  33.512  32.009  1.00  0.00     0.031 A 
BRANCH  43  57
ATOM     57  C   UNL A   1      46.083  28.403  30.969  1.00  0.00    -0.014 A 
ATOM     58  C   UNL A   1      47.078  28.442  29.976  1.00  0.00     0.010 A 
ATOM     59  C   UNL A   1      46.320  27.677  32.151  1.00  0.00     0.010 A 
ATOM     60  C   UNL A   1      48.271  27.733  30.144  1.00  0.00     0.020 A 
ATOM     61  C   UNL A   1      47.521  26.984  32.331  1.00  0.00     0.020 A 
ATOM     62  C   UNL A   1      48.481  27.000  31.318  1.00  0.00     0.054 A 
BRANCH  62  63
ATOM     63  S   UNL A   1      50.037  26.089  31.517  1.00  0.00     0.124 S 
ATOM     64  O   UNL A   1      50.912  27.112  32.086  1.00  0.00    -0.237 OA
ATOM     65  O   UNL A   1      49.665  25.006  32.424  1.00  0.00    -0.237 OA
ATOM     66  O   UNL A   1      50.368  25.672  30.157  1.00  0.00    -0.744 OA
ENDBRANCH  62  63
ENDBRANCH  43  57
BRANCH  44  67
ATOM     67  C   UNL A   1      37.231  32.825  29.640  1.00  0.00    -0.014 A 
ATOM     68  C   UNL A   1      36.264  32.807  30.660  1.00  0.00     0.010 A 
ATOM     69  C   UNL A   1      36.946  33.493  28.436  1.00  0.00     0.010 A 
ATOM     70  C   UNL A   1      35.031  33.437  30.475  1.00  0.00     0.020 A 
ATOM     71  C   UNL A   1      35.724  34.146  28.256  1.00  0.00     0.020 A 
ATOM     72  C   UNL A   1      34.769  34.105  29.273  1.00  0.00     0.054 A 
BRANCH  72  73
ATOM     73  S   UNL A   1      33.190  34.975  29.074  1.00  0.00     0.124 S 
ATOM     74  O   UNL A   1      33.624  36.285  28.600  1.00  0.00    -0.237 OA
ATOM     75  O   UNL A   1      32.489  34.147  28.094  1.00  0.00    -0.237 OA
ATOM     76  O   UNL A   1      32.619  34.950  30.419  1.00  0.00    -0.744 OA
ENDBRANCH  72  73
ENDBRANCH  44  67
BRANCH  56  77
ATOM     77  C   UNL A   1      43.177  34.788  32.684  1.00  0.00    -0.014 A 
ATOM     78  C   UNL A   1      43.749  35.843  31.951  1.00  0.00     0.010 A 
ATOM     79  C   UNL A   1      42.973  34.940  34.067  1.00  0.00     0.010 A 
ATOM     80  C   UNL A   1      44.149  37.015  32.599  1.00  0.00     0.020 A 
ATOM     81  C   UNL A   1      43.355  36.118  34.714  1.00  0.00     0.020 A 
ATOM     82  C   UNL A   1      43.958  37.140  33.979  1.00  0.00     0.054 A 
BRANCH  82  83
ATOM     83  S   UNL A   1      44.470  38.673  34.802  1.00  0.00     0.124 S 
ATOM     84  O   UNL A   1      45.899  38.713  34.508  1.00  0.00    -0.237 OA
ATOM     85  O   UNL A   1      43.663  39.689  34.130  1.00  0.00    -0.237 OA
ATOM     86  O   UNL A   1      44.127  38.442  36.204  1.00  0.00    -0.744 OA
ENDBRANCH  82  83
ENDBRANCH  56  77
ENDBRANCH  30  31
ENDBRANCH  23  25
ENDBRANCH  22  23
ENDBRANCH   1  22
TORSDOF 15
ENDMDL
