MODEL 1
REMARK VINA RESULT:      -9.2      0.000      0.000
REMARK SMILES CC/C(C(=O)OCCOC(=O)c1ccc(-c2c3nc(c(-c4ccc(S(=O)(=O)[O-])cc4)c4ccc([nH]4)c(-c4ccc(S(=O)(=O)[O-])cc4)c4nc(c(-c5ccc(S(=O)(=O)[O-])cc5)c5ccc2[nH]5)C=C4)C=C3)cc1)=C1\CCc2ccccc21
REMARK SMILES IDX 8 1 7 2 6 3 4 4 5 5 3 6 72 7 73 8 80 9 74 10 75 11 79 12
REMARK SMILES IDX 76 13 78 14 77 15 2 16 1 17 9 18 10 19 11 20 12 21 13 22
REMARK SMILES IDX 71 23 14 24 70 25 15 26 16 27 17 28 64 29 18 30 69 31 63 32
REMARK SMILES IDX 65 33 19 34 68 35 62 36 61 37 20 39 50 40 31 41 49 42 32 43
REMARK SMILES IDX 35 44 48 45 66 46 33 47 34 48 47 50 67 51 36 52 21 53 22 54
REMARK SMILES IDX 30 55 23 56 29 57 24 58 25 59 26 60 27 61 28 62 51 63 52 64
REMARK SMILES IDX 60 65 53 66 59 67 54 68 55 69 56 70 57 71 58 72 37 73 38 74
REMARK SMILES IDX 46 75 39 76 45 77 40 78 41 79 42 80 43 81 44 82
REMARK H PARENT 65 38 35 49
REMARK Flexibility Score: inf
ROOT
ATOM      1  C   UNL A   1      35.136  32.329  30.268  1.00  0.00     0.275 C 
ENDROOT
BRANCH   1   2
ATOM      2  C   UNL A   1      35.823  33.688  30.216  1.00  0.00     0.275 C 
BRANCH   2   3
ATOM      3  O   UNL A   1      37.251  33.512  30.316  1.00  0.00    -0.459 OA
BRANCH   3   4
ATOM      4  C   UNL A   1      37.821  33.916  31.472  1.00  0.00     0.334 C 
ATOM      5  O   UNL A   1      37.534  34.926  32.097  1.00  0.00    -0.247 OA
BRANCH   4   6
ATOM      6  C   UNL A   1      38.817  32.931  31.979  1.00  0.00     0.041 C 
ATOM      7  C   UNL A   1      40.134  33.036  31.698  1.00  0.00    -0.030 C 
ATOM      8  C   UNL A   1      41.245  32.364  32.493  1.00  0.00     0.041 C 
ATOM      9  C   UNL A   1      40.853  33.959  30.804  1.00  0.00    -0.019 A 
ATOM     10  C   UNL A   1      42.321  33.452  32.624  1.00  0.00     0.041 C 
ATOM     11  C   UNL A   1      42.105  34.232  31.365  1.00  0.00    -0.040 A 
ATOM     12  C   UNL A   1      40.547  34.463  29.550  1.00  0.00     0.009 A 
ATOM     13  C   UNL A   1      42.991  35.122  30.774  1.00  0.00     0.004 A 
ATOM     14  C   UNL A   1      41.438  35.342  28.928  1.00  0.00     0.001 A 
ATOM     15  C   UNL A   1      42.642  35.690  29.550  1.00  0.00     0.000 A 
BRANCH   6  16
ATOM     16  C   UNL A   1      38.256  31.999  33.034  1.00  0.00     0.040 C 
ATOM     17  C   UNL A   1      37.093  32.631  33.787  1.00  0.00     0.009 C 
ENDBRANCH   6  16
ENDBRANCH   4   6
ENDBRANCH   3   4
ENDBRANCH   2   3
ENDBRANCH   1   2
BRANCH   1  18
ATOM     18  O   UNL A   1      36.015  31.350  29.692  1.00  0.00    -0.458 OA
BRANCH  18  19
ATOM     19  C   UNL A   1      36.419  30.382  30.537  1.00  0.00     0.338 C 
ATOM     20  O   UNL A   1      35.899  30.050  31.601  1.00  0.00    -0.246 OA
BRANCH  19  21
ATOM     21  C   UNL A   1      37.568  29.679  29.968  1.00  0.00     0.060 A 
ATOM     22  C   UNL A   1      38.363  28.912  30.816  1.00  0.00     0.016 A 
ATOM     23  C   UNL A   1      37.970  29.935  28.660  1.00  0.00     0.016 A 
ATOM     24  C   UNL A   1      39.636  28.526  30.403  1.00  0.00     0.010 A 
ATOM     25  C   UNL A   1      39.201  29.444  28.213  1.00  0.00     0.010 A 
ATOM     26  C   UNL A   1      40.081  28.793  29.097  1.00  0.00    -0.014 A 
BRANCH  26  27
ATOM     27  C   UNL A   1      41.483  28.474  28.691  1.00  0.00     0.031 A 
ATOM     28  C   UNL A   1      42.557  29.539  28.755  1.00  0.00     0.074 A 
ATOM     29  C   UNL A   1      41.823  27.228  28.299  1.00  0.00     0.049 A 
ATOM     30  N   UNL A   1      43.783  29.510  28.294  1.00  0.00    -0.248 NA
ATOM     31  C   UNL A   1      42.199  30.813  29.404  1.00  0.00     0.031 C 
ATOM     32  C   UNL A   1      40.915  26.081  28.229  1.00  0.00     0.029 A 
ATOM     33  N   UNL A   1      43.034  26.712  27.907  1.00  0.00    -0.354 N 
ATOM     34  C   UNL A   1      44.311  30.777  28.526  1.00  0.00     0.074 A 
ATOM     35  C   UNL A   1      43.274  31.552  29.171  1.00  0.00     0.031 C 
ATOM     36  C   UNL A   1      41.612  24.987  27.889  1.00  0.00     0.029 A 
ATOM     37  C   UNL A   1      42.993  25.368  27.616  1.00  0.00     0.049 A 
ATOM     38  H   UNL A   1      43.854  27.252  27.842  1.00  0.00     0.167 HD
ATOM     39  C   UNL A   1      45.544  31.254  28.225  1.00  0.00     0.031 A 
ATOM     40  C   UNL A   1      43.942  24.536  27.145  1.00  0.00     0.031 A 
ATOM     41  C   UNL A   1      46.599  30.463  27.644  1.00  0.00     0.049 A 
ATOM     42  C   UNL A   1      45.306  25.082  26.832  1.00  0.00     0.074 A 
ATOM     43  C   UNL A   1      47.883  30.854  27.304  1.00  0.00     0.029 A 
ATOM     44  N   UNL A   1      46.502  29.112  27.344  1.00  0.00    -0.354 N 
ATOM     45  N   UNL A   1      45.755  26.306  26.973  1.00  0.00    -0.248 NA
ATOM     46  C   UNL A   1      46.284  24.136  26.278  1.00  0.00     0.031 C 
ATOM     47  C   UNL A   1      48.552  29.747  26.768  1.00  0.00     0.029 A 
ATOM     48  C   UNL A   1      47.701  28.655  26.822  1.00  0.00     0.049 A 
ATOM     49  H   UNL A   1      45.699  28.560  27.482  1.00  0.00     0.167 HD
ATOM     50  C   UNL A   1      47.072  26.276  26.527  1.00  0.00     0.074 A 
ATOM     51  C   UNL A   1      47.354  24.908  26.143  1.00  0.00     0.031 C 
ATOM     52  C   UNL A   1      47.964  27.293  26.434  1.00  0.00     0.031 A 
BRANCH  39  53
ATOM     53  C   UNL A   1      45.811  32.717  28.478  1.00  0.00    -0.014 A 
ATOM     54  C   UNL A   1      45.540  33.700  27.511  1.00  0.00     0.010 A 
ATOM     55  C   UNL A   1      46.313  33.115  29.732  1.00  0.00     0.010 A 
ATOM     56  C   UNL A   1      45.805  35.048  27.777  1.00  0.00     0.020 A 
ATOM     57  C   UNL A   1      46.554  34.464  30.012  1.00  0.00     0.020 A 
ATOM     58  C   UNL A   1      46.316  35.421  29.025  1.00  0.00     0.054 A 
BRANCH  58  59
ATOM     59  S   UNL A   1      46.636  37.177  29.353  1.00  0.00     0.124 S 
ATOM     60  O   UNL A   1      47.111  37.143  30.734  1.00  0.00    -0.237 OA
ATOM     61  O   UNL A   1      47.644  37.515  28.351  1.00  0.00    -0.237 OA
ATOM     62  O   UNL A   1      45.333  37.808  29.159  1.00  0.00    -0.744 OA
ENDBRANCH  58  59
ENDBRANCH  39  53
BRANCH  40  63
ATOM     63  C   UNL A   1      43.615  23.104  26.900  1.00  0.00    -0.014 A 
ATOM     64  C   UNL A   1      42.971  22.336  27.886  1.00  0.00     0.010 A 
ATOM     65  C   UNL A   1      43.923  22.508  25.663  1.00  0.00     0.010 A 
ATOM     66  C   UNL A   1      42.645  20.998  27.641  1.00  0.00     0.020 A 
ATOM     67  C   UNL A   1      43.567  21.183  25.401  1.00  0.00     0.020 A 
ATOM     68  C   UNL A   1      42.940  20.433  26.396  1.00  0.00     0.054 A 
BRANCH  68  69
ATOM     69  S   UNL A   1      42.439  18.721  26.066  1.00  0.00     0.124 S 
ATOM     70  O   UNL A   1      42.701  18.075  27.348  1.00  0.00    -0.237 OA
ATOM     71  O   UNL A   1      41.030  18.864  25.705  1.00  0.00    -0.237 OA
ATOM     72  O   UNL A   1      43.315  18.316  24.968  1.00  0.00    -0.744 OA
ENDBRANCH  68  69
ENDBRANCH  40  63
BRANCH  52  73
ATOM     73  C   UNL A   1      49.336  26.950  25.923  1.00  0.00    -0.014 A 
ATOM     74  C   UNL A   1      49.676  27.129  24.570  1.00  0.00     0.010 A 
ATOM     75  C   UNL A   1      50.301  26.441  26.811  1.00  0.00     0.010 A 
ATOM     76  C   UNL A   1      50.939  26.756  24.103  1.00  0.00     0.020 A 
ATOM     77  C   UNL A   1      51.573  26.089  26.353  1.00  0.00     0.020 A 
ATOM     78  C   UNL A   1      51.876  26.228  24.998  1.00  0.00     0.054 A 
BRANCH  78  79
ATOM     79  S   UNL A   1      53.509  25.746  24.372  1.00  0.00     0.124 S 
ATOM     80  O   UNL A   1      53.575  24.338  24.755  1.00  0.00    -0.237 OA
ATOM     81  O   UNL A   1      53.395  26.002  22.939  1.00  0.00    -0.237 OA
ATOM     82  O   UNL A   1      54.427  26.630  25.086  1.00  0.00    -0.744 OA
ENDBRANCH  78  79
ENDBRANCH  52  73
ENDBRANCH  26  27
ENDBRANCH  19  21
ENDBRANCH  18  19
ENDBRANCH   1  18
TORSDOF 15
ENDMDL
MODEL 2
REMARK VINA RESULT:      -9.2      3.623      5.915
REMARK SMILES CC/C(C(=O)OCCOC(=O)c1ccc(-c2c3nc(c(-c4ccc(S(=O)(=O)[O-])cc4)c4ccc([nH]4)c(-c4ccc(S(=O)(=O)[O-])cc4)c4nc(c(-c5ccc(S(=O)(=O)[O-])cc5)c5ccc2[nH]5)C=C4)C=C3)cc1)=C1\CCc2ccccc21
REMARK SMILES IDX 8 1 7 2 6 3 4 4 5 5 3 6 72 7 73 8 80 9 74 10 75 11 79 12
REMARK SMILES IDX 76 13 78 14 77 15 2 16 1 17 9 18 10 19 11 20 12 21 13 22
REMARK SMILES IDX 71 23 14 24 70 25 15 26 16 27 17 28 64 29 18 30 69 31 63 32
REMARK SMILES IDX 65 33 19 34 68 35 62 36 61 37 20 39 50 40 31 41 49 42 32 43
REMARK SMILES IDX 35 44 48 45 66 46 33 47 34 48 47 50 67 51 36 52 21 53 22 54
REMARK SMILES IDX 30 55 23 56 29 57 24 58 25 59 26 60 27 61 28 62 51 63 52 64
REMARK SMILES IDX 60 65 53 66 59 67 54 68 55 69 56 70 57 71 58 72 37 73 38 74
REMARK SMILES IDX 46 75 39 76 45 77 40 78 41 79 42 80 43 81 44 82
REMARK H PARENT 65 38 35 49
REMARK Flexibility Score: inf
ROOT
ATOM      1  C   UNL A   1      34.566  29.834  27.541  1.00  0.00     0.275 C 
ENDROOT
BRANCH   1   2
ATOM      2  C   UNL A   1      33.797  28.831  26.691  1.00  0.00     0.275 C 
BRANCH   2   3
ATOM      3  O   UNL A   1      32.894  29.533  25.813  1.00  0.00    -0.459 OA
BRANCH   3   4
ATOM      4  C   UNL A   1      32.852  29.101  24.533  1.00  0.00     0.334 C 
ATOM      5  O   UNL A   1      33.771  29.158  23.730  1.00  0.00    -0.247 OA
BRANCH   4   6
ATOM      6  C   UNL A   1      31.555  28.449  24.204  1.00  0.00     0.041 C 
ATOM      7  C   UNL A   1      31.311  27.153  24.498  1.00  0.00    -0.030 C 
ATOM      8  C   UNL A   1      29.924  26.534  24.597  1.00  0.00     0.041 C 
ATOM      9  C   UNL A   1      32.199  26.107  25.034  1.00  0.00    -0.019 A 
ATOM     10  C   UNL A   1      29.997  25.652  25.852  1.00  0.00     0.041 C 
ATOM     11  C   UNL A   1      31.443  25.262  25.853  1.00  0.00    -0.040 A 
ATOM     12  C   UNL A   1      33.526  25.799  24.781  1.00  0.00     0.009 A 
ATOM     13  C   UNL A   1      32.023  24.211  26.548  1.00  0.00     0.004 A 
ATOM     14  C   UNL A   1      34.121  24.727  25.454  1.00  0.00     0.001 A 
ATOM     15  C   UNL A   1      33.379  23.954  26.353  1.00  0.00     0.000 A 
BRANCH   6  16
ATOM     16  C   UNL A   1      30.481  29.428  23.778  1.00  0.00     0.040 C 
ATOM     17  C   UNL A   1      30.280  29.427  22.268  1.00  0.00     0.009 C 
ENDBRANCH   6  16
ENDBRANCH   4   6
ENDBRANCH   3   4
ENDBRANCH   2   3
ENDBRANCH   1   2
BRANCH   1  18
ATOM     18  O   UNL A   1      35.689  29.163  28.135  1.00  0.00    -0.458 OA
BRANCH  18  19
ATOM     19  C   UNL A   1      36.304  29.844  29.120  1.00  0.00     0.338 C 
ATOM     20  O   UNL A   1      35.794  30.328  30.129  1.00  0.00    -0.246 OA
BRANCH  19  21
ATOM     21  C   UNL A   1      37.745  29.876  28.873  1.00  0.00     0.060 A 
ATOM     22  C   UNL A   1      38.198  29.748  27.563  1.00  0.00     0.016 A 
ATOM     23  C   UNL A   1      38.640  29.830  29.939  1.00  0.00     0.016 A 
ATOM     24  C   UNL A   1      39.530  29.422  27.324  1.00  0.00     0.010 A 
ATOM     25  C   UNL A   1      39.999  29.617  29.684  1.00  0.00     0.010 A 
ATOM     26  C   UNL A   1      40.452  29.342  28.381  1.00  0.00    -0.014 A 
BRANCH  26  27
ATOM     27  C   UNL A   1      41.855  28.887  28.135  1.00  0.00     0.031 A 
ATOM     28  C   UNL A   1      43.004  29.866  28.244  1.00  0.00     0.074 A 
ATOM     29  C   UNL A   1      42.123  27.595  27.852  1.00  0.00     0.049 A 
ATOM     30  N   UNL A   1      44.261  29.710  27.910  1.00  0.00    -0.248 NA
ATOM     31  C   UNL A   1      42.696  31.203  28.779  1.00  0.00     0.031 C 
ATOM     32  C   UNL A   1      41.131  26.521  27.758  1.00  0.00     0.029 A 
ATOM     33  N   UNL A   1      43.317  26.960  27.613  1.00  0.00    -0.354 N 
ATOM     34  C   UNL A   1      44.871  30.943  28.120  1.00  0.00     0.074 A 
ATOM     35  C   UNL A   1      43.847  31.839  28.612  1.00  0.00     0.031 C 
ATOM     36  C   UNL A   1      41.761  25.355  27.553  1.00  0.00     0.029 A 
ATOM     37  C   UNL A   1      43.190  25.607  27.397  1.00  0.00     0.049 A 
ATOM     38  H   UNL A   1      44.183  27.428  27.598  1.00  0.00     0.167 HD
ATOM     39  C   UNL A   1      46.163  31.301  27.916  1.00  0.00     0.031 A 
ATOM     40  C   UNL A   1      44.105  24.673  27.072  1.00  0.00     0.031 A 
ATOM     41  C   UNL A   1      47.197  30.392  27.489  1.00  0.00     0.049 A 
ATOM     42  C   UNL A   1      45.533  25.089  26.865  1.00  0.00     0.074 A 
ATOM     43  C   UNL A   1      48.536  30.657  27.256  1.00  0.00     0.029 A 
ATOM     44  N   UNL A   1      47.014  29.037  27.259  1.00  0.00    -0.354 N 
ATOM     45  N   UNL A   1      46.070  26.279  26.978  1.00  0.00    -0.248 NA
ATOM     46  C   UNL A   1      46.476  24.034  26.467  1.00  0.00     0.031 C 
ATOM     47  C   UNL A   1      49.156  29.468  26.855  1.00  0.00     0.029 A 
ATOM     48  C   UNL A   1      48.214  28.453  26.887  1.00  0.00     0.049 A 
ATOM     49  H   UNL A   1      46.158  28.560  27.348  1.00  0.00     0.167 HD
ATOM     50  C   UNL A   1      47.415  26.117  26.668  1.00  0.00     0.074 A 
ATOM     51  C   UNL A   1      47.615  24.708  26.395  1.00  0.00     0.031 C 
ATOM     52  C   UNL A   1      48.396  27.052  26.607  1.00  0.00     0.031 A 
BRANCH  39  53
ATOM     53  C   UNL A   1      46.528  32.751  28.108  1.00  0.00    -0.014 A 
ATOM     54  C   UNL A   1      46.955  33.252  29.350  1.00  0.00     0.010 A 
ATOM     55  C   UNL A   1      46.475  33.624  27.004  1.00  0.00     0.010 A 
ATOM     56  C   UNL A   1      47.280  34.606  29.494  1.00  0.00     0.020 A 
ATOM     57  C   UNL A   1      46.826  34.971  27.136  1.00  0.00     0.020 A 
ATOM     58  C   UNL A   1      47.208  35.458  28.386  1.00  0.00     0.054 A 
BRANCH  58  59
ATOM     59  S   UNL A   1      47.651  37.205  28.594  1.00  0.00     0.124 S 
ATOM     60  O   UNL A   1      46.757  37.858  27.641  1.00  0.00    -0.237 OA
ATOM     61  O   UNL A   1      47.352  37.450  30.003  1.00  0.00    -0.237 OA
ATOM     62  O   UNL A   1      49.069  37.247  28.246  1.00  0.00    -0.744 OA
ENDBRANCH  58  59
ENDBRANCH  39  53
BRANCH  40  63
ATOM     63  C   UNL A   1      43.682  23.259  26.879  1.00  0.00    -0.014 A 
ATOM     64  C   UNL A   1      43.173  22.509  27.954  1.00  0.00     0.010 A 
ATOM     65  C   UNL A   1      43.761  22.663  25.607  1.00  0.00     0.010 A 
ATOM     66  C   UNL A   1      42.755  21.189  27.761  1.00  0.00     0.020 A 
ATOM     67  C   UNL A   1      43.312  21.356  25.402  1.00  0.00     0.020 A 
ATOM     68  C   UNL A   1      42.821  20.623  26.483  1.00  0.00     0.054 A 
BRANCH  68  69
ATOM     69  S   UNL A   1      42.201  18.936  26.233  1.00  0.00     0.124 S 
ATOM     70  O   UNL A   1      42.341  18.361  27.567  1.00  0.00    -0.237 OA
ATOM     71  O   UNL A   1      40.830  19.164  25.782  1.00  0.00    -0.237 OA
ATOM     72  O   UNL A   1      43.099  18.392  25.217  1.00  0.00    -0.744 OA
ENDBRANCH  68  69
ENDBRANCH  40  63
BRANCH  52  73
ATOM     73  C   UNL A   1      49.776  26.568  26.255  1.00  0.00    -0.014 A 
ATOM     74  C   UNL A   1      50.597  25.946  27.213  1.00  0.00     0.010 A 
ATOM     75  C   UNL A   1      50.257  26.738  24.944  1.00  0.00     0.010 A 
ATOM     76  C   UNL A   1      51.895  25.550  26.880  1.00  0.00     0.020 A 
ATOM     77  C   UNL A   1      51.546  26.322  24.601  1.00  0.00     0.020 A 
ATOM     78  C   UNL A   1      52.364  25.751  25.577  1.00  0.00     0.054 A 
BRANCH  78  79
ATOM     79  S   UNL A   1      54.054  25.234  25.166  1.00  0.00     0.124 S 
ATOM     80  O   UNL A   1      53.893  23.794  24.985  1.00  0.00    -0.237 OA
ATOM     81  O   UNL A   1      54.336  25.991  23.950  1.00  0.00    -0.237 OA
ATOM     82  O   UNL A   1      54.831  25.633  26.336  1.00  0.00    -0.744 OA
ENDBRANCH  78  79
ENDBRANCH  52  73
ENDBRANCH  26  27
ENDBRANCH  19  21
ENDBRANCH  18  19
ENDBRANCH   1  18
TORSDOF 15
ENDMDL
MODEL 3
REMARK VINA RESULT:      -9.2      5.492     12.940
REMARK SMILES CC/C(C(=O)OCCOC(=O)c1ccc(-c2c3nc(c(-c4ccc(S(=O)(=O)[O-])cc4)c4ccc([nH]4)c(-c4ccc(S(=O)(=O)[O-])cc4)c4nc(c(-c5ccc(S(=O)(=O)[O-])cc5)c5ccc2[nH]5)C=C4)C=C3)cc1)=C1\CCc2ccccc21
REMARK SMILES IDX 8 1 7 2 6 3 4 4 5 5 3 6 72 7 73 8 80 9 74 10 75 11 79 12
REMARK SMILES IDX 76 13 78 14 77 15 2 16 1 17 9 18 10 19 11 20 12 21 13 22
REMARK SMILES IDX 71 23 14 24 70 25 15 26 16 27 17 28 64 29 18 30 69 31 63 32
REMARK SMILES IDX 65 33 19 34 68 35 62 36 61 37 20 39 50 40 31 41 49 42 32 43
REMARK SMILES IDX 35 44 48 45 66 46 33 47 34 48 47 50 67 51 36 52 21 53 22 54
REMARK SMILES IDX 30 55 23 56 29 57 24 58 25 59 26 60 27 61 28 62 51 63 52 64
REMARK SMILES IDX 60 65 53 66 59 67 54 68 55 69 56 70 57 71 58 72 37 73 38 74
REMARK SMILES IDX 46 75 39 76 45 77 40 78 41 79 42 80 43 81 44 82
REMARK H PARENT 65 38 35 49
REMARK Flexibility Score: inf
ROOT
ATOM      1  C   UNL A   1      43.439  23.385  25.514  1.00  0.00     0.275 C 
ENDROOT
BRANCH   1   2
ATOM      2  C   UNL A   1      44.725  23.935  24.912  1.00  0.00     0.275 C 
BRANCH   2   3
ATOM      3  O   UNL A   1      45.114  25.135  25.610  1.00  0.00    -0.459 OA
BRANCH   3   4
ATOM      4  C   UNL A   1      46.107  25.001  26.517  1.00  0.00     0.334 C 
ATOM      5  O   UNL A   1      46.881  24.060  26.595  1.00  0.00    -0.247 OA
BRANCH   4   6
ATOM      6  C   UNL A   1      46.226  26.197  27.397  1.00  0.00     0.041 C 
ATOM      7  C   UNL A   1      45.795  26.188  28.678  1.00  0.00    -0.030 C 
ATOM      8  C   UNL A   1      46.248  27.170  29.749  1.00  0.00     0.041 C 
ATOM      9  C   UNL A   1      45.049  25.167  29.432  1.00  0.00    -0.019 A 
ATOM     10  C   UNL A   1      46.477  26.291  30.988  1.00  0.00     0.041 C 
ATOM     11  C   UNL A   1      45.476  25.200  30.763  1.00  0.00    -0.040 A 
ATOM     12  C   UNL A   1      44.002  24.333  29.076  1.00  0.00     0.009 A 
ATOM     13  C   UNL A   1      44.990  24.307  31.707  1.00  0.00     0.004 A 
ATOM     14  C   UNL A   1      43.482  23.443  30.020  1.00  0.00     0.001 A 
ATOM     15  C   UNL A   1      43.993  23.412  31.322  1.00  0.00     0.000 A 
BRANCH   6  16
ATOM     16  C   UNL A   1      47.103  27.286  26.815  1.00  0.00     0.040 C 
ATOM     17  C   UNL A   1      46.278  28.407  26.197  1.00  0.00     0.009 C 
ENDBRANCH   6  16
ENDBRANCH   4   6
ENDBRANCH   3   4
ENDBRANCH   2   3
ENDBRANCH   1   2
BRANCH   1  18
ATOM     18  O   UNL A   1      42.540  24.481  25.750  1.00  0.00    -0.458 OA
BRANCH  18  19
ATOM     19  C   UNL A   1      41.447  24.175  26.472  1.00  0.00     0.338 C 
ATOM     20  O   UNL A   1      40.883  23.084  26.554  1.00  0.00    -0.246 OA
BRANCH  19  21
ATOM     21  C   UNL A   1      41.031  25.337  27.256  1.00  0.00     0.060 A 
ATOM     22  C   UNL A   1      41.779  26.507  27.156  1.00  0.00     0.016 A 
ATOM     23  C   UNL A   1      40.038  25.212  28.224  1.00  0.00     0.016 A 
ATOM     24  C   UNL A   1      41.639  27.498  28.124  1.00  0.00     0.010 A 
ATOM     25  C   UNL A   1      39.822  26.261  29.123  1.00  0.00     0.010 A 
ATOM     26  C   UNL A   1      40.664  27.389  29.130  1.00  0.00    -0.014 A 
BRANCH  26  27
ATOM     27  C   UNL A   1      40.587  28.399  30.229  1.00  0.00     0.031 A 
ATOM     28  C   UNL A   1      41.594  28.374  31.359  1.00  0.00     0.074 A 
ATOM     29  C   UNL A   1      39.648  29.368  30.213  1.00  0.00     0.049 A 
ATOM     30  N   UNL A   1      41.599  29.052  32.481  1.00  0.00    -0.248 NA
ATOM     31  C   UNL A   1      42.735  27.453  31.220  1.00  0.00     0.031 C 
ATOM     32  C   UNL A   1      38.637  29.555  29.170  1.00  0.00     0.029 A 
ATOM     33  N   UNL A   1      39.407  30.396  31.092  1.00  0.00    -0.354 N 
ATOM     34  C   UNL A   1      42.690  28.584  33.208  1.00  0.00     0.074 A 
ATOM     35  C   UNL A   1      43.326  27.566  32.401  1.00  0.00     0.031 C 
ATOM     36  C   UNL A   1      37.933  30.667  29.432  1.00  0.00     0.029 A 
ATOM     37  C   UNL A   1      38.370  31.216  30.710  1.00  0.00     0.049 A 
ATOM     38  H   UNL A   1      39.926  30.533  31.916  1.00  0.00     0.167 HD
ATOM     39  C   UNL A   1      43.120  28.962  34.438  1.00  0.00     0.031 A 
ATOM     40  C   UNL A   1      37.803  32.270  31.329  1.00  0.00     0.031 A 
ATOM     41  C   UNL A   1      42.526  30.022  35.213  1.00  0.00     0.049 A 
ATOM     42  C   UNL A   1      38.303  32.680  32.685  1.00  0.00     0.074 A 
ATOM     43  C   UNL A   1      42.890  30.481  36.467  1.00  0.00     0.029 A 
ATOM     44  N   UNL A   1      41.462  30.807  34.794  1.00  0.00    -0.354 N 
ATOM     45  N   UNL A   1      39.277  32.163  33.394  1.00  0.00    -0.248 NA
ATOM     46  C   UNL A   1      37.615  33.807  33.329  1.00  0.00     0.031 C 
ATOM     47  C   UNL A   1      42.025  31.524  36.821  1.00  0.00     0.029 A 
ATOM     48  C   UNL A   1      41.156  31.747  35.766  1.00  0.00     0.049 A 
ATOM     49  H   UNL A   1      40.994  30.712  33.934  1.00  0.00     0.167 HD
ATOM     50  C   UNL A   1      39.320  32.904  34.570  1.00  0.00     0.074 A 
ATOM     51  C   UNL A   1      38.296  33.924  34.460  1.00  0.00     0.031 C 
ATOM     52  C   UNL A   1      40.128  32.748  35.648  1.00  0.00     0.031 A 
BRANCH  39  53
ATOM     53  C   UNL A   1      44.266  28.193  35.046  1.00  0.00    -0.014 A 
ATOM     54  C   UNL A   1      44.058  27.048  35.834  1.00  0.00     0.010 A 
ATOM     55  C   UNL A   1      45.585  28.613  34.790  1.00  0.00     0.010 A 
ATOM     56  C   UNL A   1      45.145  26.363  36.388  1.00  0.00     0.020 A 
ATOM     57  C   UNL A   1      46.675  27.916  35.319  1.00  0.00     0.020 A 
ATOM     58  C   UNL A   1      46.447  26.805  36.131  1.00  0.00     0.054 A 
BRANCH  58  59
ATOM     59  S   UNL A   1      47.841  25.889  36.847  1.00  0.00     0.124 S 
ATOM     60  O   UNL A   1      47.967  26.513  38.162  1.00  0.00    -0.237 OA
ATOM     61  O   UNL A   1      47.356  24.512  36.850  1.00  0.00    -0.237 OA
ATOM     62  O   UNL A   1      48.941  26.157  35.924  1.00  0.00    -0.744 OA
ENDBRANCH  58  59
ENDBRANCH  39  53
BRANCH  40  63
ATOM     63  C   UNL A   1      36.663  32.980  30.686  1.00  0.00    -0.014 A 
ATOM     64  C   UNL A   1      35.347  32.786  31.144  1.00  0.00     0.010 A 
ATOM     65  C   UNL A   1      36.893  33.878  29.628  1.00  0.00     0.010 A 
ATOM     66  C   UNL A   1      34.284  33.475  30.551  1.00  0.00     0.020 A 
ATOM     67  C   UNL A   1      35.838  34.594  29.057  1.00  0.00     0.020 A 
ATOM     68  C   UNL A   1      34.538  34.379  29.516  1.00  0.00     0.054 A 
BRANCH  68  69
ATOM     69  S   UNL A   1      33.157  35.323  28.812  1.00  0.00     0.124 S 
ATOM     70  O   UNL A   1      32.471  35.796  30.010  1.00  0.00    -0.237 OA
ATOM     71  O   UNL A   1      33.840  36.349  28.026  1.00  0.00    -0.237 OA
ATOM     72  O   UNL A   1      32.432  34.328  28.024  1.00  0.00    -0.744 OA
ENDBRANCH  68  69
ENDBRANCH  40  63
BRANCH  52  73
ATOM     73  C   UNL A   1      39.949  33.723  36.779  1.00  0.00    -0.014 A 
ATOM     74  C   UNL A   1      39.152  33.409  37.894  1.00  0.00     0.010 A 
ATOM     75  C   UNL A   1      40.591  34.974  36.724  1.00  0.00     0.010 A 
ATOM     76  C   UNL A   1      38.957  34.348  38.910  1.00  0.00     0.020 A 
ATOM     77  C   UNL A   1      40.418  35.907  37.750  1.00  0.00     0.020 A 
ATOM     78  C   UNL A   1      39.584  35.596  38.825  1.00  0.00     0.054 A 
BRANCH  78  79
ATOM     79  S   UNL A   1      39.315  36.803  40.152  1.00  0.00     0.124 S 
ATOM     80  O   UNL A   1      38.795  37.952  39.414  1.00  0.00    -0.237 OA
ATOM     81  O   UNL A   1      38.353  36.125  41.017  1.00  0.00    -0.237 OA
ATOM     82  O   UNL A   1      40.644  36.983  40.730  1.00  0.00    -0.744 OA
ENDBRANCH  78  79
ENDBRANCH  52  73
ENDBRANCH  26  27
ENDBRANCH  19  21
ENDBRANCH  18  19
ENDBRANCH   1  18
TORSDOF 15
ENDMDL
