MODEL 1
REMARK VINA RESULT:     -10.5      0.000      0.000
REMARK SMILES [NH3+]C[C@@H]1CC[C@H](C(=O)N[C@@H](Cc2ccccc2)C(=O)OCCOC(=O)c2ccc(-c3c4nc(c(-c5ccc(S(=O)(=O)[O-])cc5)c5ccc([nH]5)c(-c5ccc(S(=O)(=O)[O-])cc5)c5nc(c(-c6ccc(S(=O)(=O)[O-])cc6)c6ccc3[nH]6)C=C5)C=C4)cc2)O1
REMARK SMILES IDX 21 1 20 2 18 3 19 4 10 5 9 6 7 7 8 8 6 10 3 11 4 12 86 13
REMARK SMILES IDX 5 14 2 15 1 16 11 20 12 21 13 22 17 23 14 24 16 25 15 26
REMARK SMILES IDX 22 27 23 28 24 29 25 30 26 31 27 32 85 33 28 34 84 35 29 36
REMARK SMILES IDX 30 37 31 38 78 39 32 40 83 41 77 42 79 43 33 44 82 45 76 46
REMARK SMILES IDX 75 47 34 49 64 50 45 51 63 52 46 53 49 54 62 55 80 56 47 57
REMARK SMILES IDX 48 58 61 60 81 61 50 62 35 63 36 64 44 65 37 66 43 67 38 68
REMARK SMILES IDX 39 69 40 70 41 71 42 72 65 73 66 74 74 75 67 76 73 77 68 78
REMARK SMILES IDX 69 79 70 80 71 81 72 82 51 83 52 84 60 85 53 86 59 87 54 88
REMARK SMILES IDX 55 89 56 90 57 91 58 92
REMARK H PARENT 9 9 1 17 1 18 1 19 79 48 49 59
REMARK Flexibility Score: inf
ROOT
ATOM      1  C   UNL A   1      31.951  29.164  25.698  1.00  0.00     0.274 C 
ENDROOT
BRANCH   1   2
ATOM      2  O   UNL A   1      32.238  27.882  25.105  1.00  0.00    -0.461 OA
BRANCH   2   3
ATOM      3  C   UNL A   1      32.816  27.964  23.871  1.00  0.00     0.329 C 
ATOM      4  O   UNL A   1      34.011  28.170  23.683  1.00  0.00    -0.250 OA
BRANCH   3   5
ATOM      5  C   UNL A   1      31.832  27.668  22.725  1.00  0.00     0.196 C 
BRANCH   5   6
ATOM      6  N   UNL A   1      32.222  26.731  21.671  1.00  0.00    -0.340 N 
ATOM      7  C   UNL A   1      32.766  25.483  21.819  1.00  0.00     0.249 C 
ATOM      8  O   UNL A   1      33.355  24.995  20.851  1.00  0.00    -0.272 OA
ATOM      9  H   UNL A   1      32.078  27.033  20.745  1.00  0.00     0.164 HD
BRANCH   7  10
ATOM     10  C   UNL A   1      32.656  24.710  23.159  1.00  0.00     0.207 C 
ATOM     11  C   UNL A   1      33.860  23.008  24.246  1.00  0.00     0.174 C 
ATOM     12  C   UNL A   1      32.731  22.327  23.492  1.00  0.00     0.041 C 
ATOM     13  O   UNL A   1      33.925  24.328  23.695  1.00  0.00    -0.359 OA
ATOM     14  C   UNL A   1      31.793  23.461  23.128  1.00  0.00     0.045 C 
BRANCH  11  15
ATOM     15  C   UNL A   1      35.222  22.292  24.081  1.00  0.00     0.291 C 
BRANCH  15  16
ATOM     16  N   UNL A   1      36.246  23.092  23.403  1.00  0.00    -0.355 N 
ATOM     17  H   UNL A   1      36.551  23.847  24.018  1.00  0.00     0.344 HD
ATOM     18  H   UNL A   1      35.856  23.488  22.547  1.00  0.00     0.344 HD
ATOM     19  H   UNL A   1      37.043  22.499  23.171  1.00  0.00     0.344 HD
ENDBRANCH  15  16
ENDBRANCH  11  15
ENDBRANCH   7  10
ENDBRANCH   5   6
BRANCH   5  20
ATOM     20  C   UNL A   1      30.394  27.396  23.200  1.00  0.00     0.072 C 
BRANCH  20  21
ATOM     21  C   UNL A   1      29.410  28.509  22.957  1.00  0.00    -0.045 A 
ATOM     22  C   UNL A   1      29.896  29.773  22.593  1.00  0.00     0.004 A 
ATOM     23  C   UNL A   1      28.034  28.334  23.138  1.00  0.00     0.004 A 
ATOM     24  C   UNL A   1      29.031  30.857  22.485  1.00  0.00     0.000 A 
ATOM     25  C   UNL A   1      27.172  29.424  23.044  1.00  0.00     0.000 A 
ATOM     26  C   UNL A   1      27.672  30.687  22.729  1.00  0.00     0.000 A 
ENDBRANCH  20  21
ENDBRANCH   5  20
ENDBRANCH   3   5
ENDBRANCH   2   3
ENDBRANCH   1   2
BRANCH   1  27
ATOM     27  C   UNL A   1      32.468  29.239  27.137  1.00  0.00     0.275 C 
BRANCH  27  28
ATOM     28  O   UNL A   1      33.910  29.281  27.163  1.00  0.00    -0.458 OA
BRANCH  28  29
ATOM     29  C   UNL A   1      34.443  30.337  27.827  1.00  0.00     0.338 C 
ATOM     30  O   UNL A   1      33.856  31.328  28.218  1.00  0.00    -0.246 OA
BRANCH  29  31
ATOM     31  C   UNL A   1      35.829  30.012  28.215  1.00  0.00     0.060 A 
ATOM     32  C   UNL A   1      36.765  30.068  27.191  1.00  0.00     0.016 A 
ATOM     33  C   UNL A   1      36.227  29.632  29.496  1.00  0.00     0.016 A 
ATOM     34  C   UNL A   1      38.117  29.848  27.442  1.00  0.00     0.010 A 
ATOM     35  C   UNL A   1      37.587  29.350  29.742  1.00  0.00     0.010 A 
ATOM     36  C   UNL A   1      38.544  29.486  28.720  1.00  0.00    -0.014 A 
BRANCH  36  37
ATOM     37  C   UNL A   1      39.965  29.085  28.886  1.00  0.00     0.031 A 
ATOM     38  C   UNL A   1      40.908  30.073  29.513  1.00  0.00     0.074 A 
ATOM     39  C   UNL A   1      40.380  27.823  28.652  1.00  0.00     0.049 A 
ATOM     40  N   UNL A   1      42.197  29.981  29.709  1.00  0.00    -0.248 NA
ATOM     41  C   UNL A   1      40.306  31.320  30.014  1.00  0.00     0.031 C 
ATOM     42  C   UNL A   1      39.523  26.718  28.226  1.00  0.00     0.029 A 
ATOM     43  N   UNL A   1      41.624  27.248  28.771  1.00  0.00    -0.354 N 
ATOM     44  C   UNL A   1      42.563  31.166  30.339  1.00  0.00     0.074 A 
ATOM     45  C   UNL A   1      41.361  31.951  30.505  1.00  0.00     0.031 C 
ATOM     46  C   UNL A   1      40.262  25.597  28.133  1.00  0.00     0.029 A 
ATOM     47  C   UNL A   1      41.660  25.919  28.406  1.00  0.00     0.049 A 
ATOM     48  H   UNL A   1      42.415  27.740  29.087  1.00  0.00     0.167 HD
ATOM     49  C   UNL A   1      43.796  31.571  30.721  1.00  0.00     0.031 A 
ATOM     50  C   UNL A   1      42.709  25.081  28.252  1.00  0.00     0.031 A 
ATOM     51  C   UNL A   1      44.990  30.801  30.503  1.00  0.00     0.049 A 
ATOM     52  C   UNL A   1      44.098  25.613  28.519  1.00  0.00     0.074 A 
ATOM     53  C   UNL A   1      46.306  31.164  30.719  1.00  0.00     0.029 A 
ATOM     54  N   UNL A   1      45.005  29.502  30.014  1.00  0.00    -0.354 N 
ATOM     55  N   UNL A   1      44.454  26.784  28.995  1.00  0.00    -0.248 NA
ATOM     56  C   UNL A   1      45.228  24.725  28.208  1.00  0.00     0.031 C 
ATOM     57  C   UNL A   1      47.121  30.103  30.307  1.00  0.00     0.029 A 
ATOM     58  C   UNL A   1      46.309  29.053  29.904  1.00  0.00     0.049 A 
ATOM     59  H   UNL A   1      44.206  28.977  29.779  1.00  0.00     0.167 HD
ATOM     60  C   UNL A   1      45.845  26.766  29.056  1.00  0.00     0.074 A 
ATOM     61  C   UNL A   1      46.263  25.459  28.592  1.00  0.00     0.031 C 
ATOM     62  C   UNL A   1      46.699  27.742  29.450  1.00  0.00     0.031 A 
BRANCH  49  63
ATOM     63  C   UNL A   1      43.908  32.956  31.299  1.00  0.00    -0.014 A 
ATOM     64  C   UNL A   1      43.683  33.206  32.664  1.00  0.00     0.010 A 
ATOM     65  C   UNL A   1      44.209  34.032  30.445  1.00  0.00     0.010 A 
ATOM     66  C   UNL A   1      43.711  34.516  33.154  1.00  0.00     0.020 A 
ATOM     67  C   UNL A   1      44.264  35.338  30.935  1.00  0.00     0.020 A 
ATOM     68  C   UNL A   1      43.995  35.575  32.284  1.00  0.00     0.054 A 
BRANCH  68  69
ATOM     69  S   UNL A   1      44.013  37.265  32.941  1.00  0.00     0.124 S 
ATOM     70  O   UNL A   1      45.354  37.353  33.512  1.00  0.00    -0.237 OA
ATOM     71  O   UNL A   1      43.784  38.074  31.747  1.00  0.00    -0.237 OA
ATOM     72  O   UNL A   1      42.922  37.271  33.913  1.00  0.00    -0.744 OA
ENDBRANCH  68  69
ENDBRANCH  49  63
BRANCH  50  73
ATOM     73  C   UNL A   1      42.515  23.695  27.719  1.00  0.00    -0.014 A 
ATOM     74  C   UNL A   1      42.359  22.587  28.574  1.00  0.00     0.010 A 
ATOM     75  C   UNL A   1      42.545  23.468  26.329  1.00  0.00     0.010 A 
ATOM     76  C   UNL A   1      42.266  21.289  28.053  1.00  0.00     0.020 A 
ATOM     77  C   UNL A   1      42.414  22.179  25.803  1.00  0.00     0.020 A 
ATOM     78  C   UNL A   1      42.293  21.094  26.669  1.00  0.00     0.054 A 
BRANCH  78  79
ATOM     79  S   UNL A   1      42.152  19.407  26.011  1.00  0.00     0.124 S 
ATOM     80  O   UNL A   1      42.677  18.605  27.110  1.00  0.00    -0.237 OA
ATOM     81  O   UNL A   1      40.717  19.285  25.766  1.00  0.00    -0.237 OA
ATOM     82  O   UNL A   1      42.980  19.439  24.807  1.00  0.00    -0.744 OA
ENDBRANCH  78  79
ENDBRANCH  50  73
BRANCH  62  83
ATOM     83  C   UNL A   1      48.172  27.427  29.445  1.00  0.00    -0.014 A 
ATOM     84  C   UNL A   1      48.992  27.775  28.359  1.00  0.00     0.010 A 
ATOM     85  C   UNL A   1      48.754  26.845  30.586  1.00  0.00     0.010 A 
ATOM     86  C   UNL A   1      50.368  27.529  28.406  1.00  0.00     0.020 A 
ATOM     87  C   UNL A   1      50.132  26.624  30.649  1.00  0.00     0.020 A 
ATOM     88  C   UNL A   1      50.928  26.958  29.553  1.00  0.00     0.054 A 
BRANCH  88  89
ATOM     89  S   UNL A   1      52.724  26.708  29.615  1.00  0.00     0.124 S 
ATOM     90  O   UNL A   1      52.872  25.859  30.795  1.00  0.00    -0.237 OA
ATOM     91  O   UNL A   1      53.001  26.061  28.335  1.00  0.00    -0.237 OA
ATOM     92  O   UNL A   1      53.258  28.061  29.751  1.00  0.00    -0.744 OA
ENDBRANCH  88  89
ENDBRANCH  62  83
ENDBRANCH  36  37
ENDBRANCH  29  31
ENDBRANCH  28  29
ENDBRANCH  27  28
ENDBRANCH   1  27
TORSDOF 20
ENDMDL
MODEL 2
REMARK VINA RESULT:     -10.0      3.193      8.124
REMARK SMILES [NH3+]C[C@@H]1CC[C@H](C(=O)N[C@@H](Cc2ccccc2)C(=O)OCCOC(=O)c2ccc(-c3c4nc(c(-c5ccc(S(=O)(=O)[O-])cc5)c5ccc([nH]5)c(-c5ccc(S(=O)(=O)[O-])cc5)c5nc(c(-c6ccc(S(=O)(=O)[O-])cc6)c6ccc3[nH]6)C=C5)C=C4)cc2)O1
REMARK SMILES IDX 21 1 20 2 18 3 19 4 10 5 9 6 7 7 8 8 6 10 3 11 4 12 86 13
REMARK SMILES IDX 5 14 2 15 1 16 11 20 12 21 13 22 17 23 14 24 16 25 15 26
REMARK SMILES IDX 22 27 23 28 24 29 25 30 26 31 27 32 85 33 28 34 84 35 29 36
REMARK SMILES IDX 30 37 31 38 78 39 32 40 83 41 77 42 79 43 33 44 82 45 76 46
REMARK SMILES IDX 75 47 34 49 64 50 45 51 63 52 46 53 49 54 62 55 80 56 47 57
REMARK SMILES IDX 48 58 61 60 81 61 50 62 35 63 36 64 44 65 37 66 43 67 38 68
REMARK SMILES IDX 39 69 40 70 41 71 42 72 65 73 66 74 74 75 67 76 73 77 68 78
REMARK SMILES IDX 69 79 70 80 71 81 72 82 51 83 52 84 60 85 53 86 59 87 54 88
REMARK SMILES IDX 55 89 56 90 57 91 58 92
REMARK H PARENT 9 9 1 17 1 18 1 19 79 48 49 59
REMARK Flexibility Score: inf
ROOT
ATOM      1  C   UNL A   1      36.042  22.442  24.472  1.00  0.00     0.274 C 
ENDROOT
BRANCH   1   2
ATOM      2  O   UNL A   1      35.105  21.377  24.728  1.00  0.00    -0.461 OA
BRANCH   2   3
ATOM      3  C   UNL A   1      34.339  21.573  25.841  1.00  0.00     0.329 C 
ATOM      4  O   UNL A   1      34.644  22.325  26.761  1.00  0.00    -0.250 OA
BRANCH   3   5
ATOM      5  C   UNL A   1      32.992  20.830  25.782  1.00  0.00     0.196 C 
BRANCH   5   6
ATOM      6  N   UNL A   1      31.767  21.544  26.143  1.00  0.00    -0.340 N 
ATOM      7  C   UNL A   1      31.289  22.711  25.611  1.00  0.00     0.249 C 
ATOM      8  O   UNL A   1      30.457  23.342  26.267  1.00  0.00    -0.272 OA
ATOM      9  H   UNL A   1      31.221  21.137  26.855  1.00  0.00     0.164 HD
BRANCH   7  10
ATOM     10  C   UNL A   1      31.781  23.230  24.235  1.00  0.00     0.207 C 
ATOM     11  C   UNL A   1      32.632  25.248  23.382  1.00  0.00     0.174 C 
ATOM     12  C   UNL A   1      31.138  25.261  23.114  1.00  0.00     0.041 C 
ATOM     13  O   UNL A   1      32.824  24.200  24.339  1.00  0.00    -0.359 OA
ATOM     14  C   UNL A   1      30.710  23.823  23.336  1.00  0.00     0.045 C 
BRANCH  11  15
ATOM     15  C   UNL A   1      33.162  26.589  23.944  1.00  0.00     0.291 C 
BRANCH  15  16
ATOM     16  N   UNL A   1      32.114  27.540  24.323  1.00  0.00    -0.355 N 
ATOM     17  H   UNL A   1      31.903  27.438  25.315  1.00  0.00     0.344 HD
ATOM     18  H   UNL A   1      31.272  27.355  23.776  1.00  0.00     0.344 HD
ATOM     19  H   UNL A   1      32.435  28.492  24.140  1.00  0.00     0.344 HD
ENDBRANCH  15  16
ENDBRANCH  11  15
ENDBRANCH   7  10
ENDBRANCH   5   6
BRANCH   5  20
ATOM     20  C   UNL A   1      32.795  20.009  24.496  1.00  0.00     0.072 C 
BRANCH  20  21
ATOM     21  C   UNL A   1      33.061  18.534  24.622  1.00  0.00    -0.045 A 
ATOM     22  C   UNL A   1      33.712  17.874  23.569  1.00  0.00     0.004 A 
ATOM     23  C   UNL A   1      32.629  17.794  25.728  1.00  0.00     0.004 A 
ATOM     24  C   UNL A   1      33.862  16.491  23.589  1.00  0.00     0.000 A 
ATOM     25  C   UNL A   1      32.767  16.408  25.739  1.00  0.00     0.000 A 
ATOM     26  C   UNL A   1      33.373  15.755  24.665  1.00  0.00     0.000 A 
ENDBRANCH  20  21
ENDBRANCH   5  20
ENDBRANCH   3   5
ENDBRANCH   2   3
ENDBRANCH   1   2
BRANCH   1  27
ATOM     27  C   UNL A   1      37.475  22.011  24.792  1.00  0.00     0.275 C 
BRANCH  27  28
ATOM     28  O   UNL A   1      37.989  22.734  25.929  1.00  0.00    -0.458 OA
BRANCH  28  29
ATOM     29  C   UNL A   1      39.192  22.308  26.387  1.00  0.00     0.338 C 
ATOM     30  O   UNL A   1      39.684  21.206  26.237  1.00  0.00    -0.246 OA
BRANCH  29  31
ATOM     31  C   UNL A   1      39.941  23.463  26.920  1.00  0.00     0.060 A 
ATOM     32  C   UNL A   1      39.805  24.645  26.204  1.00  0.00     0.016 A 
ATOM     33  C   UNL A   1      40.773  23.424  28.038  1.00  0.00     0.016 A 
ATOM     34  C   UNL A   1      40.407  25.822  26.641  1.00  0.00     0.010 A 
ATOM     35  C   UNL A   1      41.431  24.599  28.451  1.00  0.00     0.010 A 
ATOM     36  C   UNL A   1      41.228  25.814  27.769  1.00  0.00    -0.014 A 
BRANCH  36  37
ATOM     37  C   UNL A   1      41.987  27.052  28.081  1.00  0.00     0.031 A 
ATOM     38  C   UNL A   1      41.257  28.176  28.760  1.00  0.00     0.074 A 
ATOM     39  C   UNL A   1      43.326  27.121  27.929  1.00  0.00     0.049 A 
ATOM     40  N   UNL A   1      41.682  29.370  29.078  1.00  0.00    -0.248 NA
ATOM     41  C   UNL A   1      39.866  27.900  29.160  1.00  0.00     0.031 C 
ATOM     42  C   UNL A   1      44.181  26.032  27.461  1.00  0.00     0.029 A 
ATOM     43  N   UNL A   1      44.208  28.147  28.182  1.00  0.00    -0.354 N 
ATOM     44  C   UNL A   1      40.607  29.995  29.699  1.00  0.00     0.074 A 
ATOM     45  C   UNL A   1      39.517  29.045  29.726  1.00  0.00     0.031 C 
ATOM     46  C   UNL A   1      45.463  26.440  27.475  1.00  0.00     0.029 A 
ATOM     47  C   UNL A   1      45.516  27.846  27.867  1.00  0.00     0.049 A 
ATOM     48  H   UNL A   1      43.931  29.014  28.555  1.00  0.00     0.167 HD
ATOM     49  C   UNL A   1      40.528  31.257  30.181  1.00  0.00     0.031 A 
ATOM     50  C   UNL A   1      46.614  28.633  27.840  1.00  0.00     0.031 A 
ATOM     51  C   UNL A   1      41.604  32.207  30.102  1.00  0.00     0.049 A 
ATOM     52  C   UNL A   1      46.463  30.089  28.217  1.00  0.00     0.074 A 
ATOM     53  C   UNL A   1      41.599  33.551  30.427  1.00  0.00     0.029 A 
ATOM     54  N   UNL A   1      42.884  31.905  29.660  1.00  0.00    -0.354 N 
ATOM     55  N   UNL A   1      45.406  30.713  28.686  1.00  0.00    -0.248 NA
ATOM     56  C   UNL A   1      47.640  30.953  28.043  1.00  0.00     0.031 C 
ATOM     57  C   UNL A   1      42.862  34.073  30.129  1.00  0.00     0.029 A 
ATOM     58  C   UNL A   1      43.674  33.039  29.687  1.00  0.00     0.049 A 
ATOM     59  H   UNL A   1      43.186  31.014  29.369  1.00  0.00     0.167 HD
ATOM     60  C   UNL A   1      45.796  32.036  28.876  1.00  0.00     0.074 A 
ATOM     61  C   UNL A   1      47.192  32.115  28.497  1.00  0.00     0.031 C 
ATOM     62  C   UNL A   1      45.066  33.091  29.315  1.00  0.00     0.031 A 
BRANCH  49  63
ATOM     63  C   UNL A   1      39.194  31.697  30.721  1.00  0.00    -0.014 A 
ATOM     64  C   UNL A   1      38.170  32.156  29.874  1.00  0.00     0.010 A 
ATOM     65  C   UNL A   1      38.980  31.683  32.111  1.00  0.00     0.010 A 
ATOM     66  C   UNL A   1      36.974  32.638  30.413  1.00  0.00     0.020 A 
ATOM     67  C   UNL A   1      37.776  32.138  32.651  1.00  0.00     0.020 A 
ATOM     68  C   UNL A   1      36.786  32.632  31.800  1.00  0.00     0.054 A 
BRANCH  68  69
ATOM     69  S   UNL A   1      35.231  33.274  32.475  1.00  0.00     0.124 S 
ATOM     70  O   UNL A   1      35.362  34.708  32.228  1.00  0.00    -0.237 OA
ATOM     71  O   UNL A   1      34.225  32.587  31.668  1.00  0.00    -0.237 OA
ATOM     72  O   UNL A   1      35.273  32.880  33.881  1.00  0.00    -0.744 OA
ENDBRANCH  68  69
ENDBRANCH  49  63
BRANCH  50  73
ATOM     73  C   UNL A   1      47.924  28.110  27.337  1.00  0.00    -0.014 A 
ATOM     74  C   UNL A   1      48.185  27.965  25.962  1.00  0.00     0.010 A 
ATOM     75  C   UNL A   1      48.910  27.692  28.252  1.00  0.00     0.010 A 
ATOM     76  C   UNL A   1      49.385  27.392  25.517  1.00  0.00     0.020 A 
ATOM     77  C   UNL A   1      50.124  27.155  27.814  1.00  0.00     0.020 A 
ATOM     78  C   UNL A   1      50.348  26.992  26.448  1.00  0.00     0.054 A 
BRANCH  78  79
ATOM     79  S   UNL A   1      51.905  26.270  25.854  1.00  0.00     0.124 S 
ATOM     80  O   UNL A   1      51.885  26.621  24.438  1.00  0.00    -0.237 OA
ATOM     81  O   UNL A   1      52.902  26.964  26.665  1.00  0.00    -0.237 OA
ATOM     82  O   UNL A   1      51.756  24.846  26.148  1.00  0.00    -0.744 OA
ENDBRANCH  78  79
ENDBRANCH  50  73
BRANCH  62  83
ATOM     83  C   UNL A   1      45.768  34.415  29.458  1.00  0.00    -0.014 A 
ATOM     84  C   UNL A   1      45.780  35.355  28.414  1.00  0.00     0.010 A 
ATOM     85  C   UNL A   1      46.352  34.753  30.693  1.00  0.00     0.010 A 
ATOM     86  C   UNL A   1      46.384  36.603  28.594  1.00  0.00     0.020 A 
ATOM     87  C   UNL A   1      46.931  36.010  30.887  1.00  0.00     0.020 A 
ATOM     88  C   UNL A   1      46.951  36.923  29.832  1.00  0.00     0.054 A 
BRANCH  88  89
ATOM     89  S   UNL A   1      47.671  38.573  30.060  1.00  0.00     0.124 S 
ATOM     90  O   UNL A   1      48.026  38.555  31.477  1.00  0.00    -0.237 OA
ATOM     91  O   UNL A   1      48.796  38.563  29.128  1.00  0.00    -0.237 OA
ATOM     92  O   UNL A   1      46.581  39.478  29.703  1.00  0.00    -0.744 OA
ENDBRANCH  88  89
ENDBRANCH  62  83
ENDBRANCH  36  37
ENDBRANCH  29  31
ENDBRANCH  28  29
ENDBRANCH  27  28
ENDBRANCH   1  27
TORSDOF 20
ENDMDL
MODEL 3
REMARK VINA RESULT:      -9.9      2.885      3.583
REMARK SMILES [NH3+]C[C@@H]1CC[C@H](C(=O)N[C@@H](Cc2ccccc2)C(=O)OCCOC(=O)c2ccc(-c3c4nc(c(-c5ccc(S(=O)(=O)[O-])cc5)c5ccc([nH]5)c(-c5ccc(S(=O)(=O)[O-])cc5)c5nc(c(-c6ccc(S(=O)(=O)[O-])cc6)c6ccc3[nH]6)C=C5)C=C4)cc2)O1
REMARK SMILES IDX 21 1 20 2 18 3 19 4 10 5 9 6 7 7 8 8 6 10 3 11 4 12 86 13
REMARK SMILES IDX 5 14 2 15 1 16 11 20 12 21 13 22 17 23 14 24 16 25 15 26
REMARK SMILES IDX 22 27 23 28 24 29 25 30 26 31 27 32 85 33 28 34 84 35 29 36
REMARK SMILES IDX 30 37 31 38 78 39 32 40 83 41 77 42 79 43 33 44 82 45 76 46
REMARK SMILES IDX 75 47 34 49 64 50 45 51 63 52 46 53 49 54 62 55 80 56 47 57
REMARK SMILES IDX 48 58 61 60 81 61 50 62 35 63 36 64 44 65 37 66 43 67 38 68
REMARK SMILES IDX 39 69 40 70 41 71 42 72 65 73 66 74 74 75 67 76 73 77 68 78
REMARK SMILES IDX 69 79 70 80 71 81 72 82 51 83 52 84 60 85 53 86 59 87 54 88
REMARK SMILES IDX 55 89 56 90 57 91 58 92
REMARK H PARENT 9 9 1 17 1 18 1 19 79 48 49 59
REMARK Flexibility Score: inf
ROOT
ATOM      1  C   UNL A   1      33.297  29.054  25.178  1.00  0.00     0.274 C 
ENDROOT
BRANCH   1   2
ATOM      2  O   UNL A   1      33.100  27.743  25.744  1.00  0.00    -0.461 OA
BRANCH   2   3
ATOM      3  C   UNL A   1      31.951  27.132  25.330  1.00  0.00     0.329 C 
ATOM      4  O   UNL A   1      31.132  26.623  26.089  1.00  0.00    -0.250 OA
BRANCH   3   5
ATOM      5  C   UNL A   1      31.729  27.234  23.811  1.00  0.00     0.196 C 
BRANCH   5   6
ATOM      6  N   UNL A   1      32.627  26.515  22.907  1.00  0.00    -0.340 N 
ATOM      7  C   UNL A   1      33.038  25.212  22.996  1.00  0.00     0.249 C 
ATOM      8  O   UNL A   1      34.053  24.887  22.374  1.00  0.00    -0.272 OA
ATOM      9  H   UNL A   1      32.978  27.029  22.144  1.00  0.00     0.164 HD
BRANCH   7  10
ATOM     10  C   UNL A   1      32.264  24.179  23.857  1.00  0.00     0.207 C 
ATOM     11  C   UNL A   1      32.813  22.330  25.200  1.00  0.00     0.174 C 
ATOM     12  C   UNL A   1      32.480  21.782  23.824  1.00  0.00     0.041 C 
ATOM     13  O   UNL A   1      32.997  23.737  25.000  1.00  0.00    -0.359 OA
ATOM     14  C   UNL A   1      31.791  22.936  23.123  1.00  0.00     0.045 C 
BRANCH  11  15
ATOM     15  C   UNL A   1      34.089  21.706  25.813  1.00  0.00     0.291 C 
BRANCH  15  16
ATOM     16  N   UNL A   1      35.340  22.324  25.362  1.00  0.00    -0.355 N 
ATOM     17  H   UNL A   1      35.563  21.995  24.422  1.00  0.00     0.344 HD
ATOM     18  H   UNL A   1      36.095  22.069  25.999  1.00  0.00     0.344 HD
ATOM     19  H   UNL A   1      35.233  23.339  25.350  1.00  0.00     0.344 HD
ENDBRANCH  15  16
ENDBRANCH  11  15
ENDBRANCH   7  10
ENDBRANCH   5   6
BRANCH   5  20
ATOM     20  C   UNL A   1      30.260  27.055  23.388  1.00  0.00     0.072 C 
BRANCH  20  21
ATOM     21  C   UNL A   1      29.431  28.311  23.378  1.00  0.00    -0.045 A 
ATOM     22  C   UNL A   1      28.054  28.208  23.130  1.00  0.00     0.004 A 
ATOM     23  C   UNL A   1      30.001  29.577  23.551  1.00  0.00     0.004 A 
ATOM     24  C   UNL A   1      27.277  29.353  22.985  1.00  0.00     0.000 A 
ATOM     25  C   UNL A   1      29.223  30.722  23.391  1.00  0.00     0.000 A 
ATOM     26  C   UNL A   1      27.865  30.610  23.097  1.00  0.00     0.000 A 
ENDBRANCH  20  21
ENDBRANCH   5  20
ENDBRANCH   3   5
ENDBRANCH   2   3
ENDBRANCH   1   2
BRANCH   1  27
ATOM     27  C   UNL A   1      32.702  30.142  26.076  1.00  0.00     0.275 C 
BRANCH  27  28
ATOM     28  O   UNL A   1      33.375  30.181  27.351  1.00  0.00    -0.458 OA
BRANCH  28  29
ATOM     29  C   UNL A   1      34.014  31.345  27.629  1.00  0.00     0.338 C 
ATOM     30  O   UNL A   1      33.531  32.460  27.643  1.00  0.00    -0.246 OA
BRANCH  29  31
ATOM     31  C   UNL A   1      35.365  31.042  28.140  1.00  0.00     0.060 A 
ATOM     32  C   UNL A   1      35.538  29.762  28.649  1.00  0.00     0.016 A 
ATOM     33  C   UNL A   1      36.426  31.947  28.170  1.00  0.00     0.016 A 
ATOM     34  C   UNL A   1      36.783  29.331  29.101  1.00  0.00     0.010 A 
ATOM     35  C   UNL A   1      37.673  31.533  28.680  1.00  0.00     0.010 A 
ATOM     36  C   UNL A   1      37.865  30.211  29.122  1.00  0.00    -0.014 A 
BRANCH  36  37
ATOM     37  C   UNL A   1      39.115  29.755  29.782  1.00  0.00     0.031 A 
ATOM     38  C   UNL A   1      39.513  30.414  31.074  1.00  0.00     0.074 A 
ATOM     39  C   UNL A   1      39.792  28.671  29.350  1.00  0.00     0.049 A 
ATOM     40  N   UNL A   1      40.582  30.234  31.802  1.00  0.00    -0.248 NA
ATOM     41  C   UNL A   1      38.555  31.384  31.630  1.00  0.00     0.031 C 
ATOM     42  C   UNL A   1      39.403  27.826  28.222  1.00  0.00     0.029 A 
ATOM     43  N   UNL A   1      40.936  28.075  29.829  1.00  0.00    -0.354 N 
ATOM     44  C   UNL A   1      40.436  31.082  32.894  1.00  0.00     0.074 A 
ATOM     45  C   UNL A   1      39.170  31.763  32.739  1.00  0.00     0.031 C 
ATOM     46  C   UNL A   1      40.282  26.814  28.105  1.00  0.00     0.029 A 
ATOM     47  C   UNL A   1      41.347  26.985  29.091  1.00  0.00     0.049 A 
ATOM     48  H   UNL A   1      41.417  28.396  30.626  1.00  0.00     0.167 HD
ATOM     49  C   UNL A   1      41.293  31.291  33.921  1.00  0.00     0.031 A 
ATOM     50  C   UNL A   1      42.479  26.252  29.166  1.00  0.00     0.031 A 
ATOM     51  C   UNL A   1      42.571  30.643  34.034  1.00  0.00     0.049 A 
ATOM     52  C   UNL A   1      43.504  26.620  30.214  1.00  0.00     0.074 A 
ATOM     53  C   UNL A   1      43.581  30.875  34.949  1.00  0.00     0.029 A 
ATOM     54  N   UNL A   1      43.012  29.630  33.195  1.00  0.00    -0.354 N 
ATOM     55  N   UNL A   1      43.418  27.515  31.172  1.00  0.00    -0.248 NA
ATOM     56  C   UNL A   1      44.786  25.900  30.182  1.00  0.00     0.031 C 
ATOM     57  C   UNL A   1      44.656  30.039  34.628  1.00  0.00     0.029 A 
ATOM     58  C   UNL A   1      44.287  29.236  33.559  1.00  0.00     0.049 A 
ATOM     59  H   UNL A   1      42.494  29.246  32.451  1.00  0.00     0.167 HD
ATOM     60  C   UNL A   1      44.624  27.453  31.863  1.00  0.00     0.074 A 
ATOM     61  C   UNL A   1      45.412  26.415  31.231  1.00  0.00     0.031 C 
ATOM     62  C   UNL A   1      45.047  28.191  32.920  1.00  0.00     0.031 A 
BRANCH  49  63
ATOM     63  C   UNL A   1      40.911  32.348  34.921  1.00  0.00    -0.014 A 
ATOM     64  C   UNL A   1      41.269  33.696  34.744  1.00  0.00     0.010 A 
ATOM     65  C   UNL A   1      40.208  31.972  36.080  1.00  0.00     0.010 A 
ATOM     66  C   UNL A   1      40.973  34.639  35.733  1.00  0.00     0.020 A 
ATOM     67  C   UNL A   1      39.887  32.916  37.057  1.00  0.00     0.020 A 
ATOM     68  C   UNL A   1      40.289  34.242  36.887  1.00  0.00     0.054 A 
BRANCH  68  69
ATOM     69  S   UNL A   1      39.928  35.481  38.160  1.00  0.00     0.124 S 
ATOM     70  O   UNL A   1      41.178  35.512  38.915  1.00  0.00    -0.237 OA
ATOM     71  O   UNL A   1      39.641  36.676  37.370  1.00  0.00    -0.237 OA
ATOM     72  O   UNL A   1      38.784  34.921  38.875  1.00  0.00    -0.744 OA
ENDBRANCH  68  69
ENDBRANCH  49  63
BRANCH  50  73
ATOM     73  C   UNL A   1      42.769  25.178  28.163  1.00  0.00    -0.014 A 
ATOM     74  C   UNL A   1      42.425  23.834  28.398  1.00  0.00     0.010 A 
ATOM     75  C   UNL A   1      43.457  25.495  26.976  1.00  0.00     0.010 A 
ATOM     76  C   UNL A   1      42.784  22.833  27.483  1.00  0.00     0.020 A 
ATOM     77  C   UNL A   1      43.783  24.506  26.042  1.00  0.00     0.020 A 
ATOM     78  C   UNL A   1      43.460  23.177  26.310  1.00  0.00     0.054 A 
BRANCH  78  79
ATOM     79  S   UNL A   1      43.900  21.871  25.127  1.00  0.00     0.124 S 
ATOM     80  O   UNL A   1      43.774  22.562  23.848  1.00  0.00    -0.237 OA
ATOM     81  O   UNL A   1      45.261  21.528  25.531  1.00  0.00    -0.237 OA
ATOM     82  O   UNL A   1      42.903  20.832  25.378  1.00  0.00    -0.744 OA
ENDBRANCH  78  79
ENDBRANCH  50  73
BRANCH  62  83
ATOM     83  C   UNL A   1      46.404  27.878  33.493  1.00  0.00    -0.014 A 
ATOM     84  C   UNL A   1      46.582  26.851  34.435  1.00  0.00     0.010 A 
ATOM     85  C   UNL A   1      47.529  28.574  33.014  1.00  0.00     0.010 A 
ATOM     86  C   UNL A   1      47.861  26.537  34.904  1.00  0.00     0.020 A 
ATOM     87  C   UNL A   1      48.812  28.245  33.458  1.00  0.00     0.020 A 
ATOM     88  C   UNL A   1      48.968  27.235  34.408  1.00  0.00     0.054 A 
BRANCH  88  89
ATOM     89  S   UNL A   1      50.623  26.766  34.984  1.00  0.00     0.124 S 
ATOM     90  O   UNL A   1      50.428  26.678  36.429  1.00  0.00    -0.237 OA
ATOM     91  O   UNL A   1      50.853  25.496  34.300  1.00  0.00    -0.237 OA
ATOM     92  O   UNL A   1      51.471  27.870  34.538  1.00  0.00    -0.744 OA
ENDBRANCH  88  89
ENDBRANCH  62  83
ENDBRANCH  36  37
ENDBRANCH  29  31
ENDBRANCH  28  29
ENDBRANCH  27  28
ENDBRANCH   1  27
TORSDOF 20
ENDMDL
