MODEL 1
REMARK VINA RESULT:     -11.6      0.000      0.000
REMARK SMILES Cc1ccccc1C(=O)N1CSC[C@H]1C(=O)OCCOC(=O)c1ccc(-c2c3nc(c(-c4ccc(S(=O)(=O)[O-])cc4)c4ccc([nH]4)c(-c4ccc(S(=O)(=O)[O-])cc4)c4nc(c(-c5ccc(S(=O)(=O)[O-])cc5)c5ccc2[nH]5)C=C4)C=C3)cc1
REMARK SMILES IDX 19 1 18 2 17 3 15 4 16 5 14 6 10 7 11 8 12 9 13 10 8 11 9 12
REMARK SMILES IDX 7 13 1 14 2 15 3 16 4 17 6 18 5 19 20 20 21 21 22 22 23 23
REMARK SMILES IDX 24 24 82 25 25 26 81 27 26 28 27 29 28 30 75 31 29 32 80 33
REMARK SMILES IDX 74 34 76 35 30 36 79 37 73 38 72 39 31 41 61 42 42 43 60 44
REMARK SMILES IDX 43 45 46 46 59 47 77 48 44 49 45 50 58 52 78 53 47 54 32 55
REMARK SMILES IDX 33 56 41 57 34 58 40 59 35 60 36 61 37 62 38 63 39 64 62 65
REMARK SMILES IDX 63 66 71 67 64 68 70 69 65 70 66 71 67 72 68 73 69 74 48 75
REMARK SMILES IDX 49 76 57 77 50 78 56 79 51 80 52 81 53 82 54 83 55 84
REMARK H PARENT 76 40 46 51
REMARK Flexibility Score: inf
ROOT
ATOM      1  C   UNL A   1      34.400  31.014  27.551  1.00  0.00     0.275 C 
ENDROOT
BRANCH   1   2
ATOM      2  C   UNL A   1      33.123  30.253  27.115  1.00  0.00     0.274 C 
BRANCH   2   3
ATOM      3  O   UNL A   1      33.431  29.024  26.430  1.00  0.00    -0.461 OA
BRANCH   3   4
ATOM      4  C   UNL A   1      32.963  28.790  25.181  1.00  0.00     0.329 C 
ATOM      5  O   UNL A   1      33.429  29.314  24.178  1.00  0.00    -0.250 OA
BRANCH   4   6
ATOM      6  C   UNL A   1      31.724  27.850  25.259  1.00  0.00     0.206 C 
ATOM      7  N   UNL A   1      31.678  26.884  24.191  1.00  0.00    -0.315 N 
ATOM      8  C   UNL A   1      32.580  25.789  24.429  1.00  0.00     0.191 C 
ATOM      9  S   UNL A   1      32.447  25.498  26.223  1.00  0.00    -0.138 SA
ATOM     10  C   UNL A   1      31.455  27.002  26.483  1.00  0.00     0.108 C 
BRANCH   7  11
ATOM     11  C   UNL A   1      31.205  27.335  22.993  1.00  0.00     0.255 C 
ATOM     12  O   UNL A   1      31.878  27.150  21.980  1.00  0.00    -0.269 OA
BRANCH  11  13
ATOM     13  C   UNL A   1      29.957  28.162  22.938  1.00  0.00     0.042 A 
ATOM     14  C   UNL A   1      28.231  26.571  24.048  1.00  0.00     0.045 C 
ATOM     15  C   UNL A   1      28.637  27.789  23.271  1.00  0.00    -0.038 A 
ATOM     16  C   UNL A   1      27.587  28.656  22.904  1.00  0.00     0.004 A 
ATOM     17  C   UNL A   1      27.836  29.924  22.385  1.00  0.00     0.000 A 
ATOM     18  C   UNL A   1      30.189  29.489  22.524  1.00  0.00     0.014 A 
ATOM     19  C   UNL A   1      29.143  30.366  22.257  1.00  0.00     0.001 A 
ENDBRANCH  11  13
ENDBRANCH   7  11
ENDBRANCH   4   6
ENDBRANCH   3   4
ENDBRANCH   2   3
ENDBRANCH   1   2
BRANCH   1  20
ATOM     20  O   UNL A   1      35.019  30.642  28.815  1.00  0.00    -0.458 OA
BRANCH  20  21
ATOM     21  C   UNL A   1      36.358  30.909  29.052  1.00  0.00     0.338 C 
ATOM     22  O   UNL A   1      36.764  31.775  29.774  1.00  0.00    -0.246 OA
BRANCH  21  23
ATOM     23  C   UNL A   1      37.157  29.811  28.403  1.00  0.00     0.060 A 
ATOM     24  C   UNL A   1      37.890  29.968  27.212  1.00  0.00     0.016 A 
ATOM     25  C   UNL A   1      37.521  28.822  29.280  1.00  0.00     0.016 A 
ATOM     26  C   UNL A   1      39.136  29.306  27.068  1.00  0.00     0.010 A 
ATOM     27  C   UNL A   1      38.854  28.552  29.323  1.00  0.00     0.010 A 
ATOM     28  C   UNL A   1      39.679  28.690  28.199  1.00  0.00    -0.014 A 
BRANCH  28  29
ATOM     29  C   UNL A   1      40.879  27.850  28.375  1.00  0.00     0.031 A 
ATOM     30  C   UNL A   1      41.063  26.435  27.961  1.00  0.00     0.074 A 
ATOM     31  C   UNL A   1      41.932  28.637  28.712  1.00  0.00     0.049 A 
ATOM     32  N   UNL A   1      41.650  25.531  28.678  1.00  0.00    -0.248 NA
ATOM     33  C   UNL A   1      40.603  25.892  26.672  1.00  0.00     0.031 C 
ATOM     34  C   UNL A   1      43.359  28.437  28.740  1.00  0.00     0.029 A 
ATOM     35  N   UNL A   1      41.809  29.952  29.170  1.00  0.00    -0.354 N 
ATOM     36  C   UNL A   1      41.920  24.463  27.829  1.00  0.00     0.074 A 
ATOM     37  C   UNL A   1      41.020  24.618  26.718  1.00  0.00     0.031 C 
ATOM     38  C   UNL A   1      43.900  29.413  29.510  1.00  0.00     0.029 A 
ATOM     39  C   UNL A   1      42.813  30.240  30.048  1.00  0.00     0.049 A 
ATOM     40  H   UNL A   1      41.101  30.579  28.899  1.00  0.00     0.167 HD
ATOM     41  C   UNL A   1      43.097  23.770  27.910  1.00  0.00     0.031 A 
ATOM     42  C   UNL A   1      42.365  30.389  31.329  1.00  0.00     0.031 A 
ATOM     43  C   UNL A   1      43.997  24.468  28.822  1.00  0.00     0.049 A 
ATOM     44  C   UNL A   1      42.818  29.182  32.094  1.00  0.00     0.074 A 
ATOM     45  C   UNL A   1      45.051  25.330  28.564  1.00  0.00     0.029 A 
ATOM     46  N   UNL A   1      43.655  24.637  30.154  1.00  0.00    -0.354 N 
ATOM     47  N   UNL A   1      42.950  27.987  31.582  1.00  0.00    -0.248 NA
ATOM     48  C   UNL A   1      43.340  29.300  33.443  1.00  0.00     0.031 C 
ATOM     49  C   UNL A   1      45.293  26.077  29.745  1.00  0.00     0.029 A 
ATOM     50  C   UNL A   1      44.382  25.673  30.710  1.00  0.00     0.049 A 
ATOM     51  H   UNL A   1      42.988  24.098  30.635  1.00  0.00     0.167 HD
ATOM     52  C   UNL A   1      43.715  27.236  32.430  1.00  0.00     0.074 A 
ATOM     53  C   UNL A   1      43.902  28.091  33.594  1.00  0.00     0.031 C 
ATOM     54  C   UNL A   1      44.220  26.008  32.115  1.00  0.00     0.031 A 
BRANCH  41  55
ATOM     55  C   UNL A   1      43.617  22.724  26.922  1.00  0.00    -0.014 A 
ATOM     56  C   UNL A   1      42.884  21.526  26.740  1.00  0.00     0.010 A 
ATOM     57  C   UNL A   1      44.762  22.865  26.110  1.00  0.00     0.010 A 
ATOM     58  C   UNL A   1      43.294  20.503  25.868  1.00  0.00     0.020 A 
ATOM     59  C   UNL A   1      45.191  21.839  25.234  1.00  0.00     0.020 A 
ATOM     60  C   UNL A   1      44.456  20.659  25.126  1.00  0.00     0.054 A 
BRANCH  60  61
ATOM     61  S   UNL A   1      44.954  19.315  24.008  1.00  0.00     0.124 S 
ATOM     62  O   UNL A   1      44.318  18.149  24.616  1.00  0.00    -0.237 OA
ATOM     63  O   UNL A   1      44.394  19.739  22.729  1.00  0.00    -0.237 OA
ATOM     64  O   UNL A   1      46.415  19.326  24.079  1.00  0.00    -0.744 OA
ENDBRANCH  60  61
ENDBRANCH  41  55
BRANCH  42  65
ATOM     65  C   UNL A   1      41.020  31.098  31.447  1.00  0.00    -0.014 A 
ATOM     66  C   UNL A   1      39.988  30.432  32.161  1.00  0.00     0.010 A 
ATOM     67  C   UNL A   1      40.819  32.464  31.169  1.00  0.00     0.010 A 
ATOM     68  C   UNL A   1      38.856  31.109  32.649  1.00  0.00     0.020 A 
ATOM     69  C   UNL A   1      39.663  33.144  31.630  1.00  0.00     0.020 A 
ATOM     70  C   UNL A   1      38.700  32.467  32.388  1.00  0.00     0.054 A 
BRANCH  70  71
ATOM     71  S   UNL A   1      37.327  33.354  33.207  1.00  0.00     0.124 S 
ATOM     72  O   UNL A   1      37.982  33.924  34.380  1.00  0.00    -0.237 OA
ATOM     73  O   UNL A   1      36.925  34.320  32.185  1.00  0.00    -0.237 OA
ATOM     74  O   UNL A   1      36.356  32.299  33.483  1.00  0.00    -0.744 OA
ENDBRANCH  70  71
ENDBRANCH  42  65
BRANCH  54  75
ATOM     75  C   UNL A   1      44.720  25.017  33.129  1.00  0.00    -0.014 A 
ATOM     76  C   UNL A   1      46.036  25.012  33.605  1.00  0.00     0.010 A 
ATOM     77  C   UNL A   1      43.804  24.137  33.755  1.00  0.00     0.010 A 
ATOM     78  C   UNL A   1      46.450  24.108  34.578  1.00  0.00     0.020 A 
ATOM     79  C   UNL A   1      44.187  23.286  34.790  1.00  0.00     0.020 A 
ATOM     80  C   UNL A   1      45.522  23.253  35.166  1.00  0.00     0.054 A 
BRANCH  80  81
ATOM     81  S   UNL A   1      46.091  22.140  36.462  1.00  0.00     0.124 S 
ATOM     82  O   UNL A   1      47.539  22.188  36.277  1.00  0.00    -0.237 OA
ATOM     83  O   UNL A   1      45.592  22.789  37.674  1.00  0.00    -0.237 OA
ATOM     84  O   UNL A   1      45.455  20.869  36.134  1.00  0.00    -0.744 OA
ENDBRANCH  80  81
ENDBRANCH  54  75
ENDBRANCH  28  29
ENDBRANCH  21  23
ENDBRANCH  20  21
ENDBRANCH   1  20
TORSDOF 16
ENDMDL
MODEL 2
REMARK VINA RESULT:     -11.3      2.161      3.790
REMARK SMILES Cc1ccccc1C(=O)N1CSC[C@H]1C(=O)OCCOC(=O)c1ccc(-c2c3nc(c(-c4ccc(S(=O)(=O)[O-])cc4)c4ccc([nH]4)c(-c4ccc(S(=O)(=O)[O-])cc4)c4nc(c(-c5ccc(S(=O)(=O)[O-])cc5)c5ccc2[nH]5)C=C4)C=C3)cc1
REMARK SMILES IDX 19 1 18 2 17 3 15 4 16 5 14 6 10 7 11 8 12 9 13 10 8 11 9 12
REMARK SMILES IDX 7 13 1 14 2 15 3 16 4 17 6 18 5 19 20 20 21 21 22 22 23 23
REMARK SMILES IDX 24 24 82 25 25 26 81 27 26 28 27 29 28 30 75 31 29 32 80 33
REMARK SMILES IDX 74 34 76 35 30 36 79 37 73 38 72 39 31 41 61 42 42 43 60 44
REMARK SMILES IDX 43 45 46 46 59 47 77 48 44 49 45 50 58 52 78 53 47 54 32 55
REMARK SMILES IDX 33 56 41 57 34 58 40 59 35 60 36 61 37 62 38 63 39 64 62 65
REMARK SMILES IDX 63 66 71 67 64 68 70 69 65 70 66 71 67 72 68 73 69 74 48 75
REMARK SMILES IDX 49 76 57 77 50 78 56 79 51 80 52 81 53 82 54 83 55 84
REMARK H PARENT 76 40 46 51
REMARK Flexibility Score: inf
ROOT
ATOM      1  C   UNL A   1      34.055  28.892  26.536  1.00  0.00     0.275 C 
ENDROOT
BRANCH   1   2
ATOM      2  C   UNL A   1      33.109  27.719  26.896  1.00  0.00     0.274 C 
BRANCH   2   3
ATOM      3  O   UNL A   1      33.450  26.509  26.193  1.00  0.00    -0.461 OA
BRANCH   3   4
ATOM      4  C   UNL A   1      32.571  25.483  26.113  1.00  0.00     0.329 C 
ATOM      5  O   UNL A   1      31.578  25.389  26.821  1.00  0.00    -0.250 OA
BRANCH   4   6
ATOM      6  C   UNL A   1      33.081  24.445  25.070  1.00  0.00     0.206 C 
ATOM      7  N   UNL A   1      33.010  23.085  25.543  1.00  0.00    -0.315 N 
ATOM      8  C   UNL A   1      31.669  22.569  25.468  1.00  0.00     0.191 C 
ATOM      9  S   UNL A   1      31.023  23.260  23.910  1.00  0.00    -0.138 SA
ATOM     10  C   UNL A   1      32.466  24.348  23.691  1.00  0.00     0.108 C 
BRANCH   7  11
ATOM     11  C   UNL A   1      34.018  22.683  26.370  1.00  0.00     0.255 C 
ATOM     12  O   UNL A   1      33.902  22.865  27.581  1.00  0.00    -0.269 OA
BRANCH  11  13
ATOM     13  C   UNL A   1      35.299  22.158  25.797  1.00  0.00     0.042 A 
ATOM     14  C   UNL A   1      34.531  19.882  24.810  1.00  0.00     0.045 C 
ATOM     15  C   UNL A   1      35.559  20.889  25.238  1.00  0.00    -0.038 A 
ATOM     16  C   UNL A   1      36.902  20.532  24.991  1.00  0.00     0.004 A 
ATOM     17  C   UNL A   1      37.937  21.453  25.126  1.00  0.00     0.000 A 
ATOM     18  C   UNL A   1      36.343  23.105  25.814  1.00  0.00     0.014 A 
ATOM     19  C   UNL A   1      37.647  22.762  25.474  1.00  0.00     0.001 A 
ENDBRANCH  11  13
ENDBRANCH   7  11
ENDBRANCH   4   6
ENDBRANCH   3   4
ENDBRANCH   2   3
ENDBRANCH   1   2
BRANCH   1  20
ATOM     20  O   UNL A   1      35.326  28.985  27.240  1.00  0.00    -0.458 OA
BRANCH  20  21
ATOM     21  C   UNL A   1      35.858  30.220  27.578  1.00  0.00     0.338 C 
ATOM     22  O   UNL A   1      35.333  31.273  27.353  1.00  0.00    -0.246 OA
BRANCH  21  23
ATOM     23  C   UNL A   1      37.077  29.968  28.425  1.00  0.00     0.060 A 
ATOM     24  C   UNL A   1      37.059  29.258  29.640  1.00  0.00     0.016 A 
ATOM     25  C   UNL A   1      38.247  30.038  27.715  1.00  0.00     0.016 A 
ATOM     26  C   UNL A   1      38.146  28.408  29.967  1.00  0.00     0.010 A 
ATOM     27  C   UNL A   1      39.046  28.940  27.813  1.00  0.00     0.010 A 
ATOM     28  C   UNL A   1      39.094  28.154  28.972  1.00  0.00    -0.014 A 
BRANCH  28  29
ATOM     29  C   UNL A   1      40.371  27.415  29.002  1.00  0.00     0.031 A 
ATOM     30  C   UNL A   1      40.616  26.015  28.570  1.00  0.00     0.074 A 
ATOM     31  C   UNL A   1      41.389  28.288  29.206  1.00  0.00     0.049 A 
ATOM     32  N   UNL A   1      41.358  25.168  29.212  1.00  0.00    -0.248 NA
ATOM     33  C   UNL A   1      40.048  25.422  27.348  1.00  0.00     0.031 C 
ATOM     34  C   UNL A   1      42.821  28.203  29.060  1.00  0.00     0.029 A 
ATOM     35  N   UNL A   1      41.217  29.593  29.674  1.00  0.00    -0.354 N 
ATOM     36  C   UNL A   1      41.607  24.116  28.338  1.00  0.00     0.074 A 
ATOM     37  C   UNL A   1      40.569  24.185  27.345  1.00  0.00     0.031 C 
ATOM     38  C   UNL A   1      43.370  29.228  29.757  1.00  0.00     0.029 A 
ATOM     39  C   UNL A   1      42.294  29.971  30.422  1.00  0.00     0.049 A 
ATOM     40  H   UNL A   1      40.433  30.159  29.490  1.00  0.00     0.167 HD
ATOM     41  C   UNL A   1      42.838  23.520  28.276  1.00  0.00     0.031 A 
ATOM     42  C   UNL A   1      41.994  30.098  31.748  1.00  0.00     0.031 A 
ATOM     43  C   UNL A   1      43.783  24.299  29.070  1.00  0.00     0.049 A 
ATOM     44  C   UNL A   1      42.633  28.941  32.454  1.00  0.00     0.074 A 
ATOM     45  C   UNL A   1      44.724  25.239  28.684  1.00  0.00     0.029 A 
ATOM     46  N   UNL A   1      43.592  24.455  30.434  1.00  0.00    -0.354 N 
ATOM     47  N   UNL A   1      42.798  27.754  31.932  1.00  0.00    -0.248 NA
ATOM     48  C   UNL A   1      43.304  29.115  33.729  1.00  0.00     0.031 C 
ATOM     49  C   UNL A   1      45.047  26.017  29.826  1.00  0.00     0.029 A 
ATOM     50  C   UNL A   1      44.296  25.552  30.895  1.00  0.00     0.049 A 
ATOM     51  H   UNL A   1      43.035  23.869  30.994  1.00  0.00     0.167 HD
ATOM     52  C   UNL A   1      43.718  27.077  32.681  1.00  0.00     0.074 A 
ATOM     53  C   UNL A   1      43.976  27.957  33.812  1.00  0.00     0.031 C 
ATOM     54  C   UNL A   1      44.279  25.889  32.309  1.00  0.00     0.031 A 
BRANCH  41  55
ATOM     55  C   UNL A   1      43.316  22.508  27.234  1.00  0.00    -0.014 A 
ATOM     56  C   UNL A   1      44.634  22.613  26.727  1.00  0.00     0.010 A 
ATOM     57  C   UNL A   1      42.566  21.414  26.753  1.00  0.00     0.010 A 
ATOM     58  C   UNL A   1      45.153  21.740  25.756  1.00  0.00     0.020 A 
ATOM     59  C   UNL A   1      43.072  20.532  25.768  1.00  0.00     0.020 A 
ATOM     60  C   UNL A   1      44.363  20.707  25.270  1.00  0.00     0.054 A 
BRANCH  60  61
ATOM     61  S   UNL A   1      45.068  19.597  24.015  1.00  0.00     0.124 S 
ATOM     62  O   UNL A   1      46.504  19.825  24.164  1.00  0.00    -0.237 OA
ATOM     63  O   UNL A   1      44.593  18.286  24.446  1.00  0.00    -0.237 OA
ATOM     64  O   UNL A   1      44.495  20.082  22.760  1.00  0.00    -0.744 OA
ENDBRANCH  60  61
ENDBRANCH  41  55
BRANCH  42  65
ATOM     65  C   UNL A   1      40.621  30.698  32.029  1.00  0.00    -0.014 A 
ATOM     66  C   UNL A   1      39.800  30.042  32.985  1.00  0.00     0.010 A 
ATOM     67  C   UNL A   1      40.231  31.997  31.644  1.00  0.00     0.010 A 
ATOM     68  C   UNL A   1      38.702  30.675  33.592  1.00  0.00     0.020 A 
ATOM     69  C   UNL A   1      39.104  32.628  32.229  1.00  0.00     0.020 A 
ATOM     70  C   UNL A   1      38.360  31.971  33.217  1.00  0.00     0.054 A 
BRANCH  70  71
ATOM     71  S   UNL A   1      37.058  32.833  34.168  1.00  0.00     0.124 S 
ATOM     72  O   UNL A   1      37.419  34.235  33.987  1.00  0.00    -0.237 OA
ATOM     73  O   UNL A   1      35.838  32.409  33.483  1.00  0.00    -0.237 OA
ATOM     74  O   UNL A   1      37.225  32.313  35.523  1.00  0.00    -0.744 OA
ENDBRANCH  70  71
ENDBRANCH  42  65
BRANCH  54  75
ATOM     75  C   UNL A   1      44.977  24.953  33.255  1.00  0.00    -0.014 A 
ATOM     76  C   UNL A   1      46.369  24.901  33.388  1.00  0.00     0.010 A 
ATOM     77  C   UNL A   1      44.214  24.187  34.170  1.00  0.00     0.010 A 
ATOM     78  C   UNL A   1      46.978  24.054  34.308  1.00  0.00     0.020 A 
ATOM     79  C   UNL A   1      44.809  23.400  35.153  1.00  0.00     0.020 A 
ATOM     80  C   UNL A   1      46.194  23.311  35.187  1.00  0.00     0.054 A 
BRANCH  80  81
ATOM     81  S   UNL A   1      47.024  22.273  36.400  1.00  0.00     0.124 S 
ATOM     82  O   UNL A   1      47.108  20.999  35.690  1.00  0.00    -0.237 OA
ATOM     83  O   UNL A   1      48.296  22.968  36.592  1.00  0.00    -0.237 OA
ATOM     84  O   UNL A   1      46.127  22.294  37.551  1.00  0.00    -0.744 OA
ENDBRANCH  80  81
ENDBRANCH  54  75
ENDBRANCH  28  29
ENDBRANCH  21  23
ENDBRANCH  20  21
ENDBRANCH   1  20
TORSDOF 16
ENDMDL
MODEL 3
REMARK VINA RESULT:     -11.3      1.222      2.584
REMARK SMILES Cc1ccccc1C(=O)N1CSC[C@H]1C(=O)OCCOC(=O)c1ccc(-c2c3nc(c(-c4ccc(S(=O)(=O)[O-])cc4)c4ccc([nH]4)c(-c4ccc(S(=O)(=O)[O-])cc4)c4nc(c(-c5ccc(S(=O)(=O)[O-])cc5)c5ccc2[nH]5)C=C4)C=C3)cc1
REMARK SMILES IDX 19 1 18 2 17 3 15 4 16 5 14 6 10 7 11 8 12 9 13 10 8 11 9 12
REMARK SMILES IDX 7 13 1 14 2 15 3 16 4 17 6 18 5 19 20 20 21 21 22 22 23 23
REMARK SMILES IDX 24 24 82 25 25 26 81 27 26 28 27 29 28 30 75 31 29 32 80 33
REMARK SMILES IDX 74 34 76 35 30 36 79 37 73 38 72 39 31 41 61 42 42 43 60 44
REMARK SMILES IDX 43 45 46 46 59 47 77 48 44 49 45 50 58 52 78 53 47 54 32 55
REMARK SMILES IDX 33 56 41 57 34 58 40 59 35 60 36 61 37 62 38 63 39 64 62 65
REMARK SMILES IDX 63 66 71 67 64 68 70 69 65 70 66 71 67 72 68 73 69 74 48 75
REMARK SMILES IDX 49 76 57 77 50 78 56 79 51 80 52 81 53 82 54 83 55 84
REMARK H PARENT 76 40 46 51
REMARK Flexibility Score: inf
ROOT
ATOM      1  C   UNL A   1      34.405  31.332  28.018  1.00  0.00     0.275 C 
ENDROOT
BRANCH   1   2
ATOM      2  C   UNL A   1      33.664  30.076  27.495  1.00  0.00     0.274 C 
BRANCH   2   3
ATOM      3  O   UNL A   1      33.535  30.080  26.060  1.00  0.00    -0.461 OA
BRANCH   3   4
ATOM      4  C   UNL A   1      32.370  29.725  25.468  1.00  0.00     0.329 C 
ATOM      5  O   UNL A   1      31.329  30.355  25.596  1.00  0.00    -0.250 OA
BRANCH   4   6
ATOM      6  C   UNL A   1      32.565  28.380  24.707  1.00  0.00     0.206 C 
ATOM      7  N   UNL A   1      31.471  27.461  24.892  1.00  0.00    -0.315 N 
ATOM      8  C   UNL A   1      30.340  27.812  24.074  1.00  0.00     0.191 C 
ATOM      9  S   UNL A   1      31.092  28.376  22.512  1.00  0.00    -0.138 SA
ATOM     10  C   UNL A   1      32.774  28.348  23.208  1.00  0.00     0.108 C 
BRANCH   7  11
ATOM     11  C   UNL A   1      31.474  26.751  26.057  1.00  0.00     0.255 C 
ATOM     12  O   UNL A   1      31.362  27.355  27.123  1.00  0.00    -0.269 OA
BRANCH  11  13
ATOM     13  C   UNL A   1      31.749  25.278  26.041  1.00  0.00     0.042 A 
ATOM     14  C   UNL A   1      34.320  25.236  25.674  1.00  0.00     0.045 C 
ATOM     15  C   UNL A   1      32.957  24.611  25.743  1.00  0.00    -0.038 A 
ATOM     16  C   UNL A   1      32.916  23.214  25.549  1.00  0.00     0.004 A 
ATOM     17  C   UNL A   1      31.765  22.476  25.807  1.00  0.00     0.000 A 
ATOM     18  C   UNL A   1      30.633  24.501  26.409  1.00  0.00     0.014 A 
ATOM     19  C   UNL A   1      30.640  23.114  26.303  1.00  0.00     0.001 A 
ENDBRANCH  11  13
ENDBRANCH   7  11
ENDBRANCH   4   6
ENDBRANCH   3   4
ENDBRANCH   2   3
ENDBRANCH   1   2
BRANCH   1  20
ATOM     20  O   UNL A   1      35.307  31.171  29.149  1.00  0.00    -0.458 OA
BRANCH  20  21
ATOM     21  C   UNL A   1      36.662  31.429  29.015  1.00  0.00     0.338 C 
ATOM     22  O   UNL A   1      37.207  32.427  29.395  1.00  0.00    -0.246 OA
BRANCH  21  23
ATOM     23  C   UNL A   1      37.311  30.173  28.499  1.00  0.00     0.060 A 
ATOM     24  C   UNL A   1      37.898  30.055  27.227  1.00  0.00     0.016 A 
ATOM     25  C   UNL A   1      37.724  29.333  29.500  1.00  0.00     0.016 A 
ATOM     26  C   UNL A   1      39.077  29.283  27.071  1.00  0.00     0.010 A 
ATOM     27  C   UNL A   1      39.035  28.971  29.444  1.00  0.00     0.010 A 
ATOM     28  C   UNL A   1      39.721  28.839  28.230  1.00  0.00    -0.014 A 
BRANCH  28  29
ATOM     29  C   UNL A   1      40.884  27.953  28.426  1.00  0.00     0.031 A 
ATOM     30  C   UNL A   1      40.999  26.517  28.064  1.00  0.00     0.074 A 
ATOM     31  C   UNL A   1      41.975  28.704  28.721  1.00  0.00     0.049 A 
ATOM     32  N   UNL A   1      41.554  25.615  28.810  1.00  0.00    -0.248 NA
ATOM     33  C   UNL A   1      40.500  25.947  26.802  1.00  0.00     0.031 C 
ATOM     34  C   UNL A   1      43.392  28.441  28.743  1.00  0.00     0.029 A 
ATOM     35  N   UNL A   1      41.916  30.039  29.129  1.00  0.00    -0.354 N 
ATOM     36  C   UNL A   1      41.765  24.505  27.999  1.00  0.00     0.074 A 
ATOM     37  C   UNL A   1      40.860  24.657  26.893  1.00  0.00     0.031 C 
ATOM     38  C   UNL A   1      43.985  29.420  29.468  1.00  0.00     0.029 A 
ATOM     39  C   UNL A   1      42.943  30.315  29.986  1.00  0.00     0.049 A 
ATOM     40  H   UNL A   1      41.234  30.687  28.842  1.00  0.00     0.167 HD
ATOM     41  C   UNL A   1      42.911  23.762  28.095  1.00  0.00     0.031 A 
ATOM     42  C   UNL A   1      42.517  30.532  31.264  1.00  0.00     0.031 A 
ATOM     43  C   UNL A   1      43.853  24.453  28.970  1.00  0.00     0.049 A 
ATOM     44  C   UNL A   1      42.925  29.337  32.070  1.00  0.00     0.074 A 
ATOM     45  C   UNL A   1      44.940  25.256  28.669  1.00  0.00     0.029 A 
ATOM     46  N   UNL A   1      43.534  24.688  30.299  1.00  0.00    -0.354 N 
ATOM     47  N   UNL A   1      42.997  28.118  31.604  1.00  0.00    -0.248 NA
ATOM     48  C   UNL A   1      43.468  29.482  33.408  1.00  0.00     0.031 C 
ATOM     49  C   UNL A   1      45.230  26.036  29.818  1.00  0.00     0.029 A 
ATOM     50  C   UNL A   1      44.314  25.710  30.806  1.00  0.00     0.049 A 
ATOM     51  H   UNL A   1      42.849  24.198  30.807  1.00  0.00     0.167 HD
ATOM     52  C   UNL A   1      43.738  27.366  32.472  1.00  0.00     0.074 A 
ATOM     53  C   UNL A   1      43.977  28.256  33.600  1.00  0.00     0.031 C 
ATOM     54  C   UNL A   1      44.183  26.105  32.199  1.00  0.00     0.031 A 
BRANCH  41  55
ATOM     55  C   UNL A   1      43.371  22.657  27.143  1.00  0.00    -0.014 A 
ATOM     56  C   UNL A   1      44.669  22.729  26.581  1.00  0.00     0.010 A 
ATOM     57  C   UNL A   1      42.625  21.510  26.801  1.00  0.00     0.010 A 
ATOM     58  C   UNL A   1      45.169  21.770  25.685  1.00  0.00     0.020 A 
ATOM     59  C   UNL A   1      43.112  20.541  25.892  1.00  0.00     0.020 A 
ATOM     60  C   UNL A   1      44.382  20.683  25.333  1.00  0.00     0.054 A 
BRANCH  60  61
ATOM     61  S   UNL A   1      45.063  19.462  24.170  1.00  0.00     0.124 S 
ATOM     62  O   UNL A   1      46.501  19.703  24.269  1.00  0.00    -0.237 OA
ATOM     63  O   UNL A   1      44.600  18.196  24.730  1.00  0.00    -0.237 OA
ATOM     64  O   UNL A   1      44.463  19.830  22.889  1.00  0.00    -0.744 OA
ENDBRANCH  60  61
ENDBRANCH  41  55
BRANCH  42  65
ATOM     65  C   UNL A   1      41.207  31.305  31.369  1.00  0.00    -0.014 A 
ATOM     66  C   UNL A   1      40.194  30.770  32.210  1.00  0.00     0.010 A 
ATOM     67  C   UNL A   1      41.038  32.638  30.943  1.00  0.00     0.010 A 
ATOM     68  C   UNL A   1      39.117  31.545  32.673  1.00  0.00     0.020 A 
ATOM     69  C   UNL A   1      39.935  33.414  31.382  1.00  0.00     0.020 A 
ATOM     70  C   UNL A   1      38.994  32.869  32.263  1.00  0.00     0.054 A 
BRANCH  70  71
ATOM     71  S   UNL A   1      37.702  33.901  33.044  1.00  0.00     0.124 S 
ATOM     72  O   UNL A   1      36.982  34.424  31.887  1.00  0.00    -0.237 OA
ATOM     73  O   UNL A   1      36.966  32.925  33.847  1.00  0.00    -0.237 OA
ATOM     74  O   UNL A   1      38.465  34.886  33.805  1.00  0.00    -0.744 OA
ENDBRANCH  70  71
ENDBRANCH  42  65
BRANCH  54  75
ATOM     75  C   UNL A   1      44.651  25.131  33.245  1.00  0.00    -0.014 A 
ATOM     76  C   UNL A   1      43.773  24.428  34.078  1.00  0.00     0.010 A 
ATOM     77  C   UNL A   1      46.021  24.780  33.309  1.00  0.00     0.010 A 
ATOM     78  C   UNL A   1      44.241  23.500  35.003  1.00  0.00     0.020 A 
ATOM     79  C   UNL A   1      46.491  23.792  34.170  1.00  0.00     0.020 A 
ATOM     80  C   UNL A   1      45.596  23.185  35.041  1.00  0.00     0.054 A 
BRANCH  80  81
ATOM     81  S   UNL A   1      46.149  21.936  36.213  1.00  0.00     0.124 S 
ATOM     82  O   UNL A   1      47.600  22.012  36.062  1.00  0.00    -0.237 OA
ATOM     83  O   UNL A   1      45.623  22.440  37.481  1.00  0.00    -0.237 OA
ATOM     84  O   UNL A   1      45.529  20.706  35.731  1.00  0.00    -0.744 OA
ENDBRANCH  80  81
ENDBRANCH  54  75
ENDBRANCH  28  29
ENDBRANCH  21  23
ENDBRANCH  20  21
ENDBRANCH   1  20
TORSDOF 16
ENDMDL
