MODEL 1
REMARK VINA RESULT:      -9.9      0.000      0.000
REMARK SMILES CCCC(O)(CCC)[C@@]1(C)CC[C@@H](C(=O)OCCOC(=O)c2ccc(-c3c4nc(c(-c5ccc(S(=O)(=O)[O-])cc5)c5ccc([nH]5)c(-c5ccc(S(=O)(=O)[O-])cc5)c5nc(c(-c6ccc(S(=O)(=O)[O-])cc6)c6ccc3[nH]6)C=C5)C=C4)cc2)C(C)(C)O1
REMARK SMILES IDX 17 1 16 2 14 3 15 4 13 5 9 6 10 7 11 8 85 9 12 10 82 11
REMARK SMILES IDX 83 12 84 13 4 14 3 15 2 16 1 17 5 18 6 20 7 21 8 22 18 23
REMARK SMILES IDX 19 24 20 25 21 26 22 27 23 28 81 29 24 30 80 31 25 32 26 33
REMARK SMILES IDX 27 34 74 35 28 36 79 37 73 38 75 39 29 40 78 41 72 42 71 43
REMARK SMILES IDX 30 45 60 46 41 47 59 48 42 49 45 50 58 51 76 52 43 53 44 54
REMARK SMILES IDX 57 56 77 57 46 58 31 59 32 60 40 61 33 62 39 63 34 64 35 65
REMARK SMILES IDX 36 66 37 67 38 68 61 69 62 70 70 71 63 72 69 73 64 74 65 75
REMARK SMILES IDX 66 76 67 77 68 78 47 79 48 80 56 81 49 82 55 83 50 84 51 85
REMARK SMILES IDX 52 86 53 87 54 88
REMARK H PARENT 5 19 75 44 45 55
REMARK Flexibility Score: inf
ROOT
ATOM      1  C   UNL A   1      32.593  29.792  25.577  1.00  0.00     0.274 C 
ENDROOT
BRANCH   1   2
ATOM      2  O   UNL A   1      32.835  28.473  25.049  1.00  0.00    -0.462 OA
BRANCH   2   3
ATOM      3  C   UNL A   1      31.766  27.852  24.499  1.00  0.00     0.311 C 
ATOM      4  O   UNL A   1      30.870  28.427  23.890  1.00  0.00    -0.252 OA
BRANCH   3   5
ATOM      5  C   UNL A   1      31.705  26.365  24.778  1.00  0.00     0.131 C 
ATOM      6  C   UNL A   1      32.131  23.553  25.524  1.00  0.00     0.095 C 
ATOM      7  C   UNL A   1      30.948  22.591  25.812  1.00  0.00     0.045 C 
ATOM      8  C   UNL A   1      31.992  24.692  26.579  1.00  0.00     0.039 C 
ATOM      9  O   UNL A   1      31.869  24.023  24.181  1.00  0.00    -0.366 OA
ATOM     10  C   UNL A   1      32.368  26.088  26.118  1.00  0.00     0.021 C 
ATOM     11  C   UNL A   1      32.198  25.355  23.730  1.00  0.00     0.077 C 
ATOM     12  C   UNL A   1      33.679  25.488  23.344  1.00  0.00     0.043 C 
ATOM     13  C   UNL A   1      31.399  25.475  22.422  1.00  0.00     0.043 C 
BRANCH   6  14
ATOM     14  C   UNL A   1      33.512  22.754  25.561  1.00  0.00     0.093 C 
BRANCH  14  15
ATOM     15  C   UNL A   1      33.799  21.777  24.374  1.00  0.00     0.038 C 
BRANCH  15  16
ATOM     16  C   UNL A   1      33.828  20.259  24.608  1.00  0.00    -0.000 C 
ATOM     17  C   UNL A   1      32.598  19.519  24.106  1.00  0.00     0.004 C 
ENDBRANCH  15  16
ENDBRANCH  14  15
BRANCH  14  18
ATOM     18  O   UNL A   1      33.571  21.951  26.765  1.00  0.00    -0.387 OA
ATOM     19  H   UNL A   1      34.389  22.148  27.246  1.00  0.00     0.211 HD
ENDBRANCH  14  18
BRANCH  14  20
ATOM     20  C   UNL A   1      34.770  23.689  25.708  1.00  0.00     0.038 C 
BRANCH  20  21
ATOM     21  C   UNL A   1      36.090  23.167  26.291  1.00  0.00    -0.000 C 
ATOM     22  C   UNL A   1      37.355  23.685  25.617  1.00  0.00     0.004 C 
ENDBRANCH  20  21
ENDBRANCH  14  20
ENDBRANCH   6  14
ENDBRANCH   3   5
ENDBRANCH   2   3
ENDBRANCH   1   2
BRANCH   1  23
ATOM     23  C   UNL A   1      32.714  29.778  27.099  1.00  0.00     0.275 C 
BRANCH  23  24
ATOM     24  O   UNL A   1      34.065  29.445  27.461  1.00  0.00    -0.458 OA
BRANCH  24  25
ATOM     25  C   UNL A   1      34.709  30.357  28.222  1.00  0.00     0.338 C 
ATOM     26  O   UNL A   1      34.263  31.407  28.648  1.00  0.00    -0.246 OA
BRANCH  25  27
ATOM     27  C   UNL A   1      36.094  29.910  28.452  1.00  0.00     0.060 A 
ATOM     28  C   UNL A   1      36.517  29.469  29.710  1.00  0.00     0.016 A 
ATOM     29  C   UNL A   1      37.002  30.012  27.400  1.00  0.00     0.016 A 
ATOM     30  C   UNL A   1      37.862  29.171  29.931  1.00  0.00     0.010 A 
ATOM     31  C   UNL A   1      38.332  29.647  27.604  1.00  0.00     0.010 A 
ATOM     32  C   UNL A   1      38.779  29.243  28.875  1.00  0.00    -0.014 A 
BRANCH  32  33
ATOM     33  C   UNL A   1      40.212  28.915  29.064  1.00  0.00     0.031 A 
ATOM     34  C   UNL A   1      41.170  29.988  29.501  1.00  0.00     0.074 A 
ATOM     35  C   UNL A   1      40.667  27.682  28.773  1.00  0.00     0.049 A 
ATOM     36  N   UNL A   1      42.477  29.984  29.488  1.00  0.00    -0.248 NA
ATOM     37  C   UNL A   1      40.573  31.235  30.005  1.00  0.00     0.031 C 
ATOM     38  C   UNL A   1      39.836  26.538  28.389  1.00  0.00     0.029 A 
ATOM     39  N   UNL A   1      41.947  27.192  28.733  1.00  0.00    -0.354 N 
ATOM     40  C   UNL A   1      42.862  31.242  29.941  1.00  0.00     0.074 A 
ATOM     41  C   UNL A   1      41.648  31.982  30.215  1.00  0.00     0.031 C 
ATOM     42  C   UNL A   1      40.628  25.481  28.153  1.00  0.00     0.029 A 
ATOM     43  C   UNL A   1      42.021  25.891  28.295  1.00  0.00     0.049 A 
ATOM     44  H   UNL A   1      42.737  27.720  28.991  1.00  0.00     0.167 HD
ATOM     45  C   UNL A   1      44.113  31.735  30.103  1.00  0.00     0.031 A 
ATOM     46  C   UNL A   1      43.090  25.127  27.998  1.00  0.00     0.031 A 
ATOM     47  C   UNL A   1      45.314  30.989  29.830  1.00  0.00     0.049 A 
ATOM     48  C   UNL A   1      44.467  25.712  28.122  1.00  0.00     0.074 A 
ATOM     49  C   UNL A   1      46.631  31.396  29.959  1.00  0.00     0.029 A 
ATOM     50  N   UNL A   1      45.343  29.678  29.376  1.00  0.00    -0.354 N 
ATOM     51  N   UNL A   1      44.818  26.916  28.510  1.00  0.00    -0.248 NA
ATOM     52  C   UNL A   1      45.593  24.841  27.760  1.00  0.00     0.031 C 
ATOM     53  C   UNL A   1      47.455  30.341  29.546  1.00  0.00     0.029 A 
ATOM     54  C   UNL A   1      46.653  29.264  29.206  1.00  0.00     0.049 A 
ATOM     55  H   UNL A   1      44.548  29.124  29.199  1.00  0.00     0.167 HD
ATOM     56  C   UNL A   1      46.207  26.939  28.458  1.00  0.00     0.074 A 
ATOM     57  C   UNL A   1      46.631  25.628  28.008  1.00  0.00     0.031 C 
ATOM     58  C   UNL A   1      47.054  27.954  28.757  1.00  0.00     0.031 A 
BRANCH  45  59
ATOM     59  C   UNL A   1      44.238  33.165  30.554  1.00  0.00    -0.014 A 
ATOM     60  C   UNL A   1      44.251  33.506  31.919  1.00  0.00     0.010 A 
ATOM     61  C   UNL A   1      44.349  34.188  29.593  1.00  0.00     0.010 A 
ATOM     62  C   UNL A   1      44.320  34.845  32.313  1.00  0.00     0.020 A 
ATOM     63  C   UNL A   1      44.444  35.526  29.984  1.00  0.00     0.020 A 
ATOM     64  C   UNL A   1      44.406  35.848  31.342  1.00  0.00     0.054 A 
BRANCH  64  65
ATOM     65  S   UNL A   1      44.488  37.580  31.876  1.00  0.00     0.124 S 
ATOM     66  O   UNL A   1      45.929  37.784  32.010  1.00  0.00    -0.237 OA
ATOM     67  O   UNL A   1      43.855  38.291  30.768  1.00  0.00    -0.237 OA
ATOM     68  O   UNL A   1      43.738  37.593  33.129  1.00  0.00    -0.744 OA
ENDBRANCH  64  65
ENDBRANCH  45  59
BRANCH  46  69
ATOM     69  C   UNL A   1      42.886  23.732  27.524  1.00  0.00    -0.014 A 
ATOM     70  C   UNL A   1      42.823  22.674  28.447  1.00  0.00     0.010 A 
ATOM     71  C   UNL A   1      42.710  23.459  26.155  1.00  0.00     0.010 A 
ATOM     72  C   UNL A   1      42.588  21.368  28.008  1.00  0.00     0.020 A 
ATOM     73  C   UNL A   1      42.452  22.158  25.716  1.00  0.00     0.020 A 
ATOM     74  C   UNL A   1      42.398  21.119  26.646  1.00  0.00     0.054 A 
BRANCH  74  75
ATOM     75  S   UNL A   1      42.016  19.428  26.109  1.00  0.00     0.124 S 
ATOM     76  O   UNL A   1      42.454  18.638  27.254  1.00  0.00    -0.237 OA
ATOM     77  O   UNL A   1      40.571  19.483  25.893  1.00  0.00    -0.237 OA
ATOM     78  O   UNL A   1      42.811  19.268  24.893  1.00  0.00    -0.744 OA
ENDBRANCH  74  75
ENDBRANCH  46  69
BRANCH  58  79
ATOM     79  C   UNL A   1      48.527  27.674  28.648  1.00  0.00    -0.014 A 
ATOM     80  C   UNL A   1      49.249  28.016  27.491  1.00  0.00     0.010 A 
ATOM     81  C   UNL A   1      49.205  27.104  29.739  1.00  0.00     0.010 A 
ATOM     82  C   UNL A   1      50.623  27.769  27.420  1.00  0.00     0.020 A 
ATOM     83  C   UNL A   1      50.582  26.875  29.680  1.00  0.00     0.020 A 
ATOM     84  C   UNL A   1      51.280  27.198  28.515  1.00  0.00     0.054 A 
BRANCH  84  85
ATOM     85  S   UNL A   1      53.072  26.928  28.419  1.00  0.00     0.124 S 
ATOM     86  O   UNL A   1      53.408  26.625  29.808  1.00  0.00    -0.237 OA
ATOM     87  O   UNL A   1      53.180  25.808  27.487  1.00  0.00    -0.237 OA
ATOM     88  O   UNL A   1      53.585  28.200  27.916  1.00  0.00    -0.744 OA
ENDBRANCH  84  85
ENDBRANCH  58  79
ENDBRANCH  32  33
ENDBRANCH  25  27
ENDBRANCH  24  25
ENDBRANCH  23  24
ENDBRANCH   1  23
TORSDOF 20
ENDMDL
MODEL 2
REMARK VINA RESULT:      -9.9      5.181     10.808
REMARK SMILES CCCC(O)(CCC)[C@@]1(C)CC[C@@H](C(=O)OCCOC(=O)c2ccc(-c3c4nc(c(-c5ccc(S(=O)(=O)[O-])cc5)c5ccc([nH]5)c(-c5ccc(S(=O)(=O)[O-])cc5)c5nc(c(-c6ccc(S(=O)(=O)[O-])cc6)c6ccc3[nH]6)C=C5)C=C4)cc2)C(C)(C)O1
REMARK SMILES IDX 17 1 16 2 14 3 15 4 13 5 9 6 10 7 11 8 85 9 12 10 82 11
REMARK SMILES IDX 83 12 84 13 4 14 3 15 2 16 1 17 5 18 6 20 7 21 8 22 18 23
REMARK SMILES IDX 19 24 20 25 21 26 22 27 23 28 81 29 24 30 80 31 25 32 26 33
REMARK SMILES IDX 27 34 74 35 28 36 79 37 73 38 75 39 29 40 78 41 72 42 71 43
REMARK SMILES IDX 30 45 60 46 41 47 59 48 42 49 45 50 58 51 76 52 43 53 44 54
REMARK SMILES IDX 57 56 77 57 46 58 31 59 32 60 40 61 33 62 39 63 34 64 35 65
REMARK SMILES IDX 36 66 37 67 38 68 61 69 62 70 70 71 63 72 69 73 64 74 65 75
REMARK SMILES IDX 66 76 67 77 68 78 47 79 48 80 56 81 49 82 55 83 50 84 51 85
REMARK SMILES IDX 52 86 53 87 54 88
REMARK H PARENT 5 19 75 44 45 55
REMARK Flexibility Score: inf
ROOT
ATOM      1  C   UNL A   1      37.865  22.044  25.508  1.00  0.00     0.274 C 
ENDROOT
BRANCH   1   2
ATOM      2  O   UNL A   1      36.901  21.927  24.443  1.00  0.00    -0.462 OA
BRANCH   2   3
ATOM      3  C   UNL A   1      35.766  21.254  24.745  1.00  0.00     0.311 C 
ATOM      4  O   UNL A   1      35.733  20.084  25.112  1.00  0.00    -0.252 OA
BRANCH   3   5
ATOM      5  C   UNL A   1      34.497  22.044  24.501  1.00  0.00     0.131 C 
ATOM      6  C   UNL A   1      32.399  24.030  23.956  1.00  0.00     0.095 C 
ATOM      7  C   UNL A   1      30.999  23.622  23.425  1.00  0.00     0.045 C 
ATOM      8  C   UNL A   1      33.402  23.545  22.866  1.00  0.00     0.039 C 
ATOM      9  O   UNL A   1      32.528  23.279  25.186  1.00  0.00    -0.366 OA
ATOM     10  C   UNL A   1      34.737  23.023  23.363  1.00  0.00     0.021 C 
ATOM     11  C   UNL A   1      33.787  22.754  25.664  1.00  0.00     0.077 C 
ATOM     12  C   UNL A   1      34.625  23.822  26.383  1.00  0.00     0.043 C 
ATOM     13  C   UNL A   1      33.346  21.753  26.744  1.00  0.00     0.043 C 
BRANCH   6  14
ATOM     14  C   UNL A   1      32.435  25.595  24.267  1.00  0.00     0.093 C 
BRANCH  14  15
ATOM     15  C   UNL A   1      32.264  26.026  25.761  1.00  0.00     0.038 C 
BRANCH  15  16
ATOM     16  C   UNL A   1      32.357  27.508  26.157  1.00  0.00    -0.000 C 
ATOM     17  C   UNL A   1      31.586  27.874  27.415  1.00  0.00     0.004 C 
ENDBRANCH  15  16
ENDBRANCH  14  15
BRANCH  14  18
ATOM     18  O   UNL A   1      31.373  26.255  23.535  1.00  0.00    -0.387 OA
ATOM     19  H   UNL A   1      30.803  25.589  23.121  1.00  0.00     0.211 HD
ENDBRANCH  14  18
BRANCH  14  20
ATOM     20  C   UNL A   1      33.727  26.310  23.723  1.00  0.00     0.038 C 
BRANCH  20  21
ATOM     21  C   UNL A   1      33.661  27.291  22.545  1.00  0.00    -0.000 C 
ATOM     22  C   UNL A   1      33.941  28.749  22.890  1.00  0.00     0.004 C 
ENDBRANCH  20  21
ENDBRANCH  14  20
ENDBRANCH   6  14
ENDBRANCH   3   5
ENDBRANCH   2   3
ENDBRANCH   1   2
BRANCH   1  23
ATOM     23  C   UNL A   1      38.169  23.515  25.780  1.00  0.00     0.275 C 
BRANCH  23  24
ATOM     24  O   UNL A   1      38.988  23.618  26.957  1.00  0.00    -0.458 OA
BRANCH  24  25
ATOM     25  C   UNL A   1      40.168  24.256  26.796  1.00  0.00     0.338 C 
ATOM     26  O   UNL A   1      41.091  23.926  26.072  1.00  0.00    -0.246 OA
BRANCH  25  27
ATOM     27  C   UNL A   1      40.208  25.439  27.673  1.00  0.00     0.060 A 
ATOM     28  C   UNL A   1      41.210  26.406  27.545  1.00  0.00     0.016 A 
ATOM     29  C   UNL A   1      39.262  25.536  28.692  1.00  0.00     0.016 A 
ATOM     30  C   UNL A   1      41.297  27.450  28.467  1.00  0.00     0.010 A 
ATOM     31  C   UNL A   1      39.308  26.617  29.571  1.00  0.00     0.010 A 
ATOM     32  C   UNL A   1      40.336  27.573  29.480  1.00  0.00    -0.014 A 
BRANCH  32  33
ATOM     33  C   UNL A   1      40.381  28.678  30.466  1.00  0.00     0.031 A 
ATOM     34  C   UNL A   1      41.346  28.611  31.617  1.00  0.00     0.074 A 
ATOM     35  C   UNL A   1      39.511  29.701  30.374  1.00  0.00     0.049 A 
ATOM     36  N   UNL A   1      41.382  29.328  32.709  1.00  0.00    -0.248 NA
ATOM     37  C   UNL A   1      42.400  27.587  31.530  1.00  0.00     0.031 C 
ATOM     38  C   UNL A   1      38.560  29.913  29.280  1.00  0.00     0.029 A 
ATOM     39  N   UNL A   1      39.271  30.745  31.231  1.00  0.00    -0.354 N 
ATOM     40  C   UNL A   1      42.434  28.817  33.461  1.00  0.00     0.074 A 
ATOM     41  C   UNL A   1      43.007  27.725  32.701  1.00  0.00     0.031 C 
ATOM     42  C   UNL A   1      37.840  31.017  29.533  1.00  0.00     0.029 A 
ATOM     43  C   UNL A   1      38.226  31.547  30.836  1.00  0.00     0.049 A 
ATOM     44  H   UNL A   1      39.794  30.904  32.049  1.00  0.00     0.167 HD
ATOM     45  C   UNL A   1      42.874  29.217  34.679  1.00  0.00     0.031 A 
ATOM     46  C   UNL A   1      37.616  32.565  31.472  1.00  0.00     0.031 A 
ATOM     47  C   UNL A   1      42.299  30.305  35.425  1.00  0.00     0.049 A 
ATOM     48  C   UNL A   1      38.077  32.952  32.848  1.00  0.00     0.074 A 
ATOM     49  C   UNL A   1      42.669  30.790  36.668  1.00  0.00     0.029 A 
ATOM     50  N   UNL A   1      41.234  31.082  34.994  1.00  0.00    -0.354 N 
ATOM     51  N   UNL A   1      39.044  32.434  33.567  1.00  0.00    -0.248 NA
ATOM     52  C   UNL A   1      37.357  34.053  33.502  1.00  0.00     0.031 C 
ATOM     53  C   UNL A   1      41.801  31.836  37.003  1.00  0.00     0.029 A 
ATOM     54  C   UNL A   1      40.923  32.034  35.950  1.00  0.00     0.049 A 
ATOM     55  H   UNL A   1      40.767  30.972  34.133  1.00  0.00     0.167 HD
ATOM     56  C   UNL A   1      39.063  33.161  34.753  1.00  0.00     0.074 A 
ATOM     57  C   UNL A   1      38.016  34.158  34.649  1.00  0.00     0.031 C 
ATOM     58  C   UNL A   1      39.876  33.016  35.828  1.00  0.00     0.031 A 
BRANCH  45  59
ATOM     59  C   UNL A   1      44.005  28.436  35.293  1.00  0.00    -0.014 A 
ATOM     60  C   UNL A   1      45.329  28.910  35.256  1.00  0.00     0.010 A 
ATOM     61  C   UNL A   1      43.736  27.207  35.925  1.00  0.00     0.010 A 
ATOM     62  C   UNL A   1      46.368  28.145  35.793  1.00  0.00     0.020 A 
ATOM     63  C   UNL A   1      44.770  26.452  36.485  1.00  0.00     0.020 A 
ATOM     64  C   UNL A   1      46.084  26.915  36.395  1.00  0.00     0.054 A 
BRANCH  64  65
ATOM     65  S   UNL A   1      47.450  25.937  37.078  1.00  0.00     0.124 S 
ATOM     66  O   UNL A   1      47.680  26.598  38.361  1.00  0.00    -0.237 OA
ATOM     67  O   UNL A   1      46.878  24.595  37.159  1.00  0.00    -0.237 OA
ATOM     68  O   UNL A   1      48.517  26.097  36.095  1.00  0.00    -0.744 OA
ENDBRANCH  64  65
ENDBRANCH  45  59
BRANCH  46  69
ATOM     69  C   UNL A   1      36.482  33.267  30.814  1.00  0.00    -0.014 A 
ATOM     70  C   UNL A   1      35.195  33.212  31.375  1.00  0.00     0.010 A 
ATOM     71  C   UNL A   1      36.690  34.029  29.649  1.00  0.00     0.010 A 
ATOM     72  C   UNL A   1      34.136  33.906  30.783  1.00  0.00     0.020 A 
ATOM     73  C   UNL A   1      35.639  34.743  29.069  1.00  0.00     0.020 A 
ATOM     74  C   UNL A   1      34.366  34.672  29.637  1.00  0.00     0.054 A 
BRANCH  74  75
ATOM     75  S   UNL A   1      32.994  35.629  28.932  1.00  0.00     0.124 S 
ATOM     76  O   UNL A   1      32.377  34.658  28.034  1.00  0.00    -0.237 OA
ATOM     77  O   UNL A   1      32.213  35.983  30.115  1.00  0.00    -0.237 OA
ATOM     78  O   UNL A   1      33.662  36.753  28.280  1.00  0.00    -0.744 OA
ENDBRANCH  74  75
ENDBRANCH  46  69
BRANCH  58  79
ATOM     79  C   UNL A   1      39.692  33.986  36.962  1.00  0.00    -0.014 A 
ATOM     80  C   UNL A   1      39.072  33.594  38.161  1.00  0.00     0.010 A 
ATOM     81  C   UNL A   1      40.193  35.294  36.842  1.00  0.00     0.010 A 
ATOM     82  C   UNL A   1      38.933  34.505  39.213  1.00  0.00     0.020 A 
ATOM     83  C   UNL A   1      40.075  36.201  37.899  1.00  0.00     0.020 A 
ATOM     84  C   UNL A   1      39.435  35.803  39.073  1.00  0.00     0.054 A 
BRANCH  84  85
ATOM     85  S   UNL A   1      39.285  36.955  40.467  1.00  0.00     0.124 S 
ATOM     86  O   UNL A   1      38.357  36.248  41.347  1.00  0.00    -0.237 OA
ATOM     87  O   UNL A   1      40.659  37.056  40.952  1.00  0.00    -0.237 OA
ATOM     88  O   UNL A   1      38.757  38.172  39.853  1.00  0.00    -0.744 OA
ENDBRANCH  84  85
ENDBRANCH  58  79
ENDBRANCH  32  33
ENDBRANCH  25  27
ENDBRANCH  24  25
ENDBRANCH  23  24
ENDBRANCH   1  23
TORSDOF 20
ENDMDL
MODEL 3
REMARK VINA RESULT:      -9.7      1.574      2.263
REMARK SMILES CCCC(O)(CCC)[C@@]1(C)CC[C@@H](C(=O)OCCOC(=O)c2ccc(-c3c4nc(c(-c5ccc(S(=O)(=O)[O-])cc5)c5ccc([nH]5)c(-c5ccc(S(=O)(=O)[O-])cc5)c5nc(c(-c6ccc(S(=O)(=O)[O-])cc6)c6ccc3[nH]6)C=C5)C=C4)cc2)C(C)(C)O1
REMARK SMILES IDX 17 1 16 2 14 3 15 4 13 5 9 6 10 7 11 8 85 9 12 10 82 11
REMARK SMILES IDX 83 12 84 13 4 14 3 15 2 16 1 17 5 18 6 20 7 21 8 22 18 23
REMARK SMILES IDX 19 24 20 25 21 26 22 27 23 28 81 29 24 30 80 31 25 32 26 33
REMARK SMILES IDX 27 34 74 35 28 36 79 37 73 38 75 39 29 40 78 41 72 42 71 43
REMARK SMILES IDX 30 45 60 46 41 47 59 48 42 49 45 50 58 51 76 52 43 53 44 54
REMARK SMILES IDX 57 56 77 57 46 58 31 59 32 60 40 61 33 62 39 63 34 64 35 65
REMARK SMILES IDX 36 66 37 67 38 68 61 69 62 70 70 71 63 72 69 73 64 74 65 75
REMARK SMILES IDX 66 76 67 77 68 78 47 79 48 80 56 81 49 82 55 83 50 84 51 85
REMARK SMILES IDX 52 86 53 87 54 88
REMARK H PARENT 5 19 75 44 45 55
REMARK Flexibility Score: inf
ROOT
ATOM      1  C   UNL A   1      33.871  28.498  24.728  1.00  0.00     0.274 C 
ENDROOT
BRANCH   1   2
ATOM      2  O   UNL A   1      32.872  27.663  24.110  1.00  0.00    -0.462 OA
BRANCH   2   3
ATOM      3  C   UNL A   1      33.308  26.474  23.635  1.00  0.00     0.311 C 
ATOM      4  O   UNL A   1      33.846  26.322  22.543  1.00  0.00    -0.252 OA
BRANCH   3   5
ATOM      5  C   UNL A   1      32.991  25.296  24.532  1.00  0.00     0.131 C 
ATOM      6  C   UNL A   1      32.909  22.825  26.121  1.00  0.00     0.095 C 
ATOM      7  C   UNL A   1      31.975  22.667  27.351  1.00  0.00     0.045 C 
ATOM      8  C   UNL A   1      33.844  24.021  26.474  1.00  0.00     0.039 C 
ATOM      9  O   UNL A   1      32.001  23.144  25.042  1.00  0.00    -0.366 OA
ATOM     10  C   UNL A   1      34.236  24.932  25.325  1.00  0.00     0.021 C 
ATOM     11  C   UNL A   1      32.347  24.027  23.952  1.00  0.00     0.077 C 
ATOM     12  C   UNL A   1      33.172  23.316  22.869  1.00  0.00     0.043 C 
ATOM     13  C   UNL A   1      30.980  24.334  23.319  1.00  0.00     0.043 C 
BRANCH   6  14
ATOM     14  C   UNL A   1      33.653  21.445  25.816  1.00  0.00     0.093 C 
BRANCH  14  15
ATOM     15  C   UNL A   1      33.201  20.662  24.540  1.00  0.00     0.038 C 
BRANCH  15  16
ATOM     16  C   UNL A   1      32.780  19.188  24.643  1.00  0.00    -0.000 C 
ATOM     17  C   UNL A   1      33.838  18.196  24.186  1.00  0.00     0.004 C 
ENDBRANCH  15  16
ENDBRANCH  14  15
BRANCH  14  18
ATOM     18  O   UNL A   1      33.464  20.540  26.931  1.00  0.00    -0.387 OA
ATOM     19  H   UNL A   1      34.269  20.016  27.062  1.00  0.00     0.211 HD
ENDBRANCH  14  18
BRANCH  14  20
ATOM     20  C   UNL A   1      35.219  21.583  25.746  1.00  0.00     0.038 C 
BRANCH  20  21
ATOM     21  C   UNL A   1      35.955  21.664  24.402  1.00  0.00    -0.000 C 
ATOM     22  C   UNL A   1      37.093  22.676  24.336  1.00  0.00     0.004 C 
ENDBRANCH  20  21
ENDBRANCH  14  20
ENDBRANCH   6  14
ENDBRANCH   3   5
ENDBRANCH   2   3
ENDBRANCH   1   2
BRANCH   1  23
ATOM     23  C   UNL A   1      33.236  29.357  25.818  1.00  0.00     0.275 C 
BRANCH  23  24
ATOM     24  O   UNL A   1      33.977  29.193  27.039  1.00  0.00    -0.458 OA
BRANCH  24  25
ATOM     25  C   UNL A   1      34.548  30.314  27.533  1.00  0.00     0.338 C 
ATOM     26  O   UNL A   1      34.060  31.430  27.578  1.00  0.00    -0.246 OA
BRANCH  25  27
ATOM     27  C   UNL A   1      35.909  30.004  28.002  1.00  0.00     0.060 A 
ATOM     28  C   UNL A   1      37.015  30.121  27.154  1.00  0.00     0.016 A 
ATOM     29  C   UNL A   1      36.064  29.513  29.297  1.00  0.00     0.016 A 
ATOM     30  C   UNL A   1      38.274  29.701  27.585  1.00  0.00     0.010 A 
ATOM     31  C   UNL A   1      37.334  29.160  29.750  1.00  0.00     0.010 A 
ATOM     32  C   UNL A   1      38.447  29.232  28.893  1.00  0.00    -0.014 A 
BRANCH  32  33
ATOM     33  C   UNL A   1      39.772  28.797  29.396  1.00  0.00     0.031 A 
ATOM     34  C   UNL A   1      40.613  29.749  30.200  1.00  0.00     0.074 A 
ATOM     35  C   UNL A   1      40.253  27.582  29.071  1.00  0.00     0.049 A 
ATOM     36  N   UNL A   1      41.877  29.669  30.520  1.00  0.00    -0.248 NA
ATOM     37  C   UNL A   1      39.939  30.961  30.695  1.00  0.00     0.031 C 
ATOM     38  C   UNL A   1      39.519  26.545  28.340  1.00  0.00     0.029 A 
ATOM     39  N   UNL A   1      41.486  27.024  29.294  1.00  0.00    -0.354 N 
ATOM     40  C   UNL A   1      42.165  30.837  31.217  1.00  0.00     0.074 A 
ATOM     41  C   UNL A   1      40.943  31.611  31.268  1.00  0.00     0.031 C 
ATOM     42  C   UNL A   1      40.317  25.478  28.177  1.00  0.00     0.029 A 
ATOM     43  C   UNL A   1      41.636  25.783  28.722  1.00  0.00     0.049 A 
ATOM     44  H   UNL A   1      42.195  27.469  29.811  1.00  0.00     0.167 HD
ATOM     45  C   UNL A   1      43.344  31.230  31.756  1.00  0.00     0.031 A 
ATOM     46  C   UNL A   1      42.723  24.997  28.609  1.00  0.00     0.031 A 
ATOM     47  C   UNL A   1      44.554  30.451  31.702  1.00  0.00     0.049 A 
ATOM     48  C   UNL A   1      44.037  25.479  29.156  1.00  0.00     0.074 A 
ATOM     49  C   UNL A   1      45.802  30.759  32.215  1.00  0.00     0.029 A 
ATOM     50  N   UNL A   1      44.664  29.205  31.102  1.00  0.00    -0.354 N 
ATOM     51  N   UNL A   1      44.306  26.603  29.775  1.00  0.00    -0.248 NA
ATOM     52  C   UNL A   1      45.193  24.590  28.980  1.00  0.00     0.031 C 
ATOM     53  C   UNL A   1      46.676  29.714  31.890  1.00  0.00     0.029 A 
ATOM     54  C   UNL A   1      45.961  28.735  31.218  1.00  0.00     0.049 A 
ATOM     55  H   UNL A   1      43.927  28.726  30.657  1.00  0.00     0.167 HD
ATOM     56  C   UNL A   1      45.662  26.549  30.082  1.00  0.00     0.074 A 
ATOM     57  C   UNL A   1      46.152  25.278  29.587  1.00  0.00     0.031 C 
ATOM     58  C   UNL A   1      46.429  27.468  30.717  1.00  0.00     0.031 A 
BRANCH  45  59
ATOM     59  C   UNL A   1      43.386  32.586  32.408  1.00  0.00    -0.014 A 
ATOM     60  C   UNL A   1      43.701  33.744  31.673  1.00  0.00     0.010 A 
ATOM     61  C   UNL A   1      43.101  32.704  33.782  1.00  0.00     0.010 A 
ATOM     62  C   UNL A   1      43.779  34.986  32.310  1.00  0.00     0.020 A 
ATOM     63  C   UNL A   1      43.153  33.948  34.416  1.00  0.00     0.020 A 
ATOM     64  C   UNL A   1      43.515  35.079  33.680  1.00  0.00     0.054 A 
BRANCH  64  65
ATOM     65  S   UNL A   1      43.630  36.699  34.487  1.00  0.00     0.124 S 
ATOM     66  O   UNL A   1      42.719  36.535  35.618  1.00  0.00    -0.237 OA
ATOM     67  O   UNL A   1      45.047  36.789  34.832  1.00  0.00    -0.237 OA
ATOM     68  O   UNL A   1      43.183  37.632  33.457  1.00  0.00    -0.744 OA
ENDBRANCH  64  65
ENDBRANCH  45  59
BRANCH  46  69
ATOM     69  C   UNL A   1      42.612  23.684  27.920  1.00  0.00    -0.014 A 
ATOM     70  C   UNL A   1      43.031  23.547  26.586  1.00  0.00     0.010 A 
ATOM     71  C   UNL A   1      42.127  22.554  28.606  1.00  0.00     0.010 A 
ATOM     72  C   UNL A   1      42.967  22.304  25.949  1.00  0.00     0.020 A 
ATOM     73  C   UNL A   1      42.085  21.306  27.980  1.00  0.00     0.020 A 
ATOM     74  C   UNL A   1      42.500  21.190  26.652  1.00  0.00     0.054 A 
BRANCH  74  75
ATOM     75  S   UNL A   1      42.502  19.571  25.832  1.00  0.00     0.124 S 
ATOM     76  O   UNL A   1      41.110  19.441  25.414  1.00  0.00    -0.237 OA
ATOM     77  O   UNL A   1      43.471  19.762  24.755  1.00  0.00    -0.237 OA
ATOM     78  O   UNL A   1      42.930  18.655  26.886  1.00  0.00    -0.744 OA
ENDBRANCH  74  75
ENDBRANCH  46  69
BRANCH  58  79
ATOM     79  C   UNL A   1      47.872  27.114  30.951  1.00  0.00    -0.014 A 
ATOM     80  C   UNL A   1      48.273  26.426  32.110  1.00  0.00     0.010 A 
ATOM     81  C   UNL A   1      48.830  27.432  29.973  1.00  0.00     0.010 A 
ATOM     82  C   UNL A   1      49.616  26.085  32.296  1.00  0.00     0.020 A 
ATOM     83  C   UNL A   1      50.169  27.073  30.146  1.00  0.00     0.020 A 
ATOM     84  C   UNL A   1      50.555  26.413  31.313  1.00  0.00     0.054 A 
BRANCH  84  85
ATOM     85  S   UNL A   1      52.285  25.920  31.554  1.00  0.00     0.124 S 
ATOM     86  O   UNL A   1      52.724  26.851  32.591  1.00  0.00    -0.237 OA
ATOM     87  O   UNL A   1      52.168  24.525  31.970  1.00  0.00    -0.237 OA
ATOM     88  O   UNL A   1      52.887  26.123  30.238  1.00  0.00    -0.744 OA
ENDBRANCH  84  85
ENDBRANCH  58  79
ENDBRANCH  32  33
ENDBRANCH  25  27
ENDBRANCH  24  25
ENDBRANCH  23  24
ENDBRANCH   1  23
TORSDOF 20
ENDMDL
