MODEL 1
REMARK VINA RESULT:     -11.6      0.000      0.000
REMARK SMILES C[N@@H+]1CC2(CC[NH+](C(=O)c3cc(-c4ccncc4)n[nH]3)CC2)C[C@H]1C(=O)OCCOC(=O)c1ccc(-c2c3nc(c(-c4ccc(S(=O)(=O)[O-])cc4)c4ccc([nH]4)c(-c4ccc(S(=O)(=O)[O-])cc4)c4nc(c(-c5ccc(S(=O)(=O)[O-])cc5)c5ccc2[nH]5)C=C4)C=C3)cc1
REMARK SMILES IDX 28 1 27 2 25 3 26 4 24 5 1 6 2 7 3 8 4 10 23 11 5 12 22 13
REMARK SMILES IDX 6 14 21 15 7 16 8 18 9 19 10 20 11 21 20 22 12 23 19 24
REMARK SMILES IDX 13 26 14 27 18 28 15 29 17 30 16 31 29 32 30 33 31 34 32 35
REMARK SMILES IDX 33 36 34 37 92 38 35 39 91 40 36 41 37 42 38 43 85 44 39 45
REMARK SMILES IDX 90 46 84 47 86 48 40 49 89 50 83 51 82 52 41 54 71 55 52 56
REMARK SMILES IDX 70 57 53 58 56 59 69 60 87 61 54 62 55 63 68 65 88 66 57 67
REMARK SMILES IDX 42 68 43 69 51 70 44 71 50 72 45 73 46 74 47 75 48 76 49 77
REMARK SMILES IDX 72 78 73 79 81 80 74 81 80 82 75 83 76 84 77 85 78 86 79 87
REMARK SMILES IDX 58 88 59 89 67 90 60 91 66 92 61 93 62 94 63 95 64 96 65 97
REMARK H PARENT 2 9 7 17 20 25 86 53 56 64
REMARK Flexibility Score: inf
ROOT
ATOM      1  C   UNL A   1      32.405  31.902  26.886  1.00  0.00     0.274 C 
ENDROOT
BRANCH   1   2
ATOM      2  O   UNL A   1      31.248  31.299  26.280  1.00  0.00    -0.458 OA
BRANCH   2   3
ATOM      3  C   UNL A   1      31.480  30.275  25.412  1.00  0.00     0.365 C 
ATOM      4  O   UNL A   1      30.652  29.847  24.614  1.00  0.00    -0.245 OA
BRANCH   3   5
ATOM      5  C   UNL A   1      32.885  29.663  25.528  1.00  0.00     0.295 C 
ATOM      6  C   UNL A   1      34.439  28.917  27.253  1.00  0.00     0.333 C 
ATOM      7  N   UNL A   1      33.075  28.830  26.735  1.00  0.00    -0.325 N 
ATOM      8  C   UNL A   1      32.715  27.463  26.353  1.00  0.00     0.270 C 
ATOM      9  H   UNL A   1      32.485  29.157  27.499  1.00  0.00     0.348 HD
ATOM     10  C   UNL A   1      32.900  27.340  24.824  1.00  0.00     0.036 C 
ATOM     11  C   UNL A   1      33.196  28.769  24.345  1.00  0.00     0.091 C 
ATOM     12  C   UNL A   1      31.608  26.815  24.160  1.00  0.00     0.075 C 
ATOM     13  C   UNL A   1      34.086  26.416  24.456  1.00  0.00     0.075 C 
ATOM     14  C   UNL A   1      31.376  25.349  24.497  1.00  0.00     0.271 C 
ATOM     15  C   UNL A   1      33.793  24.939  24.712  1.00  0.00     0.271 C 
ATOM     16  N   UNL A   1      32.535  24.559  24.084  1.00  0.00    -0.266 N 
ATOM     17  H   UNL A   1      33.395  25.028  24.177  1.00  0.00     0.357 HD
BRANCH  16  18
ATOM     18  C   UNL A   1      32.493  23.444  23.252  1.00  0.00     0.362 C 
ATOM     19  O   UNL A   1      32.500  23.542  22.027  1.00  0.00    -0.224 OA
BRANCH  18  20
ATOM     20  C   UNL A   1      32.481  22.152  23.879  1.00  0.00     0.163 A 
ATOM     21  C   UNL A   1      33.127  20.969  23.585  1.00  0.00     0.068 A 
ATOM     22  N   UNL A   1      31.782  21.898  25.023  1.00  0.00    -0.269 N 
ATOM     23  C   UNL A   1      32.632  20.025  24.520  1.00  0.00     0.093 A 
ATOM     24  N   UNL A   1      31.778  20.602  25.378  1.00  0.00    -0.175 NA
ATOM     25  H   UNL A   1      31.323  22.599  25.539  1.00  0.00     0.190 HD
BRANCH  23  26
ATOM     26  C   UNL A   1      32.926  18.603  24.575  1.00  0.00     0.005 A 
ATOM     27  C   UNL A   1      33.487  17.950  23.479  1.00  0.00     0.030 A 
ATOM     28  C   UNL A   1      32.630  17.877  25.728  1.00  0.00     0.030 A 
ATOM     29  C   UNL A   1      33.733  16.592  23.589  1.00  0.00     0.111 A 
ATOM     30  C   UNL A   1      32.903  16.521  25.734  1.00  0.00     0.111 A 
ATOM     31  N   UNL A   1      33.450  15.862  24.690  1.00  0.00    -0.265 NA
ENDBRANCH  23  26
ENDBRANCH  18  20
ENDBRANCH  16  18
ENDBRANCH   3   5
ENDBRANCH   2   3
ENDBRANCH   1   2
BRANCH   1  32
ATOM     32  C   UNL A   1      32.148  33.379  27.179  1.00  0.00     0.275 C 
BRANCH  32  33
ATOM     33  O   UNL A   1      32.446  33.681  28.554  1.00  0.00    -0.458 OA
BRANCH  33  34
ATOM     34  C   UNL A   1      33.413  34.610  28.745  1.00  0.00     0.338 C 
ATOM     35  O   UNL A   1      33.348  35.809  28.542  1.00  0.00    -0.246 OA
BRANCH  34  36
ATOM     36  C   UNL A   1      34.599  33.961  29.318  1.00  0.00     0.060 A 
ATOM     37  C   UNL A   1      34.415  32.986  30.295  1.00  0.00     0.016 A 
ATOM     38  C   UNL A   1      35.880  34.392  28.985  1.00  0.00     0.016 A 
ATOM     39  C   UNL A   1      35.502  32.453  30.978  1.00  0.00     0.010 A 
ATOM     40  C   UNL A   1      36.980  33.832  29.646  1.00  0.00     0.010 A 
ATOM     41  C   UNL A   1      36.798  32.876  30.663  1.00  0.00    -0.014 A 
BRANCH  41  42
ATOM     42  C   UNL A   1      37.952  32.360  31.439  1.00  0.00     0.031 A 
ATOM     43  C   UNL A   1      38.790  31.246  30.873  1.00  0.00     0.074 A 
ATOM     44  C   UNL A   1      38.258  32.899  32.635  1.00  0.00     0.049 A 
ATOM     45  N   UNL A   1      39.753  30.568  31.440  1.00  0.00    -0.248 NA
ATOM     46  C   UNL A   1      38.503  30.836  29.487  1.00  0.00     0.031 C 
ATOM     47  C   UNL A   1      37.560  34.024  33.263  1.00  0.00     0.029 A 
ATOM     48  N   UNL A   1      39.236  32.571  33.540  1.00  0.00    -0.354 N 
ATOM     49  C   UNL A   1      40.154  29.622  30.503  1.00  0.00     0.074 A 
ATOM     50  C   UNL A   1      39.333  29.814  29.327  1.00  0.00     0.031 C 
ATOM     51  C   UNL A   1      38.135  34.294  34.446  1.00  0.00     0.029 A 
ATOM     52  C   UNL A   1      39.196  33.324  34.691  1.00  0.00     0.049 A 
ATOM     53  H   UNL A   1      39.902  31.863  33.382  1.00  0.00     0.167 HD
ATOM     54  C   UNL A   1      41.117  28.678  30.619  1.00  0.00     0.031 A 
ATOM     55  C   UNL A   1      39.908  33.219  35.830  1.00  0.00     0.031 A 
ATOM     56  C   UNL A   1      41.949  28.515  31.781  1.00  0.00     0.049 A 
ATOM     57  C   UNL A   1      40.937  32.126  35.948  1.00  0.00     0.074 A 
ATOM     58  C   UNL A   1      42.971  27.603  31.984  1.00  0.00     0.029 A 
ATOM     59  N   UNL A   1      41.863  29.284  32.931  1.00  0.00    -0.354 N 
ATOM     60  N   UNL A   1      41.297  31.234  35.056  1.00  0.00    -0.248 NA
ATOM     61  C   UNL A   1      41.650  32.022  37.229  1.00  0.00     0.031 C 
ATOM     62  C   UNL A   1      43.470  27.790  33.278  1.00  0.00     0.029 A 
ATOM     63  C   UNL A   1      42.797  28.853  33.858  1.00  0.00     0.049 A 
ATOM     64  H   UNL A   1      41.232  30.027  33.069  1.00  0.00     0.167 HD
ATOM     65  C   UNL A   1      42.296  30.480  35.661  1.00  0.00     0.074 A 
ATOM     66  C   UNL A   1      42.494  31.030  36.985  1.00  0.00     0.031 C 
ATOM     67  C   UNL A   1      42.987  29.424  35.166  1.00  0.00     0.031 A 
BRANCH  54  68
ATOM     68  C   UNL A   1      41.300  27.711  29.480  1.00  0.00    -0.014 A 
ATOM     69  C   UNL A   1      42.443  27.747  28.663  1.00  0.00     0.010 A 
ATOM     70  C   UNL A   1      40.345  26.697  29.280  1.00  0.00     0.010 A 
ATOM     71  C   UNL A   1      42.618  26.795  27.654  1.00  0.00     0.020 A 
ATOM     72  C   UNL A   1      40.527  25.730  28.287  1.00  0.00     0.020 A 
ATOM     73  C   UNL A   1      41.661  25.790  27.474  1.00  0.00     0.054 A 
BRANCH  73  74
ATOM     74  S   UNL A   1      41.943  24.534  26.198  1.00  0.00     0.124 S 
ATOM     75  O   UNL A   1      42.250  25.355  25.029  1.00  0.00    -0.237 OA
ATOM     76  O   UNL A   1      43.064  23.770  26.740  1.00  0.00    -0.237 OA
ATOM     77  O   UNL A   1      40.674  23.811  26.134  1.00  0.00    -0.744 OA
ENDBRANCH  73  74
ENDBRANCH  54  68
BRANCH  55  78
ATOM     78  C   UNL A   1      39.636  34.131  36.976  1.00  0.00    -0.014 A 
ATOM     79  C   UNL A   1      40.171  35.430  37.003  1.00  0.00     0.010 A 
ATOM     80  C   UNL A   1      38.861  33.689  38.064  1.00  0.00     0.010 A 
ATOM     81  C   UNL A   1      39.967  36.256  38.112  1.00  0.00     0.020 A 
ATOM     82  C   UNL A   1      38.628  34.523  39.160  1.00  0.00     0.020 A 
ATOM     83  C   UNL A   1      39.200  35.796  39.186  1.00  0.00     0.054 A 
BRANCH  83  84
ATOM     84  S   UNL A   1      38.933  36.887  40.610  1.00  0.00     0.124 S 
ATOM     85  O   UNL A   1      38.212  38.002  40.005  1.00  0.00    -0.237 OA
ATOM     86  O   UNL A   1      38.153  36.045  41.515  1.00  0.00    -0.237 OA
ATOM     87  O   UNL A   1      40.288  37.189  41.065  1.00  0.00    -0.744 OA
ENDBRANCH  83  84
ENDBRANCH  55  78
BRANCH  67  88
ATOM     88  C   UNL A   1      44.054  28.826  36.041  1.00  0.00    -0.014 A 
ATOM     89  C   UNL A   1      43.781  27.730  36.878  1.00  0.00     0.010 A 
ATOM     90  C   UNL A   1      45.362  29.340  35.983  1.00  0.00     0.010 A 
ATOM     91  C   UNL A   1      44.793  27.179  37.668  1.00  0.00     0.020 A 
ATOM     92  C   UNL A   1      46.381  28.775  36.752  1.00  0.00     0.020 A 
ATOM     93  C   UNL A   1      46.087  27.707  37.601  1.00  0.00     0.054 A 
BRANCH  93  94
ATOM     94  S   UNL A   1      47.394  26.949  38.604  1.00  0.00     0.124 S 
ATOM     95  O   UNL A   1      48.475  27.921  38.477  1.00  0.00    -0.237 OA
ATOM     96  O   UNL A   1      46.777  26.863  39.925  1.00  0.00    -0.237 OA
ATOM     97  O   UNL A   1      47.630  25.664  37.950  1.00  0.00    -0.744 OA
ENDBRANCH  93  94
ENDBRANCH  67  88
ENDBRANCH  41  42
ENDBRANCH  34  36
ENDBRANCH  33  34
ENDBRANCH  32  33
ENDBRANCH   1  32
TORSDOF 17
ENDMDL
MODEL 2
REMARK VINA RESULT:     -11.6      4.995      8.928
REMARK SMILES C[N@@H+]1CC2(CC[NH+](C(=O)c3cc(-c4ccncc4)n[nH]3)CC2)C[C@H]1C(=O)OCCOC(=O)c1ccc(-c2c3nc(c(-c4ccc(S(=O)(=O)[O-])cc4)c4ccc([nH]4)c(-c4ccc(S(=O)(=O)[O-])cc4)c4nc(c(-c5ccc(S(=O)(=O)[O-])cc5)c5ccc2[nH]5)C=C4)C=C3)cc1
REMARK SMILES IDX 28 1 27 2 25 3 26 4 24 5 1 6 2 7 3 8 4 10 23 11 5 12 22 13
REMARK SMILES IDX 6 14 21 15 7 16 8 18 9 19 10 20 11 21 20 22 12 23 19 24
REMARK SMILES IDX 13 26 14 27 18 28 15 29 17 30 16 31 29 32 30 33 31 34 32 35
REMARK SMILES IDX 33 36 34 37 92 38 35 39 91 40 36 41 37 42 38 43 85 44 39 45
REMARK SMILES IDX 90 46 84 47 86 48 40 49 89 50 83 51 82 52 41 54 71 55 52 56
REMARK SMILES IDX 70 57 53 58 56 59 69 60 87 61 54 62 55 63 68 65 88 66 57 67
REMARK SMILES IDX 42 68 43 69 51 70 44 71 50 72 45 73 46 74 47 75 48 76 49 77
REMARK SMILES IDX 72 78 73 79 81 80 74 81 80 82 75 83 76 84 77 85 78 86 79 87
REMARK SMILES IDX 58 88 59 89 67 90 60 91 66 92 61 93 62 94 63 95 64 96 65 97
REMARK H PARENT 2 9 7 17 20 25 86 53 56 64
REMARK Flexibility Score: inf
ROOT
ATOM      1  C   UNL A   1      36.242  20.630  25.293  1.00  0.00     0.274 C 
ENDROOT
BRANCH   1   2
ATOM      2  O   UNL A   1      35.488  21.588  26.057  1.00  0.00    -0.458 OA
BRANCH   2   3
ATOM      3  C   UNL A   1      34.157  21.670  25.784  1.00  0.00     0.365 C 
ATOM      4  O   UNL A   1      33.276  21.653  26.639  1.00  0.00    -0.245 OA
BRANCH   3   5
ATOM      5  C   UNL A   1      33.829  21.761  24.285  1.00  0.00     0.295 C 
ATOM      6  C   UNL A   1      32.256  20.822  22.677  1.00  0.00     0.333 C 
ATOM      7  N   UNL A   1      32.410  21.491  23.967  1.00  0.00    -0.325 N 
ATOM      8  C   UNL A   1      31.726  22.785  24.004  1.00  0.00     0.270 C 
ATOM      9  H   UNL A   1      32.002  20.849  24.645  1.00  0.00     0.348 HD
ATOM     10  C   UNL A   1      32.782  23.881  23.735  1.00  0.00     0.036 C 
ATOM     11  C   UNL A   1      34.128  23.143  23.740  1.00  0.00     0.091 C 
ATOM     12  C   UNL A   1      32.758  24.946  24.854  1.00  0.00     0.075 C 
ATOM     13  C   UNL A   1      32.571  24.564  22.362  1.00  0.00     0.075 C 
ATOM     14  C   UNL A   1      31.498  25.795  24.774  1.00  0.00     0.271 C 
ATOM     15  C   UNL A   1      31.355  25.488  22.336  1.00  0.00     0.271 C 
ATOM     16  N   UNL A   1      31.407  26.420  23.454  1.00  0.00    -0.266 N 
ATOM     17  H   UNL A   1      31.758  25.864  22.722  1.00  0.00     0.357 HD
BRANCH  16  18
ATOM     18  C   UNL A   1      31.259  27.784  23.218  1.00  0.00     0.362 C 
ATOM     19  O   UNL A   1      30.684  28.215  22.223  1.00  0.00    -0.224 OA
BRANCH  18  20
ATOM     20  C   UNL A   1      31.774  28.685  24.211  1.00  0.00     0.163 A 
ATOM     21  C   UNL A   1      32.961  28.717  24.914  1.00  0.00     0.068 A 
ATOM     22  N   UNL A   1      31.098  29.801  24.609  1.00  0.00    -0.269 N 
ATOM     23  C   UNL A   1      32.837  29.803  25.817  1.00  0.00     0.093 A 
ATOM     24  N   UNL A   1      31.671  30.440  25.643  1.00  0.00    -0.175 NA
ATOM     25  H   UNL A   1      30.268  30.109  24.179  1.00  0.00     0.190 HD
BRANCH  23  26
ATOM     26  C   UNL A   1      33.780  30.201  26.849  1.00  0.00     0.005 A 
ATOM     27  C   UNL A   1      34.838  29.367  27.205  1.00  0.00     0.030 A 
ATOM     28  C   UNL A   1      33.619  31.422  27.502  1.00  0.00     0.030 A 
ATOM     29  C   UNL A   1      35.696  29.798  28.203  1.00  0.00     0.111 A 
ATOM     30  C   UNL A   1      34.523  31.755  28.495  1.00  0.00     0.111 A 
ATOM     31  N   UNL A   1      35.559  30.971  28.859  1.00  0.00    -0.265 NA
ENDBRANCH  23  26
ENDBRANCH  18  20
ENDBRANCH  16  18
ENDBRANCH   3   5
ENDBRANCH   2   3
ENDBRANCH   1   2
BRANCH   1  32
ATOM     32  C   UNL A   1      37.602  21.206  24.902  1.00  0.00     0.275 C 
BRANCH  32  33
ATOM     33  O   UNL A   1      38.039  22.176  25.871  1.00  0.00    -0.458 OA
BRANCH  33  34
ATOM     34  C   UNL A   1      39.305  22.010  26.322  1.00  0.00     0.338 C 
ATOM     35  O   UNL A   1      39.999  21.012  26.250  1.00  0.00    -0.246 OA
BRANCH  34  36
ATOM     36  C   UNL A   1      39.786  23.277  26.887  1.00  0.00     0.060 A 
ATOM     37  C   UNL A   1      39.420  24.465  26.259  1.00  0.00     0.016 A 
ATOM     38  C   UNL A   1      40.686  23.290  27.949  1.00  0.00     0.016 A 
ATOM     39  C   UNL A   1      39.972  25.677  26.658  1.00  0.00     0.010 A 
ATOM     40  C   UNL A   1      41.216  24.512  28.377  1.00  0.00     0.010 A 
ATOM     41  C   UNL A   1      40.881  25.712  27.721  1.00  0.00    -0.014 A 
BRANCH  41  42
ATOM     42  C   UNL A   1      41.523  26.994  28.101  1.00  0.00     0.031 A 
ATOM     43  C   UNL A   1      42.992  27.194  27.846  1.00  0.00     0.074 A 
ATOM     44  C   UNL A   1      40.789  27.978  28.655  1.00  0.00     0.049 A 
ATOM     45  N   UNL A   1      43.767  28.179  28.218  1.00  0.00    -0.248 NA
ATOM     46  C   UNL A   1      43.683  26.146  27.076  1.00  0.00     0.031 C 
ATOM     47  C   UNL A   1      39.344  27.928  28.895  1.00  0.00     0.029 A 
ATOM     48  N   UNL A   1      41.158  29.216  29.119  1.00  0.00    -0.354 N 
ATOM     49  C   UNL A   1      45.041  27.849  27.772  1.00  0.00     0.074 A 
ATOM     50  C   UNL A   1      44.938  26.574  27.097  1.00  0.00     0.031 C 
ATOM     51  C   UNL A   1      38.951  29.083  29.457  1.00  0.00     0.029 A 
ATOM     52  C   UNL A   1      40.120  29.927  29.676  1.00  0.00     0.049 A 
ATOM     53  H   UNL A   1      42.078  29.562  29.060  1.00  0.00     0.167 HD
ATOM     54  C   UNL A   1      46.191  28.547  27.919  1.00  0.00     0.031 A 
ATOM     55  C   UNL A   1      40.118  31.107  30.325  1.00  0.00     0.031 A 
ATOM     56  C   UNL A   1      46.278  29.830  28.563  1.00  0.00     0.049 A 
ATOM     57  C   UNL A   1      41.422  31.836  30.517  1.00  0.00     0.074 A 
ATOM     58  C   UNL A   1      47.396  30.629  28.739  1.00  0.00     0.029 A 
ATOM     59  N   UNL A   1      45.210  30.505  29.132  1.00  0.00    -0.354 N 
ATOM     60  N   UNL A   1      42.620  31.505  30.097  1.00  0.00    -0.248 NA
ATOM     61  C   UNL A   1      41.373  33.094  31.275  1.00  0.00     0.031 C 
ATOM     62  C   UNL A   1      47.010  31.766  29.457  1.00  0.00     0.029 A 
ATOM     63  C   UNL A   1      45.643  31.700  29.680  1.00  0.00     0.049 A 
ATOM     64  H   UNL A   1      44.280  30.182  29.144  1.00  0.00     0.167 HD
ATOM     65  C   UNL A   1      43.462  32.527  30.520  1.00  0.00     0.074 A 
ATOM     66  C   UNL A   1      42.636  33.493  31.212  1.00  0.00     0.031 C 
ATOM     67  C   UNL A   1      44.801  32.654  30.353  1.00  0.00     0.031 A 
BRANCH  54  68
ATOM     68  C   UNL A   1      47.466  27.925  27.413  1.00  0.00    -0.014 A 
ATOM     69  C   UNL A   1      47.948  28.187  26.119  1.00  0.00     0.010 A 
ATOM     70  C   UNL A   1      48.233  27.128  28.283  1.00  0.00     0.010 A 
ATOM     71  C   UNL A   1      49.168  27.648  25.700  1.00  0.00     0.020 A 
ATOM     72  C   UNL A   1      49.463  26.606  27.875  1.00  0.00     0.020 A 
ATOM     73  C   UNL A   1      49.920  26.864  26.581  1.00  0.00     0.054 A 
BRANCH  73  74
ATOM     74  S   UNL A   1      51.527  26.227  26.031  1.00  0.00     0.124 S 
ATOM     75  O   UNL A   1      52.455  27.150  26.680  1.00  0.00    -0.237 OA
ATOM     76  O   UNL A   1      51.528  24.863  26.554  1.00  0.00    -0.237 OA
ATOM     77  O   UNL A   1      51.462  26.332  24.575  1.00  0.00    -0.744 OA
ENDBRANCH  73  74
ENDBRANCH  54  68
BRANCH  55  78
ATOM     78  C   UNL A   1      38.855  31.651  30.898  1.00  0.00    -0.014 A 
ATOM     79  C   UNL A   1      38.225  32.765  30.319  1.00  0.00     0.010 A 
ATOM     80  C   UNL A   1      38.293  31.069  32.050  1.00  0.00     0.010 A 
ATOM     81  C   UNL A   1      37.076  33.310  30.902  1.00  0.00     0.020 A 
ATOM     82  C   UNL A   1      37.127  31.592  32.616  1.00  0.00     0.020 A 
ATOM     83  C   UNL A   1      36.537  32.722  32.049  1.00  0.00     0.054 A 
BRANCH  83  84
ATOM     84  S   UNL A   1      35.038  33.434  32.783  1.00  0.00     0.124 S 
ATOM     85  O   UNL A   1      35.149  34.836  32.394  1.00  0.00    -0.237 OA
ATOM     86  O   UNL A   1      33.973  32.677  32.128  1.00  0.00    -0.237 OA
ATOM     87  O   UNL A   1      35.197  33.163  34.210  1.00  0.00    -0.744 OA
ENDBRANCH  83  84
ENDBRANCH  55  78
BRANCH  67  88
ATOM     88  C   UNL A   1      45.447  33.903  30.885  1.00  0.00    -0.014 A 
ATOM     89  C   UNL A   1      45.496  35.081  30.118  1.00  0.00     0.010 A 
ATOM     90  C   UNL A   1      45.966  33.910  32.192  1.00  0.00     0.010 A 
ATOM     91  C   UNL A   1      46.084  36.236  30.640  1.00  0.00     0.020 A 
ATOM     92  C   UNL A   1      46.531  35.070  32.726  1.00  0.00     0.020 A 
ATOM     93  C   UNL A   1      46.600  36.222  31.940  1.00  0.00     0.054 A 
BRANCH  93  94
ATOM     94  S   UNL A   1      47.321  37.745  32.612  1.00  0.00     0.124 S 
ATOM     95  O   UNL A   1      48.356  38.049  31.630  1.00  0.00    -0.237 OA
ATOM     96  O   UNL A   1      46.182  38.660  32.630  1.00  0.00    -0.237 OA
ATOM     97  O   UNL A   1      47.809  37.344  33.930  1.00  0.00    -0.744 OA
ENDBRANCH  93  94
ENDBRANCH  67  88
ENDBRANCH  41  42
ENDBRANCH  34  36
ENDBRANCH  33  34
ENDBRANCH  32  33
ENDBRANCH   1  32
TORSDOF 17
ENDMDL
MODEL 3
REMARK VINA RESULT:     -11.5      6.132     10.571
REMARK SMILES C[N@@H+]1CC2(CC[NH+](C(=O)c3cc(-c4ccncc4)n[nH]3)CC2)C[C@H]1C(=O)OCCOC(=O)c1ccc(-c2c3nc(c(-c4ccc(S(=O)(=O)[O-])cc4)c4ccc([nH]4)c(-c4ccc(S(=O)(=O)[O-])cc4)c4nc(c(-c5ccc(S(=O)(=O)[O-])cc5)c5ccc2[nH]5)C=C4)C=C3)cc1
REMARK SMILES IDX 28 1 27 2 25 3 26 4 24 5 1 6 2 7 3 8 4 10 23 11 5 12 22 13
REMARK SMILES IDX 6 14 21 15 7 16 8 18 9 19 10 20 11 21 20 22 12 23 19 24
REMARK SMILES IDX 13 26 14 27 18 28 15 29 17 30 16 31 29 32 30 33 31 34 32 35
REMARK SMILES IDX 33 36 34 37 92 38 35 39 91 40 36 41 37 42 38 43 85 44 39 45
REMARK SMILES IDX 90 46 84 47 86 48 40 49 89 50 83 51 82 52 41 54 71 55 52 56
REMARK SMILES IDX 70 57 53 58 56 59 69 60 87 61 54 62 55 63 68 65 88 66 57 67
REMARK SMILES IDX 42 68 43 69 51 70 44 71 50 72 45 73 46 74 47 75 48 76 49 77
REMARK SMILES IDX 72 78 73 79 81 80 74 81 80 82 75 83 76 84 77 85 78 86 79 87
REMARK SMILES IDX 58 88 59 89 67 90 60 91 66 92 61 93 62 94 63 95 64 96 65 97
REMARK H PARENT 2 9 7 17 20 25 86 53 56 64
REMARK Flexibility Score: inf
ROOT
ATOM      1  C   UNL A   1      39.490  21.438  25.893  1.00  0.00     0.274 C 
ENDROOT
BRANCH   1   2
ATOM      2  O   UNL A   1      38.080  21.500  26.172  1.00  0.00    -0.458 OA
BRANCH   2   3
ATOM      3  C   UNL A   1      37.329  22.272  25.339  1.00  0.00     0.365 C 
ATOM      4  O   UNL A   1      37.492  23.479  25.185  1.00  0.00    -0.245 OA
BRANCH   3   5
ATOM      5  C   UNL A   1      36.216  21.505  24.608  1.00  0.00     0.295 C 
ATOM      6  C   UNL A   1      35.211  19.284  24.583  1.00  0.00     0.333 C 
ATOM      7  N   UNL A   1      35.612  20.420  25.410  1.00  0.00    -0.325 N 
ATOM      8  C   UNL A   1      34.478  21.014  26.121  1.00  0.00     0.270 C 
ATOM      9  H   UNL A   1      36.288  20.036  26.069  1.00  0.00     0.348 HD
ATOM     10  C   UNL A   1      34.016  22.248  25.314  1.00  0.00     0.036 C 
ATOM     11  C   UNL A   1      35.077  22.426  24.219  1.00  0.00     0.091 C 
ATOM     12  C   UNL A   1      33.971  23.502  26.216  1.00  0.00     0.075 C 
ATOM     13  C   UNL A   1      32.630  22.028  24.660  1.00  0.00     0.075 C 
ATOM     14  C   UNL A   1      32.825  23.418  27.213  1.00  0.00     0.271 C 
ATOM     15  C   UNL A   1      31.484  22.045  25.671  1.00  0.00     0.271 C 
ATOM     16  N   UNL A   1      31.561  23.242  26.498  1.00  0.00    -0.266 N 
ATOM     17  H   UNL A   1      31.635  22.702  25.679  1.00  0.00     0.357 HD
BRANCH  16  18
ATOM     18  C   UNL A   1      30.437  24.050  26.641  1.00  0.00     0.362 C 
ATOM     19  O   UNL A   1      29.462  23.702  27.302  1.00  0.00    -0.224 OA
BRANCH  18  20
ATOM     20  C   UNL A   1      30.469  25.342  26.015  1.00  0.00     0.163 A 
ATOM     21  C   UNL A   1      29.783  25.874  24.942  1.00  0.00     0.068 A 
ATOM     22  N   UNL A   1      31.239  26.366  26.484  1.00  0.00    -0.269 N 
ATOM     23  C   UNL A   1      30.323  27.171  24.753  1.00  0.00     0.093 A 
ATOM     24  N   UNL A   1      31.244  27.449  25.687  1.00  0.00    -0.175 NA
ATOM     25  H   UNL A   1      31.745  26.316  27.327  1.00  0.00     0.190 HD
BRANCH  23  26
ATOM     26  C   UNL A   1      30.009  28.109  23.688  1.00  0.00     0.005 A 
ATOM     27  C   UNL A   1      28.689  28.318  23.292  1.00  0.00     0.030 A 
ATOM     28  C   UNL A   1      31.036  28.797  23.043  1.00  0.00     0.030 A 
ATOM     29  C   UNL A   1      28.455  29.216  22.264  1.00  0.00     0.111 A 
ATOM     30  C   UNL A   1      30.698  29.664  22.020  1.00  0.00     0.111 A 
ATOM     31  N   UNL A   1      29.430  29.890  21.616  1.00  0.00    -0.265 NA
ENDBRANCH  23  26
ENDBRANCH  18  20
ENDBRANCH  16  18
ENDBRANCH   3   5
ENDBRANCH   2   3
ENDBRANCH   1   2
BRANCH   1  32
ATOM     32  C   UNL A   1      39.985  19.993  25.949  1.00  0.00     0.275 C 
BRANCH  32  33
ATOM     33  O   UNL A   1      41.253  19.919  26.626  1.00  0.00    -0.458 OA
BRANCH  33  34
ATOM     34  C   UNL A   1      42.341  20.001  25.824  1.00  0.00     0.338 C 
ATOM     35  O   UNL A   1      42.755  19.166  25.040  1.00  0.00    -0.246 OA
BRANCH  34  36
ATOM     36  C   UNL A   1      42.958  21.324  25.980  1.00  0.00     0.060 A 
ATOM     37  C   UNL A   1      43.397  21.706  27.246  1.00  0.00     0.016 A 
ATOM     38  C   UNL A   1      42.995  22.225  24.920  1.00  0.00     0.016 A 
ATOM     39  C   UNL A   1      43.844  23.001  27.479  1.00  0.00     0.010 A 
ATOM     40  C   UNL A   1      43.479  23.519  25.143  1.00  0.00     0.010 A 
ATOM     41  C   UNL A   1      43.885  23.924  26.429  1.00  0.00    -0.014 A 
BRANCH  41  42
ATOM     42  C   UNL A   1      44.297  25.325  26.692  1.00  0.00     0.031 A 
ATOM     43  C   UNL A   1      45.707  25.753  26.394  1.00  0.00     0.074 A 
ATOM     44  C   UNL A   1      43.406  26.210  27.179  1.00  0.00     0.049 A 
ATOM     45  N   UNL A   1      46.302  26.884  26.670  1.00  0.00    -0.248 NA
ATOM     46  C   UNL A   1      46.566  24.779  25.697  1.00  0.00     0.031 C 
ATOM     47  C   UNL A   1      41.993  25.932  27.451  1.00  0.00     0.029 A 
ATOM     48  N   UNL A   1      43.557  27.527  27.535  1.00  0.00    -0.354 N 
ATOM     49  C   UNL A   1      47.612  26.743  26.227  1.00  0.00     0.074 A 
ATOM     50  C   UNL A   1      47.727  25.417  25.659  1.00  0.00     0.031 C 
ATOM     51  C   UNL A   1      41.409  27.045  27.926  1.00  0.00     0.029 A 
ATOM     52  C   UNL A   1      42.415  28.093  28.053  1.00  0.00     0.049 A 
ATOM     53  H   UNL A   1      44.404  28.021  27.430  1.00  0.00     0.167 HD
ATOM     54  C   UNL A   1      48.625  27.638  26.294  1.00  0.00     0.031 A 
ATOM     55  C   UNL A   1      42.212  29.304  28.605  1.00  0.00     0.031 A 
ATOM     56  C   UNL A   1      48.491  28.966  26.832  1.00  0.00     0.049 A 
ATOM     57  C   UNL A   1      43.371  30.260  28.712  1.00  0.00     0.074 A 
ATOM     58  C   UNL A   1      49.454  29.957  26.920  1.00  0.00     0.029 A 
ATOM     59  N   UNL A   1      47.325  29.491  27.365  1.00  0.00    -0.354 N 
ATOM     60  N   UNL A   1      44.606  30.107  28.296  1.00  0.00    -0.248 NA
ATOM     61  C   UNL A   1      43.109  31.549  29.367  1.00  0.00     0.031 C 
ATOM     62  C   UNL A   1      48.881  31.066  27.553  1.00  0.00     0.029 A 
ATOM     63  C   UNL A   1      47.548  30.784  27.807  1.00  0.00     0.049 A 
ATOM     64  H   UNL A   1      46.465  29.015  27.421  1.00  0.00     0.167 HD
ATOM     65  C   UNL A   1      45.261  31.290  28.619  1.00  0.00     0.074 A 
ATOM     66  C   UNL A   1      44.283  32.153  29.247  1.00  0.00     0.031 C 
ATOM     67  C   UNL A   1      46.557  31.631  28.417  1.00  0.00     0.031 A 
BRANCH  54  68
ATOM     68  C   UNL A   1      49.985  27.205  25.816  1.00  0.00    -0.014 A 
ATOM     69  C   UNL A   1      50.438  27.509  24.520  1.00  0.00     0.010 A 
ATOM     70  C   UNL A   1      50.852  26.553  26.712  1.00  0.00     0.010 A 
ATOM     71  C   UNL A   1      51.731  27.152  24.125  1.00  0.00     0.020 A 
ATOM     72  C   UNL A   1      52.152  26.215  26.328  1.00  0.00     0.020 A 
ATOM     73  C   UNL A   1      52.582  26.510  25.033  1.00  0.00     0.054 A 
BRANCH  73  74
ATOM     74  S   UNL A   1      54.273  26.112  24.513  1.00  0.00     0.124 S 
ATOM     75  O   UNL A   1      55.062  27.049  25.310  1.00  0.00    -0.237 OA
ATOM     76  O   UNL A   1      54.402  24.706  24.887  1.00  0.00    -0.237 OA
ATOM     77  O   UNL A   1      54.266  26.373  23.075  1.00  0.00    -0.744 OA
ENDBRANCH  73  74
ENDBRANCH  54  68
BRANCH  55  78
ATOM     78  C   UNL A   1      40.877  29.667  29.157  1.00  0.00    -0.014 A 
ATOM     79  C   UNL A   1      40.683  29.797  30.543  1.00  0.00     0.010 A 
ATOM     80  C   UNL A   1      39.782  29.856  28.293  1.00  0.00     0.010 A 
ATOM     81  C   UNL A   1      39.412  30.072  31.057  1.00  0.00     0.020 A 
ATOM     82  C   UNL A   1      38.517  30.162  28.801  1.00  0.00     0.020 A 
ATOM     83  C   UNL A   1      38.336  30.249  30.182  1.00  0.00     0.054 A 
BRANCH  83  84
ATOM     84  S   UNL A   1      36.697  30.620  30.866  1.00  0.00     0.124 S 
ATOM     85  O   UNL A   1      35.940  30.963  29.666  1.00  0.00    -0.237 OA
ATOM     86  O   UNL A   1      36.328  29.362  31.510  1.00  0.00    -0.237 OA
ATOM     87  O   UNL A   1      36.955  31.728  31.783  1.00  0.00    -0.744 OA
ENDBRANCH  83  84
ENDBRANCH  55  78
BRANCH  67  88
ATOM     88  C   UNL A   1      46.979  33.013  28.833  1.00  0.00    -0.014 A 
ATOM     89  C   UNL A   1      47.079  34.058  27.898  1.00  0.00     0.010 A 
ATOM     90  C   UNL A   1      47.229  33.279  30.192  1.00  0.00     0.010 A 
ATOM     91  C   UNL A   1      47.455  35.338  28.311  1.00  0.00     0.020 A 
ATOM     92  C   UNL A   1      47.579  34.564  30.612  1.00  0.00     0.020 A 
ATOM     93  C   UNL A   1      47.705  35.582  29.665  1.00  0.00     0.054 A 
BRANCH  93  94
ATOM     94  S   UNL A   1      48.150  37.262  30.184  1.00  0.00     0.124 S 
ATOM     95  O   UNL A   1      46.854  37.933  30.184  1.00  0.00    -0.237 OA
ATOM     96  O   UNL A   1      48.746  37.045  31.501  1.00  0.00    -0.237 OA
ATOM     97  O   UNL A   1      49.084  37.707  29.153  1.00  0.00    -0.744 OA
ENDBRANCH  93  94
ENDBRANCH  67  88
ENDBRANCH  41  42
ENDBRANCH  34  36
ENDBRANCH  33  34
ENDBRANCH  32  33
ENDBRANCH   1  32
TORSDOF 17
ENDMDL
