MODEL 1
REMARK VINA RESULT:     -11.3      0.000      0.000
REMARK SMILES CC(C)c1nc(N2C[C@H](C)OC(C)(C)C2)sc1C(=O)OCCOC(=O)c1ccc(-c2c3nc(c(-c4ccc(S(=O)(=O)[O-])cc4)c4ccc([nH]4)c(-c4ccc(S(=O)(=O)[O-])cc4)c4nc(c(-c5ccc(S(=O)(=O)[O-])cc5)c5ccc2[nH]5)C=C4)C=C3)cc1
REMARK SMILES IDX 22 1 21 2 20 3 18 4 19 5 17 6 4 7 5 8 6 9 16 10 2 11 1 12
REMARK SMILES IDX 3 13 7 14 8 15 15 16 9 17 12 18 11 19 10 20 13 21 14 22
REMARK SMILES IDX 23 23 24 24 25 25 26 26 27 27 85 28 28 29 84 30 29 31 30 32
REMARK SMILES IDX 31 33 78 34 32 35 83 36 77 37 79 38 33 39 82 40 76 41 75 42
REMARK SMILES IDX 34 44 64 45 45 46 63 47 46 48 49 49 62 50 80 51 47 52 48 53
REMARK SMILES IDX 61 55 81 56 50 57 35 58 36 59 44 60 37 61 43 62 38 63 39 64
REMARK SMILES IDX 40 65 41 66 42 67 65 68 66 69 74 70 67 71 73 72 68 73 69 74
REMARK SMILES IDX 70 75 71 76 72 77 51 78 52 79 60 80 53 81 59 82 54 83 55 84
REMARK SMILES IDX 56 85 57 86 58 87
REMARK H PARENT 79 43 49 54
REMARK Flexibility Score: inf
ROOT
ATOM      1  C   UNL A   1      38.241  23.396  26.139  1.00  0.00     0.275 C 
ENDROOT
BRANCH   1   2
ATOM      2  C   UNL A   1      37.165  23.427  25.048  1.00  0.00     0.275 C 
BRANCH   2   3
ATOM      3  O   UNL A   1      35.840  23.440  25.616  1.00  0.00    -0.458 OA
BRANCH   3   4
ATOM      4  C   UNL A   1      34.786  23.405  24.749  1.00  0.00     0.350 C 
ATOM      5  O   UNL A   1      34.753  22.694  23.753  1.00  0.00    -0.245 OA
BRANCH   4   6
ATOM      6  C   UNL A   1      33.706  24.248  25.221  1.00  0.00     0.137 A 
ATOM      7  C   UNL A   1      32.530  23.975  25.905  1.00  0.00     0.071 A 
ATOM      8  N   UNL A   1      31.686  25.074  26.063  1.00  0.00    -0.224 NA
ATOM      9  C   UNL A   1      32.194  26.142  25.495  1.00  0.00     0.186 A 
ATOM     10  S   UNL A   1      33.817  25.953  24.986  1.00  0.00    -0.089 S 
BRANCH   7  11
ATOM     11  C   UNL A   1      32.126  22.678  26.556  1.00  0.00     0.034 C 
ATOM     12  C   UNL A   1      32.953  22.465  27.828  1.00  0.00     0.014 C 
ATOM     13  C   UNL A   1      30.630  22.608  26.867  1.00  0.00     0.014 C 
ENDBRANCH   7  11
BRANCH   9  14
ATOM     14  N   UNL A   1      31.557  27.325  25.398  1.00  0.00    -0.343 N 
ATOM     15  C   UNL A   1      31.701  28.380  26.394  1.00  0.00     0.150 C 
ATOM     16  C   UNL A   1      30.568  27.556  24.361  1.00  0.00     0.153 C 
ATOM     17  C   UNL A   1      31.959  29.721  25.669  1.00  0.00     0.135 C 
ATOM     18  C   UNL A   1      30.827  28.925  23.681  1.00  0.00     0.081 C 
ATOM     19  O   UNL A   1      30.964  29.984  24.656  1.00  0.00    -0.369 OA
ATOM     20  C   UNL A   1      31.927  30.894  26.642  1.00  0.00     0.040 C 
ATOM     21  C   UNL A   1      32.058  28.867  22.765  1.00  0.00     0.044 C 
ATOM     22  C   UNL A   1      29.601  29.295  22.836  1.00  0.00     0.044 C 
ENDBRANCH   9  14
ENDBRANCH   4   6
ENDBRANCH   3   4
ENDBRANCH   2   3
ENDBRANCH   1   2
BRANCH   1  23
ATOM     23  O   UNL A   1      38.748  24.715  26.410  1.00  0.00    -0.458 OA
BRANCH  23  24
ATOM     24  C   UNL A   1      40.059  24.761  26.742  1.00  0.00     0.338 C 
ATOM     25  O   UNL A   1      40.987  24.229  26.155  1.00  0.00    -0.246 OA
BRANCH  24  26
ATOM     26  C   UNL A   1      40.256  25.718  27.839  1.00  0.00     0.060 A 
ATOM     27  C   UNL A   1      39.293  25.721  28.842  1.00  0.00     0.016 A 
ATOM     28  C   UNL A   1      41.278  26.662  27.847  1.00  0.00     0.016 A 
ATOM     29  C   UNL A   1      39.297  26.687  29.837  1.00  0.00     0.010 A 
ATOM     30  C   UNL A   1      41.315  27.612  28.879  1.00  0.00     0.010 A 
ATOM     31  C   UNL A   1      40.313  27.645  29.870  1.00  0.00    -0.014 A 
BRANCH  31  32
ATOM     32  C   UNL A   1      40.284  28.700  30.917  1.00  0.00     0.031 A 
ATOM     33  C   UNL A   1      41.250  28.640  32.068  1.00  0.00     0.074 A 
ATOM     34  C   UNL A   1      39.424  29.733  30.808  1.00  0.00     0.049 A 
ATOM     35  N   UNL A   1      41.318  29.403  33.129  1.00  0.00    -0.248 NA
ATOM     36  C   UNL A   1      42.271  27.579  32.025  1.00  0.00     0.031 C 
ATOM     37  C   UNL A   1      38.490  29.945  29.700  1.00  0.00     0.029 A 
ATOM     38  N   UNL A   1      39.203  30.805  31.636  1.00  0.00    -0.354 N 
ATOM     39  C   UNL A   1      42.356  28.890  33.899  1.00  0.00     0.074 A 
ATOM     40  C   UNL A   1      42.884  27.745  33.189  1.00  0.00     0.031 C 
ATOM     41  C   UNL A   1      37.813  31.086  29.907  1.00  0.00     0.029 A 
ATOM     42  C   UNL A   1      38.208  31.645  31.195  1.00  0.00     0.049 A 
ATOM     43  H   UNL A   1      39.709  30.958  32.468  1.00  0.00     0.167 HD
ATOM     44  C   UNL A   1      42.823  29.334  35.090  1.00  0.00     0.031 A 
ATOM     45  C   UNL A   1      37.645  32.723  31.777  1.00  0.00     0.031 A 
ATOM     46  C   UNL A   1      42.301  30.486  35.779  1.00  0.00     0.049 A 
ATOM     47  C   UNL A   1      38.133  33.151  33.134  1.00  0.00     0.074 A 
ATOM     48  C   UNL A   1      42.712  31.025  36.987  1.00  0.00     0.029 A 
ATOM     49  N   UNL A   1      41.259  31.279  35.322  1.00  0.00    -0.354 N 
ATOM     50  N   UNL A   1      39.099  32.641  33.861  1.00  0.00    -0.248 NA
ATOM     51  C   UNL A   1      37.451  34.294  33.753  1.00  0.00     0.031 C 
ATOM     52  C   UNL A   1      41.877  32.105  37.288  1.00  0.00     0.029 A 
ATOM     53  C   UNL A   1      40.993  32.284  36.237  1.00  0.00     0.049 A 
ATOM     54  H   UNL A   1      40.778  31.146  34.473  1.00  0.00     0.167 HD
ATOM     55  C   UNL A   1      39.157  33.419  35.011  1.00  0.00     0.074 A 
ATOM     56  C   UNL A   1      38.142  34.443  34.875  1.00  0.00     0.031 C 
ATOM     57  C   UNL A   1      39.979  33.298  36.084  1.00  0.00     0.031 A 
BRANCH  44  58
ATOM     58  C   UNL A   1      43.920  28.541  35.754  1.00  0.00    -0.014 A 
ATOM     59  C   UNL A   1      45.278  28.818  35.521  1.00  0.00     0.010 A 
ATOM     60  C   UNL A   1      43.578  27.523  36.665  1.00  0.00     0.010 A 
ATOM     61  C   UNL A   1      46.274  28.069  36.157  1.00  0.00     0.020 A 
ATOM     62  C   UNL A   1      44.569  26.791  37.325  1.00  0.00     0.020 A 
ATOM     63  C   UNL A   1      45.912  27.059  37.054  1.00  0.00     0.054 A 
BRANCH  63  64
ATOM     64  S   UNL A   1      47.224  26.119  37.883  1.00  0.00     0.124 S 
ATOM     65  O   UNL A   1      46.780  26.145  39.274  1.00  0.00    -0.237 OA
ATOM     66  O   UNL A   1      47.150  24.818  37.224  1.00  0.00    -0.237 OA
ATOM     67  O   UNL A   1      48.434  26.889  37.602  1.00  0.00    -0.744 OA
ENDBRANCH  63  64
ENDBRANCH  44  58
BRANCH  45  68
ATOM     68  C   UNL A   1      36.527  33.440  31.103  1.00  0.00    -0.014 A 
ATOM     69  C   UNL A   1      36.660  33.899  29.781  1.00  0.00     0.010 A 
ATOM     70  C   UNL A   1      35.315  33.666  31.782  1.00  0.00     0.010 A 
ATOM     71  C   UNL A   1      35.613  34.587  29.160  1.00  0.00     0.020 A 
ATOM     72  C   UNL A   1      34.254  34.323  31.154  1.00  0.00     0.020 A 
ATOM     73  C   UNL A   1      34.414  34.792  29.850  1.00  0.00     0.054 A 
BRANCH  73  74
ATOM     74  S   UNL A   1      33.055  35.649  29.010  1.00  0.00     0.124 S 
ATOM     75  O   UNL A   1      32.476  34.582  28.200  1.00  0.00    -0.237 OA
ATOM     76  O   UNL A   1      32.235  36.112  30.126  1.00  0.00    -0.237 OA
ATOM     77  O   UNL A   1      33.728  36.708  28.260  1.00  0.00    -0.744 OA
ENDBRANCH  73  74
ENDBRANCH  45  68
BRANCH  57  78
ATOM     78  C   UNL A   1      39.845  34.324  37.177  1.00  0.00    -0.014 A 
ATOM     79  C   UNL A   1      40.443  35.592  37.070  1.00  0.00     0.010 A 
ATOM     80  C   UNL A   1      39.061  34.030  38.308  1.00  0.00     0.010 A 
ATOM     81  C   UNL A   1      40.287  36.534  38.089  1.00  0.00     0.020 A 
ATOM     82  C   UNL A   1      38.877  34.980  39.314  1.00  0.00     0.020 A 
ATOM     83  C   UNL A   1      39.504  36.223  39.205  1.00  0.00     0.054 A 
BRANCH  83  84
ATOM     84  S   UNL A   1      39.281  37.480  40.493  1.00  0.00     0.124 S 
ATOM     85  O   UNL A   1      38.886  36.671  41.643  1.00  0.00    -0.237 OA
ATOM     86  O   UNL A   1      40.605  38.090  40.577  1.00  0.00    -0.237 OA
ATOM     87  O   UNL A   1      38.235  38.347  39.953  1.00  0.00    -0.744 OA
ENDBRANCH  83  84
ENDBRANCH  57  78
ENDBRANCH  31  32
ENDBRANCH  24  26
ENDBRANCH  23  24
ENDBRANCH   1  23
TORSDOF 16
ENDMDL
MODEL 2
REMARK VINA RESULT:     -11.2      4.734     10.658
REMARK SMILES CC(C)c1nc(N2C[C@H](C)OC(C)(C)C2)sc1C(=O)OCCOC(=O)c1ccc(-c2c3nc(c(-c4ccc(S(=O)(=O)[O-])cc4)c4ccc([nH]4)c(-c4ccc(S(=O)(=O)[O-])cc4)c4nc(c(-c5ccc(S(=O)(=O)[O-])cc5)c5ccc2[nH]5)C=C4)C=C3)cc1
REMARK SMILES IDX 22 1 21 2 20 3 18 4 19 5 17 6 4 7 5 8 6 9 16 10 2 11 1 12
REMARK SMILES IDX 3 13 7 14 8 15 15 16 9 17 12 18 11 19 10 20 13 21 14 22
REMARK SMILES IDX 23 23 24 24 25 25 26 26 27 27 85 28 28 29 84 30 29 31 30 32
REMARK SMILES IDX 31 33 78 34 32 35 83 36 77 37 79 38 33 39 82 40 76 41 75 42
REMARK SMILES IDX 34 44 64 45 45 46 63 47 46 48 49 49 62 50 80 51 47 52 48 53
REMARK SMILES IDX 61 55 81 56 50 57 35 58 36 59 44 60 37 61 43 62 38 63 39 64
REMARK SMILES IDX 40 65 41 66 42 67 65 68 66 69 74 70 67 71 73 72 68 73 69 74
REMARK SMILES IDX 70 75 71 76 72 77 51 78 52 79 60 80 53 81 59 82 54 83 55 84
REMARK SMILES IDX 56 85 57 86 58 87
REMARK H PARENT 79 43 49 54
REMARK Flexibility Score: inf
ROOT
ATOM      1  C   UNL A   1      32.686  30.298  26.625  1.00  0.00     0.275 C 
ENDROOT
BRANCH   1   2
ATOM      2  C   UNL A   1      31.768  29.213  26.052  1.00  0.00     0.275 C 
BRANCH   2   3
ATOM      3  O   UNL A   1      32.518  28.053  25.639  1.00  0.00    -0.458 OA
BRANCH   3   4
ATOM      4  C   UNL A   1      31.873  26.850  25.661  1.00  0.00     0.350 C 
ATOM      5  O   UNL A   1      30.800  26.667  26.222  1.00  0.00    -0.245 OA
BRANCH   4   6
ATOM      6  C   UNL A   1      32.590  25.871  24.868  1.00  0.00     0.137 A 
ATOM      7  C   UNL A   1      32.763  25.713  23.500  1.00  0.00     0.071 A 
ATOM      8  N   UNL A   1      33.432  24.546  23.134  1.00  0.00    -0.224 NA
ATOM      9  C   UNL A   1      33.735  23.828  24.189  1.00  0.00     0.186 A 
ATOM     10  S   UNL A   1      33.480  24.636  25.677  1.00  0.00    -0.089 S 
BRANCH   7  11
ATOM     11  C   UNL A   1      32.398  26.687  22.410  1.00  0.00     0.034 C 
ATOM     12  C   UNL A   1      33.532  27.703  22.232  1.00  0.00     0.014 C 
ATOM     13  C   UNL A   1      32.074  26.001  21.083  1.00  0.00     0.014 C 
ENDBRANCH   7  11
BRANCH   9  14
ATOM     14  N   UNL A   1      34.293  22.603  24.138  1.00  0.00    -0.343 N 
ATOM     15  C   UNL A   1      35.733  22.398  24.043  1.00  0.00     0.150 C 
ATOM     16  C   UNL A   1      33.470  21.413  24.024  1.00  0.00     0.153 C 
ATOM     17  C   UNL A   1      36.156  21.328  25.076  1.00  0.00     0.135 C 
ATOM     18  C   UNL A   1      33.942  20.345  25.043  1.00  0.00     0.081 C 
ATOM     19  O   UNL A   1      35.369  20.123  24.955  1.00  0.00    -0.369 OA
ATOM     20  C   UNL A   1      37.616  20.928  24.897  1.00  0.00     0.040 C 
ATOM     21  C   UNL A   1      33.538  20.724  26.474  1.00  0.00     0.044 C 
ATOM     22  C   UNL A   1      33.292  19.002  24.686  1.00  0.00     0.044 C 
ENDBRANCH   9  14
ENDBRANCH   4   6
ENDBRANCH   3   4
ENDBRANCH   2   3
ENDBRANCH   1   2
BRANCH   1  23
ATOM     23  O   UNL A   1      33.742  29.724  27.417  1.00  0.00    -0.458 OA
BRANCH  23  24
ATOM     24  C   UNL A   1      34.513  30.622  28.070  1.00  0.00     0.338 C 
ATOM     25  O   UNL A   1      34.147  31.651  28.615  1.00  0.00    -0.246 OA
BRANCH  24  26
ATOM     26  C   UNL A   1      35.878  30.096  28.204  1.00  0.00     0.060 A 
ATOM     27  C   UNL A   1      36.246  29.635  29.462  1.00  0.00     0.016 A 
ATOM     28  C   UNL A   1      36.814  30.145  27.176  1.00  0.00     0.016 A 
ATOM     29  C   UNL A   1      37.554  29.265  29.737  1.00  0.00     0.010 A 
ATOM     30  C   UNL A   1      38.128  29.727  27.434  1.00  0.00     0.010 A 
ATOM     31  C   UNL A   1      38.514  29.304  28.722  1.00  0.00    -0.014 A 
BRANCH  31  32
ATOM     32  C   UNL A   1      39.921  28.945  29.038  1.00  0.00     0.031 A 
ATOM     33  C   UNL A   1      40.813  29.945  29.722  1.00  0.00     0.074 A 
ATOM     34  C   UNL A   1      40.381  27.710  28.755  1.00  0.00     0.049 A 
ATOM     35  N   UNL A   1      42.091  29.862  29.992  1.00  0.00    -0.248 NA
ATOM     36  C   UNL A   1      40.189  31.206  30.155  1.00  0.00     0.031 C 
ATOM     37  C   UNL A   1      39.593  26.626  28.163  1.00  0.00     0.029 A 
ATOM     38  N   UNL A   1      41.623  27.153  28.936  1.00  0.00    -0.354 N 
ATOM     39  C   UNL A   1      42.433  31.073  30.583  1.00  0.00     0.074 A 
ATOM     40  C   UNL A   1      41.231  31.877  30.625  1.00  0.00     0.031 C 
ATOM     41  C   UNL A   1      40.363  25.533  28.050  1.00  0.00     0.029 A 
ATOM     42  C   UNL A   1      41.716  25.856  28.489  1.00  0.00     0.049 A 
ATOM     43  H   UNL A   1      42.376  27.636  29.349  1.00  0.00     0.167 HD
ATOM     44  C   UNL A   1      43.640  31.475  31.046  1.00  0.00     0.031 A 
ATOM     45  C   UNL A   1      42.777  25.030  28.401  1.00  0.00     0.031 A 
ATOM     46  C   UNL A   1      44.826  30.658  31.015  1.00  0.00     0.049 A 
ATOM     47  C   UNL A   1      44.122  25.529  28.854  1.00  0.00     0.074 A 
ATOM     48  C   UNL A   1      46.097  30.969  31.469  1.00  0.00     0.029 A 
ATOM     49  N   UNL A   1      44.888  29.369  30.506  1.00  0.00    -0.354 N 
ATOM     50  N   UNL A   1      44.434  26.685  29.390  1.00  0.00    -0.248 NA
ATOM     51  C   UNL A   1      45.258  24.614  28.687  1.00  0.00     0.031 C 
ATOM     52  C   UNL A   1      46.939  29.891  31.177  1.00  0.00     0.029 A 
ATOM     53  C   UNL A   1      46.181  28.882  30.607  1.00  0.00     0.049 A 
ATOM     54  H   UNL A   1      44.126  28.874  30.128  1.00  0.00     0.167 HD
ATOM     55  C   UNL A   1      45.799  26.626  29.646  1.00  0.00     0.074 A 
ATOM     56  C   UNL A   1      46.247  25.314  29.225  1.00  0.00     0.031 C 
ATOM     57  C   UNL A   1      46.609  27.572  30.184  1.00  0.00     0.031 A 
BRANCH  44  58
ATOM     58  C   UNL A   1      43.756  32.881  31.578  1.00  0.00    -0.014 A 
ATOM     59  C   UNL A   1      43.633  33.166  32.949  1.00  0.00     0.010 A 
ATOM     60  C   UNL A   1      44.037  33.933  30.685  1.00  0.00     0.010 A 
ATOM     61  C   UNL A   1      43.750  34.481  33.412  1.00  0.00     0.020 A 
ATOM     62  C   UNL A   1      44.186  35.243  31.147  1.00  0.00     0.020 A 
ATOM     63  C   UNL A   1      44.025  35.511  32.507  1.00  0.00     0.054 A 
BRANCH  63  64
ATOM     64  S   UNL A   1      44.198  37.203  33.139  1.00  0.00     0.124 S 
ATOM     65  O   UNL A   1      44.306  37.976  31.905  1.00  0.00    -0.237 OA
ATOM     66  O   UNL A   1      42.961  37.390  33.892  1.00  0.00    -0.237 OA
ATOM     67  O   UNL A   1      45.414  37.149  33.948  1.00  0.00    -0.744 OA
ENDBRANCH  63  64
ENDBRANCH  44  58
BRANCH  45  68
ATOM     68  C   UNL A   1      42.620  23.669  27.818  1.00  0.00    -0.014 A 
ATOM     69  C   UNL A   1      42.789  23.452  26.440  1.00  0.00     0.010 A 
ATOM     70  C   UNL A   1      42.300  22.574  28.644  1.00  0.00     0.010 A 
ATOM     71  C   UNL A   1      42.622  22.174  25.896  1.00  0.00     0.020 A 
ATOM     72  C   UNL A   1      42.165  21.290  28.111  1.00  0.00     0.020 A 
ATOM     73  C   UNL A   1      42.314  21.100  26.737  1.00  0.00     0.054 A 
BRANCH  73  74
ATOM     74  S   UNL A   1      42.144  19.444  26.017  1.00  0.00     0.124 S 
ATOM     75  O   UNL A   1      40.705  19.356  25.793  1.00  0.00    -0.237 OA
ATOM     76  O   UNL A   1      42.967  19.536  24.814  1.00  0.00    -0.237 OA
ATOM     77  O   UNL A   1      42.670  18.562  27.057  1.00  0.00    -0.744 OA
ENDBRANCH  73  74
ENDBRANCH  45  68
BRANCH  57  78
ATOM     78  C   UNL A   1      48.056  27.208  30.389  1.00  0.00    -0.014 A 
ATOM     79  C   UNL A   1      49.040  27.559  29.448  1.00  0.00     0.010 A 
ATOM     80  C   UNL A   1      48.440  26.549  31.571  1.00  0.00     0.010 A 
ATOM     81  C   UNL A   1      50.379  27.227  29.671  1.00  0.00     0.020 A 
ATOM     82  C   UNL A   1      49.781  26.243  31.812  1.00  0.00     0.020 A 
ATOM     83  C   UNL A   1      50.742  26.571  30.853  1.00  0.00     0.054 A 
BRANCH  83  84
ATOM     84  S   UNL A   1      52.492  26.192  31.139  1.00  0.00     0.124 S 
ATOM     85  O   UNL A   1      53.011  26.110  29.776  1.00  0.00    -0.237 OA
ATOM     86  O   UNL A   1      52.945  27.343  31.916  1.00  0.00    -0.237 OA
ATOM     87  O   UNL A   1      52.458  24.927  31.869  1.00  0.00    -0.744 OA
ENDBRANCH  83  84
ENDBRANCH  57  78
ENDBRANCH  31  32
ENDBRANCH  24  26
ENDBRANCH  23  24
ENDBRANCH   1  23
TORSDOF 16
ENDMDL
MODEL 3
REMARK VINA RESULT:     -11.1      6.736     12.301
REMARK SMILES CC(C)c1nc(N2C[C@H](C)OC(C)(C)C2)sc1C(=O)OCCOC(=O)c1ccc(-c2c3nc(c(-c4ccc(S(=O)(=O)[O-])cc4)c4ccc([nH]4)c(-c4ccc(S(=O)(=O)[O-])cc4)c4nc(c(-c5ccc(S(=O)(=O)[O-])cc5)c5ccc2[nH]5)C=C4)C=C3)cc1
REMARK SMILES IDX 22 1 21 2 20 3 18 4 19 5 17 6 4 7 5 8 6 9 16 10 2 11 1 12
REMARK SMILES IDX 3 13 7 14 8 15 15 16 9 17 12 18 11 19 10 20 13 21 14 22
REMARK SMILES IDX 23 23 24 24 25 25 26 26 27 27 85 28 28 29 84 30 29 31 30 32
REMARK SMILES IDX 31 33 78 34 32 35 83 36 77 37 79 38 33 39 82 40 76 41 75 42
REMARK SMILES IDX 34 44 64 45 45 46 63 47 46 48 49 49 62 50 80 51 47 52 48 53
REMARK SMILES IDX 61 55 81 56 50 57 35 58 36 59 44 60 37 61 43 62 38 63 39 64
REMARK SMILES IDX 40 65 41 66 42 67 65 68 66 69 74 70 67 71 73 72 68 73 69 74
REMARK SMILES IDX 70 75 71 76 72 77 51 78 52 79 60 80 53 81 59 82 54 83 55 84
REMARK SMILES IDX 56 85 57 86 58 87
REMARK H PARENT 79 43 49 54
REMARK Flexibility Score: inf
ROOT
ATOM      1  C   UNL A   1      34.468  30.069  27.363  1.00  0.00     0.275 C 
ENDROOT
BRANCH   1   2
ATOM      2  C   UNL A   1      33.258  29.178  27.060  1.00  0.00     0.275 C 
BRANCH   2   3
ATOM      3  O   UNL A   1      33.594  28.134  26.125  1.00  0.00    -0.458 OA
BRANCH   3   4
ATOM      4  C   UNL A   1      32.638  27.195  25.864  1.00  0.00     0.350 C 
ATOM      5  O   UNL A   1      31.479  27.285  26.248  1.00  0.00    -0.245 OA
BRANCH   4   6
ATOM      6  C   UNL A   1      33.168  26.146  25.015  1.00  0.00     0.137 A 
ATOM      7  C   UNL A   1      33.112  25.927  23.646  1.00  0.00     0.071 A 
ATOM      8  N   UNL A   1      33.655  24.710  23.234  1.00  0.00    -0.224 NA
ATOM      9  C   UNL A   1      34.086  24.017  24.261  1.00  0.00     0.186 A 
ATOM     10  S   UNL A   1      34.114  24.895  25.730  1.00  0.00    -0.089 S 
BRANCH   7  11
ATOM     11  C   UNL A   1      32.627  26.877  22.583  1.00  0.00     0.034 C 
ATOM     12  C   UNL A   1      33.671  27.976  22.364  1.00  0.00     0.014 C 
ATOM     13  C   UNL A   1      32.295  26.176  21.264  1.00  0.00     0.014 C 
ENDBRANCH   7  11
BRANCH   9  14
ATOM     14  N   UNL A   1      34.567  22.761  24.180  1.00  0.00    -0.343 N 
ATOM     15  C   UNL A   1      35.994  22.467  24.128  1.00  0.00     0.150 C 
ATOM     16  C   UNL A   1      33.675  21.633  23.990  1.00  0.00     0.153 C 
ATOM     17  C   UNL A   1      36.308  21.333  25.132  1.00  0.00     0.135 C 
ATOM     18  C   UNL A   1      34.039  20.498  24.980  1.00  0.00     0.081 C 
ATOM     19  O   UNL A   1      35.451  20.188  24.934  1.00  0.00    -0.369 OA
ATOM     20  C   UNL A   1      37.745  20.847  24.989  1.00  0.00     0.040 C 
ATOM     21  C   UNL A   1      33.606  20.848  26.411  1.00  0.00     0.044 C 
ATOM     22  C   UNL A   1      33.319  19.214  24.547  1.00  0.00     0.044 C 
ENDBRANCH   9  14
ENDBRANCH   4   6
ENDBRANCH   3   4
ENDBRANCH   2   3
ENDBRANCH   1   2
BRANCH   1  23
ATOM     23  O   UNL A   1      35.534  29.314  27.967  1.00  0.00    -0.458 OA
BRANCH  23  24
ATOM     24  C   UNL A   1      36.153  29.932  28.998  1.00  0.00     0.338 C 
ATOM     25  O   UNL A   1      35.627  30.458  29.965  1.00  0.00    -0.246 OA
BRANCH  24  26
ATOM     26  C   UNL A   1      37.604  29.728  28.896  1.00  0.00     0.060 A 
ATOM     27  C   UNL A   1      38.143  29.719  27.615  1.00  0.00     0.016 A 
ATOM     28  C   UNL A   1      38.408  29.442  29.995  1.00  0.00     0.016 A 
ATOM     29  C   UNL A   1      39.469  29.379  27.396  1.00  0.00     0.010 A 
ATOM     30  C   UNL A   1      39.763  29.144  29.784  1.00  0.00     0.010 A 
ATOM     31  C   UNL A   1      40.299  29.089  28.481  1.00  0.00    -0.014 A 
BRANCH  31  32
ATOM     32  C   UNL A   1      41.707  28.685  28.231  1.00  0.00     0.031 A 
ATOM     33  C   UNL A   1      42.807  29.708  28.319  1.00  0.00     0.074 A 
ATOM     34  C   UNL A   1      42.002  27.395  27.974  1.00  0.00     0.049 A 
ATOM     35  N   UNL A   1      44.079  29.579  28.040  1.00  0.00    -0.248 NA
ATOM     36  C   UNL A   1      42.427  31.055  28.775  1.00  0.00     0.031 C 
ATOM     37  C   UNL A   1      41.035  26.295  27.936  1.00  0.00     0.029 A 
ATOM     38  N   UNL A   1      43.203  26.788  27.702  1.00  0.00    -0.354 N 
ATOM     39  C   UNL A   1      44.641  30.834  28.243  1.00  0.00     0.074 A 
ATOM     40  C   UNL A   1      43.571  31.714  28.660  1.00  0.00     0.031 C 
ATOM     41  C   UNL A   1      41.683  25.148  27.681  1.00  0.00     0.029 A 
ATOM     42  C   UNL A   1      43.095  25.438  27.460  1.00  0.00     0.049 A 
ATOM     43  H   UNL A   1      44.061  27.272  27.684  1.00  0.00     0.167 HD
ATOM     44  C   UNL A   1      45.932  31.215  28.093  1.00  0.00     0.031 A 
ATOM     45  C   UNL A   1      44.019  24.540  27.064  1.00  0.00     0.031 A 
ATOM     46  C   UNL A   1      46.992  30.325  27.695  1.00  0.00     0.049 A 
ATOM     47  C   UNL A   1      45.430  25.006  26.833  1.00  0.00     0.074 A 
ATOM     48  C   UNL A   1      48.336  30.610  27.523  1.00  0.00     0.029 A 
ATOM     49  N   UNL A   1      46.830  28.977  27.409  1.00  0.00    -0.354 N 
ATOM     50  N   UNL A   1      45.942  26.202  27.006  1.00  0.00    -0.248 NA
ATOM     51  C   UNL A   1      46.387  24.004  26.348  1.00  0.00     0.031 C 
ATOM     52  C   UNL A   1      48.974  29.450  27.074  1.00  0.00     0.029 A 
ATOM     53  C   UNL A   1      48.044  28.424  27.034  1.00  0.00     0.049 A 
ATOM     54  H   UNL A   1      45.979  28.486  27.463  1.00  0.00     0.167 HD
ATOM     55  C   UNL A   1      47.287  26.088  26.676  1.00  0.00     0.074 A 
ATOM     56  C   UNL A   1      47.512  24.704  26.310  1.00  0.00     0.031 C 
ATOM     57  C   UNL A   1      48.251  27.043  26.675  1.00  0.00     0.031 A 
BRANCH  44  58
ATOM     58  C   UNL A   1      46.264  32.670  28.307  1.00  0.00    -0.014 A 
ATOM     59  C   UNL A   1      46.261  33.594  27.248  1.00  0.00     0.010 A 
ATOM     60  C   UNL A   1      46.544  33.127  29.610  1.00  0.00     0.010 A 
ATOM     61  C   UNL A   1      46.568  34.939  27.480  1.00  0.00     0.020 A 
ATOM     62  C   UNL A   1      46.822  34.475  29.850  1.00  0.00     0.020 A 
ATOM     63  C   UNL A   1      46.848  35.370  28.780  1.00  0.00     0.054 A 
BRANCH  63  64
ATOM     64  S   UNL A   1      47.218  37.124  29.056  1.00  0.00     0.124 S 
ATOM     65  O   UNL A   1      47.906  37.484  27.819  1.00  0.00    -0.237 OA
ATOM     66  O   UNL A   1      45.891  37.708  29.230  1.00  0.00    -0.237 OA
ATOM     67  O   UNL A   1      48.055  37.119  30.254  1.00  0.00    -0.744 OA
ENDBRANCH  63  64
ENDBRANCH  44  58
BRANCH  45  68
ATOM     68  C   UNL A   1      43.627  23.125  26.815  1.00  0.00    -0.014 A 
ATOM     69  C   UNL A   1      43.897  22.511  25.579  1.00  0.00     0.010 A 
ATOM     70  C   UNL A   1      42.981  22.378  27.819  1.00  0.00     0.010 A 
ATOM     71  C   UNL A   1      43.510  21.187  25.345  1.00  0.00     0.020 A 
ATOM     72  C   UNL A   1      42.623  21.045  27.602  1.00  0.00     0.020 A 
ATOM     73  C   UNL A   1      42.878  20.461  26.360  1.00  0.00     0.054 A 
BRANCH  73  74
ATOM     74  S   UNL A   1      42.424  18.733  26.050  1.00  0.00     0.124 S 
ATOM     75  O   UNL A   1      41.010  18.848  25.707  1.00  0.00    -0.237 OA
ATOM     76  O   UNL A   1      43.314  18.365  24.952  1.00  0.00    -0.237 OA
ATOM     77  O   UNL A   1      42.707  18.070  27.321  1.00  0.00    -0.744 OA
ENDBRANCH  73  74
ENDBRANCH  45  68
BRANCH  57  78
ATOM     78  C   UNL A   1      49.647  26.616  26.311  1.00  0.00    -0.014 A 
ATOM     79  C   UNL A   1      50.164  26.823  25.019  1.00  0.00     0.010 A 
ATOM     80  C   UNL A   1      50.473  26.045  27.296  1.00  0.00     0.010 A 
ATOM     81  C   UNL A   1      51.470  26.435  24.711  1.00  0.00     0.020 A 
ATOM     82  C   UNL A   1      51.790  25.685  27.001  1.00  0.00     0.020 A 
ATOM     83  C   UNL A   1      52.276  25.869  25.705  1.00  0.00     0.054 A 
BRANCH  83  84
ATOM     84  S   UNL A   1      53.983  25.417  25.291  1.00  0.00     0.124 S 
ATOM     85  O   UNL A   1      54.006  23.993  25.613  1.00  0.00    -0.237 OA
ATOM     86  O   UNL A   1      54.064  25.742  23.870  1.00  0.00    -0.237 OA
ATOM     87  O   UNL A   1      54.788  26.266  26.166  1.00  0.00    -0.744 OA
ENDBRANCH  83  84
ENDBRANCH  57  78
ENDBRANCH  31  32
ENDBRANCH  24  26
ENDBRANCH  23  24
ENDBRANCH   1  23
TORSDOF 16
ENDMDL
