MODEL 1
REMARK VINA RESULT:      -9.8      0.000      0.000
REMARK SMILES Cc1ccc(-n2nc(C(=O)OCCOC(=O)c3ccc(-c4c5nc(c(-c6ccc(S(=O)(=O)[O-])cc6)c6ccc([nH]6)c(-c6ccc(S(=O)(=O)[O-])cc6)c6nc(c(-c7ccc(S(=O)(=O)[O-])cc7)c7ccc4[nH]7)C=C6)C=C5)cc3)c(C)c(C#N)c2=O)cc1Cl
REMARK SMILES IDX 13 1 12 2 11 3 9 4 10 5 8 6 6 7 7 8 82 9 79 10 83 11 77 12
REMARK SMILES IDX 78 13 5 14 1 15 2 16 3 17 85 18 4 19 84 20 86 21 80 22 81 23
REMARK SMILES IDX 14 24 15 25 16 26 17 27 18 28 76 29 19 30 75 31 20 32 21 33
REMARK SMILES IDX 22 34 69 35 23 36 74 37 68 38 70 39 24 40 73 41 67 42 66 43
REMARK SMILES IDX 25 45 55 46 36 47 54 48 37 49 40 50 53 51 71 52 38 53 39 54
REMARK SMILES IDX 52 56 72 57 41 58 26 59 27 60 35 61 28 62 34 63 29 64 30 65
REMARK SMILES IDX 31 66 32 67 33 68 56 69 57 70 65 71 58 72 64 73 59 74 60 75
REMARK SMILES IDX 61 76 62 77 63 78 42 79 43 80 51 81 44 82 50 83 45 84 46 85
REMARK SMILES IDX 47 86 48 87 49 88
REMARK H PARENT 70 44 40 55
REMARK Flexibility Score: inf
ROOT
ATOM      1  C   UNL A   1      32.738  31.196  26.883  1.00  0.00     0.275 C 
ENDROOT
BRANCH   1   2
ATOM      2  C   UNL A   1      32.639  32.624  27.425  1.00  0.00     0.275 C 
BRANCH   2   3
ATOM      3  O   UNL A   1      33.445  32.753  28.616  1.00  0.00    -0.457 OA
BRANCH   3   4
ATOM      4  C   UNL A   1      34.498  33.587  28.554  1.00  0.00     0.359 C 
ATOM      5  O   UNL A   1      35.178  33.834  27.573  1.00  0.00    -0.244 OA
BRANCH   4   6
ATOM      6  C   UNL A   1      34.802  34.239  29.917  1.00  0.00     0.173 A 
ATOM      7  N   UNL A   1      35.954  34.144  31.898  1.00  0.00    -0.195 N 
ATOM      8  N   UNL A   1      35.773  33.723  30.608  1.00  0.00    -0.157 NA
ATOM      9  C   UNL A   1      35.107  35.033  32.547  1.00  0.00     0.289 A 
ATOM     10  C   UNL A   1      34.098  35.698  31.675  1.00  0.00     0.125 A 
ATOM     11  O   UNL A   1      35.168  35.327  33.739  1.00  0.00    -0.266 OA
ATOM     12  C   UNL A   1      33.926  35.343  30.388  1.00  0.00     0.007 A 
ATOM     13  C   UNL A   1      32.950  35.963  29.434  1.00  0.00     0.049 C 
BRANCH   7  14
ATOM     14  C   UNL A   1      36.978  33.459  32.606  1.00  0.00     0.070 A 
ATOM     15  C   UNL A   1      40.231  31.368  34.563  1.00  0.00     0.046 C 
ATOM     16  C   UNL A   1      39.093  32.078  33.879  1.00  0.00    -0.032 A 
ATOM     17  C   UNL A   1      39.131  33.471  33.735  1.00  0.00     0.007 A 
ATOM     18  C   UNL A   1      37.984  31.388  33.366  1.00  0.00     0.046 A 
ATOM     19  C   UNL A   1      38.098  34.150  33.079  1.00  0.00     0.029 A 
ATOM     20  C   UNL A   1      36.913  32.073  32.773  1.00  0.00     0.049 A 
ATOM     21  Cl  UNL A   1      37.935  29.666  33.369  1.00  0.00    -0.084 Cl
ENDBRANCH   7  14
BRANCH  10  22
ATOM     22  C   UNL A   1      33.326  36.734  32.271  1.00  0.00     0.105 C 
ATOM     23  N   UNL A   1      32.768  37.626  32.757  1.00  0.00    -0.192 NA
ENDBRANCH  10  22
ENDBRANCH   4   6
ENDBRANCH   3   4
ENDBRANCH   2   3
ENDBRANCH   1   2
BRANCH   1  24
ATOM     24  O   UNL A   1      34.107  30.757  26.869  1.00  0.00    -0.458 OA
BRANCH  24  25
ATOM     25  C   UNL A   1      34.342  29.636  27.589  1.00  0.00     0.338 C 
ATOM     26  O   UNL A   1      33.610  28.668  27.717  1.00  0.00    -0.246 OA
BRANCH  25  27
ATOM     27  C   UNL A   1      35.721  29.660  28.080  1.00  0.00     0.060 A 
ATOM     28  C   UNL A   1      36.732  29.870  27.149  1.00  0.00     0.016 A 
ATOM     29  C   UNL A   1      36.028  29.351  29.401  1.00  0.00     0.016 A 
ATOM     30  C   UNL A   1      38.054  29.649  27.493  1.00  0.00     0.010 A 
ATOM     31  C   UNL A   1      37.370  29.227  29.772  1.00  0.00     0.010 A 
ATOM     32  C   UNL A   1      38.392  29.327  28.810  1.00  0.00    -0.014 A 
BRANCH  32  33
ATOM     33  C   UNL A   1      39.814  29.059  29.145  1.00  0.00     0.031 A 
ATOM     34  C   UNL A   1      40.633  30.111  29.844  1.00  0.00     0.074 A 
ATOM     35  C   UNL A   1      40.345  27.850  28.878  1.00  0.00     0.049 A 
ATOM     36  N   UNL A   1      41.893  30.074  30.194  1.00  0.00    -0.248 NA
ATOM     37  C   UNL A   1      39.949  31.365  30.204  1.00  0.00     0.031 C 
ATOM     38  C   UNL A   1      39.631  26.728  28.260  1.00  0.00     0.029 A 
ATOM     39  N   UNL A   1      41.603  27.352  29.106  1.00  0.00    -0.354 N 
ATOM     40  C   UNL A   1      42.148  31.292  30.816  1.00  0.00     0.074 A 
ATOM     41  C   UNL A   1      40.929  32.065  30.756  1.00  0.00     0.031 C 
ATOM     42  C   UNL A   1      40.449  25.668  28.191  1.00  0.00     0.029 A 
ATOM     43  C   UNL A   1      41.767  26.056  28.677  1.00  0.00     0.049 A 
ATOM     44  H   UNL A   1      42.319  27.873  29.535  1.00  0.00     0.167 HD
ATOM     45  C   UNL A   1      43.293  31.720  31.398  1.00  0.00     0.031 A 
ATOM     46  C   UNL A   1      42.863  25.274  28.642  1.00  0.00     0.031 A 
ATOM     47  C   UNL A   1      44.509  30.951  31.433  1.00  0.00     0.049 A 
ATOM     48  C   UNL A   1      44.159  25.827  29.157  1.00  0.00     0.074 A 
ATOM     49  C   UNL A   1      45.733  31.305  31.970  1.00  0.00     0.029 A 
ATOM     50  N   UNL A   1      44.655  29.678  30.901  1.00  0.00    -0.354 N 
ATOM     51  N   UNL A   1      44.388  26.986  29.727  1.00  0.00    -0.248 NA
ATOM     52  C   UNL A   1      45.345  24.974  29.019  1.00  0.00     0.031 C 
ATOM     53  C   UNL A   1      46.640  30.278  31.692  1.00  0.00     0.029 A 
ATOM     54  C   UNL A   1      45.962  29.251  31.054  1.00  0.00     0.049 A 
ATOM     55  H   UNL A   1      43.935  29.157  30.477  1.00  0.00     0.167 HD
ATOM     56  C   UNL A   1      45.743  26.998  30.029  1.00  0.00     0.074 A 
ATOM     57  C   UNL A   1      46.277  25.721  29.598  1.00  0.00     0.031 C 
ATOM     58  C   UNL A   1      46.479  27.979  30.608  1.00  0.00     0.031 A 
BRANCH  45  59
ATOM     59  C   UNL A   1      43.298  33.103  31.995  1.00  0.00    -0.014 A 
ATOM     60  C   UNL A   1      42.891  33.332  33.322  1.00  0.00     0.010 A 
ATOM     61  C   UNL A   1      43.749  34.190  31.222  1.00  0.00     0.010 A 
ATOM     62  C   UNL A   1      42.903  34.626  33.852  1.00  0.00     0.020 A 
ATOM     63  C   UNL A   1      43.790  35.480  31.757  1.00  0.00     0.020 A 
ATOM     64  C   UNL A   1      43.352  35.692  33.066  1.00  0.00     0.054 A 
BRANCH  64  65
ATOM     65  S   UNL A   1      43.368  37.357  33.784  1.00  0.00     0.124 S 
ATOM     66  O   UNL A   1      43.433  38.201  32.593  1.00  0.00    -0.237 OA
ATOM     67  O   UNL A   1      42.105  37.400  34.517  1.00  0.00    -0.237 OA
ATOM     68  O   UNL A   1      44.568  37.368  34.617  1.00  0.00    -0.744 OA
ENDBRANCH  64  65
ENDBRANCH  45  59
BRANCH  46  69
ATOM     69  C   UNL A   1      42.771  23.906  28.060  1.00  0.00    -0.014 A 
ATOM     70  C   UNL A   1      42.315  22.825  28.833  1.00  0.00     0.010 A 
ATOM     71  C   UNL A   1      43.089  23.688  26.705  1.00  0.00     0.010 A 
ATOM     72  C   UNL A   1      42.174  21.556  28.263  1.00  0.00     0.020 A 
ATOM     73  C   UNL A   1      42.920  22.429  26.123  1.00  0.00     0.020 A 
ATOM     74  C   UNL A   1      42.466  21.370  26.908  1.00  0.00     0.054 A 
BRANCH  74  75
ATOM     75  S   UNL A   1      42.196  19.732  26.175  1.00  0.00     0.124 S 
ATOM     76  O   UNL A   1      43.018  19.797  24.970  1.00  0.00    -0.237 OA
ATOM     77  O   UNL A   1      42.680  18.837  27.223  1.00  0.00    -0.237 OA
ATOM     78  O   UNL A   1      40.753  19.689  25.946  1.00  0.00    -0.744 OA
ENDBRANCH  74  75
ENDBRANCH  46  69
BRANCH  58  79
ATOM     79  C   UNL A   1      47.944  27.712  30.824  1.00  0.00    -0.014 A 
ATOM     80  C   UNL A   1      48.406  27.110  32.008  1.00  0.00     0.010 A 
ATOM     81  C   UNL A   1      48.861  27.994  29.795  1.00  0.00     0.010 A 
ATOM     82  C   UNL A   1      49.761  26.816  32.167  1.00  0.00     0.020 A 
ATOM     83  C   UNL A   1      50.212  27.671  29.937  1.00  0.00     0.020 A 
ATOM     84  C   UNL A   1      50.655  27.092  31.128  1.00  0.00     0.054 A 
BRANCH  84  85
ATOM     85  S   UNL A   1      52.399  26.647  31.343  1.00  0.00     0.124 S 
ATOM     86  O   UNL A   1      52.984  27.080  30.078  1.00  0.00    -0.237 OA
ATOM     87  O   UNL A   1      52.784  27.429  32.515  1.00  0.00    -0.237 OA
ATOM     88  O   UNL A   1      52.366  25.200  31.550  1.00  0.00    -0.744 OA
ENDBRANCH  84  85
ENDBRANCH  58  79
ENDBRANCH  32  33
ENDBRANCH  25  27
ENDBRANCH  24  25
ENDBRANCH   1  24
TORSDOF 16
ENDMDL
MODEL 2
REMARK VINA RESULT:      -9.8      0.442      8.221
REMARK SMILES Cc1ccc(-n2nc(C(=O)OCCOC(=O)c3ccc(-c4c5nc(c(-c6ccc(S(=O)(=O)[O-])cc6)c6ccc([nH]6)c(-c6ccc(S(=O)(=O)[O-])cc6)c6nc(c(-c7ccc(S(=O)(=O)[O-])cc7)c7ccc4[nH]7)C=C6)C=C5)cc3)c(C)c(C#N)c2=O)cc1Cl
REMARK SMILES IDX 13 1 12 2 11 3 9 4 10 5 8 6 6 7 7 8 82 9 79 10 83 11 77 12
REMARK SMILES IDX 78 13 5 14 1 15 2 16 3 17 85 18 4 19 84 20 86 21 80 22 81 23
REMARK SMILES IDX 14 24 15 25 16 26 17 27 18 28 76 29 19 30 75 31 20 32 21 33
REMARK SMILES IDX 22 34 69 35 23 36 74 37 68 38 70 39 24 40 73 41 67 42 66 43
REMARK SMILES IDX 25 45 55 46 36 47 54 48 37 49 40 50 53 51 71 52 38 53 39 54
REMARK SMILES IDX 52 56 72 57 41 58 26 59 27 60 35 61 28 62 34 63 29 64 30 65
REMARK SMILES IDX 31 66 32 67 33 68 56 69 57 70 65 71 58 72 64 73 59 74 60 75
REMARK SMILES IDX 61 76 62 77 63 78 42 79 43 80 51 81 44 82 50 83 45 84 46 85
REMARK SMILES IDX 47 86 48 87 49 88
REMARK H PARENT 70 44 40 55
REMARK Flexibility Score: inf
ROOT
ATOM      1  C   UNL A   1      32.781  31.157  26.910  1.00  0.00     0.275 C 
ENDROOT
BRANCH   1   2
ATOM      2  C   UNL A   1      32.730  32.558  27.524  1.00  0.00     0.275 C 
BRANCH   2   3
ATOM      3  O   UNL A   1      33.674  32.651  28.613  1.00  0.00    -0.457 OA
BRANCH   3   4
ATOM      4  C   UNL A   1      34.578  33.645  28.555  1.00  0.00     0.359 C 
ATOM      5  O   UNL A   1      35.151  34.055  27.561  1.00  0.00    -0.244 OA
BRANCH   4   6
ATOM      6  C   UNL A   1      34.856  34.255  29.943  1.00  0.00     0.173 A 
ATOM      7  N   UNL A   1      36.039  34.149  31.905  1.00  0.00    -0.195 N 
ATOM      8  N   UNL A   1      35.869  33.774  30.600  1.00  0.00    -0.157 NA
ATOM      9  C   UNL A   1      35.145  34.951  32.603  1.00  0.00     0.289 A 
ATOM     10  C   UNL A   1      34.082  35.585  31.772  1.00  0.00     0.125 A 
ATOM     11  O   UNL A   1      35.202  35.195  33.806  1.00  0.00    -0.266 OA
ATOM     12  C   UNL A   1      33.916  35.276  30.473  1.00  0.00     0.007 A 
ATOM     13  C   UNL A   1      32.888  35.872  29.558  1.00  0.00     0.049 C 
BRANCH   7  14
ATOM     14  C   UNL A   1      37.115  33.503  32.571  1.00  0.00     0.070 A 
ATOM     15  C   UNL A   1      40.517  31.528  34.393  1.00  0.00     0.046 C 
ATOM     16  C   UNL A   1      39.327  32.198  33.757  1.00  0.00    -0.032 A 
ATOM     17  C   UNL A   1      39.328  33.587  33.575  1.00  0.00     0.007 A 
ATOM     18  C   UNL A   1      38.205  31.473  33.325  1.00  0.00     0.046 A 
ATOM     19  C   UNL A   1      38.246  34.228  32.962  1.00  0.00     0.029 A 
ATOM     20  C   UNL A   1      37.089  32.122  32.778  1.00  0.00     0.049 A 
ATOM     21  Cl  UNL A   1      38.192  29.751  33.375  1.00  0.00    -0.084 Cl
ENDBRANCH   7  14
BRANCH  10  22
ATOM     22  C   UNL A   1      33.251  36.541  32.423  1.00  0.00     0.105 C 
ATOM     23  N   UNL A   1      32.627  37.314  33.019  1.00  0.00    -0.192 NA
ENDBRANCH  10  22
ENDBRANCH   4   6
ENDBRANCH   3   4
ENDBRANCH   2   3
ENDBRANCH   1   2
BRANCH   1  24
ATOM     24  O   UNL A   1      34.137  30.681  26.854  1.00  0.00    -0.458 OA
BRANCH  24  25
ATOM     25  C   UNL A   1      34.378  29.590  27.618  1.00  0.00     0.338 C 
ATOM     26  O   UNL A   1      33.656  28.618  27.773  1.00  0.00    -0.246 OA
BRANCH  25  27
ATOM     27  C   UNL A   1      35.750  29.651  28.124  1.00  0.00     0.060 A 
ATOM     28  C   UNL A   1      36.765  29.884  27.203  1.00  0.00     0.016 A 
ATOM     29  C   UNL A   1      36.050  29.353  29.448  1.00  0.00     0.016 A 
ATOM     30  C   UNL A   1      38.089  29.698  27.561  1.00  0.00     0.010 A 
ATOM     31  C   UNL A   1      37.391  29.264  29.835  1.00  0.00     0.010 A 
ATOM     32  C   UNL A   1      38.421  29.388  28.883  1.00  0.00    -0.014 A 
BRANCH  32  33
ATOM     33  C   UNL A   1      39.845  29.157  29.234  1.00  0.00     0.031 A 
ATOM     34  C   UNL A   1      40.495  27.838  28.912  1.00  0.00     0.074 A 
ATOM     35  C   UNL A   1      40.566  30.154  29.783  1.00  0.00     0.049 A 
ATOM     36  N   UNL A   1      41.715  27.438  29.164  1.00  0.00    -0.248 NA
ATOM     37  C   UNL A   1      39.672  26.838  28.209  1.00  0.00     0.031 C 
ATOM     38  C   UNL A   1      40.062  31.498  30.085  1.00  0.00     0.029 A 
ATOM     39  N   UNL A   1      41.881  30.202  30.172  1.00  0.00    -0.354 N 
ATOM     40  C   UNL A   1      41.805  26.149  28.649  1.00  0.00     0.074 A 
ATOM     41  C   UNL A   1      40.507  25.814  28.111  1.00  0.00     0.031 C 
ATOM     42  C   UNL A   1      41.061  32.244  30.576  1.00  0.00     0.029 A 
ATOM     43  C   UNL A   1      42.252  31.413  30.707  1.00  0.00     0.049 A 
ATOM     44  H   UNL A   1      42.499  29.442  30.077  1.00  0.00     0.167 HD
ATOM     45  C   UNL A   1      42.879  25.326  28.615  1.00  0.00     0.031 A 
ATOM     46  C   UNL A   1      43.408  31.805  31.276  1.00  0.00     0.031 A 
ATOM     47  C   UNL A   1      44.162  25.662  29.173  1.00  0.00     0.049 A 
ATOM     48  C   UNL A   1      44.539  30.822  31.361  1.00  0.00     0.074 A 
ATOM     49  C   UNL A   1      45.307  24.888  29.219  1.00  0.00     0.029 A 
ATOM     50  N   UNL A   1      44.465  26.867  29.791  1.00  0.00    -0.354 N 
ATOM     51  N   UNL A   1      44.603  29.603  30.884  1.00  0.00    -0.248 NA
ATOM     52  C   UNL A   1      45.748  31.262  32.066  1.00  0.00     0.031 C 
ATOM     53  C   UNL A   1      46.278  25.595  29.934  1.00  0.00     0.029 A 
ATOM     54  C   UNL A   1      45.766  26.839  30.264  1.00  0.00     0.049 A 
ATOM     55  H   UNL A   1      43.846  27.628  29.880  1.00  0.00     0.167 HD
ATOM     56  C   UNL A   1      45.866  29.131  31.218  1.00  0.00     0.074 A 
ATOM     57  C   UNL A   1      46.539  30.207  31.919  1.00  0.00     0.031 C 
ATOM     58  C   UNL A   1      46.416  27.917  30.970  1.00  0.00     0.031 A 
BRANCH  45  59
ATOM     59  C   UNL A   1      42.695  23.963  28.000  1.00  0.00    -0.014 A 
ATOM     60  C   UNL A   1      42.930  23.737  26.631  1.00  0.00     0.010 A 
ATOM     61  C   UNL A   1      42.310  22.883  28.814  1.00  0.00     0.010 A 
ATOM     62  C   UNL A   1      42.751  22.463  26.084  1.00  0.00     0.020 A 
ATOM     63  C   UNL A   1      42.157  21.602  28.278  1.00  0.00     0.020 A 
ATOM     64  C   UNL A   1      42.364  21.403  26.911  1.00  0.00     0.054 A 
BRANCH  64  65
ATOM     65  S   UNL A   1      42.150  19.759  26.176  1.00  0.00     0.124 S 
ATOM     66  O   UNL A   1      40.717  19.736  25.894  1.00  0.00    -0.237 OA
ATOM     67  O   UNL A   1      43.021  19.818  25.004  1.00  0.00    -0.237 OA
ATOM     68  O   UNL A   1      42.588  18.845  27.229  1.00  0.00    -0.744 OA
ENDBRANCH  64  65
ENDBRANCH  45  59
BRANCH  46  69
ATOM     69  C   UNL A   1      43.521  33.180  31.838  1.00  0.00    -0.014 A 
ATOM     70  C   UNL A   1      43.966  34.248  31.041  1.00  0.00     0.010 A 
ATOM     71  C   UNL A   1      43.129  33.439  33.166  1.00  0.00     0.010 A 
ATOM     72  C   UNL A   1      44.012  35.546  31.557  1.00  0.00     0.020 A 
ATOM     73  C   UNL A   1      43.143  34.739  33.677  1.00  0.00     0.020 A 
ATOM     74  C   UNL A   1      43.588  35.785  32.869  1.00  0.00     0.054 A 
BRANCH  74  75
ATOM     75  S   UNL A   1      43.582  37.491  33.487  1.00  0.00     0.124 S 
ATOM     76  O   UNL A   1      42.343  37.532  34.258  1.00  0.00    -0.237 OA
ATOM     77  O   UNL A   1      44.815  37.545  34.267  1.00  0.00    -0.237 OA
ATOM     78  O   UNL A   1      43.588  38.299  32.268  1.00  0.00    -0.744 OA
ENDBRANCH  74  75
ENDBRANCH  46  69
BRANCH  58  79
ATOM     79  C   UNL A   1      47.824  27.682  31.448  1.00  0.00    -0.014 A 
ATOM     80  C   UNL A   1      48.076  27.031  32.669  1.00  0.00     0.010 A 
ATOM     81  C   UNL A   1      48.907  28.046  30.627  1.00  0.00     0.010 A 
ATOM     82  C   UNL A   1      49.387  26.769  33.069  1.00  0.00     0.020 A 
ATOM     83  C   UNL A   1      50.218  27.755  31.009  1.00  0.00     0.020 A 
ATOM     84  C   UNL A   1      50.450  27.127  32.233  1.00  0.00     0.054 A 
BRANCH  84  85
ATOM     85  S   UNL A   1      52.138  26.721  32.756  1.00  0.00     0.124 S 
ATOM     86  O   UNL A   1      52.570  27.965  33.387  1.00  0.00    -0.237 OA
ATOM     87  O   UNL A   1      51.928  25.596  33.664  1.00  0.00    -0.237 OA
ATOM     88  O   UNL A   1      52.819  26.388  31.507  1.00  0.00    -0.744 OA
ENDBRANCH  84  85
ENDBRANCH  58  79
ENDBRANCH  32  33
ENDBRANCH  25  27
ENDBRANCH  24  25
ENDBRANCH   1  24
TORSDOF 16
ENDMDL
MODEL 3
REMARK VINA RESULT:      -9.7      3.918      6.661
REMARK SMILES Cc1ccc(-n2nc(C(=O)OCCOC(=O)c3ccc(-c4c5nc(c(-c6ccc(S(=O)(=O)[O-])cc6)c6ccc([nH]6)c(-c6ccc(S(=O)(=O)[O-])cc6)c6nc(c(-c7ccc(S(=O)(=O)[O-])cc7)c7ccc4[nH]7)C=C6)C=C5)cc3)c(C)c(C#N)c2=O)cc1Cl
REMARK SMILES IDX 13 1 12 2 11 3 9 4 10 5 8 6 6 7 7 8 82 9 79 10 83 11 77 12
REMARK SMILES IDX 78 13 5 14 1 15 2 16 3 17 85 18 4 19 84 20 86 21 80 22 81 23
REMARK SMILES IDX 14 24 15 25 16 26 17 27 18 28 76 29 19 30 75 31 20 32 21 33
REMARK SMILES IDX 22 34 69 35 23 36 74 37 68 38 70 39 24 40 73 41 67 42 66 43
REMARK SMILES IDX 25 45 55 46 36 47 54 48 37 49 40 50 53 51 71 52 38 53 39 54
REMARK SMILES IDX 52 56 72 57 41 58 26 59 27 60 35 61 28 62 34 63 29 64 30 65
REMARK SMILES IDX 31 66 32 67 33 68 56 69 57 70 65 71 58 72 64 73 59 74 60 75
REMARK SMILES IDX 61 76 62 77 63 78 42 79 43 80 51 81 44 82 50 83 45 84 46 85
REMARK SMILES IDX 47 86 48 87 49 88
REMARK H PARENT 70 44 40 55
REMARK Flexibility Score: inf
ROOT
ATOM      1  C   UNL A   1      33.316  28.781  25.270  1.00  0.00     0.275 C 
ENDROOT
BRANCH   1   2
ATOM      2  C   UNL A   1      34.009  28.292  23.996  1.00  0.00     0.275 C 
BRANCH   2   3
ATOM      3  O   UNL A   1      33.108  27.460  23.235  1.00  0.00    -0.457 OA
BRANCH   3   4
ATOM      4  C   UNL A   1      33.517  26.208  22.961  1.00  0.00     0.359 C 
ATOM      5  O   UNL A   1      33.815  25.760  21.867  1.00  0.00    -0.244 OA
BRANCH   4   6
ATOM      6  C   UNL A   1      33.569  25.327  24.224  1.00  0.00     0.173 A 
ATOM      7  N   UNL A   1      34.775  23.872  25.524  1.00  0.00    -0.195 N 
ATOM      8  N   UNL A   1      34.721  24.808  24.527  1.00  0.00    -0.157 NA
ATOM      9  C   UNL A   1      33.656  23.377  26.181  1.00  0.00     0.289 A 
ATOM     10  C   UNL A   1      32.383  24.099  25.898  1.00  0.00     0.125 A 
ATOM     11  O   UNL A   1      33.660  22.447  26.985  1.00  0.00    -0.266 OA
ATOM     12  C   UNL A   1      32.305  25.059  24.957  1.00  0.00     0.007 A 
ATOM     13  C   UNL A   1      31.076  25.847  24.614  1.00  0.00     0.049 C 
BRANCH   7  14
ATOM     14  C   UNL A   1      36.056  23.292  25.723  1.00  0.00     0.070 A 
ATOM     15  C   UNL A   1      40.036  21.622  26.121  1.00  0.00     0.046 C 
ATOM     16  C   UNL A   1      38.648  22.186  25.975  1.00  0.00    -0.032 A 
ATOM     17  C   UNL A   1      38.393  23.510  26.359  1.00  0.00     0.007 A 
ATOM     18  C   UNL A   1      37.586  21.431  25.453  1.00  0.00     0.046 A 
ATOM     19  C   UNL A   1      37.118  24.065  26.207  1.00  0.00     0.029 A 
ATOM     20  C   UNL A   1      36.291  21.962  25.368  1.00  0.00     0.049 A 
ATOM     21  Cl  UNL A   1      37.853  19.851  24.819  1.00  0.00    -0.084 Cl
ENDBRANCH   7  14
BRANCH  10  22
ATOM     22  C   UNL A   1      31.252  23.726  26.677  1.00  0.00     0.105 C 
ATOM     23  N   UNL A   1      30.285  23.425  27.241  1.00  0.00    -0.192 NA
ENDBRANCH  10  22
ENDBRANCH   4   6
ENDBRANCH   3   4
ENDBRANCH   2   3
ENDBRANCH   1   2
BRANCH   1  24
ATOM     24  O   UNL A   1      34.221  28.734  26.385  1.00  0.00    -0.458 OA
BRANCH  24  25
ATOM     25  C   UNL A   1      34.317  29.894  27.077  1.00  0.00     0.338 C 
ATOM     26  O   UNL A   1      33.479  30.775  27.169  1.00  0.00    -0.246 OA
BRANCH  25  27
ATOM     27  C   UNL A   1      35.546  29.878  27.873  1.00  0.00     0.060 A 
ATOM     28  C   UNL A   1      36.743  30.132  27.214  1.00  0.00     0.016 A 
ATOM     29  C   UNL A   1      35.540  29.492  29.209  1.00  0.00     0.016 A 
ATOM     30  C   UNL A   1      37.951  29.880  27.841  1.00  0.00     0.010 A 
ATOM     31  C   UNL A   1      36.761  29.335  29.873  1.00  0.00     0.010 A 
ATOM     32  C   UNL A   1      37.977  29.481  29.180  1.00  0.00    -0.014 A 
BRANCH  32  33
ATOM     33  C   UNL A   1      39.284  29.182  29.818  1.00  0.00     0.031 A 
ATOM     34  C   UNL A   1      39.726  29.961  31.028  1.00  0.00     0.074 A 
ATOM     35  C   UNL A   1      40.038  28.169  29.349  1.00  0.00     0.049 A 
ATOM     36  N   UNL A   1      40.841  29.866  31.706  1.00  0.00    -0.248 NA
ATOM     37  C   UNL A   1      38.794  30.977  31.549  1.00  0.00     0.031 C 
ATOM     38  C   UNL A   1      39.686  27.300  28.221  1.00  0.00     0.029 A 
ATOM     39  N   UNL A   1      41.252  27.684  29.769  1.00  0.00    -0.354 N 
ATOM     40  C   UNL A   1      40.742  30.801  32.731  1.00  0.00     0.074 A 
ATOM     41  C   UNL A   1      39.480  31.486  32.562  1.00  0.00     0.031 C 
ATOM     42  C   UNL A   1      40.640  26.373  28.063  1.00  0.00     0.029 A 
ATOM     43  C   UNL A   1      41.712  26.629  29.017  1.00  0.00     0.049 A 
ATOM     44  H   UNL A   1      41.745  28.056  30.535  1.00  0.00     0.167 HD
ATOM     45  C   UNL A   1      41.617  31.053  33.732  1.00  0.00     0.031 A 
ATOM     46  C   UNL A   1      42.881  25.963  29.060  1.00  0.00     0.031 A 
ATOM     47  C   UNL A   1      42.880  30.380  33.879  1.00  0.00     0.049 A 
ATOM     48  C   UNL A   1      43.900  26.363  30.087  1.00  0.00     0.074 A 
ATOM     49  C   UNL A   1      43.854  30.583  34.839  1.00  0.00     0.029 A 
ATOM     50  N   UNL A   1      43.347  29.381  33.036  1.00  0.00    -0.354 N 
ATOM     51  N   UNL A   1      43.798  27.260  31.038  1.00  0.00    -0.248 NA
ATOM     52  C   UNL A   1      45.194  25.671  30.042  1.00  0.00     0.031 C 
ATOM     53  C   UNL A   1      44.943  29.763  34.530  1.00  0.00     0.029 A 
ATOM     54  C   UNL A   1      44.616  28.992  33.426  1.00  0.00     0.049 A 
ATOM     55  H   UNL A   1      42.849  29.007  32.274  1.00  0.00     0.167 HD
ATOM     56  C   UNL A   1      45.009  27.231  31.718  1.00  0.00     0.074 A 
ATOM     57  C   UNL A   1      45.819  26.212  31.079  1.00  0.00     0.031 C 
ATOM     58  C   UNL A   1      45.413  27.982  32.771  1.00  0.00     0.031 A 
BRANCH  45  59
ATOM     59  C   UNL A   1      41.261  32.139  34.713  1.00  0.00    -0.014 A 
ATOM     60  C   UNL A   1      41.581  33.487  34.465  1.00  0.00     0.010 A 
ATOM     61  C   UNL A   1      40.566  31.808  35.891  1.00  0.00     0.010 A 
ATOM     62  C   UNL A   1      41.241  34.477  35.393  1.00  0.00     0.020 A 
ATOM     63  C   UNL A   1      40.199  32.797  36.807  1.00  0.00     0.020 A 
ATOM     64  C   UNL A   1      40.552  34.125  36.559  1.00  0.00     0.054 A 
BRANCH  64  65
ATOM     65  S   UNL A   1      40.114  35.431  37.739  1.00  0.00     0.124 S 
ATOM     66  O   UNL A   1      41.306  35.491  38.582  1.00  0.00    -0.237 OA
ATOM     67  O   UNL A   1      39.899  36.586  36.870  1.00  0.00    -0.237 OA
ATOM     68  O   UNL A   1      38.915  34.919  38.398  1.00  0.00    -0.744 OA
ENDBRANCH  64  65
ENDBRANCH  45  59
BRANCH  46  69
ATOM     69  C   UNL A   1      43.149  24.882  28.071  1.00  0.00    -0.014 A 
ATOM     70  C   UNL A   1      43.692  25.179  26.811  1.00  0.00     0.010 A 
ATOM     71  C   UNL A   1      42.910  23.535  28.410  1.00  0.00     0.010 A 
ATOM     72  C   UNL A   1      43.998  24.153  25.911  1.00  0.00     0.020 A 
ATOM     73  C   UNL A   1      43.243  22.504  27.527  1.00  0.00     0.020 A 
ATOM     74  C   UNL A   1      43.782  22.821  26.280  1.00  0.00     0.054 A 
BRANCH  74  75
ATOM     75  S   UNL A   1      44.262  21.507  25.125  1.00  0.00     0.124 S 
ATOM     76  O   UNL A   1      44.162  22.182  23.835  1.00  0.00    -0.237 OA
ATOM     77  O   UNL A   1      45.616  21.183  25.567  1.00  0.00    -0.237 OA
ATOM     78  O   UNL A   1      43.270  20.459  25.363  1.00  0.00    -0.744 OA
ENDBRANCH  74  75
ENDBRANCH  46  69
BRANCH  58  79
ATOM     79  C   UNL A   1      46.794  27.728  33.316  1.00  0.00    -0.014 A 
ATOM     80  C   UNL A   1      47.900  28.468  32.862  1.00  0.00     0.010 A 
ATOM     81  C   UNL A   1      46.971  26.794  34.353  1.00  0.00     0.010 A 
ATOM     82  C   UNL A   1      49.163  28.260  33.419  1.00  0.00     0.020 A 
ATOM     83  C   UNL A   1      48.226  26.608  34.936  1.00  0.00     0.020 A 
ATOM     84  C   UNL A   1      49.316  27.336  34.458  1.00  0.00     0.054 A 
BRANCH  84  85
ATOM     85  S   UNL A   1      50.958  27.131  35.199  1.00  0.00     0.124 S 
ATOM     86  O   UNL A   1      51.829  27.172  34.028  1.00  0.00    -0.237 OA
ATOM     87  O   UNL A   1      51.050  28.283  36.092  1.00  0.00    -0.237 OA
ATOM     88  O   UNL A   1      50.878  25.834  35.870  1.00  0.00    -0.744 OA
ENDBRANCH  84  85
ENDBRANCH  58  79
ENDBRANCH  32  33
ENDBRANCH  25  27
ENDBRANCH  24  25
ENDBRANCH   1  24
TORSDOF 16
ENDMDL
