MODEL 1
REMARK VINA RESULT:     -11.3      0.000      0.000
REMARK SMILES C[C@@H]1CN(c2cc(C(=O)OCCOC(=O)c3ccc(-c4c5nc(c(-c6ccc(S(=O)(=O)[O-])cc6)c6ccc([nH]6)c(-c6ccc(S(=O)(=O)[O-])cc6)c6nc(c(-c7ccc(S(=O)(=O)[O-])cc7)c7ccc4[nH]7)C=C6)C=C5)cc3)c(F)cc2F)S(=O)(=O)C1
REMARK SMILES IDX 12 1 11 2 10 3 8 4 9 5 7 6 5 7 6 8 79 9 78 10 80 11 76 12
REMARK SMILES IDX 77 13 4 14 1 15 2 16 3 17 84 18 81 19 82 20 83 21 13 22
REMARK SMILES IDX 14 23 15 24 16 25 17 26 75 27 18 28 74 29 19 30 20 31 21 32
REMARK SMILES IDX 68 33 22 34 73 35 67 36 69 37 23 38 72 39 66 40 65 41 24 43
REMARK SMILES IDX 54 44 35 45 53 46 36 47 39 48 52 49 70 50 37 51 38 52 51 54
REMARK SMILES IDX 71 55 40 56 25 57 26 58 34 59 27 60 33 61 28 62 29 63 30 64
REMARK SMILES IDX 31 65 32 66 55 67 56 68 64 69 57 70 63 71 58 72 59 73 60 74
REMARK SMILES IDX 61 75 62 76 41 77 42 78 50 79 43 80 49 81 44 82 45 83 46 84
REMARK SMILES IDX 47 85 48 86
REMARK H PARENT 69 42 39 53
REMARK Flexibility Score: inf
ROOT
ATOM      1  C   UNL A   1      34.098  31.346  27.957  1.00  0.00     0.275 C 
ENDROOT
BRANCH   1   2
ATOM      2  C   UNL A   1      33.207  30.369  27.187  1.00  0.00     0.275 C 
BRANCH   2   3
ATOM      3  O   UNL A   1      33.955  29.223  26.726  1.00  0.00    -0.458 OA
BRANCH   3   4
ATOM      4  C   UNL A   1      33.506  28.613  25.600  1.00  0.00     0.341 C 
ATOM      5  O   UNL A   1      33.422  29.113  24.492  1.00  0.00    -0.246 OA
BRANCH   4   6
ATOM      6  C   UNL A   1      33.224  27.183  25.852  1.00  0.00     0.098 A 
ATOM      7  C   UNL A   1      33.917  24.855  25.735  1.00  0.00     0.088 A 
ATOM      8  C   UNL A   1      34.163  26.204  25.475  1.00  0.00     0.048 A 
ATOM      9  C   UNL A   1      32.684  24.486  26.279  1.00  0.00     0.150 A 
ATOM     10  C   UNL A   1      31.726  25.443  26.607  1.00  0.00     0.081 A 
ATOM     11  F   UNL A   1      32.401  23.194  26.497  1.00  0.00    -0.205 F 
ATOM     12  C   UNL A   1      32.007  26.790  26.405  1.00  0.00     0.140 A 
ATOM     13  F   UNL A   1      31.059  27.690  26.704  1.00  0.00    -0.206 F 
BRANCH   7  14
ATOM     14  N   UNL A   1      34.852  23.835  25.386  1.00  0.00    -0.267 N 
ATOM     15  C   UNL A   1      38.149  22.128  25.626  1.00  0.00     0.011 C 
ATOM     16  C   UNL A   1      37.063  22.918  24.903  1.00  0.00     0.023 C 
ATOM     17  C   UNL A   1      36.255  23.841  25.852  1.00  0.00     0.140 C 
ATOM     18  C   UNL A   1      36.063  21.997  24.195  1.00  0.00     0.165 C 
ATOM     19  S   UNL A   1      34.669  23.058  23.889  1.00  0.00     0.235 S 
ATOM     20  O   UNL A   1      33.436  22.313  23.882  1.00  0.00    -0.206 OA
ATOM     21  O   UNL A   1      35.011  24.010  22.851  1.00  0.00    -0.206 OA
ENDBRANCH   7  14
ENDBRANCH   4   6
ENDBRANCH   3   4
ENDBRANCH   2   3
ENDBRANCH   1   2
BRANCH   1  22
ATOM     22  O   UNL A   1      35.486  31.001  27.797  1.00  0.00    -0.458 OA
BRANCH  22  23
ATOM     23  C   UNL A   1      36.169  30.871  28.953  1.00  0.00     0.338 C 
ATOM     24  O   UNL A   1      35.829  31.233  30.067  1.00  0.00    -0.246 OA
BRANCH  23  25
ATOM     25  C   UNL A   1      37.390  30.088  28.733  1.00  0.00     0.060 A 
ATOM     26  C   UNL A   1      38.155  29.775  29.849  1.00  0.00     0.016 A 
ATOM     27  C   UNL A   1      37.889  29.858  27.456  1.00  0.00     0.016 A 
ATOM     28  C   UNL A   1      39.481  29.388  29.700  1.00  0.00     0.010 A 
ATOM     29  C   UNL A   1      39.176  29.325  27.311  1.00  0.00     0.010 A 
ATOM     30  C   UNL A   1      40.013  29.138  28.429  1.00  0.00    -0.014 A 
BRANCH  30  31
ATOM     31  C   UNL A   1      41.436  28.706  28.281  1.00  0.00     0.031 A 
ATOM     32  C   UNL A   1      42.565  29.692  28.479  1.00  0.00     0.074 A 
ATOM     33  C   UNL A   1      41.730  27.422  27.985  1.00  0.00     0.049 A 
ATOM     34  N   UNL A   1      43.845  29.540  28.252  1.00  0.00    -0.248 NA
ATOM     35  C   UNL A   1      42.207  31.026  28.986  1.00  0.00     0.031 C 
ATOM     36  C   UNL A   1      40.754  26.341  27.817  1.00  0.00     0.029 A 
ATOM     37  N   UNL A   1      42.939  26.799  27.788  1.00  0.00    -0.354 N 
ATOM     38  C   UNL A   1      44.431  30.776  28.507  1.00  0.00     0.074 A 
ATOM     39  C   UNL A   1      43.365  31.668  28.910  1.00  0.00     0.031 C 
ATOM     40  C   UNL A   1      41.400  25.186  27.615  1.00  0.00     0.029 A 
ATOM     41  C   UNL A   1      42.827  25.456  27.509  1.00  0.00     0.049 A 
ATOM     42  H   UNL A   1      43.803  27.269  27.842  1.00  0.00     0.167 HD
ATOM     43  C   UNL A   1      45.735  31.139  28.407  1.00  0.00     0.031 A 
ATOM     44  C   UNL A   1      43.751  24.544  27.154  1.00  0.00     0.031 A 
ATOM     45  C   UNL A   1      46.796  30.236  28.034  1.00  0.00     0.049 A 
ATOM     46  C   UNL A   1      45.177  24.978  26.994  1.00  0.00     0.074 A 
ATOM     47  C   UNL A   1      48.152  30.498  27.935  1.00  0.00     0.029 A 
ATOM     48  N   UNL A   1      46.623  28.901  27.698  1.00  0.00    -0.354 N 
ATOM     49  N   UNL A   1      45.706  26.159  27.208  1.00  0.00    -0.248 NA
ATOM     50  C   UNL A   1      46.129  23.961  26.530  1.00  0.00     0.031 C 
ATOM     51  C   UNL A   1      48.789  29.339  27.477  1.00  0.00     0.029 A 
ATOM     52  C   UNL A   1      47.842  28.334  27.363  1.00  0.00     0.049 A 
ATOM     53  H   UNL A   1      45.761  28.426  27.697  1.00  0.00     0.167 HD
ATOM     54  C   UNL A   1      47.059  26.023  26.921  1.00  0.00     0.074 A 
ATOM     55  C   UNL A   1      47.267  24.640  26.538  1.00  0.00     0.031 C 
ATOM     56  C   UNL A   1      48.038  26.960  26.971  1.00  0.00     0.031 A 
BRANCH  43  57
ATOM     57  C   UNL A   1      46.078  32.592  28.639  1.00  0.00    -0.014 A 
ATOM     58  C   UNL A   1      46.052  33.541  27.601  1.00  0.00     0.010 A 
ATOM     59  C   UNL A   1      46.422  33.016  29.938  1.00  0.00     0.010 A 
ATOM     60  C   UNL A   1      46.428  34.867  27.844  1.00  0.00     0.020 A 
ATOM     61  C   UNL A   1      46.762  34.348  30.192  1.00  0.00     0.020 A 
ATOM     62  C   UNL A   1      46.789  35.259  29.137  1.00  0.00     0.054 A 
BRANCH  62  63
ATOM     63  S   UNL A   1      47.286  36.981  29.419  1.00  0.00     0.124 S 
ATOM     64  O   UNL A   1      48.228  37.203  28.324  1.00  0.00    -0.237 OA
ATOM     65  O   UNL A   1      46.020  37.702  29.312  1.00  0.00    -0.237 OA
ATOM     66  O   UNL A   1      47.879  36.959  30.754  1.00  0.00    -0.744 OA
ENDBRANCH  62  63
ENDBRANCH  43  57
BRANCH  44  67
ATOM     67  C   UNL A   1      43.335  23.138  26.889  1.00  0.00    -0.014 A 
ATOM     68  C   UNL A   1      43.548  22.559  25.626  1.00  0.00     0.010 A 
ATOM     69  C   UNL A   1      42.773  22.353  27.914  1.00  0.00     0.010 A 
ATOM     70  C   UNL A   1      43.212  21.222  25.396  1.00  0.00     0.020 A 
ATOM     71  C   UNL A   1      42.469  21.007  27.698  1.00  0.00     0.020 A 
ATOM     72  C   UNL A   1      42.685  20.451  26.437  1.00  0.00     0.054 A 
BRANCH  72  73
ATOM     73  S   UNL A   1      42.336  18.697  26.135  1.00  0.00     0.124 S 
ATOM     74  O   UNL A   1      42.635  18.101  27.434  1.00  0.00    -0.237 OA
ATOM     75  O   UNL A   1      40.925  18.717  25.759  1.00  0.00    -0.237 OA
ATOM     76  O   UNL A   1      43.257  18.344  25.058  1.00  0.00    -0.744 OA
ENDBRANCH  72  73
ENDBRANCH  44  67
BRANCH  56  77
ATOM     77  C   UNL A   1      49.436  26.509  26.641  1.00  0.00    -0.014 A 
ATOM     78  C   UNL A   1      50.282  25.961  27.621  1.00  0.00     0.010 A 
ATOM     79  C   UNL A   1      49.897  26.607  25.314  1.00  0.00     0.010 A 
ATOM     80  C   UNL A   1      51.577  25.553  27.288  1.00  0.00     0.020 A 
ATOM     81  C   UNL A   1      51.178  26.169  24.971  1.00  0.00     0.020 A 
ATOM     82  C   UNL A   1      52.016  25.659  25.965  1.00  0.00     0.054 A 
BRANCH  82  83
ATOM     83  S   UNL A   1      53.687  25.089  25.552  1.00  0.00     0.124 S 
ATOM     84  O   UNL A   1      54.432  25.426  26.762  1.00  0.00    -0.237 OA
ATOM     85  O   UNL A   1      53.487  23.662  25.313  1.00  0.00    -0.237 OA
ATOM     86  O   UNL A   1      54.037  25.870  24.367  1.00  0.00    -0.744 OA
ENDBRANCH  82  83
ENDBRANCH  56  77
ENDBRANCH  30  31
ENDBRANCH  23  25
ENDBRANCH  22  23
ENDBRANCH   1  22
TORSDOF 15
ENDMDL
MODEL 2
REMARK VINA RESULT:     -11.1      4.150     10.187
REMARK SMILES C[C@@H]1CN(c2cc(C(=O)OCCOC(=O)c3ccc(-c4c5nc(c(-c6ccc(S(=O)(=O)[O-])cc6)c6ccc([nH]6)c(-c6ccc(S(=O)(=O)[O-])cc6)c6nc(c(-c7ccc(S(=O)(=O)[O-])cc7)c7ccc4[nH]7)C=C6)C=C5)cc3)c(F)cc2F)S(=O)(=O)C1
REMARK SMILES IDX 12 1 11 2 10 3 8 4 9 5 7 6 5 7 6 8 79 9 78 10 80 11 76 12
REMARK SMILES IDX 77 13 4 14 1 15 2 16 3 17 84 18 81 19 82 20 83 21 13 22
REMARK SMILES IDX 14 23 15 24 16 25 17 26 75 27 18 28 74 29 19 30 20 31 21 32
REMARK SMILES IDX 68 33 22 34 73 35 67 36 69 37 23 38 72 39 66 40 65 41 24 43
REMARK SMILES IDX 54 44 35 45 53 46 36 47 39 48 52 49 70 50 37 51 38 52 51 54
REMARK SMILES IDX 71 55 40 56 25 57 26 58 34 59 27 60 33 61 28 62 29 63 30 64
REMARK SMILES IDX 31 65 32 66 55 67 56 68 64 69 57 70 63 71 58 72 59 73 60 74
REMARK SMILES IDX 61 75 62 76 41 77 42 78 50 79 43 80 49 81 44 82 45 83 46 84
REMARK SMILES IDX 47 85 48 86
REMARK H PARENT 69 42 39 53
REMARK Flexibility Score: inf
ROOT
ATOM      1  C   UNL A   1      36.037  23.236  26.204  1.00  0.00     0.275 C 
ENDROOT
BRANCH   1   2
ATOM      2  C   UNL A   1      35.314  22.362  25.178  1.00  0.00     0.275 C 
BRANCH   2   3
ATOM      3  O   UNL A   1      34.787  23.152  24.090  1.00  0.00    -0.458 OA
BRANCH   3   4
ATOM      4  C   UNL A   1      33.524  23.627  24.235  1.00  0.00     0.341 C 
ATOM      5  O   UNL A   1      32.590  23.049  24.764  1.00  0.00    -0.246 OA
BRANCH   4   6
ATOM      6  C   UNL A   1      33.429  25.025  23.763  1.00  0.00     0.098 A 
ATOM      7  C   UNL A   1      33.288  27.403  24.256  1.00  0.00     0.088 A 
ATOM      8  C   UNL A   1      33.349  26.079  24.694  1.00  0.00     0.048 A 
ATOM      9  C   UNL A   1      33.205  27.657  22.884  1.00  0.00     0.150 A 
ATOM     10  C   UNL A   1      33.230  26.619  21.956  1.00  0.00     0.081 A 
ATOM     11  F   UNL A   1      33.099  28.916  22.436  1.00  0.00    -0.205 F 
ATOM     12  C   UNL A   1      33.357  25.307  22.400  1.00  0.00     0.140 A 
ATOM     13  F   UNL A   1      33.354  24.323  21.489  1.00  0.00    -0.206 F 
BRANCH   7  14
ATOM     14  N   UNL A   1      33.225  28.498  25.167  1.00  0.00    -0.267 N 
ATOM     15  C   UNL A   1      34.675  30.781  27.722  1.00  0.00     0.011 C 
ATOM     16  C   UNL A   1      33.717  29.699  27.237  1.00  0.00     0.023 C 
ATOM     17  C   UNL A   1      34.319  28.821  26.108  1.00  0.00     0.140 C 
ATOM     18  C   UNL A   1      32.406  30.292  26.708  1.00  0.00     0.165 C 
ATOM     19  S   UNL A   1      31.704  28.963  25.758  1.00  0.00     0.235 S 
ATOM     20  O   UNL A   1      30.900  29.464  24.672  1.00  0.00    -0.206 OA
ATOM     21  O   UNL A   1      31.240  27.925  26.656  1.00  0.00    -0.206 OA
ENDBRANCH   7  14
ENDBRANCH   4   6
ENDBRANCH   3   4
ENDBRANCH   2   3
ENDBRANCH   1   2
BRANCH   1  22
ATOM     22  O   UNL A   1      37.228  23.809  25.633  1.00  0.00    -0.458 OA
BRANCH  22  23
ATOM     23  C   UNL A   1      38.381  23.271  26.080  1.00  0.00     0.338 C 
ATOM     24  O   UNL A   1      38.792  22.135  25.907  1.00  0.00    -0.246 OA
BRANCH  23  25
ATOM     25  C   UNL A   1      39.199  24.299  26.733  1.00  0.00     0.060 A 
ATOM     26  C   UNL A   1      39.011  24.490  28.096  1.00  0.00     0.016 A 
ATOM     27  C   UNL A   1      39.962  25.199  25.999  1.00  0.00     0.016 A 
ATOM     28  C   UNL A   1      39.441  25.663  28.701  1.00  0.00     0.010 A 
ATOM     29  C   UNL A   1      40.522  26.308  26.647  1.00  0.00     0.010 A 
ATOM     30  C   UNL A   1      40.221  26.588  27.994  1.00  0.00    -0.014 A 
BRANCH  30  31
ATOM     31  C   UNL A   1      40.692  27.839  28.661  1.00  0.00     0.031 A 
ATOM     32  C   UNL A   1      42.123  27.969  29.132  1.00  0.00     0.074 A 
ATOM     33  C   UNL A   1      39.847  28.878  28.834  1.00  0.00     0.049 A 
ATOM     34  N   UNL A   1      42.673  28.912  29.855  1.00  0.00    -0.248 NA
ATOM     35  C   UNL A   1      43.053  26.895  28.752  1.00  0.00     0.031 C 
ATOM     36  C   UNL A   1      38.452  28.925  28.387  1.00  0.00     0.029 A 
ATOM     37  N   UNL A   1      40.039  30.105  29.422  1.00  0.00    -0.354 N 
ATOM     38  C   UNL A   1      43.984  28.505  30.085  1.00  0.00     0.074 A 
ATOM     39  C   UNL A   1      44.147  27.230  29.421  1.00  0.00     0.031 C 
ATOM     40  C   UNL A   1      37.941  30.135  28.649  1.00  0.00     0.029 A 
ATOM     41  C   UNL A   1      38.921  30.908  29.397  1.00  0.00     0.049 A 
ATOM     42  H   UNL A   1      40.895  30.384  29.821  1.00  0.00     0.167 HD
ATOM     43  C   UNL A   1      44.959  29.130  30.791  1.00  0.00     0.031 A 
ATOM     44  C   UNL A   1      38.680  32.109  29.955  1.00  0.00     0.031 A 
ATOM     45  C   UNL A   1      44.797  30.415  31.425  1.00  0.00     0.049 A 
ATOM     46  C   UNL A   1      39.753  32.758  30.778  1.00  0.00     0.074 A 
ATOM     47  C   UNL A   1      45.733  31.148  32.135  1.00  0.00     0.029 A 
ATOM     48  N   UNL A   1      43.626  31.160  31.426  1.00  0.00    -0.354 N 
ATOM     49  N   UNL A   1      40.974  32.341  31.012  1.00  0.00    -0.248 NA
ATOM     50  C   UNL A   1      39.409  34.029  31.426  1.00  0.00     0.031 C 
ATOM     51  C   UNL A   1      45.110  32.303  32.621  1.00  0.00     0.029 A 
ATOM     52  C   UNL A   1      43.807  32.328  32.150  1.00  0.00     0.049 A 
ATOM     53  H   UNL A   1      42.790  30.897  30.979  1.00  0.00     0.167 HD
ATOM     54  C   UNL A   1      41.553  33.311  31.821  1.00  0.00     0.074 A 
ATOM     55  C   UNL A   1      40.553  34.341  32.020  1.00  0.00     0.031 C 
ATOM     56  C   UNL A   1      42.801  33.342  32.352  1.00  0.00     0.031 A 
BRANCH  43  57
ATOM     57  C   UNL A   1      46.270  28.400  30.975  1.00  0.00    -0.014 A 
ATOM     58  C   UNL A   1      46.477  27.490  32.027  1.00  0.00     0.010 A 
ATOM     59  C   UNL A   1      47.314  28.626  30.057  1.00  0.00     0.010 A 
ATOM     60  C   UNL A   1      47.722  26.874  32.195  1.00  0.00     0.020 A 
ATOM     61  C   UNL A   1      48.547  27.984  30.200  1.00  0.00     0.020 A 
ATOM     62  C   UNL A   1      48.752  27.132  31.285  1.00  0.00     0.054 A 
BRANCH  62  63
ATOM     63  S   UNL A   1      50.360  26.330  31.537  1.00  0.00     0.124 S 
ATOM     64  O   UNL A   1      50.126  25.006  30.963  1.00  0.00    -0.237 OA
ATOM     65  O   UNL A   1      51.267  27.189  30.781  1.00  0.00    -0.237 OA
ATOM     66  O   UNL A   1      50.540  26.356  32.986  1.00  0.00    -0.744 OA
ENDBRANCH  62  63
ENDBRANCH  43  57
BRANCH  44  67
ATOM     67  C   UNL A   1      37.346  32.749  29.778  1.00  0.00    -0.014 A 
ATOM     68  C   UNL A   1      36.349  32.596  30.755  1.00  0.00     0.010 A 
ATOM     69  C   UNL A   1      37.085  33.560  28.656  1.00  0.00     0.010 A 
ATOM     70  C   UNL A   1      35.119  33.247  30.617  1.00  0.00     0.020 A 
ATOM     71  C   UNL A   1      35.871  34.238  28.532  1.00  0.00     0.020 A 
ATOM     72  C   UNL A   1      34.891  34.072  29.512  1.00  0.00     0.054 A 
BRANCH  72  73
ATOM     73  S   UNL A   1      33.320  34.969  29.399  1.00  0.00     0.124 S 
ATOM     74  O   UNL A   1      33.761  36.307  29.018  1.00  0.00    -0.237 OA
ATOM     75  O   UNL A   1      32.604  34.222  28.368  1.00  0.00    -0.237 OA
ATOM     76  O   UNL A   1      32.761  34.853  30.744  1.00  0.00    -0.744 OA
ENDBRANCH  72  73
ENDBRANCH  44  67
BRANCH  56  77
ATOM     77  C   UNL A   1      43.170  34.553  33.167  1.00  0.00    -0.014 A 
ATOM     78  C   UNL A   1      43.052  34.559  34.568  1.00  0.00     0.010 A 
ATOM     79  C   UNL A   1      43.676  35.694  32.517  1.00  0.00     0.010 A 
ATOM     80  C   UNL A   1      43.399  35.698  35.301  1.00  0.00     0.020 A 
ATOM     81  C   UNL A   1      44.055  36.822  33.249  1.00  0.00     0.020 A 
ATOM     82  C   UNL A   1      43.899  36.822  34.636  1.00  0.00     0.054 A 
BRANCH  82  83
ATOM     83  S   UNL A   1      44.376  38.272  35.613  1.00  0.00     0.124 S 
ATOM     84  O   UNL A   1      45.830  38.151  35.648  1.00  0.00    -0.237 OA
ATOM     85  O   UNL A   1      43.855  39.380  34.816  1.00  0.00    -0.237 OA
ATOM     86  O   UNL A   1      43.703  38.063  36.894  1.00  0.00    -0.744 OA
ENDBRANCH  82  83
ENDBRANCH  56  77
ENDBRANCH  30  31
ENDBRANCH  23  25
ENDBRANCH  22  23
ENDBRANCH   1  22
TORSDOF 15
ENDMDL
MODEL 3
REMARK VINA RESULT:     -11.0      6.740     13.005
REMARK SMILES C[C@@H]1CN(c2cc(C(=O)OCCOC(=O)c3ccc(-c4c5nc(c(-c6ccc(S(=O)(=O)[O-])cc6)c6ccc([nH]6)c(-c6ccc(S(=O)(=O)[O-])cc6)c6nc(c(-c7ccc(S(=O)(=O)[O-])cc7)c7ccc4[nH]7)C=C6)C=C5)cc3)c(F)cc2F)S(=O)(=O)C1
REMARK SMILES IDX 12 1 11 2 10 3 8 4 9 5 7 6 5 7 6 8 79 9 78 10 80 11 76 12
REMARK SMILES IDX 77 13 4 14 1 15 2 16 3 17 84 18 81 19 82 20 83 21 13 22
REMARK SMILES IDX 14 23 15 24 16 25 17 26 75 27 18 28 74 29 19 30 20 31 21 32
REMARK SMILES IDX 68 33 22 34 73 35 67 36 69 37 23 38 72 39 66 40 65 41 24 43
REMARK SMILES IDX 54 44 35 45 53 46 36 47 39 48 52 49 70 50 37 51 38 52 51 54
REMARK SMILES IDX 71 55 40 56 25 57 26 58 34 59 27 60 33 61 28 62 29 63 30 64
REMARK SMILES IDX 31 65 32 66 55 67 56 68 64 69 57 70 63 71 58 72 59 73 60 74
REMARK SMILES IDX 61 75 62 76 41 77 42 78 50 79 43 80 49 81 44 82 45 83 46 84
REMARK SMILES IDX 47 85 48 86
REMARK H PARENT 69 42 39 53
REMARK Flexibility Score: inf
ROOT
ATOM      1  C   UNL A   1      39.982  21.697  26.513  1.00  0.00     0.275 C 
ENDROOT
BRANCH   1   2
ATOM      2  C   UNL A   1      40.829  20.475  26.871  1.00  0.00     0.275 C 
BRANCH   2   3
ATOM      3  O   UNL A   1      41.465  19.912  25.702  1.00  0.00    -0.458 OA
BRANCH   3   4
ATOM      4  C   UNL A   1      42.663  19.303  25.892  1.00  0.00     0.341 C 
ATOM      5  O   UNL A   1      42.840  18.154  26.260  1.00  0.00    -0.246 OA
BRANCH   4   6
ATOM      6  C   UNL A   1      43.774  20.187  25.480  1.00  0.00     0.098 A 
ATOM      7  C   UNL A   1      44.869  22.358  25.555  1.00  0.00     0.088 A 
ATOM      8  C   UNL A   1      43.808  21.525  25.917  1.00  0.00     0.048 A 
ATOM      9  C   UNL A   1      45.838  21.871  24.673  1.00  0.00     0.150 A 
ATOM     10  C   UNL A   1      45.785  20.565  24.193  1.00  0.00     0.081 A 
ATOM     11  F   UNL A   1      46.844  22.662  24.273  1.00  0.00    -0.205 F 
ATOM     12  C   UNL A   1      44.760  19.723  24.611  1.00  0.00     0.140 A 
ATOM     13  F   UNL A   1      44.716  18.478  24.115  1.00  0.00    -0.206 F 
BRANCH   7  14
ATOM     14  N   UNL A   1      44.950  23.713  25.993  1.00  0.00    -0.267 N 
ATOM     15  C   UNL A   1      44.800  27.391  25.458  1.00  0.00     0.011 C 
ATOM     16  C   UNL A   1      45.506  26.083  25.796  1.00  0.00     0.023 C 
ATOM     17  C   UNL A   1      44.895  24.860  25.062  1.00  0.00     0.140 C 
ATOM     18  C   UNL A   1      45.467  25.784  27.299  1.00  0.00     0.165 C 
ATOM     19  S   UNL A   1      45.857  24.051  27.387  1.00  0.00     0.235 S 
ATOM     20  O   UNL A   1      45.232  23.432  28.528  1.00  0.00    -0.206 OA
ATOM     21  O   UNL A   1      47.256  23.859  27.064  1.00  0.00    -0.206 OA
ENDBRANCH   7  14
ENDBRANCH   4   6
ENDBRANCH   3   4
ENDBRANCH   2   3
ENDBRANCH   1   2
BRANCH   1  22
ATOM     22  O   UNL A   1      40.261  22.788  27.409  1.00  0.00    -0.458 OA
BRANCH  22  23
ATOM     23  C   UNL A   1      40.929  23.818  26.850  1.00  0.00     0.338 C 
ATOM     24  O   UNL A   1      41.586  23.812  25.821  1.00  0.00    -0.246 OA
BRANCH  23  25
ATOM     25  C   UNL A   1      40.664  25.055  27.592  1.00  0.00     0.060 A 
ATOM     26  C   UNL A   1      41.688  25.990  27.657  1.00  0.00     0.016 A 
ATOM     27  C   UNL A   1      39.533  25.200  28.387  1.00  0.00     0.016 A 
ATOM     28  C   UNL A   1      41.667  26.982  28.629  1.00  0.00     0.010 A 
ATOM     29  C   UNL A   1      39.449  26.290  29.263  1.00  0.00     0.010 A 
ATOM     30  C   UNL A   1      40.540  27.163  29.441  1.00  0.00    -0.014 A 
BRANCH  30  31
ATOM     31  C   UNL A   1      40.522  28.243  30.473  1.00  0.00     0.031 A 
ATOM     32  C   UNL A   1      41.524  28.245  31.604  1.00  0.00     0.074 A 
ATOM     33  C   UNL A   1      39.616  29.242  30.396  1.00  0.00     0.049 A 
ATOM     34  N   UNL A   1      41.572  29.010  32.665  1.00  0.00    -0.248 NA
ATOM     35  C   UNL A   1      42.607  27.251  31.540  1.00  0.00     0.031 C 
ATOM     36  C   UNL A   1      38.618  29.409  29.335  1.00  0.00     0.029 A 
ATOM     37  N   UNL A   1      39.396  30.321  31.219  1.00  0.00    -0.354 N 
ATOM     38  C   UNL A   1      42.633  28.538  33.432  1.00  0.00     0.074 A 
ATOM     39  C   UNL A   1      43.204  27.420  32.711  1.00  0.00     0.031 C 
ATOM     40  C   UNL A   1      37.947  30.550  29.531  1.00  0.00     0.029 A 
ATOM     41  C   UNL A   1      38.371  31.135  30.795  1.00  0.00     0.049 A 
ATOM     42  H   UNL A   1      39.923  30.495  32.032  1.00  0.00     0.167 HD
ATOM     43  C   UNL A   1      43.085  28.986  34.630  1.00  0.00     0.031 A 
ATOM     44  C   UNL A   1      37.790  32.203  31.373  1.00  0.00     0.031 A 
ATOM     45  C   UNL A   1      42.530  30.119  35.328  1.00  0.00     0.049 A 
ATOM     46  C   UNL A   1      38.267  32.649  32.723  1.00  0.00     0.074 A 
ATOM     47  C   UNL A   1      42.937  30.673  36.530  1.00  0.00     0.029 A 
ATOM     48  N   UNL A   1      41.450  30.872  34.889  1.00  0.00    -0.354 N 
ATOM     49  N   UNL A   1      39.249  32.168  33.447  1.00  0.00    -0.248 NA
ATOM     50  C   UNL A   1      37.548  33.769  33.341  1.00  0.00     0.031 C 
ATOM     51  C   UNL A   1      42.063  31.718  36.850  1.00  0.00     0.029 A 
ATOM     52  C   UNL A   1      41.158  31.865  35.811  1.00  0.00     0.049 A 
ATOM     53  H   UNL A   1      40.962  30.723  34.047  1.00  0.00     0.167 HD
ATOM     54  C   UNL A   1      39.279  32.941  34.602  1.00  0.00     0.074 A 
ATOM     55  C   UNL A   1      38.227  33.931  34.468  1.00  0.00     0.031 C 
ATOM     56  C   UNL A   1      40.102  32.838  35.674  1.00  0.00     0.031 A 
BRANCH  43  57
ATOM     57  C   UNL A   1      44.195  28.207  35.297  1.00  0.00    -0.014 A 
ATOM     58  C   UNL A   1      45.552  28.520  35.098  1.00  0.00     0.010 A 
ATOM     59  C   UNL A   1      43.864  27.142  36.157  1.00  0.00     0.010 A 
ATOM     60  C   UNL A   1      46.553  27.743  35.691  1.00  0.00     0.020 A 
ATOM     61  C   UNL A   1      44.861  26.386  36.781  1.00  0.00     0.020 A 
ATOM     62  C   UNL A   1      46.200  26.675  36.522  1.00  0.00     0.054 A 
BRANCH  62  63
ATOM     63  S   UNL A   1      47.519  25.675  37.265  1.00  0.00     0.124 S 
ATOM     64  O   UNL A   1      47.403  26.031  38.679  1.00  0.00    -0.237 OA
ATOM     65  O   UNL A   1      47.117  24.313  36.927  1.00  0.00    -0.237 OA
ATOM     66  O   UNL A   1      48.732  26.149  36.603  1.00  0.00    -0.744 OA
ENDBRANCH  62  63
ENDBRANCH  43  57
BRANCH  44  67
ATOM     67  C   UNL A   1      36.664  32.893  30.683  1.00  0.00    -0.014 A 
ATOM     68  C   UNL A   1      35.333  32.611  31.035  1.00  0.00     0.010 A 
ATOM     69  C   UNL A   1      36.919  33.877  29.708  1.00  0.00     0.010 A 
ATOM     70  C   UNL A   1      34.280  33.303  30.430  1.00  0.00     0.020 A 
ATOM     71  C   UNL A   1      35.871  34.594  29.127  1.00  0.00     0.020 A 
ATOM     72  C   UNL A   1      34.556  34.298  29.487  1.00  0.00     0.054 A 
BRANCH  72  73
ATOM     73  S   UNL A   1      33.176  35.237  28.779  1.00  0.00     0.124 S 
ATOM     74  O   UNL A   1      32.477  35.697  29.975  1.00  0.00    -0.237 OA
ATOM     75  O   UNL A   1      33.861  36.271  28.009  1.00  0.00    -0.237 OA
ATOM     76  O   UNL A   1      32.461  34.245  27.979  1.00  0.00    -0.744 OA
ENDBRANCH  72  73
ENDBRANCH  44  67
BRANCH  56  77
ATOM     77  C   UNL A   1      39.925  33.851  36.775  1.00  0.00    -0.014 A 
ATOM     78  C   UNL A   1      40.493  35.134  36.689  1.00  0.00     0.010 A 
ATOM     79  C   UNL A   1      39.146  33.519  37.898  1.00  0.00     0.010 A 
ATOM     80  C   UNL A   1      40.315  36.055  37.727  1.00  0.00     0.020 A 
ATOM     81  C   UNL A   1      38.938  34.448  38.921  1.00  0.00     0.020 A 
ATOM     82  C   UNL A   1      39.538  35.706  38.835  1.00  0.00     0.054 A 
BRANCH  82  83
ATOM     83  S   UNL A   1      39.293  36.931  40.149  1.00  0.00     0.124 S 
ATOM     84  O   UNL A   1      38.377  36.234  41.048  1.00  0.00    -0.237 OA
ATOM     85  O   UNL A   1      40.647  37.128  40.659  1.00  0.00    -0.237 OA
ATOM     86  O   UNL A   1      38.723  38.080  39.449  1.00  0.00    -0.744 OA
ENDBRANCH  82  83
ENDBRANCH  56  77
ENDBRANCH  30  31
ENDBRANCH  23  25
ENDBRANCH  22  23
ENDBRANCH   1  22
TORSDOF 15
ENDMDL
