MODEL 1
REMARK VINA RESULT:     -11.6      0.000      0.000
REMARK SMILES Cc1cc(C(=O)N[C@@H]2C(=O)N3C(C(=O)OCCOC(=O)c4ccc(-c5c6nc(c(-c7ccc(S(=O)(=O)[O-])cc7)c7ccc([nH]7)c(-c7ccc(S(=O)(=O)[O-])cc7)c7nc(c(-c8ccc(S(=O)(=O)[O-])cc8)c8ccc5[nH]8)C=C7)C=C6)cc4)=C(CSc4nnc(C)s4)CS[C@H]23)n(C)n1
REMARK SMILES IDX 16 1 15 2 13 3 14 4 12 5 8 6 9 7 92 8 10 9 11 10 91 11 90 12
REMARK SMILES IDX 81 13 7 14 5 15 6 16 4 18 1 19 2 20 3 21 95 22 93 23 94 24
REMARK SMILES IDX 82 25 83 26 84 27 85 28 89 29 86 30 87 31 88 32 17 33 18 34
REMARK SMILES IDX 19 35 20 36 21 37 22 38 80 39 23 40 79 41 24 42 25 43 26 44
REMARK SMILES IDX 73 45 27 46 78 47 72 48 74 49 28 50 77 51 71 52 70 53 29 55
REMARK SMILES IDX 59 56 40 57 58 58 41 59 44 60 57 61 75 62 42 63 43 64 56 66
REMARK SMILES IDX 76 67 45 68 30 69 31 70 39 71 32 72 38 73 33 74 34 75 35 76
REMARK SMILES IDX 36 77 37 78 60 79 61 80 69 81 62 82 68 83 63 84 64 85 65 86
REMARK SMILES IDX 66 87 67 88 46 89 47 90 55 91 48 92 54 93 49 94 50 95 51 96
REMARK SMILES IDX 52 97 53 98
REMARK H PARENT 7 17 74 54 44 65
REMARK Flexibility Score: inf
ROOT
ATOM      1  C   UNL A   1      36.297  21.345  25.214  1.00  0.00     0.275 C 
ENDROOT
BRANCH   1   2
ATOM      2  O   UNL A   1      36.113  22.726  24.840  1.00  0.00    -0.457 OA
BRANCH   2   3
ATOM      3  C   UNL A   1      35.499  22.945  23.659  1.00  0.00     0.355 C 
ATOM      4  O   UNL A   1      36.037  22.931  22.558  1.00  0.00    -0.244 OA
BRANCH   3   5
ATOM      5  C   UNL A   1      34.045  23.282  23.801  1.00  0.00     0.132 C 
ATOM      6  C   UNL A   1      33.124  26.537  24.193  1.00  0.00     0.206 C 
ATOM      7  C   UNL A   1      33.700  25.631  23.051  1.00  0.00     0.253 C 
ATOM      8  C   UNL A   1      32.760  25.145  24.816  1.00  0.00     0.181 C 
ATOM      9  O   UNL A   1      33.915  25.709  21.863  1.00  0.00    -0.272 OA
ATOM     10  N   UNL A   1      33.795  24.615  23.948  1.00  0.00    -0.289 N 
ATOM     11  S   UNL A   1      31.181  24.399  24.318  1.00  0.00    -0.129 SA
ATOM     12  C   UNL A   1      31.724  22.705  24.629  1.00  0.00     0.106 C 
ATOM     13  C   UNL A   1      33.120  22.352  24.135  1.00  0.00    -0.019 C 
BRANCH   6  14
ATOM     14  N   UNL A   1      32.083  27.521  23.839  1.00  0.00    -0.336 N 
ATOM     15  C   UNL A   1      31.807  28.747  24.407  1.00  0.00     0.270 C 
ATOM     16  O   UNL A   1      30.935  29.433  23.881  1.00  0.00    -0.268 OA
ATOM     17  H   UNL A   1      31.501  27.266  23.087  1.00  0.00     0.164 HD
BRANCH  15  18
ATOM     18  C   UNL A   1      32.483  29.117  25.627  1.00  0.00     0.126 A 
ATOM     19  C   UNL A   1      35.317  30.122  27.698  1.00  0.00     0.069 C 
ATOM     20  C   UNL A   1      34.026  29.688  27.117  1.00  0.00     0.060 A 
ATOM     21  C   UNL A   1      33.453  30.072  25.887  1.00  0.00     0.059 A 
ATOM     22  N   UNL A   1      33.285  28.761  27.726  1.00  0.00    -0.178 NA
ATOM     23  N   UNL A   1      32.283  28.517  26.850  1.00  0.00    -0.263 N 
ATOM     24  C   UNL A   1      31.225  27.630  27.271  1.00  0.00     0.174 C 
ENDBRANCH  15  18
ENDBRANCH   6  14
BRANCH  13  25
ATOM     25  C   UNL A   1      33.389  20.866  24.208  1.00  0.00     0.111 C 
BRANCH  25  26
ATOM     26  S   UNL A   1      32.346  19.783  23.204  1.00  0.00    -0.089 SA
BRANCH  26  27
ATOM     27  C   UNL A   1      32.803  18.166  23.661  1.00  0.00     0.174 A 
ATOM     28  N   UNL A   1      33.367  17.323  22.828  1.00  0.00    -0.132 NA
ATOM     29  S   UNL A   1      32.443  17.506  25.201  1.00  0.00    -0.091 S 
ATOM     30  N   UNL A   1      33.556  16.078  23.400  1.00  0.00    -0.143 NA
ATOM     31  C   UNL A   1      33.100  16.025  24.635  1.00  0.00     0.115 A 
ATOM     32  C   UNL A   1      33.090  14.803  25.482  1.00  0.00     0.081 C 
ENDBRANCH  26  27
ENDBRANCH  25  26
ENDBRANCH  13  25
ENDBRANCH   3   5
ENDBRANCH   2   3
ENDBRANCH   1   2
BRANCH   1  33
ATOM     33  C   UNL A   1      37.773  20.975  25.157  1.00  0.00     0.275 C 
BRANCH  33  34
ATOM     34  O   UNL A   1      38.561  22.142  25.444  1.00  0.00    -0.458 OA
BRANCH  34  35
ATOM     35  C   UNL A   1      39.479  21.984  26.425  1.00  0.00     0.338 C 
ATOM     36  O   UNL A   1      39.964  20.935  26.812  1.00  0.00    -0.246 OA
BRANCH  35  37
ATOM     37  C   UNL A   1      39.824  23.301  26.985  1.00  0.00     0.060 A 
ATOM     38  C   UNL A   1      39.304  24.459  26.410  1.00  0.00     0.016 A 
ATOM     39  C   UNL A   1      40.796  23.388  27.978  1.00  0.00     0.016 A 
ATOM     40  C   UNL A   1      39.869  25.694  26.719  1.00  0.00     0.010 A 
ATOM     41  C   UNL A   1      41.258  24.644  28.385  1.00  0.00     0.010 A 
ATOM     42  C   UNL A   1      40.842  25.814  27.722  1.00  0.00    -0.014 A 
BRANCH  42  43
ATOM     43  C   UNL A   1      41.437  27.142  28.060  1.00  0.00     0.031 A 
ATOM     44  C   UNL A   1      42.919  27.390  27.885  1.00  0.00     0.074 A 
ATOM     45  C   UNL A   1      40.656  28.139  28.526  1.00  0.00     0.049 A 
ATOM     46  N   UNL A   1      43.646  28.388  28.322  1.00  0.00    -0.248 NA
ATOM     47  C   UNL A   1      43.686  26.377  27.141  1.00  0.00     0.031 C 
ATOM     48  C   UNL A   1      39.204  28.071  28.707  1.00  0.00     0.029 A 
ATOM     49  N   UNL A   1      40.974  29.415  28.928  1.00  0.00    -0.354 N 
ATOM     50  C   UNL A   1      44.961  28.088  27.977  1.00  0.00     0.074 A 
ATOM     51  C   UNL A   1      44.930  26.815  27.288  1.00  0.00     0.031 C 
ATOM     52  C   UNL A   1      38.752  29.262  29.123  1.00  0.00     0.029 A 
ATOM     53  C   UNL A   1      39.889  30.141  29.361  1.00  0.00     0.049 A 
ATOM     54  H   UNL A   1      41.891  29.775  28.908  1.00  0.00     0.167 HD
ATOM     55  C   UNL A   1      46.088  28.800  28.222  1.00  0.00     0.031 A 
ATOM     56  C   UNL A   1      39.805  31.353  29.941  1.00  0.00     0.031 A 
ATOM     57  C   UNL A   1      46.104  30.093  28.860  1.00  0.00     0.049 A 
ATOM     58  C   UNL A   1      41.066  32.114  30.227  1.00  0.00     0.074 A 
ATOM     59  C   UNL A   1      47.193  30.905  29.133  1.00  0.00     0.029 A 
ATOM     60  N   UNL A   1      44.981  30.772  29.308  1.00  0.00    -0.354 N 
ATOM     61  N   UNL A   1      42.306  31.780  29.959  1.00  0.00    -0.248 NA
ATOM     62  C   UNL A   1      40.918  33.404  30.911  1.00  0.00     0.031 C 
ATOM     63  C   UNL A   1      46.731  32.051  29.790  1.00  0.00     0.029 A 
ATOM     64  C   UNL A   1      45.350  31.981  29.872  1.00  0.00     0.049 A 
ATOM     65  H   UNL A   1      44.056  30.441  29.237  1.00  0.00     0.167 HD
ATOM     66  C   UNL A   1      43.087  32.823  30.438  1.00  0.00     0.074 A 
ATOM     67  C   UNL A   1      42.179  33.809  30.988  1.00  0.00     0.031 C 
ATOM     68  C   UNL A   1      44.437  32.949  30.427  1.00  0.00     0.031 A 
BRANCH  55  69
ATOM     69  C   UNL A   1      47.413  28.178  27.850  1.00  0.00    -0.014 A 
ATOM     70  C   UNL A   1      48.111  27.330  28.727  1.00  0.00     0.010 A 
ATOM     71  C   UNL A   1      47.945  28.417  26.568  1.00  0.00     0.010 A 
ATOM     72  C   UNL A   1      49.336  26.769  28.344  1.00  0.00     0.020 A 
ATOM     73  C   UNL A   1      49.153  27.836  26.172  1.00  0.00     0.020 A 
ATOM     74  C   UNL A   1      49.851  27.029  27.071  1.00  0.00     0.054 A 
BRANCH  74  75
ATOM     75  S   UNL A   1      51.434  26.280  26.594  1.00  0.00     0.124 S 
ATOM     76  O   UNL A   1      51.507  26.607  25.172  1.00  0.00    -0.237 OA
ATOM     77  O   UNL A   1      52.392  26.979  27.448  1.00  0.00    -0.237 OA
ATOM     78  O   UNL A   1      51.253  24.863  26.897  1.00  0.00    -0.744 OA
ENDBRANCH  74  75
ENDBRANCH  55  69
BRANCH  56  79
ATOM     79  C   UNL A   1      38.474  31.882  30.347  1.00  0.00    -0.014 A 
ATOM     80  C   UNL A   1      37.941  31.586  31.613  1.00  0.00     0.010 A 
ATOM     81  C   UNL A   1      37.758  32.734  29.485  1.00  0.00     0.010 A 
ATOM     82  C   UNL A   1      36.720  32.137  32.012  1.00  0.00     0.020 A 
ATOM     83  C   UNL A   1      36.555  33.315  29.894  1.00  0.00     0.020 A 
ATOM     84  C   UNL A   1      36.041  33.008  31.154  1.00  0.00     0.054 A 
BRANCH  84  85
ATOM     85  S   UNL A   1      34.508  33.790  31.728  1.00  0.00     0.124 S 
ATOM     86  O   UNL A   1      33.827  34.083  30.471  1.00  0.00    -0.237 OA
ATOM     87  O   UNL A   1      33.905  32.740  32.546  1.00  0.00    -0.237 OA
ATOM     88  O   UNL A   1      34.978  34.955  32.474  1.00  0.00    -0.744 OA
ENDBRANCH  84  85
ENDBRANCH  56  79
BRANCH  68  89
ATOM     89  C   UNL A   1      45.009  34.215  31.005  1.00  0.00    -0.014 A 
ATOM     90  C   UNL A   1      45.325  34.315  32.371  1.00  0.00     0.010 A 
ATOM     91  C   UNL A   1      45.260  35.312  30.160  1.00  0.00     0.010 A 
ATOM     92  C   UNL A   1      45.846  35.503  32.891  1.00  0.00     0.020 A 
ATOM     93  C   UNL A   1      45.806  36.491  30.671  1.00  0.00     0.020 A 
ATOM     94  C   UNL A   1      46.080  36.585  32.036  1.00  0.00     0.054 A 
BRANCH  94  95
ATOM     95  S   UNL A   1      46.781  38.108  32.730  1.00  0.00     0.124 S 
ATOM     96  O   UNL A   1      46.911  38.949  31.543  1.00  0.00    -0.237 OA
ATOM     97  O   UNL A   1      45.760  38.525  33.688  1.00  0.00    -0.237 OA
ATOM     98  O   UNL A   1      48.041  37.669  33.324  1.00  0.00    -0.744 OA
ENDBRANCH  94  95
ENDBRANCH  68  89
ENDBRANCH  42  43
ENDBRANCH  35  37
ENDBRANCH  34  35
ENDBRANCH  33  34
ENDBRANCH   1  33
TORSDOF 19
ENDMDL
MODEL 2
REMARK VINA RESULT:     -11.5      4.865      5.843
REMARK SMILES Cc1cc(C(=O)N[C@@H]2C(=O)N3C(C(=O)OCCOC(=O)c4ccc(-c5c6nc(c(-c7ccc(S(=O)(=O)[O-])cc7)c7ccc([nH]7)c(-c7ccc(S(=O)(=O)[O-])cc7)c7nc(c(-c8ccc(S(=O)(=O)[O-])cc8)c8ccc5[nH]8)C=C7)C=C6)cc4)=C(CSc4nnc(C)s4)CS[C@H]23)n(C)n1
REMARK SMILES IDX 16 1 15 2 13 3 14 4 12 5 8 6 9 7 92 8 10 9 11 10 91 11 90 12
REMARK SMILES IDX 81 13 7 14 5 15 6 16 4 18 1 19 2 20 3 21 95 22 93 23 94 24
REMARK SMILES IDX 82 25 83 26 84 27 85 28 89 29 86 30 87 31 88 32 17 33 18 34
REMARK SMILES IDX 19 35 20 36 21 37 22 38 80 39 23 40 79 41 24 42 25 43 26 44
REMARK SMILES IDX 73 45 27 46 78 47 72 48 74 49 28 50 77 51 71 52 70 53 29 55
REMARK SMILES IDX 59 56 40 57 58 58 41 59 44 60 57 61 75 62 42 63 43 64 56 66
REMARK SMILES IDX 76 67 45 68 30 69 31 70 39 71 32 72 38 73 33 74 34 75 35 76
REMARK SMILES IDX 36 77 37 78 60 79 61 80 69 81 62 82 68 83 63 84 64 85 65 86
REMARK SMILES IDX 66 87 67 88 46 89 47 90 55 91 48 92 54 93 49 94 50 95 51 96
REMARK SMILES IDX 52 97 53 98
REMARK H PARENT 7 17 74 54 44 65
REMARK Flexibility Score: inf
ROOT
ATOM      1  C   UNL A   1      36.917  23.229  26.137  1.00  0.00     0.275 C 
ENDROOT
BRANCH   1   2
ATOM      2  O   UNL A   1      36.099  23.960  25.199  1.00  0.00    -0.457 OA
BRANCH   2   3
ATOM      3  C   UNL A   1      35.402  23.218  24.314  1.00  0.00     0.355 C 
ATOM      4  O   UNL A   1      35.882  22.447  23.491  1.00  0.00    -0.244 OA
BRANCH   3   5
ATOM      5  C   UNL A   1      33.924  23.461  24.371  1.00  0.00     0.132 C 
ATOM      6  C   UNL A   1      32.779  26.605  25.002  1.00  0.00     0.206 C 
ATOM      7  C   UNL A   1      33.493  25.852  23.828  1.00  0.00     0.253 C 
ATOM      8  C   UNL A   1      32.456  25.139  25.455  1.00  0.00     0.181 C 
ATOM      9  O   UNL A   1      33.792  26.062  22.674  1.00  0.00    -0.272 OA
ATOM     10  N   UNL A   1      33.583  24.757  24.626  1.00  0.00    -0.289 N 
ATOM     11  S   UNL A   1      30.967  24.365  24.761  1.00  0.00    -0.129 SA
ATOM     12  C   UNL A   1      31.587  22.679  24.948  1.00  0.00     0.106 C 
ATOM     13  C   UNL A   1      33.036  22.454  24.537  1.00  0.00    -0.019 C 
BRANCH   6  14
ATOM     14  N   UNL A   1      31.709  27.563  24.663  1.00  0.00    -0.336 N 
ATOM     15  C   UNL A   1      31.645  28.922  24.888  1.00  0.00     0.270 C 
ATOM     16  O   UNL A   1      30.678  29.529  24.436  1.00  0.00    -0.268 OA
ATOM     17  H   UNL A   1      30.926  27.176  24.208  1.00  0.00     0.164 HD
BRANCH  15  18
ATOM     18  C   UNL A   1      32.658  29.539  25.711  1.00  0.00     0.126 A 
ATOM     19  C   UNL A   1      35.472  29.628  28.036  1.00  0.00     0.069 C 
ATOM     20  C   UNL A   1      34.325  29.885  27.134  1.00  0.00     0.060 A 
ATOM     21  C   UNL A   1      33.980  29.201  25.950  1.00  0.00     0.059 A 
ATOM     22  N   UNL A   1      33.413  30.808  27.442  1.00  0.00    -0.178 NA
ATOM     23  N   UNL A   1      32.464  30.658  26.489  1.00  0.00    -0.263 N 
ATOM     24  C   UNL A   1      31.375  31.607  26.472  1.00  0.00     0.174 C 
ENDBRANCH  15  18
ENDBRANCH   6  14
BRANCH  13  25
ATOM     25  C   UNL A   1      33.389  20.984  24.486  1.00  0.00     0.111 C 
BRANCH  25  26
ATOM     26  S   UNL A   1      32.530  19.965  23.265  1.00  0.00    -0.089 SA
BRANCH  26  27
ATOM     27  C   UNL A   1      32.909  18.322  23.700  1.00  0.00     0.174 A 
ATOM     28  N   UNL A   1      33.392  17.452  22.844  1.00  0.00    -0.132 NA
ATOM     29  S   UNL A   1      32.570  17.678  25.252  1.00  0.00    -0.091 S 
ATOM     30  N   UNL A   1      33.530  16.196  23.406  1.00  0.00    -0.143 NA
ATOM     31  C   UNL A   1      33.119  16.163  24.657  1.00  0.00     0.115 A 
ATOM     32  C   UNL A   1      33.070  14.940  25.501  1.00  0.00     0.081 C 
ENDBRANCH  26  27
ENDBRANCH  25  26
ENDBRANCH  13  25
ENDBRANCH   3   5
ENDBRANCH   2   3
ENDBRANCH   1   2
BRANCH   1  33
ATOM     33  C   UNL A   1      38.360  23.708  26.063  1.00  0.00     0.275 C 
BRANCH  33  34
ATOM     34  O   UNL A   1      38.625  24.571  27.182  1.00  0.00    -0.458 OA
BRANCH  34  35
ATOM     35  C   UNL A   1      39.571  25.514  26.964  1.00  0.00     0.338 C 
ATOM     36  O   UNL A   1      40.392  25.533  26.063  1.00  0.00    -0.246 OA
BRANCH  35  37
ATOM     37  C   UNL A   1      39.471  26.551  28.003  1.00  0.00     0.060 A 
ATOM     38  C   UNL A   1      40.079  27.791  27.809  1.00  0.00     0.016 A 
ATOM     39  C   UNL A   1      38.913  26.231  29.238  1.00  0.00     0.016 A 
ATOM     40  C   UNL A   1      40.265  28.643  28.895  1.00  0.00     0.010 A 
ATOM     41  C   UNL A   1      38.980  27.154  30.287  1.00  0.00     0.010 A 
ATOM     42  C   UNL A   1      39.706  28.351  30.148  1.00  0.00    -0.014 A 
BRANCH  42  43
ATOM     43  C   UNL A   1      39.897  29.274  31.308  1.00  0.00     0.031 A 
ATOM     44  C   UNL A   1      41.104  29.139  32.209  1.00  0.00     0.074 A 
ATOM     45  C   UNL A   1      38.992  30.241  31.565  1.00  0.00     0.049 A 
ATOM     46  N   UNL A   1      41.330  29.694  33.374  1.00  0.00    -0.248 NA
ATOM     47  C   UNL A   1      42.187  28.251  31.754  1.00  0.00     0.031 C 
ATOM     48  C   UNL A   1      37.800  30.528  30.762  1.00  0.00     0.029 A 
ATOM     49  N   UNL A   1      38.935  31.173  32.573  1.00  0.00    -0.354 N 
ATOM     50  C   UNL A   1      42.537  29.166  33.825  1.00  0.00     0.074 A 
ATOM     51  C   UNL A   1      42.998  28.250  32.804  1.00  0.00     0.031 C 
ATOM     52  C   UNL A   1      37.168  31.595  31.271  1.00  0.00     0.029 A 
ATOM     53  C   UNL A   1      37.833  31.992  32.505  1.00  0.00     0.049 A 
ATOM     54  H   UNL A   1      39.619  31.247  33.279  1.00  0.00     0.167 HD
ATOM     55  C   UNL A   1      43.192  29.414  34.986  1.00  0.00     0.031 A 
ATOM     56  C   UNL A   1      37.361  32.920  33.358  1.00  0.00     0.031 A 
ATOM     57  C   UNL A   1      42.754  30.369  35.974  1.00  0.00     0.049 A 
ATOM     58  C   UNL A   1      38.087  33.161  34.649  1.00  0.00     0.074 A 
ATOM     59  C   UNL A   1      43.360  30.708  37.172  1.00  0.00     0.029 A 
ATOM     60  N   UNL A   1      41.613  31.151  35.871  1.00  0.00    -0.354 N 
ATOM     61  N   UNL A   1      39.187  32.599  35.090  1.00  0.00    -0.248 NA
ATOM     62  C   UNL A   1      37.496  34.145  35.565  1.00  0.00     0.031 C 
ATOM     63  C   UNL A   1      42.559  31.659  37.815  1.00  0.00     0.029 A 
ATOM     64  C   UNL A   1      41.486  31.956  36.990  1.00  0.00     0.049 A 
ATOM     65  H   UNL A   1      40.984  31.135  35.113  1.00  0.00     0.167 HD
ATOM     66  C   UNL A   1      39.424  33.166  36.335  1.00  0.00     0.074 A 
ATOM     67  C   UNL A   1      38.368  34.132  36.565  1.00  0.00     0.031 C 
ATOM     68  C   UNL A   1      40.424  32.904  37.212  1.00  0.00     0.031 A 
BRANCH  55  69
ATOM     69  C   UNL A   1      44.429  28.602  35.287  1.00  0.00    -0.014 A 
ATOM     70  C   UNL A   1      44.361  27.337  35.896  1.00  0.00     0.010 A 
ATOM     71  C   UNL A   1      45.688  29.106  34.905  1.00  0.00     0.010 A 
ATOM     72  C   UNL A   1      45.531  26.612  36.156  1.00  0.00     0.020 A 
ATOM     73  C   UNL A   1      46.856  28.372  35.137  1.00  0.00     0.020 A 
ATOM     74  C   UNL A   1      46.771  27.137  35.779  1.00  0.00     0.054 A 
BRANCH  74  75
ATOM     75  S   UNL A   1      48.271  26.173  36.115  1.00  0.00     0.124 S 
ATOM     76  O   UNL A   1      47.857  24.825  35.728  1.00  0.00    -0.237 OA
ATOM     77  O   UNL A   1      49.260  26.800  35.242  1.00  0.00    -0.237 OA
ATOM     78  O   UNL A   1      48.497  26.367  37.545  1.00  0.00    -0.744 OA
ENDBRANCH  74  75
ENDBRANCH  55  69
BRANCH  56  79
ATOM     79  C   UNL A   1      36.098  33.639  33.035  1.00  0.00    -0.014 A 
ATOM     80  C   UNL A   1      34.851  33.033  33.264  1.00  0.00     0.010 A 
ATOM     81  C   UNL A   1      36.139  34.960  32.549  1.00  0.00     0.010 A 
ATOM     82  C   UNL A   1      33.668  33.737  33.018  1.00  0.00     0.020 A 
ATOM     83  C   UNL A   1      34.960  35.679  32.337  1.00  0.00     0.020 A 
ATOM     84  C   UNL A   1      33.731  35.059  32.567  1.00  0.00     0.054 A 
BRANCH  84  85
ATOM     85  S   UNL A   1      32.187  35.988  32.349  1.00  0.00     0.124 S 
ATOM     86  O   UNL A   1      32.236  36.328  30.930  1.00  0.00    -0.237 OA
ATOM     87  O   UNL A   1      31.173  35.009  32.732  1.00  0.00    -0.237 OA
ATOM     88  O   UNL A   1      32.333  37.113  33.269  1.00  0.00    -0.744 OA
ENDBRANCH  84  85
ENDBRANCH  56  79
BRANCH  68  89
ATOM     89  C   UNL A   1      40.437  33.699  38.490  1.00  0.00    -0.014 A 
ATOM     90  C   UNL A   1      39.850  33.199  39.665  1.00  0.00     0.010 A 
ATOM     91  C   UNL A   1      41.072  34.954  38.520  1.00  0.00     0.010 A 
ATOM     92  C   UNL A   1      39.863  33.957  40.839  1.00  0.00     0.020 A 
ATOM     93  C   UNL A   1      41.111  35.702  39.698  1.00  0.00     0.020 A 
ATOM     94  C   UNL A   1      40.491  35.206  40.846  1.00  0.00     0.054 A 
BRANCH  94  95
ATOM     95  S   UNL A   1      40.518  36.160  42.389  1.00  0.00     0.124 S 
ATOM     96  O   UNL A   1      41.886  36.669  42.407  1.00  0.00    -0.237 OA
ATOM     97  O   UNL A   1      39.477  37.160  42.167  1.00  0.00    -0.237 OA
ATOM     98  O   UNL A   1      40.209  35.166  43.415  1.00  0.00    -0.744 OA
ENDBRANCH  94  95
ENDBRANCH  68  89
ENDBRANCH  42  43
ENDBRANCH  35  37
ENDBRANCH  34  35
ENDBRANCH  33  34
ENDBRANCH   1  33
TORSDOF 19
ENDMDL
MODEL 3
REMARK VINA RESULT:     -11.4      3.015     10.025
REMARK SMILES Cc1cc(C(=O)N[C@@H]2C(=O)N3C(C(=O)OCCOC(=O)c4ccc(-c5c6nc(c(-c7ccc(S(=O)(=O)[O-])cc7)c7ccc([nH]7)c(-c7ccc(S(=O)(=O)[O-])cc7)c7nc(c(-c8ccc(S(=O)(=O)[O-])cc8)c8ccc5[nH]8)C=C7)C=C6)cc4)=C(CSc4nnc(C)s4)CS[C@H]23)n(C)n1
REMARK SMILES IDX 16 1 15 2 13 3 14 4 12 5 8 6 9 7 92 8 10 9 11 10 91 11 90 12
REMARK SMILES IDX 81 13 7 14 5 15 6 16 4 18 1 19 2 20 3 21 95 22 93 23 94 24
REMARK SMILES IDX 82 25 83 26 84 27 85 28 89 29 86 30 87 31 88 32 17 33 18 34
REMARK SMILES IDX 19 35 20 36 21 37 22 38 80 39 23 40 79 41 24 42 25 43 26 44
REMARK SMILES IDX 73 45 27 46 78 47 72 48 74 49 28 50 77 51 71 52 70 53 29 55
REMARK SMILES IDX 59 56 40 57 58 58 41 59 44 60 57 61 75 62 42 63 43 64 56 66
REMARK SMILES IDX 76 67 45 68 30 69 31 70 39 71 32 72 38 73 33 74 34 75 35 76
REMARK SMILES IDX 36 77 37 78 60 79 61 80 69 81 62 82 68 83 63 84 64 85 65 86
REMARK SMILES IDX 66 87 67 88 46 89 47 90 55 91 48 92 54 93 49 94 50 95 51 96
REMARK SMILES IDX 52 97 53 98
REMARK H PARENT 7 17 74 54 44 65
REMARK Flexibility Score: inf
ROOT
ATOM      1  C   UNL A   1      33.474  28.743  27.217  1.00  0.00     0.275 C 
ENDROOT
BRANCH   1   2
ATOM      2  O   UNL A   1      33.237  27.425  26.679  1.00  0.00    -0.457 OA
BRANCH   2   3
ATOM      3  C   UNL A   1      31.957  27.002  26.686  1.00  0.00     0.355 C 
ATOM      4  O   UNL A   1      31.107  27.304  27.516  1.00  0.00    -0.244 OA
BRANCH   3   5
ATOM      5  C   UNL A   1      31.645  26.039  25.580  1.00  0.00     0.132 C 
ATOM      6  C   UNL A   1      32.446  22.751  25.966  1.00  0.00     0.206 C 
ATOM      7  C   UNL A   1      31.405  23.762  26.559  1.00  0.00     0.253 C 
ATOM      8  C   UNL A   1      32.546  23.848  24.848  1.00  0.00     0.181 C 
ATOM      9  O   UNL A   1      30.429  23.732  27.273  1.00  0.00    -0.272 OA
ATOM     10  N   UNL A   1      32.006  24.751  25.847  1.00  0.00    -0.289 N 
ATOM     11  S   UNL A   1      31.352  23.752  23.483  1.00  0.00    -0.129 SA
ATOM     12  C   UNL A   1      31.422  25.518  23.113  1.00  0.00     0.106 C 
ATOM     13  C   UNL A   1      31.392  26.451  24.316  1.00  0.00    -0.019 C 
BRANCH   6  14
ATOM     14  N   UNL A   1      31.989  21.381  25.665  1.00  0.00    -0.336 N 
ATOM     15  C   UNL A   1      32.724  20.223  25.524  1.00  0.00     0.270 C 
ATOM     16  O   UNL A   1      32.107  19.175  25.356  1.00  0.00    -0.268 OA
ATOM     17  H   UNL A   1      31.017  21.277  25.550  1.00  0.00     0.164 HD
BRANCH  15  18
ATOM     18  C   UNL A   1      34.164  20.313  25.491  1.00  0.00     0.126 A 
ATOM     19  C   UNL A   1      37.398  21.977  25.163  1.00  0.00     0.069 C 
ATOM     20  C   UNL A   1      36.247  21.053  25.296  1.00  0.00     0.060 A 
ATOM     21  C   UNL A   1      35.038  21.265  25.990  1.00  0.00     0.059 A 
ATOM     22  N   UNL A   1      36.235  19.887  24.650  1.00  0.00    -0.178 NA
ATOM     23  N   UNL A   1      34.995  19.398  24.884  1.00  0.00    -0.263 N 
ATOM     24  C   UNL A   1      34.698  18.067  24.408  1.00  0.00     0.174 C 
ENDBRANCH  15  18
ENDBRANCH   6  14
BRANCH  13  25
ATOM     25  C   UNL A   1      31.199  27.895  23.910  1.00  0.00     0.111 C 
BRANCH  25  26
ATOM     26  S   UNL A   1      29.973  28.240  22.628  1.00  0.00    -0.089 SA
BRANCH  26  27
ATOM     27  C   UNL A   1      29.558  29.918  22.839  1.00  0.00     0.174 A 
ATOM     28  N   UNL A   1      29.651  30.535  23.994  1.00  0.00    -0.132 NA
ATOM     29  S   UNL A   1      28.881  30.866  21.582  1.00  0.00    -0.091 S 
ATOM     30  N   UNL A   1      29.185  31.835  23.926  1.00  0.00    -0.143 NA
ATOM     31  C   UNL A   1      28.733  32.138  22.726  1.00  0.00     0.115 A 
ATOM     32  C   UNL A   1      28.099  33.432  22.362  1.00  0.00     0.081 C 
ENDBRANCH  26  27
ENDBRANCH  25  26
ENDBRANCH  13  25
ENDBRANCH   3   5
ENDBRANCH   2   3
ENDBRANCH   1   2
BRANCH   1  33
ATOM     33  C   UNL A   1      34.952  28.924  27.537  1.00  0.00     0.275 C 
BRANCH  33  34
ATOM     34  O   UNL A   1      35.181  30.285  27.940  1.00  0.00    -0.458 OA
BRANCH  34  35
ATOM     35  C   UNL A   1      35.978  30.433  29.023  1.00  0.00     0.338 C 
ATOM     36  O   UNL A   1      35.711  31.028  30.053  1.00  0.00    -0.246 OA
BRANCH  35  37
ATOM     37  C   UNL A   1      37.261  29.755  28.779  1.00  0.00     0.060 A 
ATOM     38  C   UNL A   1      37.888  29.060  29.811  1.00  0.00     0.016 A 
ATOM     39  C   UNL A   1      37.918  29.952  27.567  1.00  0.00     0.016 A 
ATOM     40  C   UNL A   1      39.228  28.700  29.685  1.00  0.00     0.010 A 
ATOM     41  C   UNL A   1      39.217  29.461  27.398  1.00  0.00     0.010 A 
ATOM     42  C   UNL A   1      39.912  28.877  28.473  1.00  0.00    -0.014 A 
BRANCH  42  43
ATOM     43  C   UNL A   1      41.346  28.478  28.336  1.00  0.00     0.031 A 
ATOM     44  C   UNL A   1      42.450  29.495  28.519  1.00  0.00     0.074 A 
ATOM     45  C   UNL A   1      41.673  27.200  28.047  1.00  0.00     0.049 A 
ATOM     46  N   UNL A   1      43.723  29.392  28.229  1.00  0.00    -0.248 NA
ATOM     47  C   UNL A   1      42.072  30.804  29.079  1.00  0.00     0.031 C 
ATOM     48  C   UNL A   1      40.726  26.094  27.886  1.00  0.00     0.029 A 
ATOM     49  N   UNL A   1      42.898  26.611  27.844  1.00  0.00    -0.354 N 
ATOM     50  C   UNL A   1      44.282  30.639  28.497  1.00  0.00     0.074 A 
ATOM     51  C   UNL A   1      43.208  31.482  28.979  1.00  0.00     0.031 C 
ATOM     52  C   UNL A   1      41.403  24.958  27.671  1.00  0.00     0.029 A 
ATOM     53  C   UNL A   1      42.822  25.270  27.552  1.00  0.00     0.049 A 
ATOM     54  H   UNL A   1      43.750  27.103  27.902  1.00  0.00     0.167 HD
ATOM     55  C   UNL A   1      45.566  31.046  28.345  1.00  0.00     0.031 A 
ATOM     56  C   UNL A   1      43.765  24.389  27.170  1.00  0.00     0.031 A 
ATOM     57  C   UNL A   1      46.641  30.185  27.917  1.00  0.00     0.049 A 
ATOM     58  C   UNL A   1      45.175  24.865  26.983  1.00  0.00     0.074 A 
ATOM     59  C   UNL A   1      47.980  30.497  27.754  1.00  0.00     0.029 A 
ATOM     60  N   UNL A   1      46.505  28.842  27.603  1.00  0.00    -0.354 N 
ATOM     61  N   UNL A   1      45.669  26.065  27.171  1.00  0.00    -0.248 NA
ATOM     62  C   UNL A   1      46.150  23.873  26.512  1.00  0.00     0.031 C 
ATOM     63  C   UNL A   1      48.644  29.354  27.294  1.00  0.00     0.029 A 
ATOM     64  C   UNL A   1      47.730  28.315  27.229  1.00  0.00     0.049 A 
ATOM     65  H   UNL A   1      45.661  28.336  27.640  1.00  0.00     0.167 HD
ATOM     66  C   UNL A   1      47.016  25.971  26.846  1.00  0.00     0.074 A 
ATOM     67  C   UNL A   1      47.263  24.592  26.475  1.00  0.00     0.031 C 
ATOM     68  C   UNL A   1      47.961  26.944  26.850  1.00  0.00     0.031 A 
BRANCH  55  69
ATOM     69  C   UNL A   1      45.880  32.503  28.589  1.00  0.00    -0.014 A 
ATOM     70  C   UNL A   1      46.372  32.963  29.823  1.00  0.00     0.010 A 
ATOM     71  C   UNL A   1      45.718  33.423  27.536  1.00  0.00     0.010 A 
ATOM     72  C   UNL A   1      46.655  34.322  30.010  1.00  0.00     0.020 A 
ATOM     73  C   UNL A   1      46.027  34.776  27.710  1.00  0.00     0.020 A 
ATOM     74  C   UNL A   1      46.476  35.220  28.954  1.00  0.00     0.054 A 
BRANCH  74  75
ATOM     75  S   UNL A   1      46.862  36.974  29.217  1.00  0.00     0.124 S 
ATOM     76  O   UNL A   1      46.030  37.295  30.375  1.00  0.00    -0.237 OA
ATOM     77  O   UNL A   1      48.302  36.953  29.465  1.00  0.00    -0.237 OA
ATOM     78  O   UNL A   1      46.459  37.611  27.967  1.00  0.00    -0.744 OA
ENDBRANCH  74  75
ENDBRANCH  55  69
BRANCH  56  79
ATOM     79  C   UNL A   1      43.379  22.981  26.878  1.00  0.00    -0.014 A 
ATOM     80  C   UNL A   1      43.711  22.387  25.649  1.00  0.00     0.010 A 
ATOM     81  C   UNL A   1      42.723  22.209  27.857  1.00  0.00     0.010 A 
ATOM     82  C   UNL A   1      43.401  21.046  25.406  1.00  0.00     0.020 A 
ATOM     83  C   UNL A   1      42.444  20.859  27.631  1.00  0.00     0.020 A 
ATOM     84  C   UNL A   1      42.780  20.287  26.403  1.00  0.00     0.054 A 
BRANCH  84  85
ATOM     85  S   UNL A   1      42.475  18.524  26.105  1.00  0.00     0.124 S 
ATOM     86  O   UNL A   1      41.049  18.510  25.796  1.00  0.00    -0.237 OA
ATOM     87  O   UNL A   1      43.369  18.233  24.987  1.00  0.00    -0.237 OA
ATOM     88  O   UNL A   1      42.850  17.894  27.369  1.00  0.00    -0.744 OA
ENDBRANCH  84  85
ENDBRANCH  56  79
BRANCH  68  89
ATOM     89  C   UNL A   1      49.358  26.539  26.467  1.00  0.00    -0.014 A 
ATOM     90  C   UNL A   1      49.863  26.791  25.179  1.00  0.00     0.010 A 
ATOM     91  C   UNL A   1      50.188  25.920  27.420  1.00  0.00     0.010 A 
ATOM     92  C   UNL A   1      51.161  26.398  24.840  1.00  0.00     0.020 A 
ATOM     93  C   UNL A   1      51.494  25.550  27.092  1.00  0.00     0.020 A 
ATOM     94  C   UNL A   1      51.966  25.776  25.798  1.00  0.00     0.054 A 
BRANCH  94  95
ATOM     95  S   UNL A   1      53.656  25.297  25.341  1.00  0.00     0.124 S 
ATOM     96  O   UNL A   1      54.455  26.053  26.301  1.00  0.00    -0.237 OA
ATOM     97  O   UNL A   1      53.643  23.850  25.534  1.00  0.00    -0.237 OA
ATOM     98  O   UNL A   1      53.774  25.733  23.951  1.00  0.00    -0.744 OA
ENDBRANCH  94  95
ENDBRANCH  68  89
ENDBRANCH  42  43
ENDBRANCH  35  37
ENDBRANCH  34  35
ENDBRANCH  33  34
ENDBRANCH   1  33
TORSDOF 19
ENDMDL
