MODEL 1
REMARK VINA RESULT:     -10.2      0.000      0.000
REMARK SMILES CCC[C@H](CNC(=O)N1CCN2C(=O)NC[C@H]2C1)C(=O)OCCOC(=O)c1ccc(-c2c3nc(c(-c4ccc(S(=O)(=O)[O-])cc4)c4ccc([nH]4)c(-c4ccc(S(=O)(=O)[O-])cc4)c4nc(c(-c5ccc(S(=O)(=O)[O-])cc5)c5ccc2[nH]5)C=C4)C=C3)cc1
REMARK SMILES IDX 22 1 21 2 19 3 20 4 4 5 3 6 2 7 1 8 5 9 6 10 7 11 8 13 9 14
REMARK SMILES IDX 10 15 18 16 11 17 17 18 12 19 16 20 13 21 15 22 14 23 23 25
REMARK SMILES IDX 24 26 25 27 26 28 27 29 28 30 86 31 29 32 85 33 30 34 31 35
REMARK SMILES IDX 32 36 79 37 33 38 84 39 78 40 80 41 34 42 83 43 77 44 76 45
REMARK SMILES IDX 35 47 65 48 46 49 64 50 47 51 50 52 63 53 81 54 48 55 49 56
REMARK SMILES IDX 62 58 82 59 51 60 36 61 37 62 45 63 38 64 44 65 39 66 40 67
REMARK SMILES IDX 41 68 42 69 43 70 66 71 67 72 75 73 68 74 74 75 69 76 70 77
REMARK SMILES IDX 71 78 72 79 73 80 52 81 53 82 61 83 54 84 60 85 55 86 56 87
REMARK SMILES IDX 57 88 58 89 59 90
REMARK H PARENT 6 12 15 24 80 46 50 57
REMARK Flexibility Score: inf
ROOT
ATOM      1  C   UNL A   1      32.391  29.573  25.062  1.00  0.00     0.274 C 
ENDROOT
BRANCH   1   2
ATOM      2  O   UNL A   1      31.259  28.783  24.645  1.00  0.00    -0.462 OA
BRANCH   2   3
ATOM      3  C   UNL A   1      31.214  28.516  23.313  1.00  0.00     0.310 C 
ATOM      4  O   UNL A   1      32.008  28.979  22.503  1.00  0.00    -0.252 OA
BRANCH   3   5
ATOM      5  C   UNL A   1      30.054  27.617  22.904  1.00  0.00     0.118 C 
BRANCH   5   6
ATOM      6  C   UNL A   1      28.683  28.277  23.139  1.00  0.00     0.017 C 
BRANCH   6   7
ATOM      7  C   UNL A   1      28.451  29.642  22.475  1.00  0.00    -0.002 C 
ATOM      8  C   UNL A   1      27.638  30.645  23.284  1.00  0.00     0.004 C 
ENDBRANCH   6   7
ENDBRANCH   5   6
BRANCH   5   9
ATOM      9  C   UNL A   1      30.221  26.205  23.510  1.00  0.00     0.133 C 
BRANCH   9  10
ATOM     10  N   UNL A   1      29.811  26.094  24.903  1.00  0.00    -0.337 N 
ATOM     11  C   UNL A   1      30.147  25.229  25.881  1.00  0.00     0.317 C 
ATOM     12  H   UNL A   1      29.164  26.781  25.184  1.00  0.00     0.165 HD
ATOM     13  O   UNL A   1      29.353  25.111  26.816  1.00  0.00    -0.249 OA
BRANCH  11  14
ATOM     14  N   UNL A   1      31.285  24.485  25.798  1.00  0.00    -0.321 N 
ATOM     15  C   UNL A   1      32.667  24.985  25.958  1.00  0.00     0.143 C 
ATOM     16  C   UNL A   1      31.171  23.020  25.880  1.00  0.00     0.148 C 
ATOM     17  C   UNL A   1      33.648  24.325  24.970  1.00  0.00     0.143 C 
ATOM     18  C   UNL A   1      32.025  22.404  24.776  1.00  0.00     0.125 C 
ATOM     19  N   UNL A   1      33.388  22.901  24.838  1.00  0.00    -0.317 N 
ATOM     20  C   UNL A   1      32.210  20.892  24.822  1.00  0.00     0.144 C 
ATOM     21  C   UNL A   1      34.292  21.916  24.486  1.00  0.00     0.317 C 
ATOM     22  N   UNL A   1      33.584  20.721  24.422  1.00  0.00    -0.336 N 
ATOM     23  O   UNL A   1      35.477  22.052  24.265  1.00  0.00    -0.249 OA
ATOM     24  H   UNL A   1      33.975  19.863  24.137  1.00  0.00     0.165 HD
ENDBRANCH  11  14
ENDBRANCH   9  10
ENDBRANCH   5   9
ENDBRANCH   3   5
ENDBRANCH   2   3
ENDBRANCH   1   2
BRANCH   1  25
ATOM     25  C   UNL A   1      32.639  29.504  26.577  1.00  0.00     0.275 C 
BRANCH  25  26
ATOM     26  O   UNL A   1      34.035  29.399  26.917  1.00  0.00    -0.458 OA
BRANCH  26  27
ATOM     27  C   UNL A   1      34.518  30.387  27.710  1.00  0.00     0.338 C 
ATOM     28  O   UNL A   1      33.907  31.362  28.115  1.00  0.00    -0.246 OA
BRANCH  27  29
ATOM     29  C   UNL A   1      35.877  30.046  28.168  1.00  0.00     0.060 A 
ATOM     30  C   UNL A   1      36.922  30.084  27.239  1.00  0.00     0.016 A 
ATOM     31  C   UNL A   1      36.117  29.624  29.474  1.00  0.00     0.016 A 
ATOM     32  C   UNL A   1      38.213  29.729  27.607  1.00  0.00     0.010 A 
ATOM     33  C   UNL A   1      37.417  29.264  29.846  1.00  0.00     0.010 A 
ATOM     34  C   UNL A   1      38.472  29.320  28.917  1.00  0.00    -0.014 A 
BRANCH  34  35
ATOM     35  C   UNL A   1      39.845  28.934  29.315  1.00  0.00     0.031 A 
ATOM     36  C   UNL A   1      40.709  29.918  30.045  1.00  0.00     0.074 A 
ATOM     37  C   UNL A   1      40.309  27.706  29.015  1.00  0.00     0.049 A 
ATOM     38  N   UNL A   1      41.979  29.833  30.345  1.00  0.00    -0.248 NA
ATOM     39  C   UNL A   1      40.060  31.158  30.497  1.00  0.00     0.031 C 
ATOM     40  C   UNL A   1      39.529  26.637  28.388  1.00  0.00     0.029 A 
ATOM     41  N   UNL A   1      41.552  27.153  29.190  1.00  0.00    -0.354 N 
ATOM     42  C   UNL A   1      42.291  31.020  30.995  1.00  0.00     0.074 A 
ATOM     43  C   UNL A   1      41.079  31.812  31.035  1.00  0.00     0.031 C 
ATOM     44  C   UNL A   1      40.314  25.559  28.226  1.00  0.00     0.029 A 
ATOM     45  C   UNL A   1      41.665  25.884  28.672  1.00  0.00     0.049 A 
ATOM     46  H   UNL A   1      42.292  27.620  29.641  1.00  0.00     0.167 HD
ATOM     47  C   UNL A   1      43.484  31.413  31.504  1.00  0.00     0.031 A 
ATOM     48  C   UNL A   1      42.745  25.091  28.531  1.00  0.00     0.031 A 
ATOM     49  C   UNL A   1      44.685  30.619  31.436  1.00  0.00     0.049 A 
ATOM     50  C   UNL A   1      44.085  25.599  28.987  1.00  0.00     0.074 A 
ATOM     51  C   UNL A   1      45.947  30.922  31.916  1.00  0.00     0.029 A 
ATOM     52  N   UNL A   1      44.775  29.368  30.841  1.00  0.00    -0.354 N 
ATOM     53  N   UNL A   1      44.376  26.729  29.588  1.00  0.00    -0.248 NA
ATOM     54  C   UNL A   1      45.245  24.735  28.731  1.00  0.00     0.031 C 
ATOM     55  C   UNL A   1      46.812  29.885  31.555  1.00  0.00     0.029 A 
ATOM     56  C   UNL A   1      46.078  28.902  30.907  1.00  0.00     0.049 A 
ATOM     57  H   UNL A   1      44.023  28.883  30.430  1.00  0.00     0.167 HD
ATOM     58  C   UNL A   1      45.749  26.704  29.800  1.00  0.00     0.074 A 
ATOM     59  C   UNL A   1      46.229  25.441  29.277  1.00  0.00     0.031 C 
ATOM     60  C   UNL A   1      46.540  27.643  30.375  1.00  0.00     0.031 A 
BRANCH  47  61
ATOM     61  C   UNL A   1      43.555  32.784  32.124  1.00  0.00    -0.014 A 
ATOM     62  C   UNL A   1      43.397  32.971  33.510  1.00  0.00     0.010 A 
ATOM     63  C   UNL A   1      43.795  33.904  31.308  1.00  0.00     0.010 A 
ATOM     64  C   UNL A   1      43.427  34.257  34.058  1.00  0.00     0.020 A 
ATOM     65  C   UNL A   1      43.855  35.188  31.856  1.00  0.00     0.020 A 
ATOM     66  C   UNL A   1      43.650  35.358  33.227  1.00  0.00     0.054 A 
BRANCH  66  67
ATOM     67  S   UNL A   1      43.691  37.014  33.967  1.00  0.00     0.124 S 
ATOM     68  O   UNL A   1      44.978  37.007  34.656  1.00  0.00    -0.237 OA
ATOM     69  O   UNL A   1      43.612  37.888  32.799  1.00  0.00    -0.237 OA
ATOM     70  O   UNL A   1      42.518  37.036  34.838  1.00  0.00    -0.744 OA
ENDBRANCH  66  67
ENDBRANCH  47  61
BRANCH  48  71
ATOM     71  C   UNL A   1      42.606  23.752  27.892  1.00  0.00    -0.014 A 
ATOM     72  C   UNL A   1      42.795  23.599  26.508  1.00  0.00     0.010 A 
ATOM     73  C   UNL A   1      42.305  22.617  28.669  1.00  0.00     0.010 A 
ATOM     74  C   UNL A   1      42.685  22.340  25.913  1.00  0.00     0.020 A 
ATOM     75  C   UNL A   1      42.223  21.351  28.083  1.00  0.00     0.020 A 
ATOM     76  C   UNL A   1      42.407  21.222  26.705  1.00  0.00     0.054 A 
BRANCH  76  77
ATOM     77  S   UNL A   1      42.338  19.589  25.918  1.00  0.00     0.124 S 
ATOM     78  O   UNL A   1      43.339  19.717  24.864  1.00  0.00    -0.237 OA
ATOM     79  O   UNL A   1      42.691  18.694  27.018  1.00  0.00    -0.237 OA
ATOM     80  O   UNL A   1      40.955  19.486  25.460  1.00  0.00    -0.744 OA
ENDBRANCH  76  77
ENDBRANCH  48  71
BRANCH  60  81
ATOM     81  C   UNL A   1      48.010  27.336  30.491  1.00  0.00    -0.014 A 
ATOM     82  C   UNL A   1      48.908  27.693  29.470  1.00  0.00     0.010 A 
ATOM     83  C   UNL A   1      48.509  26.758  31.674  1.00  0.00     0.010 A 
ATOM     84  C   UNL A   1      50.278  27.467  29.625  1.00  0.00     0.020 A 
ATOM     85  C   UNL A   1      49.881  26.557  31.843  1.00  0.00     0.020 A 
ATOM     86  C   UNL A   1      50.757  26.908  30.815  1.00  0.00     0.054 A 
BRANCH  86  87
ATOM     87  S   UNL A   1      52.547  26.701  31.022  1.00  0.00     0.124 S 
ATOM     88  O   UNL A   1      52.856  27.703  32.037  1.00  0.00    -0.237 OA
ATOM     89  O   UNL A   1      52.659  25.310  31.457  1.00  0.00    -0.237 OA
ATOM     90  O   UNL A   1      53.085  26.975  29.691  1.00  0.00    -0.744 OA
ENDBRANCH  86  87
ENDBRANCH  60  81
ENDBRANCH  34  35
ENDBRANCH  27  29
ENDBRANCH  26  27
ENDBRANCH  25  26
ENDBRANCH   1  25
TORSDOF 19
ENDMDL
MODEL 2
REMARK VINA RESULT:     -10.1      2.624      9.247
REMARK SMILES CCC[C@H](CNC(=O)N1CCN2C(=O)NC[C@H]2C1)C(=O)OCCOC(=O)c1ccc(-c2c3nc(c(-c4ccc(S(=O)(=O)[O-])cc4)c4ccc([nH]4)c(-c4ccc(S(=O)(=O)[O-])cc4)c4nc(c(-c5ccc(S(=O)(=O)[O-])cc5)c5ccc2[nH]5)C=C4)C=C3)cc1
REMARK SMILES IDX 22 1 21 2 19 3 20 4 4 5 3 6 2 7 1 8 5 9 6 10 7 11 8 13 9 14
REMARK SMILES IDX 10 15 18 16 11 17 17 18 12 19 16 20 13 21 15 22 14 23 23 25
REMARK SMILES IDX 24 26 25 27 26 28 27 29 28 30 86 31 29 32 85 33 30 34 31 35
REMARK SMILES IDX 32 36 79 37 33 38 84 39 78 40 80 41 34 42 83 43 77 44 76 45
REMARK SMILES IDX 35 47 65 48 46 49 64 50 47 51 50 52 63 53 81 54 48 55 49 56
REMARK SMILES IDX 62 58 82 59 51 60 36 61 37 62 45 63 38 64 44 65 39 66 40 67
REMARK SMILES IDX 41 68 42 69 43 70 66 71 67 72 75 73 68 74 74 75 69 76 70 77
REMARK SMILES IDX 71 78 72 79 73 80 52 81 53 82 61 83 54 84 60 85 55 86 56 87
REMARK SMILES IDX 57 88 58 89 59 90
REMARK H PARENT 6 12 15 24 80 46 50 57
REMARK Flexibility Score: inf
ROOT
ATOM      1  C   UNL A   1      35.562  21.632  25.724  1.00  0.00     0.274 C 
ENDROOT
BRANCH   1   2
ATOM      2  O   UNL A   1      34.529  22.545  25.301  1.00  0.00    -0.462 OA
BRANCH   2   3
ATOM      3  C   UNL A   1      33.498  21.964  24.635  1.00  0.00     0.310 C 
ATOM      4  O   UNL A   1      33.041  20.864  24.921  1.00  0.00    -0.252 OA
BRANCH   3   5
ATOM      5  C   UNL A   1      32.980  22.788  23.462  1.00  0.00     0.118 C 
BRANCH   5   6
ATOM      6  C   UNL A   1      34.016  23.808  22.953  1.00  0.00     0.017 C 
BRANCH   6   7
ATOM      7  C   UNL A   1      33.642  25.293  23.081  1.00  0.00    -0.002 C 
ATOM      8  C   UNL A   1      33.041  25.936  21.836  1.00  0.00     0.004 C 
ENDBRANCH   6   7
ENDBRANCH   5   6
BRANCH   5   9
ATOM      9  C   UNL A   1      31.583  23.367  23.780  1.00  0.00     0.133 C 
BRANCH   9  10
ATOM     10  N   UNL A   1      31.228  23.345  25.192  1.00  0.00    -0.337 N 
ATOM     11  C   UNL A   1      30.966  24.329  26.077  1.00  0.00     0.317 C 
ATOM     12  H   UNL A   1      31.169  22.439  25.574  1.00  0.00     0.165 HD
ATOM     13  O   UNL A   1      31.107  24.054  27.270  1.00  0.00    -0.249 OA
BRANCH  11  14
ATOM     14  N   UNL A   1      30.619  25.576  25.654  1.00  0.00    -0.321 N 
ATOM     15  C   UNL A   1      29.426  25.926  24.856  1.00  0.00     0.143 C 
ATOM     16  C   UNL A   1      31.269  26.735  26.287  1.00  0.00     0.148 C 
ATOM     17  C   UNL A   1      29.724  27.004  23.796  1.00  0.00     0.143 C 
ATOM     18  C   UNL A   1      31.704  27.705  25.194  1.00  0.00     0.125 C 
ATOM     19  N   UNL A   1      30.586  28.045  24.330  1.00  0.00    -0.317 N 
ATOM     20  C   UNL A   1      32.208  29.068  25.653  1.00  0.00     0.144 C 
ATOM     21  C   UNL A   1      30.665  29.362  23.913  1.00  0.00     0.317 C 
ATOM     22  N   UNL A   1      31.668  29.965  24.662  1.00  0.00    -0.336 N 
ATOM     23  O   UNL A   1      29.998  29.899  23.055  1.00  0.00    -0.249 OA
ATOM     24  H   UNL A   1      31.974  30.891  24.530  1.00  0.00     0.165 HD
ENDBRANCH  11  14
ENDBRANCH   9  10
ENDBRANCH   5   9
ENDBRANCH   3   5
ENDBRANCH   2   3
ENDBRANCH   1   2
BRANCH   1  25
ATOM     25  C   UNL A   1      36.949  22.010  25.184  1.00  0.00     0.275 C 
BRANCH  25  26
ATOM     26  O   UNL A   1      37.496  23.191  25.802  1.00  0.00    -0.458 OA
BRANCH  26  27
ATOM     27  C   UNL A   1      38.788  23.095  26.202  1.00  0.00     0.338 C 
ATOM     28  O   UNL A   1      39.576  22.207  25.919  1.00  0.00    -0.246 OA
BRANCH  27  29
ATOM     29  C   UNL A   1      39.186  24.320  26.918  1.00  0.00     0.060 A 
ATOM     30  C   UNL A   1      40.033  25.225  26.270  1.00  0.00     0.016 A 
ATOM     31  C   UNL A   1      38.794  24.548  28.236  1.00  0.00     0.016 A 
ATOM     32  C   UNL A   1      40.475  26.372  26.916  1.00  0.00     0.010 A 
ATOM     33  C   UNL A   1      39.240  25.703  28.888  1.00  0.00     0.010 A 
ATOM     34  C   UNL A   1      40.077  26.623  28.231  1.00  0.00    -0.014 A 
BRANCH  34  35
ATOM     35  C   UNL A   1      40.548  27.842  28.929  1.00  0.00     0.031 A 
ATOM     36  C   UNL A   1      41.910  27.857  29.555  1.00  0.00     0.074 A 
ATOM     37  C   UNL A   1      39.749  28.922  29.000  1.00  0.00     0.049 A 
ATOM     38  N   UNL A   1      42.446  28.760  30.334  1.00  0.00    -0.248 NA
ATOM     39  C   UNL A   1      42.783  26.710  29.264  1.00  0.00     0.031 C 
ATOM     40  C   UNL A   1      38.441  29.053  28.353  1.00  0.00     0.029 A 
ATOM     41  N   UNL A   1      39.916  30.115  29.658  1.00  0.00    -0.354 N 
ATOM     42  C   UNL A   1      43.709  28.277  30.654  1.00  0.00     0.074 A 
ATOM     43  C   UNL A   1      43.853  26.998  29.992  1.00  0.00     0.031 C 
ATOM     44  C   UNL A   1      37.923  30.256  28.650  1.00  0.00     0.029 A 
ATOM     45  C   UNL A   1      38.827  30.950  29.562  1.00  0.00     0.049 A 
ATOM     46  H   UNL A   1      40.735  30.350  30.151  1.00  0.00     0.167 HD
ATOM     47  C   UNL A   1      44.655  28.850  31.435  1.00  0.00     0.031 A 
ATOM     48  C   UNL A   1      38.567  32.120  30.177  1.00  0.00     0.031 A 
ATOM     49  C   UNL A   1      44.486  30.116  32.104  1.00  0.00     0.049 A 
ATOM     50  C   UNL A   1      39.579  32.676  31.142  1.00  0.00     0.074 A 
ATOM     51  C   UNL A   1      45.379  30.786  32.921  1.00  0.00     0.029 A 
ATOM     52  N   UNL A   1      43.341  30.898  32.039  1.00  0.00    -0.354 N 
ATOM     53  N   UNL A   1      40.765  32.207  31.450  1.00  0.00    -0.248 NA
ATOM     54  C   UNL A   1      39.212  33.907  31.853  1.00  0.00     0.031 C 
ATOM     55  C   UNL A   1      44.751  31.940  33.401  1.00  0.00     0.029 A 
ATOM     56  C   UNL A   1      43.489  32.025  32.832  1.00  0.00     0.049 A 
ATOM     57  H   UNL A   1      42.539  30.684  31.508  1.00  0.00     0.167 HD
ATOM     58  C   UNL A   1      41.294  33.096  32.378  1.00  0.00     0.074 A 
ATOM     59  C   UNL A   1      40.307  34.138  32.568  1.00  0.00     0.031 C 
ATOM     60  C   UNL A   1      42.491  33.051  33.014  1.00  0.00     0.031 A 
BRANCH  47  61
ATOM     61  C   UNL A   1      45.933  28.081  31.654  1.00  0.00    -0.014 A 
ATOM     62  C   UNL A   1      47.042  28.247  30.804  1.00  0.00     0.010 A 
ATOM     63  C   UNL A   1      46.028  27.185  32.734  1.00  0.00     0.010 A 
ATOM     64  C   UNL A   1      48.203  27.492  31.001  1.00  0.00     0.020 A 
ATOM     65  C   UNL A   1      47.197  26.451  32.952  1.00  0.00     0.020 A 
ATOM     66  C   UNL A   1      48.271  26.595  32.071  1.00  0.00     0.054 A 
BRANCH  66  67
ATOM     67  S   UNL A   1      49.792  25.635  32.308  1.00  0.00     0.124 S 
ATOM     68  O   UNL A   1      49.357  24.598  33.238  1.00  0.00    -0.237 OA
ATOM     69  O   UNL A   1      50.094  25.176  30.954  1.00  0.00    -0.237 OA
ATOM     70  O   UNL A   1      50.736  26.607  32.856  1.00  0.00    -0.744 OA
ENDBRANCH  66  67
ENDBRANCH  47  61
BRANCH  48  71
ATOM     71  C   UNL A   1      37.275  32.820  29.929  1.00  0.00    -0.014 A 
ATOM     72  C   UNL A   1      37.124  33.664  28.815  1.00  0.00     0.010 A 
ATOM     73  C   UNL A   1      36.180  32.629  30.793  1.00  0.00     0.010 A 
ATOM     74  C   UNL A   1      35.906  34.303  28.570  1.00  0.00     0.020 A 
ATOM     75  C   UNL A   1      34.951  33.243  30.536  1.00  0.00     0.020 A 
ATOM     76  C   UNL A   1      34.824  34.083  29.428  1.00  0.00     0.054 A 
BRANCH  76  77
ATOM     77  S   UNL A   1      33.234  34.871  29.049  1.00  0.00     0.124 S 
ATOM     78  O   UNL A   1      32.552  34.814  30.338  1.00  0.00    -0.237 OA
ATOM     79  O   UNL A   1      33.641  36.203  28.607  1.00  0.00    -0.237 OA
ATOM     80  O   UNL A   1      32.671  34.021  28.004  1.00  0.00    -0.744 OA
ENDBRANCH  76  77
ENDBRANCH  48  71
BRANCH  60  81
ATOM     81  C   UNL A   1      42.814  34.174  33.965  1.00  0.00    -0.014 A 
ATOM     82  C   UNL A   1      42.579  34.045  35.346  1.00  0.00     0.010 A 
ATOM     83  C   UNL A   1      43.436  35.339  33.481  1.00  0.00     0.010 A 
ATOM     84  C   UNL A   1      42.952  35.067  36.223  1.00  0.00     0.020 A 
ATOM     85  C   UNL A   1      43.835  36.351  34.358  1.00  0.00     0.020 A 
ATOM     86  C   UNL A   1      43.586  36.210  35.724  1.00  0.00     0.054 A 
BRANCH  86  87
ATOM     87  S   UNL A   1      44.131  37.484  36.894  1.00  0.00     0.124 S 
ATOM     88  O   UNL A   1      44.274  38.652  36.030  1.00  0.00    -0.237 OA
ATOM     89  O   UNL A   1      43.023  37.539  37.846  1.00  0.00    -0.237 OA
ATOM     90  O   UNL A   1      45.380  36.951  37.432  1.00  0.00    -0.744 OA
ENDBRANCH  86  87
ENDBRANCH  60  81
ENDBRANCH  34  35
ENDBRANCH  27  29
ENDBRANCH  26  27
ENDBRANCH  25  26
ENDBRANCH   1  25
TORSDOF 19
ENDMDL
MODEL 3
REMARK VINA RESULT:     -10.0      1.265      1.880
REMARK SMILES CCC[C@H](CNC(=O)N1CCN2C(=O)NC[C@H]2C1)C(=O)OCCOC(=O)c1ccc(-c2c3nc(c(-c4ccc(S(=O)(=O)[O-])cc4)c4ccc([nH]4)c(-c4ccc(S(=O)(=O)[O-])cc4)c4nc(c(-c5ccc(S(=O)(=O)[O-])cc5)c5ccc2[nH]5)C=C4)C=C3)cc1
REMARK SMILES IDX 22 1 21 2 19 3 20 4 4 5 3 6 2 7 1 8 5 9 6 10 7 11 8 13 9 14
REMARK SMILES IDX 10 15 18 16 11 17 17 18 12 19 16 20 13 21 15 22 14 23 23 25
REMARK SMILES IDX 24 26 25 27 26 28 27 29 28 30 86 31 29 32 85 33 30 34 31 35
REMARK SMILES IDX 32 36 79 37 33 38 84 39 78 40 80 41 34 42 83 43 77 44 76 45
REMARK SMILES IDX 35 47 65 48 46 49 64 50 47 51 50 52 63 53 81 54 48 55 49 56
REMARK SMILES IDX 62 58 82 59 51 60 36 61 37 62 45 63 38 64 44 65 39 66 40 67
REMARK SMILES IDX 41 68 42 69 43 70 66 71 67 72 75 73 68 74 74 75 69 76 70 77
REMARK SMILES IDX 71 78 72 79 73 80 52 81 53 82 61 83 54 84 60 85 55 86 56 87
REMARK SMILES IDX 57 88 58 89 59 90
REMARK H PARENT 6 12 15 24 80 46 50 57
REMARK Flexibility Score: inf
ROOT
ATOM      1  C   UNL A   1      32.558  27.751  26.251  1.00  0.00     0.274 C 
ENDROOT
BRANCH   1   2
ATOM      2  O   UNL A   1      32.680  26.422  25.706  1.00  0.00    -0.462 OA
BRANCH   2   3
ATOM      3  C   UNL A   1      32.523  26.346  24.359  1.00  0.00     0.310 C 
ATOM      4  O   UNL A   1      33.324  26.810  23.556  1.00  0.00    -0.252 OA
BRANCH   3   5
ATOM      5  C   UNL A   1      31.230  25.664  23.927  1.00  0.00     0.118 C 
BRANCH   5   6
ATOM      6  C   UNL A   1      29.977  26.460  24.335  1.00  0.00     0.017 C 
BRANCH   6   7
ATOM      7  C   UNL A   1      29.941  27.943  23.935  1.00  0.00    -0.002 C 
ATOM      8  C   UNL A   1      30.151  28.237  22.454  1.00  0.00     0.004 C 
ENDBRANCH   6   7
ENDBRANCH   5   6
BRANCH   5   9
ATOM      9  C   UNL A   1      31.234  24.177  24.345  1.00  0.00     0.133 C 
BRANCH   9  10
ATOM     10  N   UNL A   1      31.469  23.951  25.765  1.00  0.00    -0.337 N 
ATOM     11  C   UNL A   1      32.329  23.149  26.425  1.00  0.00     0.317 C 
ATOM     12  H   UNL A   1      30.888  24.484  26.355  1.00  0.00     0.165 HD
ATOM     13  O   UNL A   1      32.032  22.849  27.584  1.00  0.00    -0.249 OA
BRANCH  11  14
ATOM     14  N   UNL A   1      33.439  22.656  25.810  1.00  0.00    -0.321 N 
ATOM     15  C   UNL A   1      33.515  21.414  25.013  1.00  0.00     0.143 C 
ATOM     16  C   UNL A   1      34.592  23.552  25.622  1.00  0.00     0.148 C 
ATOM     17  C   UNL A   1      34.827  20.641  25.254  1.00  0.00     0.143 C 
ATOM     18  C   UNL A   1      35.858  22.807  26.032  1.00  0.00     0.125 C 
ATOM     19  N   UNL A   1      35.965  21.542  25.327  1.00  0.00    -0.317 N 
ATOM     20  C   UNL A   1      37.183  23.490  25.712  1.00  0.00     0.144 C 
ATOM     21  C   UNL A   1      37.284  21.248  25.031  1.00  0.00     0.317 C 
ATOM     22  N   UNL A   1      38.025  22.391  25.310  1.00  0.00    -0.336 N 
ATOM     23  O   UNL A   1      37.726  20.199  24.615  1.00  0.00    -0.249 OA
ATOM     24  H   UNL A   1      39.006  22.442  25.242  1.00  0.00     0.165 HD
ENDBRANCH  11  14
ENDBRANCH   9  10
ENDBRANCH   5   9
ENDBRANCH   3   5
ENDBRANCH   2   3
ENDBRANCH   1   2
BRANCH   1  25
ATOM     25  C   UNL A   1      33.856  28.248  26.907  1.00  0.00     0.275 C 
BRANCH  25  26
ATOM     26  O   UNL A   1      34.164  29.618  26.586  1.00  0.00    -0.458 OA
BRANCH  26  27
ATOM     27  C   UNL A   1      34.534  30.394  27.634  1.00  0.00     0.338 C 
ATOM     28  O   UNL A   1      33.826  31.172  28.252  1.00  0.00    -0.246 OA
BRANCH  27  29
ATOM     29  C   UNL A   1      35.906  30.055  28.052  1.00  0.00     0.060 A 
ATOM     30  C   UNL A   1      36.922  30.089  27.091  1.00  0.00     0.016 A 
ATOM     31  C   UNL A   1      36.186  29.639  29.352  1.00  0.00     0.016 A 
ATOM     32  C   UNL A   1      38.224  29.735  27.420  1.00  0.00     0.010 A 
ATOM     33  C   UNL A   1      37.497  29.281  29.685  1.00  0.00     0.010 A 
ATOM     34  C   UNL A   1      38.523  29.332  28.723  1.00  0.00    -0.014 A 
BRANCH  34  35
ATOM     35  C   UNL A   1      39.908  28.949  29.081  1.00  0.00     0.031 A 
ATOM     36  C   UNL A   1      40.811  29.954  29.730  1.00  0.00     0.074 A 
ATOM     37  C   UNL A   1      40.346  27.704  28.816  1.00  0.00     0.049 A 
ATOM     38  N   UNL A   1      42.091  29.867  29.981  1.00  0.00    -0.248 NA
ATOM     39  C   UNL A   1      40.193  31.219  30.154  1.00  0.00     0.031 C 
ATOM     40  C   UNL A   1      39.530  26.617  28.269  1.00  0.00     0.029 A 
ATOM     41  N   UNL A   1      41.590  27.144  28.963  1.00  0.00    -0.354 N 
ATOM     42  C   UNL A   1      42.442  31.077  30.565  1.00  0.00     0.074 A 
ATOM     43  C   UNL A   1      41.240  31.884  30.621  1.00  0.00     0.031 C 
ATOM     44  C   UNL A   1      40.297  25.524  28.123  1.00  0.00     0.029 A 
ATOM     45  C   UNL A   1      41.669  25.853  28.498  1.00  0.00     0.049 A 
ATOM     46  H   UNL A   1      42.353  27.622  29.363  1.00  0.00     0.167 HD
ATOM     47  C   UNL A   1      43.659  31.477  31.006  1.00  0.00     0.031 A 
ATOM     48  C   UNL A   1      42.734  25.042  28.346  1.00  0.00     0.031 A 
ATOM     49  C   UNL A   1      44.848  30.668  30.924  1.00  0.00     0.049 A 
ATOM     50  C   UNL A   1      44.098  25.553  28.724  1.00  0.00     0.074 A 
ATOM     51  C   UNL A   1      46.132  30.977  31.337  1.00  0.00     0.029 A 
ATOM     52  N   UNL A   1      44.901  29.391  30.380  1.00  0.00    -0.354 N 
ATOM     53  N   UNL A   1      44.424  26.705  29.262  1.00  0.00    -0.248 NA
ATOM     54  C   UNL A   1      45.237  24.666  28.459  1.00  0.00     0.031 C 
ATOM     55  C   UNL A   1      46.971  29.914  30.987  1.00  0.00     0.029 A 
ATOM     56  C   UNL A   1      46.201  28.914  30.413  1.00  0.00     0.049 A 
ATOM     57  H   UNL A   1      44.128  28.897  30.023  1.00  0.00     0.167 HD
ATOM     58  C   UNL A   1      45.804  26.673  29.418  1.00  0.00     0.074 A 
ATOM     59  C   UNL A   1      46.249  25.383  28.931  1.00  0.00     0.031 C 
ATOM     60  C   UNL A   1      46.628  27.627  29.918  1.00  0.00     0.031 A 
BRANCH  47  61
ATOM     61  C   UNL A   1      43.770  32.873  31.562  1.00  0.00    -0.014 A 
ATOM     62  C   UNL A   1      43.594  33.132  32.934  1.00  0.00     0.010 A 
ATOM     63  C   UNL A   1      44.065  33.943  30.699  1.00  0.00     0.010 A 
ATOM     64  C   UNL A   1      43.661  34.441  33.422  1.00  0.00     0.020 A 
ATOM     65  C   UNL A   1      44.162  35.250  31.187  1.00  0.00     0.020 A 
ATOM     66  C   UNL A   1      43.939  35.492  32.544  1.00  0.00     0.054 A 
BRANCH  66  67
ATOM     67  S   UNL A   1      44.029  37.179  33.205  1.00  0.00     0.124 S 
ATOM     68  O   UNL A   1      42.888  37.209  34.117  1.00  0.00    -0.237 OA
ATOM     69  O   UNL A   1      45.342  37.202  33.845  1.00  0.00    -0.237 OA
ATOM     70  O   UNL A   1      43.902  38.026  32.021  1.00  0.00    -0.744 OA
ENDBRANCH  66  67
ENDBRANCH  47  61
BRANCH  48  71
ATOM     71  C   UNL A   1      42.555  23.678  27.774  1.00  0.00    -0.014 A 
ATOM     72  C   UNL A   1      42.649  23.469  26.387  1.00  0.00     0.010 A 
ATOM     73  C   UNL A   1      42.312  22.575  28.614  1.00  0.00     0.010 A 
ATOM     74  C   UNL A   1      42.502  22.187  25.852  1.00  0.00     0.020 A 
ATOM     75  C   UNL A   1      42.194  21.286  28.086  1.00  0.00     0.020 A 
ATOM     76  C   UNL A   1      42.283  21.102  26.706  1.00  0.00     0.054 A 
BRANCH  76  77
ATOM     77  S   UNL A   1      42.165  19.438  25.991  1.00  0.00     0.124 S 
ATOM     78  O   UNL A   1      43.032  19.546  24.823  1.00  0.00    -0.237 OA
ATOM     79  O   UNL A   1      42.666  18.595  27.074  1.00  0.00    -0.237 OA
ATOM     80  O   UNL A   1      40.741  19.288  25.703  1.00  0.00    -0.744 OA
ENDBRANCH  76  77
ENDBRANCH  48  71
BRANCH  60  81
ATOM     81  C   UNL A   1      48.098  27.308  29.987  1.00  0.00    -0.014 A 
ATOM     82  C   UNL A   1      48.999  27.831  29.041  1.00  0.00     0.010 A 
ATOM     83  C   UNL A   1      48.596  26.544  31.059  1.00  0.00     0.010 A 
ATOM     84  C   UNL A   1      50.369  27.586  29.162  1.00  0.00     0.020 A 
ATOM     85  C   UNL A   1      49.967  26.320  31.197  1.00  0.00     0.020 A 
ATOM     86  C   UNL A   1      50.846  26.839  30.244  1.00  0.00     0.054 A 
BRANCH  86  87
ATOM     87  S   UNL A   1      52.636  26.604  30.420  1.00  0.00     0.124 S 
ATOM     88  O   UNL A   1      53.001  26.053  29.118  1.00  0.00    -0.237 OA
ATOM     89  O   UNL A   1      53.111  27.961  30.683  1.00  0.00    -0.237 OA
ATOM     90  O   UNL A   1      52.757  25.679  31.544  1.00  0.00    -0.744 OA
ENDBRANCH  86  87
ENDBRANCH  60  81
ENDBRANCH  34  35
ENDBRANCH  27  29
ENDBRANCH  26  27
ENDBRANCH  25  26
ENDBRANCH   1  25
TORSDOF 19
ENDMDL
