MODEL 1
REMARK VINA RESULT:      -9.5      0.000      0.000
REMARK SMILES Cc1ccc(C)c([C@@H](C)[C@](C)(O)C(=O)OCCOC(=O)c2ccc(-c3c4nc(c(-c5ccc(S(=O)(=O)[O-])cc5)c5ccc([nH]5)c(-c5ccc(S(=O)(=O)[O-])cc5)c5nc(c(-c6ccc(S(=O)(=O)[O-])cc6)c6ccc3[nH]6)C=C5)C=C4)cc2)c1
REMARK SMILES IDX 17 1 16 2 15 3 13 4 14 5 10 6 11 7 8 8 9 9 7 10 1 11 2 12
REMARK SMILES IDX 3 13 81 14 4 15 5 16 6 17 12 18 18 20 19 21 20 22 21 23
REMARK SMILES IDX 22 24 80 25 23 26 79 27 24 28 25 29 26 30 73 31 27 32 78 33
REMARK SMILES IDX 72 34 74 35 28 36 77 37 71 38 70 39 29 41 59 42 40 43 58 44
REMARK SMILES IDX 41 45 44 46 57 47 75 48 42 49 43 50 56 52 76 53 45 54 30 55
REMARK SMILES IDX 31 56 39 57 32 58 38 59 33 60 34 61 35 62 36 63 37 64 60 65
REMARK SMILES IDX 61 66 69 67 62 68 68 69 63 70 64 71 65 72 66 73 67 74 46 75
REMARK SMILES IDX 47 76 55 77 48 78 54 79 49 80 50 81 51 82 52 83 53 84
REMARK H PARENT 12 19 74 40 44 51
REMARK Flexibility Score: inf
ROOT
ATOM      1  C   UNL A   1      55.241  24.393  31.889  1.00  0.00     0.275 C 
ENDROOT
BRANCH   1   2
ATOM      2  C   UNL A   1      54.817  22.945  32.228  1.00  0.00     0.274 C 
BRANCH   2   3
ATOM      3  O   UNL A   1      53.831  22.769  33.266  1.00  0.00    -0.460 OA
BRANCH   3   4
ATOM      4  C   UNL A   1      53.105  21.610  33.154  1.00  0.00     0.338 C 
ATOM      5  O   UNL A   1      52.472  21.347  32.136  1.00  0.00    -0.249 OA
BRANCH   4   6
ATOM      6  C   UNL A   1      53.280  20.601  34.370  1.00  0.00     0.165 C 
ATOM      7  C   UNL A   1      53.226  19.187  33.712  1.00  0.00     0.055 C 
BRANCH   6   8
ATOM      8  C   UNL A   1      52.295  20.824  35.669  1.00  0.00     0.059 C 
ATOM      9  C   UNL A   1      51.596  19.525  36.138  1.00  0.00     0.016 C 
BRANCH   8  10
ATOM     10  C   UNL A   1      51.323  22.079  35.778  1.00  0.00    -0.039 A 
ATOM     11  C   UNL A   1      47.554  24.157  34.182  1.00  0.00     0.044 C 
ATOM     12  C   UNL A   1      48.892  23.917  34.781  1.00  0.00    -0.051 A 
ATOM     13  C   UNL A   1      49.577  25.254  35.761  1.00  0.00     0.004 A 
ATOM     14  C   UNL A   1      49.769  22.324  34.751  1.00  0.00     0.007 A 
ATOM     15  C   UNL A   1      51.063  24.983  36.802  1.00  0.00     0.004 A 
ATOM     16  C   UNL A   1      51.905  23.414  36.803  1.00  0.00    -0.048 A 
ATOM     17  C   UNL A   1      53.106  23.274  37.695  1.00  0.00     0.044 C 
ENDBRANCH   8  10
ENDBRANCH   6   8
BRANCH   6  18
ATOM     18  O   UNL A   1      54.613  20.626  34.942  1.00  0.00    -0.378 OA
ATOM     19  H   UNL A   1      55.271  20.601  34.230  1.00  0.00     0.212 HD
ENDBRANCH   6  18
ENDBRANCH   4   6
ENDBRANCH   3   4
ENDBRANCH   2   3
ENDBRANCH   1   2
BRANCH   1  20
ATOM     20  O   UNL A   1      54.396  25.445  32.393  1.00  0.00    -0.458 OA
BRANCH  20  21
ATOM     21  C   UNL A   1      53.717  26.307  31.591  1.00  0.00     0.338 C 
ATOM     22  O   UNL A   1      54.311  26.975  30.748  1.00  0.00    -0.246 OA
BRANCH  21  23
ATOM     23  C   UNL A   1      52.296  26.592  31.938  1.00  0.00     0.060 A 
ATOM     24  C   UNL A   1      51.657  25.507  32.429  1.00  0.00     0.016 A 
ATOM     25  C   UNL A   1      51.492  27.618  31.445  1.00  0.00     0.016 A 
ATOM     26  C   UNL A   1      50.422  25.242  31.855  1.00  0.00     0.010 A 
ATOM     27  C   UNL A   1      50.169  27.344  30.979  1.00  0.00     0.010 A 
ATOM     28  C   UNL A   1      49.670  26.032  30.906  1.00  0.00    -0.014 A 
BRANCH  28  29
ATOM     29  C   UNL A   1      48.167  25.565  29.958  1.00  0.00     0.031 A 
ATOM     30  C   UNL A   1      46.114  25.778  30.668  1.00  0.00     0.074 A 
ATOM     31  C   UNL A   1      48.790  25.362  28.576  1.00  0.00     0.049 A 
ATOM     32  N   UNL A   1      44.852  25.593  30.119  1.00  0.00    -0.248 NA
ATOM     33  C   UNL A   1      45.422  26.484  32.099  1.00  0.00     0.031 C 
ATOM     34  C   UNL A   1      50.183  25.017  28.147  1.00  0.00     0.029 A 
ATOM     35  N   UNL A   1      48.308  25.471  27.228  1.00  0.00    -0.354 N 
ATOM     36  C   UNL A   1      44.027  26.702  30.402  1.00  0.00     0.074 A 
ATOM     37  C   UNL A   1      44.359  27.168  31.692  1.00  0.00     0.031 C 
ATOM     38  C   UNL A   1      50.450  25.333  26.855  1.00  0.00     0.029 A 
ATOM     39  C   UNL A   1      49.239  25.775  26.225  1.00  0.00     0.049 A 
ATOM     40  H   UNL A   1      47.356  25.337  27.015  1.00  0.00     0.167 HD
ATOM     41  C   UNL A   1      43.247  27.271  29.438  1.00  0.00     0.031 A 
ATOM     42  C   UNL A   1      49.040  26.342  24.992  1.00  0.00     0.031 A 
ATOM     43  C   UNL A   1      42.904  26.316  28.421  1.00  0.00     0.049 A 
ATOM     44  C   UNL A   1      47.579  26.430  24.764  1.00  0.00     0.074 A 
ATOM     45  C   UNL A   1      42.373  25.047  28.516  1.00  0.00     0.029 A 
ATOM     46  N   UNL A   1      43.397  26.456  27.147  1.00  0.00    -0.354 N 
ATOM     47  N   UNL A   1      46.792  25.407  24.622  1.00  0.00    -0.248 NA
ATOM     48  C   UNL A   1      46.918  27.700  25.018  1.00  0.00     0.031 C 
ATOM     49  C   UNL A   1      42.951  24.326  27.451  1.00  0.00     0.029 A 
ATOM     50  C   UNL A   1      43.685  25.203  26.648  1.00  0.00     0.049 A 
ATOM     51  H   UNL A   1      43.524  27.308  26.671  1.00  0.00     0.167 HD
ATOM     52  C   UNL A   1      45.574  25.816  25.138  1.00  0.00     0.074 A 
ATOM     53  C   UNL A   1      45.683  27.262  25.277  1.00  0.00     0.031 C 
ATOM     54  C   UNL A   1      44.695  24.907  25.644  1.00  0.00     0.031 A 
BRANCH  41  55
ATOM     55  C   UNL A   1      42.950  28.743  29.292  1.00  0.00    -0.014 A 
ATOM     56  C   UNL A   1      43.904  29.583  28.692  1.00  0.00     0.010 A 
ATOM     57  C   UNL A   1      41.891  29.373  29.982  1.00  0.00     0.010 A 
ATOM     58  C   UNL A   1      43.832  30.980  28.806  1.00  0.00     0.020 A 
ATOM     59  C   UNL A   1      41.820  30.773  30.125  1.00  0.00     0.020 A 
ATOM     60  C   UNL A   1      42.800  31.569  29.537  1.00  0.00     0.054 A 
BRANCH  60  61
ATOM     61  S   UNL A   1      42.798  33.377  29.736  1.00  0.00     0.124 S 
ATOM     62  O   UNL A   1      41.375  33.674  29.869  1.00  0.00    -0.237 OA
ATOM     63  O   UNL A   1      43.592  33.549  30.950  1.00  0.00    -0.237 OA
ATOM     64  O   UNL A   1      43.426  33.862  28.510  1.00  0.00    -0.744 OA
ENDBRANCH  60  61
ENDBRANCH  41  55
BRANCH  42  65
ATOM     65  C   UNL A   1      49.963  27.105  24.072  1.00  0.00    -0.014 A 
ATOM     66  C   UNL A   1      49.745  27.189  22.670  1.00  0.00     0.010 A 
ATOM     67  C   UNL A   1      50.900  28.003  24.611  1.00  0.00     0.010 A 
ATOM     68  C   UNL A   1      50.382  28.169  21.869  1.00  0.00     0.020 A 
ATOM     69  C   UNL A   1      51.538  28.977  23.824  1.00  0.00     0.020 A 
ATOM     70  C   UNL A   1      51.262  29.076  22.462  1.00  0.00     0.054 A 
BRANCH  70  71
ATOM     71  S   UNL A   1      51.950  30.465  21.495  1.00  0.00     0.124 S 
ATOM     72  O   UNL A   1      50.886  30.740  20.534  1.00  0.00    -0.237 OA
ATOM     73  O   UNL A   1      52.164  31.492  22.511  1.00  0.00    -0.237 OA
ATOM     74  O   UNL A   1      53.172  29.906  20.918  1.00  0.00    -0.744 OA
ENDBRANCH  70  71
ENDBRANCH  42  65
BRANCH  54  75
ATOM     75  C   UNL A   1      44.894  23.439  25.287  1.00  0.00    -0.014 A 
ATOM     76  C   UNL A   1      45.670  22.523  26.027  1.00  0.00     0.010 A 
ATOM     77  C   UNL A   1      44.138  22.937  24.210  1.00  0.00     0.010 A 
ATOM     78  C   UNL A   1      45.692  21.157  25.694  1.00  0.00     0.020 A 
ATOM     79  C   UNL A   1      44.130  21.578  23.892  1.00  0.00     0.020 A 
ATOM     80  C   UNL A   1      44.917  20.694  24.629  1.00  0.00     0.054 A 
BRANCH  80  81
ATOM     81  S   UNL A   1      44.916  18.926  24.219  1.00  0.00     0.124 S 
ATOM     82  O   UNL A   1      46.148  18.457  24.849  1.00  0.00    -0.237 OA
ATOM     83  O   UNL A   1      43.676  18.453  24.828  1.00  0.00    -0.237 OA
ATOM     84  O   UNL A   1      44.926  18.907  22.756  1.00  0.00    -0.744 OA
ENDBRANCH  80  81
ENDBRANCH  54  75
ENDBRANCH  28  29
ENDBRANCH  21  23
ENDBRANCH  20  21
ENDBRANCH   1  20
TORSDOF 17
ENDMDL
MODEL 2
REMARK VINA RESULT:      -9.5      6.321     14.787
REMARK SMILES Cc1ccc(C)c([C@@H](C)[C@](C)(O)C(=O)OCCOC(=O)c2ccc(-c3c4nc(c(-c5ccc(S(=O)(=O)[O-])cc5)c5ccc([nH]5)c(-c5ccc(S(=O)(=O)[O-])cc5)c5nc(c(-c6ccc(S(=O)(=O)[O-])cc6)c6ccc3[nH]6)C=C5)C=C4)cc2)c1
REMARK SMILES IDX 17 1 16 2 15 3 13 4 14 5 10 6 11 7 8 8 9 9 7 10 1 11 2 12
REMARK SMILES IDX 3 13 81 14 4 15 5 16 6 17 12 18 18 20 19 21 20 22 21 23
REMARK SMILES IDX 22 24 80 25 23 26 79 27 24 28 25 29 26 30 73 31 27 32 78 33
REMARK SMILES IDX 72 34 74 35 28 36 77 37 71 38 70 39 29 41 59 42 40 43 58 44
REMARK SMILES IDX 41 45 44 46 57 47 75 48 42 49 43 50 56 52 76 53 45 54 30 55
REMARK SMILES IDX 31 56 39 57 32 58 38 59 33 60 34 61 35 62 36 63 37 64 60 65
REMARK SMILES IDX 61 66 69 67 62 68 68 69 63 70 64 71 65 72 66 73 67 74 46 75
REMARK SMILES IDX 47 76 55 77 48 78 54 79 49 80 50 81 51 82 52 83 53 84
REMARK H PARENT 12 19 74 40 44 51
REMARK Flexibility Score: inf
ROOT
ATOM      1  C   UNL A   1      33.029  31.325  27.566  1.00  0.00     0.275 C 
ENDROOT
BRANCH   1   2
ATOM      2  C   UNL A   1      32.652  29.974  26.916  1.00  0.00     0.274 C 
BRANCH   2   3
ATOM      3  O   UNL A   1      32.422  29.965  25.491  1.00  0.00    -0.460 OA
BRANCH   3   4
ATOM      4  C   UNL A   1      32.980  28.892  24.844  1.00  0.00     0.338 C 
ATOM      5  O   UNL A   1      34.176  28.636  24.943  1.00  0.00    -0.249 OA
BRANCH   4   6
ATOM      6  C   UNL A   1      31.935  27.952  24.102  1.00  0.00     0.165 C 
ATOM      7  C   UNL A   1      30.701  28.872  23.844  1.00  0.00     0.055 C 
BRANCH   6   8
ATOM      8  C   UNL A   1      31.610  26.500  24.804  1.00  0.00     0.059 C 
ATOM      9  C   UNL A   1      31.014  26.627  26.227  1.00  0.00     0.016 C 
BRANCH   8  10
ATOM     10  C   UNL A   1      32.623  25.276  24.705  1.00  0.00    -0.039 A 
ATOM     11  C   UNL A   1      36.886  23.760  25.477  1.00  0.00     0.044 C 
ATOM     12  C   UNL A   1      35.533  23.942  24.892  1.00  0.00    -0.051 A 
ATOM     13  C   UNL A   1      34.922  22.604  23.867  1.00  0.00     0.004 A 
ATOM     14  C   UNL A   1      34.405  25.309  25.301  1.00  0.00     0.007 A 
ATOM     15  C   UNL A   1      33.165  22.558  23.340  1.00  0.00     0.004 A 
ATOM     16  C   UNL A   1      32.048  23.878  23.766  1.00  0.00    -0.048 A 
ATOM     17  C   UNL A   1      30.622  23.753  23.306  1.00  0.00     0.044 C 
ENDBRANCH   8  10
ENDBRANCH   6   8
BRANCH   6  18
ATOM     18  O   UNL A   1      32.344  27.598  22.756  1.00  0.00    -0.378 OA
ATOM     19  H   UNL A   1      32.038  28.278  22.135  1.00  0.00     0.212 HD
ENDBRANCH   6  18
ENDBRANCH   4   6
ENDBRANCH   3   4
ENDBRANCH   2   3
ENDBRANCH   1   2
BRANCH   1  20
ATOM     20  O   UNL A   1      34.326  31.857  27.239  1.00  0.00    -0.458 OA
BRANCH  20  21
ATOM     21  C   UNL A   1      35.408  31.742  28.054  1.00  0.00     0.338 C 
ATOM     22  O   UNL A   1      35.870  32.730  28.620  1.00  0.00    -0.246 OA
BRANCH  21  23
ATOM     23  C   UNL A   1      36.149  30.449  28.033  1.00  0.00     0.060 A 
ATOM     24  C   UNL A   1      36.070  29.790  29.210  1.00  0.00     0.016 A 
ATOM     25  C   UNL A   1      37.189  30.082  27.181  1.00  0.00     0.016 A 
ATOM     26  C   UNL A   1      37.281  29.330  29.708  1.00  0.00     0.010 A 
ATOM     27  C   UNL A   1      38.379  29.486  27.703  1.00  0.00     0.010 A 
ATOM     28  C   UNL A   1      38.586  29.342  29.085  1.00  0.00    -0.014 A 
BRANCH  28  29
ATOM     29  C   UNL A   1      40.221  28.972  29.838  1.00  0.00     0.031 A 
ATOM     30  C   UNL A   1      41.372  27.146  29.511  1.00  0.00     0.074 A 
ATOM     31  C   UNL A   1      40.571  30.358  30.381  1.00  0.00     0.049 A 
ATOM     32  N   UNL A   1      42.632  26.691  29.878  1.00  0.00    -0.248 NA
ATOM     33  C   UNL A   1      41.143  25.770  28.473  1.00  0.00     0.031 C 
ATOM     34  C   UNL A   1      39.718  31.522  30.781  1.00  0.00     0.029 A 
ATOM     35  N   UNL A   1      41.799  31.053  30.651  1.00  0.00    -0.354 N 
ATOM     36  C   UNL A   1      43.299  26.145  28.760  1.00  0.00     0.074 A 
ATOM     37  C   UNL A   1      42.336  25.498  27.958  1.00  0.00     0.031 C 
ATOM     38  C   UNL A   1      40.385  32.702  30.813  1.00  0.00     0.029 A 
ATOM     39  C   UNL A   1      41.781  32.453  30.594  1.00  0.00     0.049 A 
ATOM     40  H   UNL A   1      42.625  30.562  30.868  1.00  0.00     0.167 HD
ATOM     41  C   UNL A   1      44.603  26.446  28.496  1.00  0.00     0.031 A 
ATOM     42  C   UNL A   1      42.813  33.332  30.383  1.00  0.00     0.031 A 
ATOM     43  C   UNL A   1      45.307  26.796  29.698  1.00  0.00     0.049 A 
ATOM     44  C   UNL A   1      44.077  32.561  30.408  1.00  0.00     0.074 A 
ATOM     45  C   UNL A   1      45.397  26.150  30.912  1.00  0.00     0.029 A 
ATOM     46  N   UNL A   1      45.757  28.080  29.886  1.00  0.00    -0.354 N 
ATOM     47  N   UNL A   1      44.558  31.965  31.457  1.00  0.00    -0.248 NA
ATOM     48  C   UNL A   1      44.670  32.171  29.138  1.00  0.00     0.031 C 
ATOM     49  C   UNL A   1      45.482  27.180  31.872  1.00  0.00     0.029 A 
ATOM     50  C   UNL A   1      45.602  28.408  31.217  1.00  0.00     0.049 A 
ATOM     51  H   UNL A   1      46.127  28.667  29.188  1.00  0.00     0.167 HD
ATOM     52  C   UNL A   1      45.238  30.864  30.966  1.00  0.00     0.074 A 
ATOM     53  C   UNL A   1      45.355  31.094  29.532  1.00  0.00     0.031 C 
ATOM     54  C   UNL A   1      45.407  29.753  31.735  1.00  0.00     0.031 A 
BRANCH  41  55
ATOM     55  C   UNL A   1      45.211  26.625  27.126  1.00  0.00    -0.014 A 
ATOM     56  C   UNL A   1      46.041  25.618  26.603  1.00  0.00     0.010 A 
ATOM     57  C   UNL A   1      45.227  27.872  26.463  1.00  0.00     0.010 A 
ATOM     58  C   UNL A   1      46.875  25.851  25.499  1.00  0.00     0.020 A 
ATOM     59  C   UNL A   1      46.077  28.125  25.368  1.00  0.00     0.020 A 
ATOM     60  C   UNL A   1      46.904  27.109  24.897  1.00  0.00     0.054 A 
BRANCH  60  61
ATOM     61  S   UNL A   1      48.067  27.391  23.528  1.00  0.00     0.124 S 
ATOM     62  O   UNL A   1      48.324  26.035  23.052  1.00  0.00    -0.237 OA
ATOM     63  O   UNL A   1      47.281  28.234  22.630  1.00  0.00    -0.237 OA
ATOM     64  O   UNL A   1      49.202  28.053  24.167  1.00  0.00    -0.744 OA
ENDBRANCH  60  61
ENDBRANCH  41  55
BRANCH  42  65
ATOM     65  C   UNL A   1      42.840  34.749  29.863  1.00  0.00    -0.014 A 
ATOM     66  C   UNL A   1      43.718  35.738  30.385  1.00  0.00     0.010 A 
ATOM     67  C   UNL A   1      42.209  35.058  28.646  1.00  0.00     0.010 A 
ATOM     68  C   UNL A   1      43.998  36.937  29.686  1.00  0.00     0.020 A 
ATOM     69  C   UNL A   1      42.478  36.247  27.947  1.00  0.00     0.020 A 
ATOM     70  C   UNL A   1      43.389  37.173  28.452  1.00  0.00     0.054 A 
BRANCH  70  71
ATOM     71  S   UNL A   1      43.873  38.616  27.442  1.00  0.00     0.124 S 
ATOM     72  O   UNL A   1      45.114  38.165  26.820  1.00  0.00    -0.237 OA
ATOM     73  O   UNL A   1      42.735  38.775  26.539  1.00  0.00    -0.237 OA
ATOM     74  O   UNL A   1      44.029  39.685  28.427  1.00  0.00    -0.744 OA
ENDBRANCH  70  71
ENDBRANCH  42  65
BRANCH  54  75
ATOM     75  C   UNL A   1      45.187  29.880  33.238  1.00  0.00    -0.014 A 
ATOM     76  C   UNL A   1      43.941  29.759  33.889  1.00  0.00     0.010 A 
ATOM     77  C   UNL A   1      46.337  29.997  34.042  1.00  0.00     0.010 A 
ATOM     78  C   UNL A   1      43.854  29.762  35.292  1.00  0.00     0.020 A 
ATOM     79  C   UNL A   1      46.262  29.970  35.436  1.00  0.00     0.020 A 
ATOM     80  C   UNL A   1      45.019  29.864  36.056  1.00  0.00     0.054 A 
BRANCH  80  81
ATOM     81  S   UNL A   1      44.911  29.834  37.867  1.00  0.00     0.124 S 
ATOM     82  O   UNL A   1      43.678  30.574  38.122  1.00  0.00    -0.237 OA
ATOM     83  O   UNL A   1      44.861  28.405  38.164  1.00  0.00    -0.237 OA
ATOM     84  O   UNL A   1      46.136  30.507  38.300  1.00  0.00    -0.744 OA
ENDBRANCH  80  81
ENDBRANCH  54  75
ENDBRANCH  28  29
ENDBRANCH  21  23
ENDBRANCH  20  21
ENDBRANCH   1  20
TORSDOF 17
ENDMDL
MODEL 3
REMARK VINA RESULT:      -9.4      6.301     13.865
REMARK SMILES Cc1ccc(C)c([C@@H](C)[C@](C)(O)C(=O)OCCOC(=O)c2ccc(-c3c4nc(c(-c5ccc(S(=O)(=O)[O-])cc5)c5ccc([nH]5)c(-c5ccc(S(=O)(=O)[O-])cc5)c5nc(c(-c6ccc(S(=O)(=O)[O-])cc6)c6ccc3[nH]6)C=C5)C=C4)cc2)c1
REMARK SMILES IDX 17 1 16 2 15 3 13 4 14 5 10 6 11 7 8 8 9 9 7 10 1 11 2 12
REMARK SMILES IDX 3 13 81 14 4 15 5 16 6 17 12 18 18 20 19 21 20 22 21 23
REMARK SMILES IDX 22 24 80 25 23 26 79 27 24 28 25 29 26 30 73 31 27 32 78 33
REMARK SMILES IDX 72 34 74 35 28 36 77 37 71 38 70 39 29 41 59 42 40 43 58 44
REMARK SMILES IDX 41 45 44 46 57 47 75 48 42 49 43 50 56 52 76 53 45 54 30 55
REMARK SMILES IDX 31 56 39 57 32 58 38 59 33 60 34 61 35 62 36 63 37 64 60 65
REMARK SMILES IDX 61 66 69 67 62 68 68 69 63 70 64 71 65 72 66 73 67 74 46 75
REMARK SMILES IDX 47 76 55 77 48 78 54 79 49 80 50 81 51 82 52 83 53 84
REMARK H PARENT 12 19 74 40 44 51
REMARK Flexibility Score: inf
ROOT
ATOM      1  C   UNL A   1      37.866  21.964  25.871  1.00  0.00     0.275 C 
ENDROOT
BRANCH   1   2
ATOM      2  C   UNL A   1      37.342  21.632  24.454  1.00  0.00     0.274 C 
BRANCH   2   3
ATOM      3  O   UNL A   1      35.919  21.730  24.234  1.00  0.00    -0.460 OA
BRANCH   3   4
ATOM      4  C   UNL A   1      35.191  20.744  24.852  1.00  0.00     0.338 C 
ATOM      5  O   UNL A   1      35.617  19.597  24.944  1.00  0.00    -0.249 OA
BRANCH   4   6
ATOM      6  C   UNL A   1      33.855  21.249  25.549  1.00  0.00     0.165 C 
ATOM      7  C   UNL A   1      32.795  21.246  24.403  1.00  0.00     0.055 C 
BRANCH   6   8
ATOM      8  C   UNL A   1      33.953  22.635  26.430  1.00  0.00     0.059 C 
ATOM      9  C   UNL A   1      33.764  22.410  27.950  1.00  0.00     0.016 C 
BRANCH   8  10
ATOM     10  C   UNL A   1      33.255  23.983  25.951  1.00  0.00    -0.039 A 
ATOM     11  C   UNL A   1      33.845  28.260  24.394  1.00  0.00     0.044 C 
ATOM     12  C   UNL A   1      33.276  27.065  25.070  1.00  0.00    -0.051 A 
ATOM     13  C   UNL A   1      31.528  27.131  25.465  1.00  0.00     0.004 A 
ATOM     14  C   UNL A   1      34.170  25.504  25.334  1.00  0.00     0.007 A 
ATOM     15  C   UNL A   1      30.637  25.624  26.014  1.00  0.00     0.004 A 
ATOM     16  C   UNL A   1      31.501  24.083  26.242  1.00  0.00    -0.048 A 
ATOM     17  C   UNL A   1      30.692  22.895  26.679  1.00  0.00     0.044 C 
ENDBRANCH   8  10
ENDBRANCH   6   8
BRANCH   6  18
ATOM     18  O   UNL A   1      33.303  20.287  26.485  1.00  0.00    -0.378 OA
ATOM     19  H   UNL A   1      32.942  19.531  25.995  1.00  0.00     0.212 HD
ENDBRANCH   6  18
ENDBRANCH   4   6
ENDBRANCH   3   4
ENDBRANCH   2   3
ENDBRANCH   1   2
BRANCH   1  20
ATOM     20  O   UNL A   1      39.295  21.984  26.040  1.00  0.00    -0.458 OA
BRANCH  20  21
ATOM     21  C   UNL A   1      39.930  22.774  26.946  1.00  0.00     0.338 C 
ATOM     22  O   UNL A   1      40.763  22.298  27.713  1.00  0.00    -0.246 OA
BRANCH  21  23
ATOM     23  C   UNL A   1      39.404  24.154  27.141  1.00  0.00     0.060 A 
ATOM     24  C   UNL A   1      39.878  25.023  26.221  1.00  0.00     0.016 A 
ATOM     25  C   UNL A   1      38.888  24.707  28.312  1.00  0.00     0.016 A 
ATOM     26  C   UNL A   1      40.375  26.211  26.736  1.00  0.00     0.010 A 
ATOM     27  C   UNL A   1      39.316  25.997  28.756  1.00  0.00     0.010 A 
ATOM     28  C   UNL A   1      40.335  26.703  28.095  1.00  0.00    -0.014 A 
BRANCH  28  29
ATOM     29  C   UNL A   1      41.210  28.147  28.820  1.00  0.00     0.031 A 
ATOM     30  C   UNL A   1      40.297  30.079  29.264  1.00  0.00     0.074 A 
ATOM     31  C   UNL A   1      42.504  27.463  29.266  1.00  0.00     0.049 A 
ATOM     32  N   UNL A   1      40.713  31.252  29.881  1.00  0.00    -0.248 NA
ATOM     33  C   UNL A   1      38.662  30.664  29.182  1.00  0.00     0.031 C 
ATOM     34  C   UNL A   1      43.199  26.226  28.787  1.00  0.00     0.029 A 
ATOM     35  N   UNL A   1      43.469  27.710  30.300  1.00  0.00    -0.354 N 
ATOM     36  C   UNL A   1      39.745  31.683  30.814  1.00  0.00     0.074 A 
ATOM     37  C   UNL A   1      38.472  31.376  30.287  1.00  0.00     0.031 C 
ATOM     38  C   UNL A   1      44.077  25.711  29.683  1.00  0.00     0.029 A 
ATOM     39  C   UNL A   1      44.193  26.616  30.792  1.00  0.00     0.049 A 
ATOM     40  H   UNL A   1      43.617  28.618  30.652  1.00  0.00     0.167 HD
ATOM     41  C   UNL A   1      40.101  32.102  32.062  1.00  0.00     0.031 A 
ATOM     42  C   UNL A   1      44.827  26.458  31.998  1.00  0.00     0.031 A 
ATOM     43  C   UNL A   1      41.441  32.618  32.072  1.00  0.00     0.049 A 
ATOM     44  C   UNL A   1      44.803  27.764  32.696  1.00  0.00     0.074 A 
ATOM     45  C   UNL A   1      42.055  33.552  31.265  1.00  0.00     0.029 A 
ATOM     46  N   UNL A   1      42.433  31.953  32.752  1.00  0.00    -0.354 N 
ATOM     47  N   UNL A   1      45.435  28.827  32.296  1.00  0.00    -0.248 NA
ATOM     48  C   UNL A   1      43.782  27.985  33.707  1.00  0.00     0.031 C 
ATOM     49  C   UNL A   1      43.395  33.125  31.160  1.00  0.00     0.029 A 
ATOM     50  C   UNL A   1      43.600  32.045  32.023  1.00  0.00     0.049 A 
ATOM     51  H   UNL A   1      42.327  31.490  33.613  1.00  0.00     0.167 HD
ATOM     52  C   UNL A   1      44.651  29.889  32.711  1.00  0.00     0.074 A 
ATOM     53  C   UNL A   1      43.700  29.318  33.656  1.00  0.00     0.031 C 
ATOM     54  C   UNL A   1      44.687  31.078  32.049  1.00  0.00     0.031 A 
BRANCH  41  55
ATOM     55  C   UNL A   1      39.320  31.866  33.332  1.00  0.00    -0.014 A 
ATOM     56  C   UNL A   1      38.502  32.891  33.839  1.00  0.00     0.010 A 
ATOM     57  C   UNL A   1      39.589  30.780  34.194  1.00  0.00     0.010 A 
ATOM     58  C   UNL A   1      38.007  32.857  35.152  1.00  0.00     0.020 A 
ATOM     59  C   UNL A   1      39.118  30.745  35.522  1.00  0.00     0.020 A 
ATOM     60  C   UNL A   1      38.332  31.793  35.994  1.00  0.00     0.054 A 
BRANCH  60  61
ATOM     61  S   UNL A   1      37.745  31.837  37.715  1.00  0.00     0.124 S 
ATOM     62  O   UNL A   1      37.358  30.449  37.947  1.00  0.00    -0.237 OA
ATOM     63  O   UNL A   1      38.938  32.285  38.431  1.00  0.00    -0.237 OA
ATOM     64  O   UNL A   1      36.644  32.796  37.683  1.00  0.00    -0.744 OA
ENDBRANCH  60  61
ENDBRANCH  41  55
BRANCH  42  65
ATOM     65  C   UNL A   1      45.213  25.227  32.781  1.00  0.00    -0.014 A 
ATOM     66  C   UNL A   1      46.509  25.052  33.340  1.00  0.00     0.010 A 
ATOM     67  C   UNL A   1      44.216  24.347  33.235  1.00  0.00     0.010 A 
ATOM     68  C   UNL A   1      46.767  24.094  34.350  1.00  0.00     0.020 A 
ATOM     69  C   UNL A   1      44.464  23.391  34.236  1.00  0.00     0.020 A 
ATOM     70  C   UNL A   1      45.729  23.282  34.810  1.00  0.00     0.054 A 
BRANCH  70  71
ATOM     71  S   UNL A   1      45.985  22.173  36.239  1.00  0.00     0.124 S 
ATOM     72  O   UNL A   1      45.318  22.891  37.321  1.00  0.00    -0.237 OA
ATOM     73  O   UNL A   1      45.338  20.936  35.808  1.00  0.00    -0.237 OA
ATOM     74  O   UNL A   1      47.441  22.097  36.354  1.00  0.00    -0.744 OA
ENDBRANCH  70  71
ENDBRANCH  42  65
BRANCH  54  75
ATOM     75  C   UNL A   1      45.857  31.342  31.109  1.00  0.00    -0.014 A 
ATOM     76  C   UNL A   1      45.889  31.009  29.739  1.00  0.00     0.010 A 
ATOM     77  C   UNL A   1      46.931  32.093  31.626  1.00  0.00     0.010 A 
ATOM     78  C   UNL A   1      46.961  31.408  28.921  1.00  0.00     0.020 A 
ATOM     79  C   UNL A   1      47.984  32.519  30.814  1.00  0.00     0.020 A 
ATOM     80  C   UNL A   1      48.001  32.164  29.466  1.00  0.00     0.054 A 
BRANCH  80  81
ATOM     81  S   UNL A   1      49.367  32.710  28.404  1.00  0.00     0.124 S 
ATOM     82  O   UNL A   1      49.392  34.152  28.638  1.00  0.00    -0.237 OA
ATOM     83  O   UNL A   1      50.506  31.966  28.934  1.00  0.00    -0.237 OA
ATOM     84  O   UNL A   1      48.946  32.310  27.061  1.00  0.00    -0.744 OA
ENDBRANCH  80  81
ENDBRANCH  54  75
ENDBRANCH  28  29
ENDBRANCH  21  23
ENDBRANCH  20  21
ENDBRANCH   1  20
TORSDOF 17
ENDMDL
