MODEL 1
REMARK VINA RESULT:     -11.6      0.000      0.000
REMARK SMILES O=C(OCCOC(=O)c1ccc(-c2c3nc(c(-c4ccc(S(=O)(=O)[O-])cc4)c4ccc([nH]4)c(-c4ccc(S(=O)(=O)[O-])cc4)c4nc(c(-c5ccc(S(=O)(=O)[O-])cc5)c5ccc2[nH]5)C=C4)C=C3)cc1)C1=Cc2cc(S(F)(F)(F)(F)F)ccc2O[C@H]1C(F)(F)F
REMARK SMILES IDX 5 1 4 2 3 3 2 4 1 5 69 6 70 7 84 8 71 9 83 10 72 11 82 12
REMARK SMILES IDX 73 13 81 14 80 15 85 16 86 17 87 18 88 19 74 20 75 21 76 22
REMARK SMILES IDX 77 23 78 24 79 25 6 26 7 27 8 28 9 29 10 30 68 31 11 32
REMARK SMILES IDX 67 33 12 34 13 35 14 36 61 37 15 38 66 39 60 40 62 41 16 42
REMARK SMILES IDX 65 43 59 44 58 45 17 47 47 48 28 49 46 50 29 51 32 52 45 53
REMARK SMILES IDX 63 54 30 55 31 56 44 58 64 59 33 60 18 61 19 62 27 63 20 64
REMARK SMILES IDX 26 65 21 66 22 67 23 68 24 69 25 70 48 71 49 72 57 73 50 74
REMARK SMILES IDX 56 75 51 76 52 77 53 78 54 79 55 80 34 81 35 82 43 83 36 84
REMARK SMILES IDX 42 85 37 86 38 87 39 88 40 89 41 90
REMARK H PARENT 62 46 32 57
REMARK Flexibility Score: inf
ROOT
ATOM      1  C   UNL A   1      32.278  29.271  27.247  1.00  0.00     0.275 C 
ENDROOT
BRANCH   1   2
ATOM      2  C   UNL A   1      31.593  27.915  27.287  1.00  0.00     0.275 C 
BRANCH   2   3
ATOM      3  O   UNL A   1      32.200  27.050  26.339  1.00  0.00    -0.459 OA
BRANCH   3   4
ATOM      4  C   UNL A   1      31.392  26.280  25.461  1.00  0.00     0.338 C 
ATOM      5  O   UNL A   1      30.277  25.821  25.862  1.00  0.00    -0.246 OA
BRANCH   4   6
ATOM      6  C   UNL A   1      31.861  26.006  24.041  1.00  0.00     0.087 C 
ATOM      7  C   UNL A   1      32.909  25.167  23.820  1.00  0.00     0.027 C 
ATOM      8  C   UNL A   1      31.158  26.669  22.867  1.00  0.00     0.316 C 
ATOM      9  C   UNL A   1      33.611  24.504  24.994  1.00  0.00     0.019 A 
ATOM     10  O   UNL A   1      31.470  24.257  25.994  1.00  0.00    -0.475 OA
ATOM     11  C   UNL A   1      34.991  24.377  25.008  1.00  0.00     0.036 A 
ATOM     12  C   UNL A   1      32.860  23.973  25.952  1.00  0.00     0.128 A 
ATOM     13  C   UNL A   1      35.468  23.417  25.931  1.00  0.00     0.107 A 
ATOM     14  C   UNL A   1      33.416  23.152  26.901  1.00  0.00     0.048 A 
ATOM     15  C   UNL A   1      34.766  22.933  26.940  1.00  0.00     0.028 A 
BRANCH   8  16
ATOM     16  C   UNL A   1      30.031  27.550  23.383  1.00  0.00     0.430 C 
ATOM     17  F   UNL A   1      29.078  26.786  23.909  1.00  0.00    -0.167 F 
ATOM     18  F   UNL A   1      30.504  28.373  24.314  1.00  0.00    -0.167 F 
ATOM     19  F   UNL A   1      29.527  28.260  22.378  1.00  0.00    -0.167 F 
ENDBRANCH   8  16
BRANCH  13  20
ATOM     20  S   UNL A   1      37.157  22.806  25.712  1.00  0.00     0.310 S 
ATOM     21  F   UNL A   1      37.344  23.616  24.361  1.00  0.00    -0.094 F 
ATOM     22  F   UNL A   1      36.584  21.624  24.843  1.00  0.00    -0.094 F 
ATOM     23  F   UNL A   1      38.608  22.277  25.524  1.00  0.00    -0.094 F 
ATOM     24  F   UNL A   1      37.725  24.072  26.466  1.00  0.00    -0.094 F 
ATOM     25  F   UNL A   1      35.703  23.414  25.816  1.00  0.00    -0.094 F 
ENDBRANCH  13  20
ENDBRANCH   4   6
ENDBRANCH   3   4
ENDBRANCH   2   3
ENDBRANCH   1   2
BRANCH   1  26
ATOM     26  O   UNL A   1      33.683  29.095  27.350  1.00  0.00    -0.458 OA
BRANCH  26  27
ATOM     27  C   UNL A   1      34.499  30.160  27.817  1.00  0.00     0.338 C 
ATOM     28  O   UNL A   1      34.031  31.340  27.877  1.00  0.00    -0.246 OA
BRANCH  27  29
ATOM     29  C   UNL A   1      35.932  29.888  28.246  1.00  0.00     0.060 A 
ATOM     30  C   UNL A   1      36.230  29.410  29.511  1.00  0.00     0.016 A 
ATOM     31  C   UNL A   1      36.871  30.009  27.315  1.00  0.00     0.016 A 
ATOM     32  C   UNL A   1      37.616  29.356  29.791  1.00  0.00     0.010 A 
ATOM     33  C   UNL A   1      38.194  29.810  27.628  1.00  0.00     0.010 A 
ATOM     34  C   UNL A   1      38.567  29.393  28.876  1.00  0.00    -0.014 A 
BRANCH  34  35
ATOM     35  C   UNL A   1      40.000  28.995  29.192  1.00  0.00     0.031 A 
ATOM     36  C   UNL A   1      40.809  29.983  29.753  1.00  0.00     0.074 A 
ATOM     37  C   UNL A   1      40.458  27.747  28.802  1.00  0.00     0.049 A 
ATOM     38  N   UNL A   1      42.110  29.906  30.037  1.00  0.00    -0.248 NA
ATOM     39  C   UNL A   1      40.332  31.320  30.137  1.00  0.00     0.031 C 
ATOM     40  C   UNL A   1      39.646  26.741  28.244  1.00  0.00     0.029 A 
ATOM     41  N   UNL A   1      41.743  27.259  28.875  1.00  0.00    -0.354 N 
ATOM     42  C   UNL A   1      42.532  31.048  30.582  1.00  0.00     0.074 A 
ATOM     43  C   UNL A   1      41.396  31.976  30.650  1.00  0.00     0.031 C 
ATOM     44  C   UNL A   1      40.431  25.667  27.973  1.00  0.00     0.029 A 
ATOM     45  C   UNL A   1      41.748  25.982  28.359  1.00  0.00     0.049 A 
ATOM     46  H   UNL A   1      42.524  27.739  29.234  1.00  0.00     0.167 HD
ATOM     47  C   UNL A   1      43.820  31.351  31.029  1.00  0.00     0.031 A 
ATOM     48  C   UNL A   1      42.829  25.126  28.222  1.00  0.00     0.031 A 
ATOM     49  C   UNL A   1      44.892  30.479  30.931  1.00  0.00     0.049 A 
ATOM     50  C   UNL A   1      44.130  25.451  28.615  1.00  0.00     0.074 A 
ATOM     51  C   UNL A   1      46.195  30.765  31.384  1.00  0.00     0.029 A 
ATOM     52  N   UNL A   1      44.902  29.211  30.393  1.00  0.00    -0.354 N 
ATOM     53  N   UNL A   1      44.543  26.578  29.197  1.00  0.00    -0.248 NA
ATOM     54  C   UNL A   1      45.289  24.565  28.445  1.00  0.00     0.031 C 
ATOM     55  C   UNL A   1      46.981  29.690  31.113  1.00  0.00     0.029 A 
ATOM     56  C   UNL A   1      46.183  28.714  30.486  1.00  0.00     0.049 A 
ATOM     57  H   UNL A   1      44.127  28.741  30.007  1.00  0.00     0.167 HD
ATOM     58  C   UNL A   1      45.853  26.515  29.442  1.00  0.00     0.074 A 
ATOM     59  C   UNL A   1      46.354  25.222  28.955  1.00  0.00     0.031 C 
ATOM     60  C   UNL A   1      46.652  27.483  30.056  1.00  0.00     0.031 A 
BRANCH  47  61
ATOM     61  C   UNL A   1      44.059  32.714  31.658  1.00  0.00    -0.014 A 
ATOM     62  C   UNL A   1      44.514  33.783  30.904  1.00  0.00     0.010 A 
ATOM     63  C   UNL A   1      43.943  32.801  32.978  1.00  0.00     0.010 A 
ATOM     64  C   UNL A   1      45.099  34.818  31.672  1.00  0.00     0.020 A 
ATOM     65  C   UNL A   1      44.414  33.903  33.650  1.00  0.00     0.020 A 
ATOM     66  C   UNL A   1      44.931  34.972  32.973  1.00  0.00     0.054 A 
BRANCH  66  67
ATOM     67  S   UNL A   1      45.362  36.516  33.812  1.00  0.00     0.124 S 
ATOM     68  O   UNL A   1      44.176  37.481  33.750  1.00  0.00    -0.237 OA
ATOM     69  O   UNL A   1      45.705  36.223  35.275  1.00  0.00    -0.237 OA
ATOM     70  O   UNL A   1      46.714  37.225  33.042  1.00  0.00    -0.744 OA
ENDBRANCH  66  67
ENDBRANCH  47  61
BRANCH  48  71
ATOM     71  C   UNL A   1      42.586  23.757  27.608  1.00  0.00    -0.014 A 
ATOM     72  C   UNL A   1      42.692  23.488  26.254  1.00  0.00     0.010 A 
ATOM     73  C   UNL A   1      42.351  22.789  28.487  1.00  0.00     0.010 A 
ATOM     74  C   UNL A   1      42.247  22.195  25.889  1.00  0.00     0.020 A 
ATOM     75  C   UNL A   1      42.055  21.516  28.062  1.00  0.00     0.020 A 
ATOM     76  C   UNL A   1      42.083  21.194  26.734  1.00  0.00     0.054 A 
BRANCH  76  77
ATOM     77  S   UNL A   1      41.907  19.485  26.163  1.00  0.00     0.124 S 
ATOM     78  O   UNL A   1      42.792  19.264  24.934  1.00  0.00    -0.237 OA
ATOM     79  O   UNL A   1      42.336  18.528  27.278  1.00  0.00    -0.237 OA
ATOM     80  O   UNL A   1      40.275  19.187  25.751  1.00  0.00    -0.744 OA
ENDBRANCH  76  77
ENDBRANCH  48  71
BRANCH  60  81
ATOM     81  C   UNL A   1      48.124  27.166  30.264  1.00  0.00    -0.014 A 
ATOM     82  C   UNL A   1      49.083  27.543  29.340  1.00  0.00     0.010 A 
ATOM     83  C   UNL A   1      48.462  26.613  31.423  1.00  0.00     0.010 A 
ATOM     84  C   UNL A   1      50.373  27.028  29.611  1.00  0.00     0.020 A 
ATOM     85  C   UNL A   1      49.766  26.258  31.674  1.00  0.00     0.020 A 
ATOM     86  C   UNL A   1      50.758  26.547  30.780  1.00  0.00     0.054 A 
BRANCH  86  87
ATOM     87  S   UNL A   1      52.505  26.286  31.175  1.00  0.00     0.124 S 
ATOM     88  O   UNL A   1      52.981  27.384  32.129  1.00  0.00    -0.237 OA
ATOM     89  O   UNL A   1      52.678  24.919  31.843  1.00  0.00    -0.237 OA
ATOM     90  O   UNL A   1      53.429  26.339  29.737  1.00  0.00    -0.744 OA
ENDBRANCH  86  87
ENDBRANCH  60  81
ENDBRANCH  34  35
ENDBRANCH  27  29
ENDBRANCH  26  27
ENDBRANCH   1  26
TORSDOF 16
ENDMDL
MODEL 2
REMARK VINA RESULT:     -11.5      3.113      9.104
REMARK SMILES O=C(OCCOC(=O)c1ccc(-c2c3nc(c(-c4ccc(S(=O)(=O)[O-])cc4)c4ccc([nH]4)c(-c4ccc(S(=O)(=O)[O-])cc4)c4nc(c(-c5ccc(S(=O)(=O)[O-])cc5)c5ccc2[nH]5)C=C4)C=C3)cc1)C1=Cc2cc(S(F)(F)(F)(F)F)ccc2O[C@H]1C(F)(F)F
REMARK SMILES IDX 5 1 4 2 3 3 2 4 1 5 69 6 70 7 84 8 71 9 83 10 72 11 82 12
REMARK SMILES IDX 73 13 81 14 80 15 85 16 86 17 87 18 88 19 74 20 75 21 76 22
REMARK SMILES IDX 77 23 78 24 79 25 6 26 7 27 8 28 9 29 10 30 68 31 11 32
REMARK SMILES IDX 67 33 12 34 13 35 14 36 61 37 15 38 66 39 60 40 62 41 16 42
REMARK SMILES IDX 65 43 59 44 58 45 17 47 47 48 28 49 46 50 29 51 32 52 45 53
REMARK SMILES IDX 63 54 30 55 31 56 44 58 64 59 33 60 18 61 19 62 27 63 20 64
REMARK SMILES IDX 26 65 21 66 22 67 23 68 24 69 25 70 48 71 49 72 57 73 50 74
REMARK SMILES IDX 56 75 51 76 52 77 53 78 54 79 55 80 34 81 35 82 43 83 36 84
REMARK SMILES IDX 42 85 37 86 38 87 39 88 40 89 41 90
REMARK H PARENT 62 46 32 57
REMARK Flexibility Score: inf
ROOT
ATOM      1  C   UNL A   1      37.419  21.928  24.556  1.00  0.00     0.275 C 
ENDROOT
BRANCH   1   2
ATOM      2  C   UNL A   1      36.464  22.629  23.604  1.00  0.00     0.275 C 
BRANCH   2   3
ATOM      3  O   UNL A   1      35.392  23.197  24.342  1.00  0.00    -0.459 OA
BRANCH   3   4
ATOM      4  C   UNL A   1      34.054  23.017  23.902  1.00  0.00     0.338 C 
ATOM      5  O   UNL A   1      33.806  22.866  22.665  1.00  0.00    -0.246 OA
BRANCH   4   6
ATOM      6  C   UNL A   1      32.917  23.003  24.912  1.00  0.00     0.087 C 
ATOM      7  C   UNL A   1      32.499  24.166  25.479  1.00  0.00     0.027 C 
ATOM      8  C   UNL A   1      32.249  21.691  25.287  1.00  0.00     0.316 C 
ATOM      9  C   UNL A   1      33.167  25.479  25.104  1.00  0.00     0.019 A 
ATOM     10  O   UNL A   1      33.269  24.663  22.875  1.00  0.00    -0.475 OA
ATOM     11  C   UNL A   1      33.434  26.435  26.072  1.00  0.00     0.036 A 
ATOM     12  C   UNL A   1      33.400  25.716  23.819  1.00  0.00     0.128 A 
ATOM     13  C   UNL A   1      33.678  27.726  25.548  1.00  0.00     0.107 A 
ATOM     14  C   UNL A   1      33.767  26.969  23.394  1.00  0.00     0.048 A 
ATOM     15  C   UNL A   1      33.990  27.978  24.290  1.00  0.00     0.028 A 
BRANCH   8  16
ATOM     16  C   UNL A   1      32.900  20.553  24.516  1.00  0.00     0.430 C 
ATOM     17  F   UNL A   1      32.653  20.699  23.218  1.00  0.00    -0.167 F 
ATOM     18  F   UNL A   1      34.214  20.572  24.724  1.00  0.00    -0.167 F 
ATOM     19  F   UNL A   1      32.402  19.392  24.934  1.00  0.00    -0.167 F 
ENDBRANCH   8  16
BRANCH  13  20
ATOM     20  S   UNL A   1      33.551  29.132  26.681  1.00  0.00     0.310 S 
ATOM     21  F   UNL A   1      32.872  28.245  27.807  1.00  0.00    -0.094 F 
ATOM     22  F   UNL A   1      32.104  29.410  26.124  1.00  0.00    -0.094 F 
ATOM     23  F   UNL A   1      33.439  30.342  27.652  1.00  0.00    -0.094 F 
ATOM     24  F   UNL A   1      34.942  28.754  27.324  1.00  0.00    -0.094 F 
ATOM     25  F   UNL A   1      33.631  27.836  25.781  1.00  0.00    -0.094 F 
ENDBRANCH  13  20
ENDBRANCH   4   6
ENDBRANCH   3   4
ENDBRANCH   2   3
ENDBRANCH   1   2
BRANCH   1  26
ATOM     26  O   UNL A   1      37.620  22.737  25.706  1.00  0.00    -0.458 OA
BRANCH  26  27
ATOM     27  C   UNL A   1      38.932  22.941  26.209  1.00  0.00     0.338 C 
ATOM     28  O   UNL A   1      39.814  22.037  26.071  1.00  0.00    -0.246 OA
BRANCH  27  29
ATOM     29  C   UNL A   1      39.282  24.244  26.911  1.00  0.00     0.060 A 
ATOM     30  C   UNL A   1      39.001  24.441  28.253  1.00  0.00     0.016 A 
ATOM     31  C   UNL A   1      39.980  25.133  26.214  1.00  0.00     0.016 A 
ATOM     32  C   UNL A   1      39.255  25.758  28.704  1.00  0.00     0.010 A 
ATOM     33  C   UNL A   1      40.311  26.348  26.766  1.00  0.00     0.010 A 
ATOM     34  C   UNL A   1      40.013  26.634  28.069  1.00  0.00    -0.014 A 
BRANCH  34  35
ATOM     35  C   UNL A   1      40.525  27.892  28.750  1.00  0.00     0.031 A 
ATOM     36  C   UNL A   1      41.826  27.840  29.252  1.00  0.00     0.074 A 
ATOM     37  C   UNL A   1      39.660  28.954  28.951  1.00  0.00     0.049 A 
ATOM     38  N   UNL A   1      42.464  28.775  29.958  1.00  0.00    -0.248 NA
ATOM     39  C   UNL A   1      42.735  26.699  29.069  1.00  0.00     0.031 C 
ATOM     40  C   UNL A   1      38.349  29.018  28.441  1.00  0.00     0.029 A 
ATOM     41  N   UNL A   1      39.893  30.111  29.659  1.00  0.00    -0.354 N 
ATOM     42  C   UNL A   1      43.704  28.372  30.244  1.00  0.00     0.074 A 
ATOM     43  C   UNL A   1      43.895  27.029  29.681  1.00  0.00     0.031 C 
ATOM     44  C   UNL A   1      37.795  30.191  28.845  1.00  0.00     0.029 A 
ATOM     45  C   UNL A   1      38.752  30.881  29.614  1.00  0.00     0.049 A 
ATOM     46  H   UNL A   1      40.731  30.349  30.119  1.00  0.00     0.167 HD
ATOM     47  C   UNL A   1      44.684  29.073  30.949  1.00  0.00     0.031 A 
ATOM     48  C   UNL A   1      38.536  32.115  30.206  1.00  0.00     0.031 A 
ATOM     49  C   UNL A   1      44.482  30.326  31.504  1.00  0.00     0.049 A 
ATOM     50  C   UNL A   1      39.497  32.792  30.962  1.00  0.00     0.074 A 
ATOM     51  C   UNL A   1      45.462  31.050  32.211  1.00  0.00     0.029 A 
ATOM     52  N   UNL A   1      43.333  31.085  31.479  1.00  0.00    -0.354 N 
ATOM     53  N   UNL A   1      40.749  32.406  31.212  1.00  0.00    -0.248 NA
ATOM     54  C   UNL A   1      39.270  34.085  31.620  1.00  0.00     0.031 C 
ATOM     55  C   UNL A   1      44.907  32.224  32.616  1.00  0.00     0.029 A 
ATOM     56  C   UNL A   1      43.573  32.252  32.169  1.00  0.00     0.049 A 
ATOM     57  H   UNL A   1      42.485  30.835  31.044  1.00  0.00     0.167 HD
ATOM     58  C   UNL A   1      41.372  33.323  31.954  1.00  0.00     0.074 A 
ATOM     59  C   UNL A   1      40.427  34.413  32.233  1.00  0.00     0.031 C 
ATOM     60  C   UNL A   1      42.693  33.296  32.408  1.00  0.00     0.031 A 
BRANCH  47  61
ATOM     61  C   UNL A   1      46.048  28.424  31.118  1.00  0.00    -0.014 A 
ATOM     62  C   UNL A   1      47.077  28.670  30.224  1.00  0.00     0.010 A 
ATOM     63  C   UNL A   1      46.171  27.513  32.077  1.00  0.00     0.010 A 
ATOM     64  C   UNL A   1      48.100  27.693  30.245  1.00  0.00     0.020 A 
ATOM     65  C   UNL A   1      47.264  26.682  32.115  1.00  0.00     0.020 A 
ATOM     66  C   UNL A   1      48.292  26.829  31.226  1.00  0.00     0.054 A 
BRANCH  66  67
ATOM     67  S   UNL A   1      49.832  25.893  31.383  1.00  0.00     0.124 S 
ATOM     68  O   UNL A   1      51.003  26.861  31.568  1.00  0.00    -0.237 OA
ATOM     69  O   UNL A   1      49.743  24.963  32.596  1.00  0.00    -0.237 OA
ATOM     70  O   UNL A   1      50.080  24.962  29.970  1.00  0.00    -0.744 OA
ENDBRANCH  66  67
ENDBRANCH  47  61
BRANCH  48  71
ATOM     71  C   UNL A   1      37.177  32.771  30.022  1.00  0.00    -0.014 A 
ATOM     72  C   UNL A   1      36.155  32.704  30.955  1.00  0.00     0.010 A 
ATOM     73  C   UNL A   1      37.061  33.509  28.923  1.00  0.00     0.010 A 
ATOM     74  C   UNL A   1      34.925  33.231  30.495  1.00  0.00     0.020 A 
ATOM     75  C   UNL A   1      35.865  34.106  28.606  1.00  0.00     0.020 A 
ATOM     76  C   UNL A   1      34.795  34.033  29.454  1.00  0.00     0.054 A 
BRANCH  76  77
ATOM     77  S   UNL A   1      33.282  34.982  29.165  1.00  0.00     0.124 S 
ATOM     78  O   UNL A   1      32.481  35.074  30.467  1.00  0.00    -0.237 OA
ATOM     79  O   UNL A   1      33.646  36.391  28.690  1.00  0.00    -0.237 OA
ATOM     80  O   UNL A   1      32.339  34.203  27.970  1.00  0.00    -0.744 OA
ENDBRANCH  76  77
ENDBRANCH  48  71
BRANCH  60  81
ATOM     81  C   UNL A   1      43.196  34.485  33.211  1.00  0.00    -0.014 A 
ATOM     82  C   UNL A   1      43.649  35.638  32.593  1.00  0.00     0.010 A 
ATOM     83  C   UNL A   1      43.075  34.412  34.532  1.00  0.00     0.010 A 
ATOM     84  C   UNL A   1      44.228  36.575  33.481  1.00  0.00     0.020 A 
ATOM     85  C   UNL A   1      43.542  35.426  35.334  1.00  0.00     0.020 A 
ATOM     86  C   UNL A   1      44.057  36.570  34.792  1.00  0.00     0.054 A 
BRANCH  86  87
ATOM     87  S   UNL A   1      44.479  38.004  35.813  1.00  0.00     0.124 S 
ATOM     88  O   UNL A   1      45.988  38.016  36.075  1.00  0.00    -0.237 OA
ATOM     89  O   UNL A   1      44.077  39.288  35.083  1.00  0.00    -0.237 OA
ATOM     90  O   UNL A   1      43.643  37.909  37.302  1.00  0.00    -0.744 OA
ENDBRANCH  86  87
ENDBRANCH  60  81
ENDBRANCH  34  35
ENDBRANCH  27  29
ENDBRANCH  26  27
ENDBRANCH   1  26
TORSDOF 16
ENDMDL
MODEL 3
REMARK VINA RESULT:     -11.5      1.170      8.189
REMARK SMILES O=C(OCCOC(=O)c1ccc(-c2c3nc(c(-c4ccc(S(=O)(=O)[O-])cc4)c4ccc([nH]4)c(-c4ccc(S(=O)(=O)[O-])cc4)c4nc(c(-c5ccc(S(=O)(=O)[O-])cc5)c5ccc2[nH]5)C=C4)C=C3)cc1)C1=Cc2cc(S(F)(F)(F)(F)F)ccc2O[C@H]1C(F)(F)F
REMARK SMILES IDX 5 1 4 2 3 3 2 4 1 5 69 6 70 7 84 8 71 9 83 10 72 11 82 12
REMARK SMILES IDX 73 13 81 14 80 15 85 16 86 17 87 18 88 19 74 20 75 21 76 22
REMARK SMILES IDX 77 23 78 24 79 25 6 26 7 27 8 28 9 29 10 30 68 31 11 32
REMARK SMILES IDX 67 33 12 34 13 35 14 36 61 37 15 38 66 39 60 40 62 41 16 42
REMARK SMILES IDX 65 43 59 44 58 45 17 47 47 48 28 49 46 50 29 51 32 52 45 53
REMARK SMILES IDX 63 54 30 55 31 56 44 58 64 59 33 60 18 61 19 62 27 63 20 64
REMARK SMILES IDX 26 65 21 66 22 67 23 68 24 69 25 70 48 71 49 72 57 73 50 74
REMARK SMILES IDX 56 75 51 76 52 77 53 78 54 79 55 80 34 81 35 82 43 83 36 84
REMARK SMILES IDX 42 85 37 86 38 87 39 88 40 89 41 90
REMARK H PARENT 62 46 32 57
REMARK Flexibility Score: inf
ROOT
ATOM      1  C   UNL A   1      32.135  29.809  27.074  1.00  0.00     0.275 C 
ENDROOT
BRANCH   1   2
ATOM      2  C   UNL A   1      31.841  28.326  27.236  1.00  0.00     0.275 C 
BRANCH   2   3
ATOM      3  O   UNL A   1      32.344  27.620  26.112  1.00  0.00    -0.459 OA
BRANCH   3   4
ATOM      4  C   UNL A   1      31.468  26.835  25.316  1.00  0.00     0.338 C 
ATOM      5  O   UNL A   1      30.363  26.431  25.797  1.00  0.00    -0.246 OA
BRANCH   4   6
ATOM      6  C   UNL A   1      31.851  26.480  23.888  1.00  0.00     0.087 C 
ATOM      7  C   UNL A   1      32.811  25.545  23.654  1.00  0.00     0.027 C 
ATOM      8  C   UNL A   1      31.161  27.169  22.722  1.00  0.00     0.316 C 
ATOM      9  C   UNL A   1      33.501  24.856  24.821  1.00  0.00     0.019 A 
ATOM     10  O   UNL A   1      31.391  24.829  25.910  1.00  0.00    -0.475 OA
ATOM     11  C   UNL A   1      34.865  24.608  24.785  1.00  0.00     0.036 A 
ATOM     12  C   UNL A   1      32.748  24.422  25.824  1.00  0.00     0.128 A 
ATOM     13  C   UNL A   1      35.293  23.635  25.719  1.00  0.00     0.107 A 
ATOM     14  C   UNL A   1      33.269  23.582  26.777  1.00  0.00     0.048 A 
ATOM     15  C   UNL A   1      34.594  23.245  26.770  1.00  0.00     0.028 A 
BRANCH   8  16
ATOM     16  C   UNL A   1      30.138  28.160  23.253  1.00  0.00     0.430 C 
ATOM     17  F   UNL A   1      30.724  28.979  24.122  1.00  0.00    -0.167 F 
ATOM     18  F   UNL A   1      29.641  28.867  22.242  1.00  0.00    -0.167 F 
ATOM     19  F   UNL A   1      29.155  27.501  23.859  1.00  0.00    -0.167 F 
ENDBRANCH   8  16
BRANCH  13  20
ATOM     20  S   UNL A   1      36.912  22.871  25.455  1.00  0.00     0.310 S 
ATOM     21  F   UNL A   1      37.107  23.611  24.066  1.00  0.00    -0.094 F 
ATOM     22  F   UNL A   1      36.200  21.712  24.659  1.00  0.00    -0.094 F 
ATOM     23  F   UNL A   1      38.301  22.210  25.228  1.00  0.00    -0.094 F 
ATOM     24  F   UNL A   1      37.620  24.109  26.132  1.00  0.00    -0.094 F 
ATOM     25  F   UNL A   1      35.521  23.608  25.595  1.00  0.00    -0.094 F 
ENDBRANCH  13  20
ENDBRANCH   4   6
ENDBRANCH   3   4
ENDBRANCH   2   3
ENDBRANCH   1   2
BRANCH   1  26
ATOM     26  O   UNL A   1      33.517  29.991  26.807  1.00  0.00    -0.458 OA
BRANCH  26  27
ATOM     27  C   UNL A   1      34.337  30.673  27.744  1.00  0.00     0.338 C 
ATOM     28  O   UNL A   1      33.899  31.707  28.339  1.00  0.00    -0.246 OA
BRANCH  27  29
ATOM     29  C   UNL A   1      35.740  30.165  28.037  1.00  0.00     0.060 A 
ATOM     30  C   UNL A   1      36.771  30.316  27.123  1.00  0.00     0.016 A 
ATOM     31  C   UNL A   1      35.963  29.685  29.254  1.00  0.00     0.016 A 
ATOM     32  C   UNL A   1      37.966  29.656  27.493  1.00  0.00     0.010 A 
ATOM     33  C   UNL A   1      37.196  29.178  29.590  1.00  0.00     0.010 A 
ATOM     34  C   UNL A   1      38.245  29.241  28.715  1.00  0.00    -0.014 A 
BRANCH  34  35
ATOM     35  C   UNL A   1      39.656  28.854  29.127  1.00  0.00     0.031 A 
ATOM     36  C   UNL A   1      40.072  27.568  28.780  1.00  0.00     0.074 A 
ATOM     37  C   UNL A   1      40.393  29.720  29.917  1.00  0.00     0.049 A 
ATOM     38  N   UNL A   1      41.221  26.971  29.100  1.00  0.00    -0.248 NA
ATOM     39  C   UNL A   1      39.277  26.635  27.969  1.00  0.00     0.031 C 
ATOM     40  C   UNL A   1      39.983  31.022  30.265  1.00  0.00     0.029 A 
ATOM     41  N   UNL A   1      41.620  29.495  30.499  1.00  0.00    -0.354 N 
ATOM     42  C   UNL A   1      41.269  25.748  28.569  1.00  0.00     0.074 A 
ATOM     43  C   UNL A   1      40.016  25.511  27.839  1.00  0.00     0.031 C 
ATOM     44  C   UNL A   1      40.943  31.569  31.055  1.00  0.00     0.029 A 
ATOM     45  C   UNL A   1      41.971  30.620  31.213  1.00  0.00     0.049 A 
ATOM     46  H   UNL A   1      42.156  28.672  30.419  1.00  0.00     0.167 HD
ATOM     47  C   UNL A   1      42.308  24.820  28.663  1.00  0.00     0.031 A 
ATOM     48  C   UNL A   1      43.115  30.824  31.967  1.00  0.00     0.031 A 
ATOM     49  C   UNL A   1      43.472  25.041  29.383  1.00  0.00     0.049 A 
ATOM     50  C   UNL A   1      44.130  29.873  32.111  1.00  0.00     0.074 A 
ATOM     51  C   UNL A   1      44.533  24.121  29.482  1.00  0.00     0.029 A 
ATOM     52  N   UNL A   1      43.811  26.157  30.116  1.00  0.00    -0.354 N 
ATOM     53  N   UNL A   1      44.194  28.667  31.547  1.00  0.00    -0.248 NA
ATOM     54  C   UNL A   1      45.331  30.066  32.933  1.00  0.00     0.031 C 
ATOM     55  C   UNL A   1      45.494  24.669  30.272  1.00  0.00     0.029 A 
ATOM     56  C   UNL A   1      45.049  25.940  30.680  1.00  0.00     0.049 A 
ATOM     57  H   UNL A   1      43.263  26.968  30.221  1.00  0.00     0.167 HD
ATOM     58  C   UNL A   1      45.325  28.053  31.902  1.00  0.00     0.074 A 
ATOM     59  C   UNL A   1      46.069  28.943  32.805  1.00  0.00     0.031 C 
ATOM     60  C   UNL A   1      45.768  26.789  31.507  1.00  0.00     0.031 A 
BRANCH  47  61
ATOM     61  C   UNL A   1      42.155  23.494  27.937  1.00  0.00    -0.014 A 
ATOM     62  C   UNL A   1      41.421  22.455  28.486  1.00  0.00     0.010 A 
ATOM     63  C   UNL A   1      42.859  23.327  26.824  1.00  0.00     0.010 A 
ATOM     64  C   UNL A   1      41.727  21.186  27.939  1.00  0.00     0.020 A 
ATOM     65  C   UNL A   1      43.004  22.079  26.269  1.00  0.00     0.020 A 
ATOM     66  C   UNL A   1      42.356  20.996  26.793  1.00  0.00     0.054 A 
BRANCH  66  67
ATOM     67  S   UNL A   1      42.357  19.388  25.963  1.00  0.00     0.124 S 
ATOM     68  O   UNL A   1      42.841  18.310  26.936  1.00  0.00    -0.237 OA
ATOM     69  O   UNL A   1      40.938  19.054  25.496  1.00  0.00    -0.237 OA
ATOM     70  O   UNL A   1      43.403  19.446  24.611  1.00  0.00    -0.744 OA
ENDBRANCH  66  67
ENDBRANCH  47  61
BRANCH  48  71
ATOM     71  C   UNL A   1      43.276  32.157  32.680  1.00  0.00    -0.014 A 
ATOM     72  C   UNL A   1      43.818  33.287  32.089  1.00  0.00     0.010 A 
ATOM     73  C   UNL A   1      42.765  32.197  33.905  1.00  0.00     0.010 A 
ATOM     74  C   UNL A   1      44.036  34.356  32.991  1.00  0.00     0.020 A 
ATOM     75  C   UNL A   1      42.898  33.323  34.681  1.00  0.00     0.020 A 
ATOM     76  C   UNL A   1      43.476  34.457  34.182  1.00  0.00     0.054 A 
BRANCH  76  77
ATOM     77  S   UNL A   1      43.473  36.015  35.104  1.00  0.00     0.124 S 
ATOM     78  O   UNL A   1      42.200  36.104  35.950  1.00  0.00    -0.237 OA
ATOM     79  O   UNL A   1      44.699  36.069  36.018  1.00  0.00    -0.237 OA
ATOM     80  O   UNL A   1      43.520  37.326  34.007  1.00  0.00    -0.744 OA
ENDBRANCH  76  77
ENDBRANCH  48  71
BRANCH  60  81
ATOM     81  C   UNL A   1      47.120  26.316  32.015  1.00  0.00    -0.014 A 
ATOM     82  C   UNL A   1      47.239  25.585  33.185  1.00  0.00     0.010 A 
ATOM     83  C   UNL A   1      48.168  26.536  31.230  1.00  0.00     0.010 A 
ATOM     84  C   UNL A   1      48.577  25.369  33.592  1.00  0.00     0.020 A 
ATOM     85  C   UNL A   1      49.432  26.177  31.633  1.00  0.00     0.020 A 
ATOM     86  C   UNL A   1      49.630  25.503  32.806  1.00  0.00     0.054 A 
BRANCH  86  87
ATOM     87  S   UNL A   1      51.249  24.831  33.258  1.00  0.00     0.124 S 
ATOM     88  O   UNL A   1      51.733  23.884  32.157  1.00  0.00    -0.237 OA
ATOM     89  O   UNL A   1      52.251  25.977  33.421  1.00  0.00    -0.237 OA
ATOM     90  O   UNL A   1      51.119  23.973  34.731  1.00  0.00    -0.744 OA
ENDBRANCH  86  87
ENDBRANCH  60  81
ENDBRANCH  34  35
ENDBRANCH  27  29
ENDBRANCH  26  27
ENDBRANCH   1  26
TORSDOF 16
ENDMDL
