MODEL 1
REMARK VINA RESULT:     -10.1      0.000      0.000
REMARK SMILES O=C(CCCN1C(=O)c2ccc3c4c(ccc(c24)C1=O)C(=O)NC3=O)OCCOC(=O)c1ccc(-c2c3nc(c(-c4ccc(S(=O)(=O)[O-])cc4)c4ccc([nH]4)c(-c4ccc(S(=O)(=O)[O-])cc4)c4nc(c(-c5ccc(S(=O)(=O)[O-])cc5)c5ccc2[nH]5)C=C4)C=C3)cc1
REMARK SMILES IDX 27 1 26 2 2 3 1 4 3 5 4 6 5 7 6 8 19 9 7 10 20 11 17 12 9 13
REMARK SMILES IDX 8 14 16 15 18 16 10 17 15 18 13 19 11 20 14 21 12 22 21 23
REMARK SMILES IDX 24 24 23 25 22 26 25 27 28 29 29 30 30 31 31 32 32 33 33 34
REMARK SMILES IDX 91 35 34 36 90 37 35 38 36 39 37 40 84 41 38 42 89 43 83 44
REMARK SMILES IDX 85 45 39 46 88 47 82 48 81 49 40 51 70 52 51 53 69 54 52 55
REMARK SMILES IDX 55 56 68 57 86 58 53 59 54 60 67 62 87 63 56 64 41 65 42 66
REMARK SMILES IDX 50 67 43 68 49 69 44 70 45 71 46 72 47 73 48 74 71 75 72 76
REMARK SMILES IDX 80 77 73 78 79 79 74 80 75 81 76 82 77 83 78 84 57 85 58 86
REMARK SMILES IDX 66 87 59 88 65 89 60 90 61 91 62 92 63 93 64 94
REMARK H PARENT 23 28 85 50 55 61
REMARK Flexibility Score: inf
ROOT
ATOM      1  C   UNL A   1      33.165  34.822  28.637  1.00  0.00     0.274 C 
ENDROOT
BRANCH   1   2
ATOM      2  O   UNL A   1      32.626  34.982  29.959  1.00  0.00    -0.462 OA
BRANCH   2   3
ATOM      3  C   UNL A   1      32.788  36.158  30.620  1.00  0.00     0.305 C 
ATOM      4  O   UNL A   1      32.938  37.210  30.007  1.00  0.00    -0.252 OA
BRANCH   3   5
ATOM      5  C   UNL A   1      32.923  36.082  32.126  1.00  0.00     0.124 C 
BRANCH   5   6
ATOM      6  C   UNL A   1      34.254  35.521  32.616  1.00  0.00     0.034 C 
BRANCH   6   7
ATOM      7  C   UNL A   1      34.170  34.278  33.518  1.00  0.00     0.130 C 
BRANCH   7   8
ATOM      8  N   UNL A   1      35.166  33.202  33.363  1.00  0.00    -0.274 N 
ATOM      9  C   UNL A   1      35.158  32.382  32.235  1.00  0.00     0.261 C 
ATOM     10  C   UNL A   1      36.202  33.192  34.303  1.00  0.00     0.261 C 
ATOM     11  O   UNL A   1      34.427  32.536  31.263  1.00  0.00    -0.269 OA
ATOM     12  C   UNL A   1      36.104  31.239  32.224  1.00  0.00     0.049 A 
ATOM     13  C   UNL A   1      37.219  32.120  34.196  1.00  0.00     0.049 A 
ATOM     14  O   UNL A   1      36.305  33.999  35.223  1.00  0.00    -0.269 OA
ATOM     15  C   UNL A   1      35.992  30.252  31.236  1.00  0.00     0.015 A 
ATOM     16  C   UNL A   1      37.108  31.157  33.192  1.00  0.00     0.009 A 
ATOM     17  C   UNL A   1      38.263  32.059  35.133  1.00  0.00     0.015 A 
ATOM     18  C   UNL A   1      36.874  29.171  31.215  1.00  0.00     0.015 A 
ATOM     19  C   UNL A   1      38.037  30.085  33.150  1.00  0.00     0.009 A 
ATOM     20  C   UNL A   1      39.196  31.027  35.075  1.00  0.00     0.015 A 
ATOM     21  C   UNL A   1      37.897  29.096  32.164  1.00  0.00     0.048 A 
ATOM     22  C   UNL A   1      39.077  30.040  34.093  1.00  0.00     0.048 A 
ATOM     23  C   UNL A   1      38.853  27.965  32.128  1.00  0.00     0.258 C 
ATOM     24  C   UNL A   1      40.062  28.936  34.038  1.00  0.00     0.258 C 
ATOM     25  N   UNL A   1      39.858  27.988  33.066  1.00  0.00    -0.288 N 
ATOM     26  O   UNL A   1      38.754  27.062  31.307  1.00  0.00    -0.269 OA
ATOM     27  O   UNL A   1      41.004  28.880  34.819  1.00  0.00    -0.269 OA
ATOM     28  H   UNL A   1      40.500  27.241  33.039  1.00  0.00     0.173 HD
ENDBRANCH   7   8
ENDBRANCH   6   7
ENDBRANCH   5   6
ENDBRANCH   3   5
ENDBRANCH   2   3
ENDBRANCH   1   2
BRANCH   1  29
ATOM     29  C   UNL A   1      34.694  34.791  28.611  1.00  0.00     0.275 C 
BRANCH  29  30
ATOM     30  O   UNL A   1      35.184  33.903  27.591  1.00  0.00    -0.458 OA
BRANCH  30  31
ATOM     31  C   UNL A   1      35.219  32.594  27.972  1.00  0.00     0.338 C 
ATOM     32  O   UNL A   1      34.319  31.791  27.848  1.00  0.00    -0.246 OA
BRANCH  31  33
ATOM     33  C   UNL A   1      36.578  32.223  28.437  1.00  0.00     0.060 A 
ATOM     34  C   UNL A   1      37.073  30.979  28.035  1.00  0.00     0.016 A 
ATOM     35  C   UNL A   1      37.352  33.046  29.262  1.00  0.00     0.016 A 
ATOM     36  C   UNL A   1      38.311  30.533  28.497  1.00  0.00     0.010 A 
ATOM     37  C   UNL A   1      38.607  32.607  29.708  1.00  0.00     0.010 A 
ATOM     38  C   UNL A   1      39.076  31.330  29.362  1.00  0.00    -0.014 A 
BRANCH  38  39
ATOM     39  C   UNL A   1      40.296  30.744  29.981  1.00  0.00     0.031 A 
ATOM     40  C   UNL A   1      40.897  31.394  31.201  1.00  0.00     0.074 A 
ATOM     41  C   UNL A   1      40.813  29.589  29.521  1.00  0.00     0.049 A 
ATOM     42  N   UNL A   1      41.839  30.949  31.994  1.00  0.00    -0.248 NA
ATOM     43  C   UNL A   1      40.367  32.715  31.579  1.00  0.00     0.031 C 
ATOM     44  C   UNL A   1      40.346  28.861  28.341  1.00  0.00     0.029 A 
ATOM     45  N   UNL A   1      41.837  28.814  30.009  1.00  0.00    -0.354 N 
ATOM     46  C   UNL A   1      41.997  31.920  32.977  1.00  0.00     0.074 A 
ATOM     47  C   UNL A   1      41.098  33.005  32.646  1.00  0.00     0.031 C 
ATOM     48  C   UNL A   1      41.070  27.735  28.207  1.00  0.00     0.029 A 
ATOM     49  C   UNL A   1      42.050  27.662  29.289  1.00  0.00     0.049 A 
ATOM     50  H   UNL A   1      42.368  29.060  30.801  1.00  0.00     0.167 HD
ATOM     51  C   UNL A   1      42.790  31.902  34.074  1.00  0.00     0.031 A 
ATOM     52  C   UNL A   1      42.923  26.654  29.486  1.00  0.00     0.031 A 
ATOM     53  C   UNL A   1      43.702  30.839  34.403  1.00  0.00     0.049 A 
ATOM     54  C   UNL A   1      43.818  26.669  30.698  1.00  0.00     0.074 A 
ATOM     55  C   UNL A   1      44.537  30.730  35.502  1.00  0.00     0.029 A 
ATOM     56  N   UNL A   1      43.904  29.705  33.635  1.00  0.00    -0.354 N 
ATOM     57  N   UNL A   1      43.899  27.563  31.654  1.00  0.00    -0.248 NA
ATOM     58  C   UNL A   1      44.720  25.520  30.869  1.00  0.00     0.031 C 
ATOM     59  C   UNL A   1      45.275  29.547  35.376  1.00  0.00     0.029 A 
ATOM     60  C   UNL A   1      44.863  28.898  34.224  1.00  0.00     0.049 A 
ATOM     61  H   UNL A   1      43.435  29.502  32.793  1.00  0.00     0.167 HD
ATOM     62  C   UNL A   1      44.846  27.074  32.550  1.00  0.00     0.074 A 
ATOM     63  C   UNL A   1      45.289  25.795  32.034  1.00  0.00     0.031 C 
ATOM     64  C   UNL A   1      45.308  27.632  33.697  1.00  0.00     0.031 A 
BRANCH  51  65
ATOM     65  C   UNL A   1      42.699  33.079  35.009  1.00  0.00    -0.014 A 
ATOM     66  C   UNL A   1      41.775  33.080  36.071  1.00  0.00     0.010 A 
ATOM     67  C   UNL A   1      43.566  34.175  34.852  1.00  0.00     0.010 A 
ATOM     68  C   UNL A   1      41.695  34.171  36.937  1.00  0.00     0.020 A 
ATOM     69  C   UNL A   1      43.504  35.259  35.733  1.00  0.00     0.020 A 
ATOM     70  C   UNL A   1      42.558  35.257  36.760  1.00  0.00     0.054 A 
BRANCH  70  71
ATOM     71  S   UNL A   1      42.448  36.652  37.915  1.00  0.00     0.124 S 
ATOM     72  O   UNL A   1      41.008  36.896  37.954  1.00  0.00    -0.237 OA
ATOM     73  O   UNL A   1      43.023  36.101  39.140  1.00  0.00    -0.237 OA
ATOM     74  O   UNL A   1      43.240  37.697  37.273  1.00  0.00    -0.744 OA
ENDBRANCH  70  71
ENDBRANCH  51  65
BRANCH  52  75
ATOM     75  C   UNL A   1      42.991  25.529  28.513  1.00  0.00    -0.014 A 
ATOM     76  C   UNL A   1      43.806  25.609  27.371  1.00  0.00     0.010 A 
ATOM     77  C   UNL A   1      42.215  24.375  28.721  1.00  0.00     0.010 A 
ATOM     78  C   UNL A   1      43.822  24.567  26.438  1.00  0.00     0.020 A 
ATOM     79  C   UNL A   1      42.246  23.320  27.805  1.00  0.00     0.020 A 
ATOM     80  C   UNL A   1      43.038  23.430  26.660  1.00  0.00     0.054 A 
BRANCH  80  81
ATOM     81  S   UNL A   1      43.094  22.073  25.457  1.00  0.00     0.124 S 
ATOM     82  O   UNL A   1      41.767  21.484  25.601  1.00  0.00    -0.237 OA
ATOM     83  O   UNL A   1      43.343  22.774  24.198  1.00  0.00    -0.237 OA
ATOM     84  O   UNL A   1      44.201  21.246  25.929  1.00  0.00    -0.744 OA
ENDBRANCH  80  81
ENDBRANCH  52  75
BRANCH  64  85
ATOM     85  C   UNL A   1      46.334  26.857  34.479  1.00  0.00    -0.014 A 
ATOM     86  C   UNL A   1      47.710  27.023  34.239  1.00  0.00     0.010 A 
ATOM     87  C   UNL A   1      45.919  25.963  35.484  1.00  0.00     0.010 A 
ATOM     88  C   UNL A   1      48.649  26.273  34.954  1.00  0.00     0.020 A 
ATOM     89  C   UNL A   1      46.855  25.232  36.220  1.00  0.00     0.020 A 
ATOM     90  C   UNL A   1      48.215  25.377  35.935  1.00  0.00     0.054 A 
BRANCH  90  91
ATOM     91  S   UNL A   1      49.451  24.420  36.857  1.00  0.00     0.124 S 
ATOM     92  O   UNL A   1      50.073  23.630  35.799  1.00  0.00    -0.237 OA
ATOM     93  O   UNL A   1      50.293  25.461  37.442  1.00  0.00    -0.237 OA
ATOM     94  O   UNL A   1      48.652  23.661  37.817  1.00  0.00    -0.744 OA
ENDBRANCH  90  91
ENDBRANCH  64  85
ENDBRANCH  38  39
ENDBRANCH  31  33
ENDBRANCH  30  31
ENDBRANCH  29  30
ENDBRANCH   1  29
TORSDOF 17
ENDMDL
MODEL 2
REMARK VINA RESULT:      -9.6      2.394      2.940
REMARK SMILES O=C(CCCN1C(=O)c2ccc3c4c(ccc(c24)C1=O)C(=O)NC3=O)OCCOC(=O)c1ccc(-c2c3nc(c(-c4ccc(S(=O)(=O)[O-])cc4)c4ccc([nH]4)c(-c4ccc(S(=O)(=O)[O-])cc4)c4nc(c(-c5ccc(S(=O)(=O)[O-])cc5)c5ccc2[nH]5)C=C4)C=C3)cc1
REMARK SMILES IDX 27 1 26 2 2 3 1 4 3 5 4 6 5 7 6 8 19 9 7 10 20 11 17 12 9 13
REMARK SMILES IDX 8 14 16 15 18 16 10 17 15 18 13 19 11 20 14 21 12 22 21 23
REMARK SMILES IDX 24 24 23 25 22 26 25 27 28 29 29 30 30 31 31 32 32 33 33 34
REMARK SMILES IDX 91 35 34 36 90 37 35 38 36 39 37 40 84 41 38 42 89 43 83 44
REMARK SMILES IDX 85 45 39 46 88 47 82 48 81 49 40 51 70 52 51 53 69 54 52 55
REMARK SMILES IDX 55 56 68 57 86 58 53 59 54 60 67 62 87 63 56 64 41 65 42 66
REMARK SMILES IDX 50 67 43 68 49 69 44 70 45 71 46 72 47 73 48 74 71 75 72 76
REMARK SMILES IDX 80 77 73 78 79 79 74 80 75 81 76 82 77 83 78 84 57 85 58 86
REMARK SMILES IDX 66 87 59 88 65 89 60 90 61 91 62 92 63 93 64 94
REMARK H PARENT 23 28 85 50 55 61
REMARK Flexibility Score: inf
ROOT
ATOM      1  C   UNL A   1      32.903  35.735  29.796  1.00  0.00     0.274 C 
ENDROOT
BRANCH   1   2
ATOM      2  O   UNL A   1      32.807  35.199  31.126  1.00  0.00    -0.462 OA
BRANCH   2   3
ATOM      3  C   UNL A   1      32.461  36.008  32.160  1.00  0.00     0.305 C 
ATOM      4  O   UNL A   1      31.321  36.453  32.258  1.00  0.00    -0.252 OA
BRANCH   3   5
ATOM      5  C   UNL A   1      33.573  36.446  33.088  1.00  0.00     0.124 C 
BRANCH   5   6
ATOM      6  C   UNL A   1      34.891  35.701  32.894  1.00  0.00     0.034 C 
BRANCH   6   7
ATOM      7  C   UNL A   1      35.272  34.706  34.002  1.00  0.00     0.130 C 
BRANCH   7   8
ATOM      8  N   UNL A   1      36.243  33.634  33.710  1.00  0.00    -0.274 N 
ATOM      9  C   UNL A   1      35.867  32.515  32.968  1.00  0.00     0.261 C 
ATOM     10  C   UNL A   1      37.572  33.908  34.053  1.00  0.00     0.261 C 
ATOM     11  O   UNL A   1      34.778  32.371  32.423  1.00  0.00    -0.269 OA
ATOM     12  C   UNL A   1      36.864  31.424  32.839  1.00  0.00     0.049 A 
ATOM     13  C   UNL A   1      38.581  32.856  33.793  1.00  0.00     0.049 A 
ATOM     14  O   UNL A   1      37.946  34.953  34.579  1.00  0.00    -0.269 OA
ATOM     15  C   UNL A   1      36.476  30.187  32.307  1.00  0.00     0.015 A 
ATOM     16  C   UNL A   1      38.185  31.637  33.240  1.00  0.00     0.009 A 
ATOM     17  C   UNL A   1      39.922  33.080  34.143  1.00  0.00     0.015 A 
ATOM     18  C   UNL A   1      37.403  29.152  32.182  1.00  0.00     0.015 A 
ATOM     19  C   UNL A   1      39.144  30.604  33.074  1.00  0.00     0.009 A 
ATOM     20  C   UNL A   1      40.872  32.080  33.951  1.00  0.00     0.015 A 
ATOM     21  C   UNL A   1      38.732  29.366  32.556  1.00  0.00     0.048 A 
ATOM     22  C   UNL A   1      40.481  30.845  33.427  1.00  0.00     0.048 A 
ATOM     23  C   UNL A   1      39.726  28.278  32.399  1.00  0.00     0.258 C 
ATOM     24  C   UNL A   1      41.490  29.778  33.233  1.00  0.00     0.258 C 
ATOM     25  N   UNL A   1      41.021  28.582  32.746  1.00  0.00    -0.288 N 
ATOM     26  O   UNL A   1      39.410  27.172  31.981  1.00  0.00    -0.269 OA
ATOM     27  O   UNL A   1      42.672  29.960  33.494  1.00  0.00    -0.269 OA
ATOM     28  H   UNL A   1      41.685  27.864  32.633  1.00  0.00     0.173 HD
ENDBRANCH   7   8
ENDBRANCH   6   7
ENDBRANCH   5   6
ENDBRANCH   3   5
ENDBRANCH   2   3
ENDBRANCH   1   2
BRANCH   1  29
ATOM     29  C   UNL A   1      33.367  34.705  28.765  1.00  0.00     0.275 C 
BRANCH  29  30
ATOM     30  O   UNL A   1      33.961  33.559  29.398  1.00  0.00    -0.458 OA
BRANCH  30  31
ATOM     31  C   UNL A   1      34.272  32.552  28.534  1.00  0.00     0.338 C 
ATOM     32  O   UNL A   1      33.611  32.201  27.579  1.00  0.00    -0.246 OA
BRANCH  31  33
ATOM     33  C   UNL A   1      35.625  32.015  28.824  1.00  0.00     0.060 A 
ATOM     34  C   UNL A   1      36.535  32.877  29.443  1.00  0.00     0.016 A 
ATOM     35  C   UNL A   1      36.017  30.716  28.485  1.00  0.00     0.016 A 
ATOM     36  C   UNL A   1      37.846  32.463  29.676  1.00  0.00     0.010 A 
ATOM     37  C   UNL A   1      37.329  30.293  28.740  1.00  0.00     0.010 A 
ATOM     38  C   UNL A   1      38.264  31.179  29.299  1.00  0.00    -0.014 A 
BRANCH  38  39
ATOM     39  C   UNL A   1      39.711  30.843  29.390  1.00  0.00     0.031 A 
ATOM     40  C   UNL A   1      40.669  31.837  29.993  1.00  0.00     0.074 A 
ATOM     41  C   UNL A   1      40.158  29.625  29.029  1.00  0.00     0.049 A 
ATOM     42  N   UNL A   1      41.924  31.675  30.330  1.00  0.00    -0.248 NA
ATOM     43  C   UNL A   1      40.148  33.189  30.251  1.00  0.00     0.031 C 
ATOM     44  C   UNL A   1      39.347  28.571  28.417  1.00  0.00     0.029 A 
ATOM     45  N   UNL A   1      41.405  29.062  29.147  1.00  0.00    -0.354 N 
ATOM     46  C   UNL A   1      42.334  32.892  30.863  1.00  0.00     0.074 A 
ATOM     47  C   UNL A   1      41.214  33.801  30.747  1.00  0.00     0.031 C 
ATOM     48  C   UNL A   1      40.115  27.483  28.229  1.00  0.00     0.029 A 
ATOM     49  C   UNL A   1      41.469  27.761  28.706  1.00  0.00     0.049 A 
ATOM     50  H   UNL A   1      42.181  29.545  29.512  1.00  0.00     0.167 HD
ATOM     51  C   UNL A   1      43.520  33.220  31.428  1.00  0.00     0.031 A 
ATOM     52  C   UNL A   1      42.494  26.886  28.701  1.00  0.00     0.031 A 
ATOM     53  C   UNL A   1      44.647  32.332  31.531  1.00  0.00     0.049 A 
ATOM     54  C   UNL A   1      43.815  27.282  29.308  1.00  0.00     0.074 A 
ATOM     55  C   UNL A   1      45.886  32.575  32.099  1.00  0.00     0.029 A 
ATOM     56  N   UNL A   1      44.677  31.033  31.050  1.00  0.00    -0.354 N 
ATOM     57  N   UNL A   1      44.159  28.415  29.873  1.00  0.00    -0.248 NA
ATOM     58  C   UNL A   1      44.878  26.266  29.302  1.00  0.00     0.031 C 
ATOM     59  C   UNL A   1      46.679  31.434  31.924  1.00  0.00     0.029 A 
ATOM     60  C   UNL A   1      45.918  30.467  31.291  1.00  0.00     0.049 A 
ATOM     61  H   UNL A   1      43.926  30.580  30.601  1.00  0.00     0.167 HD
ATOM     62  C   UNL A   1      45.470  28.240  30.305  1.00  0.00     0.074 A 
ATOM     63  C   UNL A   1      45.847  26.885  29.960  1.00  0.00     0.031 C 
ATOM     64  C   UNL A   1      46.289  29.122  30.933  1.00  0.00     0.031 A 
BRANCH  51  65
ATOM     65  C   UNL A   1      43.654  34.611  31.988  1.00  0.00    -0.014 A 
ATOM     66  C   UNL A   1      44.087  35.673  31.172  1.00  0.00     0.010 A 
ATOM     67  C   UNL A   1      43.310  34.870  33.326  1.00  0.00     0.010 A 
ATOM     68  C   UNL A   1      44.207  36.962  31.694  1.00  0.00     0.020 A 
ATOM     69  C   UNL A   1      43.406  36.165  33.846  1.00  0.00     0.020 A 
ATOM     70  C   UNL A   1      43.870  37.199  33.030  1.00  0.00     0.054 A 
BRANCH  70  71
ATOM     71  S   UNL A   1      44.013  38.889  33.675  1.00  0.00     0.124 S 
ATOM     72  O   UNL A   1      45.000  39.473  32.770  1.00  0.00    -0.237 OA
ATOM     73  O   UNL A   1      42.653  39.403  33.536  1.00  0.00    -0.237 OA
ATOM     74  O   UNL A   1      44.466  38.697  35.051  1.00  0.00    -0.744 OA
ENDBRANCH  70  71
ENDBRANCH  51  65
BRANCH  52  75
ATOM     75  C   UNL A   1      42.314  25.533  28.107  1.00  0.00    -0.014 A 
ATOM     76  C   UNL A   1      42.503  25.316  26.731  1.00  0.00     0.010 A 
ATOM     77  C   UNL A   1      41.927  24.455  28.923  1.00  0.00     0.010 A 
ATOM     78  C   UNL A   1      42.280  24.051  26.177  1.00  0.00     0.020 A 
ATOM     79  C   UNL A   1      41.728  23.184  28.378  1.00  0.00     0.020 A 
ATOM     80  C   UNL A   1      41.890  22.993  27.005  1.00  0.00     0.054 A 
BRANCH  80  81
ATOM     81  S   UNL A   1      41.636  21.352  26.276  1.00  0.00     0.124 S 
ATOM     82  O   UNL A   1      40.279  21.459  25.751  1.00  0.00    -0.237 OA
ATOM     83  O   UNL A   1      42.699  21.280  25.275  1.00  0.00    -0.237 OA
ATOM     84  O   UNL A   1      41.800  20.447  27.411  1.00  0.00    -0.744 OA
ENDBRANCH  80  81
ENDBRANCH  52  75
BRANCH  64  85
ATOM     85  C   UNL A   1      47.669  28.643  31.299  1.00  0.00    -0.014 A 
ATOM     86  C   UNL A   1      47.919  28.026  32.538  1.00  0.00     0.010 A 
ATOM     87  C   UNL A   1      48.727  28.794  30.383  1.00  0.00     0.010 A 
ATOM     88  C   UNL A   1      49.212  27.613  32.874  1.00  0.00     0.020 A 
ATOM     89  C   UNL A   1      50.015  28.358  30.705  1.00  0.00     0.020 A 
ATOM     90  C   UNL A   1      50.254  27.789  31.958  1.00  0.00     0.054 A 
BRANCH  90  91
ATOM     91  S   UNL A   1      51.923  27.239  32.411  1.00  0.00     0.124 S 
ATOM     92  O   UNL A   1      52.659  27.451  31.169  1.00  0.00    -0.237 OA
ATOM     93  O   UNL A   1      52.272  28.137  33.510  1.00  0.00    -0.237 OA
ATOM     94  O   UNL A   1      51.732  25.841  32.794  1.00  0.00    -0.744 OA
ENDBRANCH  90  91
ENDBRANCH  64  85
ENDBRANCH  38  39
ENDBRANCH  31  33
ENDBRANCH  30  31
ENDBRANCH  29  30
ENDBRANCH   1  29
TORSDOF 17
ENDMDL
MODEL 3
REMARK VINA RESULT:      -9.3      3.623      8.680
REMARK SMILES O=C(CCCN1C(=O)c2ccc3c4c(ccc(c24)C1=O)C(=O)NC3=O)OCCOC(=O)c1ccc(-c2c3nc(c(-c4ccc(S(=O)(=O)[O-])cc4)c4ccc([nH]4)c(-c4ccc(S(=O)(=O)[O-])cc4)c4nc(c(-c5ccc(S(=O)(=O)[O-])cc5)c5ccc2[nH]5)C=C4)C=C3)cc1
REMARK SMILES IDX 27 1 26 2 2 3 1 4 3 5 4 6 5 7 6 8 19 9 7 10 20 11 17 12 9 13
REMARK SMILES IDX 8 14 16 15 18 16 10 17 15 18 13 19 11 20 14 21 12 22 21 23
REMARK SMILES IDX 24 24 23 25 22 26 25 27 28 29 29 30 30 31 31 32 32 33 33 34
REMARK SMILES IDX 91 35 34 36 90 37 35 38 36 39 37 40 84 41 38 42 89 43 83 44
REMARK SMILES IDX 85 45 39 46 88 47 82 48 81 49 40 51 70 52 51 53 69 54 52 55
REMARK SMILES IDX 55 56 68 57 86 58 53 59 54 60 67 62 87 63 56 64 41 65 42 66
REMARK SMILES IDX 50 67 43 68 49 69 44 70 45 71 46 72 47 73 48 74 71 75 72 76
REMARK SMILES IDX 80 77 73 78 79 79 74 80 75 81 76 82 77 83 78 84 57 85 58 86
REMARK SMILES IDX 66 87 59 88 65 89 60 90 61 91 62 92 63 93 64 94
REMARK H PARENT 23 28 85 50 55 61
REMARK Flexibility Score: inf
ROOT
ATOM      1  C   UNL A   1      32.923  36.131  30.056  1.00  0.00     0.274 C 
ENDROOT
BRANCH   1   2
ATOM      2  O   UNL A   1      32.570  35.547  31.321  1.00  0.00    -0.462 OA
BRANCH   2   3
ATOM      3  C   UNL A   1      32.906  36.176  32.476  1.00  0.00     0.305 C 
ATOM      4  O   UNL A   1      32.265  37.142  32.877  1.00  0.00    -0.252 OA
BRANCH   3   5
ATOM      5  C   UNL A   1      34.182  35.725  33.154  1.00  0.00     0.124 C 
BRANCH   5   6
ATOM      6  C   UNL A   1      34.523  34.252  32.947  1.00  0.00     0.034 C 
BRANCH   6   7
ATOM      7  C   UNL A   1      35.269  33.565  34.102  1.00  0.00     0.130 C 
BRANCH   7   8
ATOM      8  N   UNL A   1      36.582  32.941  33.847  1.00  0.00    -0.274 N 
ATOM      9  C   UNL A   1      36.671  31.702  33.214  1.00  0.00     0.261 C 
ATOM     10  C   UNL A   1      37.698  33.747  34.102  1.00  0.00     0.261 C 
ATOM     11  O   UNL A   1      35.722  31.091  32.737  1.00  0.00    -0.269 OA
ATOM     12  C   UNL A   1      38.017  31.086  33.121  1.00  0.00     0.049 A 
ATOM     13  C   UNL A   1      39.038  33.160  33.874  1.00  0.00     0.049 A 
ATOM     14  O   UNL A   1      37.633  34.899  34.525  1.00  0.00    -0.269 OA
ATOM     15  C   UNL A   1      38.145  29.753  32.707  1.00  0.00     0.015 A 
ATOM     16  C   UNL A   1      39.151  31.839  33.438  1.00  0.00     0.009 A 
ATOM     17  C   UNL A   1      40.184  33.926  34.139  1.00  0.00     0.015 A 
ATOM     18  C   UNL A   1      39.405  29.161  32.617  1.00  0.00     0.015 A 
ATOM     19  C   UNL A   1      40.439  31.257  33.306  1.00  0.00     0.009 A 
ATOM     20  C   UNL A   1      41.451  33.369  33.978  1.00  0.00     0.015 A 
ATOM     21  C   UNL A   1      40.546  29.915  32.907  1.00  0.00     0.048 A 
ATOM     22  C   UNL A   1      41.575  32.038  33.572  1.00  0.00     0.048 A 
ATOM     23  C   UNL A   1      41.887  29.298  32.786  1.00  0.00     0.258 C 
ATOM     24  C   UNL A   1      42.922  31.442  33.413  1.00  0.00     0.258 C 
ATOM     25  N   UNL A   1      42.960  30.119  33.044  1.00  0.00    -0.288 N 
ATOM     26  O   UNL A   1      42.031  28.125  32.472  1.00  0.00    -0.269 OA
ATOM     27  O   UNL A   1      43.938  32.098  33.600  1.00  0.00    -0.269 OA
ATOM     28  H   UNL A   1      43.853  29.714  32.955  1.00  0.00     0.173 HD
ENDBRANCH   7   8
ENDBRANCH   6   7
ENDBRANCH   5   6
ENDBRANCH   3   5
ENDBRANCH   2   3
ENDBRANCH   1   2
BRANCH   1  29
ATOM     29  C   UNL A   1      33.175  35.090  28.962  1.00  0.00     0.275 C 
BRANCH  29  30
ATOM     30  O   UNL A   1      33.581  33.830  29.521  1.00  0.00    -0.458 OA
BRANCH  30  31
ATOM     31  C   UNL A   1      33.924  32.898  28.587  1.00  0.00     0.338 C 
ATOM     32  O   UNL A   1      33.284  32.609  27.598  1.00  0.00    -0.246 OA
BRANCH  31  33
ATOM     33  C   UNL A   1      35.284  32.368  28.854  1.00  0.00     0.060 A 
ATOM     34  C   UNL A   1      36.036  33.008  29.844  1.00  0.00     0.016 A 
ATOM     35  C   UNL A   1      35.833  31.290  28.151  1.00  0.00     0.016 A 
ATOM     36  C   UNL A   1      37.349  32.610  30.095  1.00  0.00     0.010 A 
ATOM     37  C   UNL A   1      37.145  30.876  28.420  1.00  0.00     0.010 A 
ATOM     38  C   UNL A   1      37.926  31.561  29.365  1.00  0.00    -0.014 A 
BRANCH  38  39
ATOM     39  C   UNL A   1      39.381  31.292  29.528  1.00  0.00     0.031 A 
ATOM     40  C   UNL A   1      39.930  29.932  29.181  1.00  0.00     0.074 A 
ATOM     41  C   UNL A   1      40.225  32.277  29.890  1.00  0.00     0.049 A 
ATOM     42  N   UNL A   1      41.177  29.547  29.078  1.00  0.00    -0.248 NA
ATOM     43  C   UNL A   1      38.948  28.868  28.914  1.00  0.00     0.031 C 
ATOM     44  C   UNL A   1      39.832  33.634  30.271  1.00  0.00     0.029 A 
ATOM     45  N   UNL A   1      41.596  32.289  29.975  1.00  0.00    -0.354 N 
ATOM     46  C   UNL A   1      41.130  28.207  28.709  1.00  0.00     0.074 A 
ATOM     47  C   UNL A   1      39.735  27.829  28.668  1.00  0.00     0.031 C 
ATOM     48  C   UNL A   1      40.939  34.352  30.532  1.00  0.00     0.029 A 
ATOM     49  C   UNL A   1      42.117  33.508  30.338  1.00  0.00     0.049 A 
ATOM     50  H   UNL A   1      42.153  31.498  29.794  1.00  0.00     0.167 HD
ATOM     51  C   UNL A   1      42.151  27.371  28.400  1.00  0.00     0.031 A 
ATOM     52  C   UNL A   1      43.395  33.908  30.482  1.00  0.00     0.031 A 
ATOM     53  C   UNL A   1      43.543  27.729  28.457  1.00  0.00     0.049 A 
ATOM     54  C   UNL A   1      44.516  32.952  30.162  1.00  0.00     0.074 A 
ATOM     55  C   UNL A   1      44.645  26.950  28.150  1.00  0.00     0.029 A 
ATOM     56  N   UNL A   1      44.026  28.965  28.853  1.00  0.00    -0.354 N 
ATOM     57  N   UNL A   1      44.449  31.711  29.745  1.00  0.00    -0.248 NA
ATOM     58  C   UNL A   1      45.886  33.466  30.306  1.00  0.00     0.031 C 
ATOM     59  C   UNL A   1      45.798  27.705  28.400  1.00  0.00     0.029 A 
ATOM     60  C   UNL A   1      45.411  28.967  28.816  1.00  0.00     0.049 A 
ATOM     61  H   UNL A   1      43.467  29.730  29.122  1.00  0.00     0.167 HD
ATOM     62  C   UNL A   1      45.766  31.302  29.558  1.00  0.00     0.074 A 
ATOM     63  C   UNL A   1      46.606  32.436  29.882  1.00  0.00     0.031 C 
ATOM     64  C   UNL A   1      46.239  30.096  29.153  1.00  0.00     0.031 A 
BRANCH  51  65
ATOM     65  C   UNL A   1      41.789  25.976  27.964  1.00  0.00    -0.014 A 
ATOM     66  C   UNL A   1      42.104  24.869  28.773  1.00  0.00     0.010 A 
ATOM     67  C   UNL A   1      41.096  25.771  26.758  1.00  0.00     0.010 A 
ATOM     68  C   UNL A   1      41.765  23.577  28.366  1.00  0.00     0.020 A 
ATOM     69  C   UNL A   1      40.734  24.480  26.359  1.00  0.00     0.020 A 
ATOM     70  C   UNL A   1      41.085  23.391  27.159  1.00  0.00     0.054 A 
BRANCH  70  71
ATOM     71  S   UNL A   1      40.635  21.703  26.667  1.00  0.00     0.124 S 
ATOM     72  O   UNL A   1      40.721  20.987  27.938  1.00  0.00    -0.237 OA
ATOM     73  O   UNL A   1      39.286  21.873  26.132  1.00  0.00    -0.237 OA
ATOM     74  O   UNL A   1      41.653  21.347  25.681  1.00  0.00    -0.744 OA
ENDBRANCH  70  71
ENDBRANCH  51  65
BRANCH  52  75
ATOM     75  C   UNL A   1      43.696  35.291  30.945  1.00  0.00    -0.014 A 
ATOM     76  C   UNL A   1      43.731  35.603  32.316  1.00  0.00     0.010 A 
ATOM     77  C   UNL A   1      43.925  36.310  30.005  1.00  0.00     0.010 A 
ATOM     78  C   UNL A   1      43.963  36.916  32.737  1.00  0.00     0.020 A 
ATOM     79  C   UNL A   1      44.182  37.620  30.421  1.00  0.00     0.020 A 
ATOM     80  C   UNL A   1      44.183  37.918  31.785  1.00  0.00     0.054 A 
BRANCH  80  81
ATOM     81  S   UNL A   1      44.513  39.610  32.348  1.00  0.00     0.124 S 
ATOM     82  O   UNL A   1      45.969  39.675  32.278  1.00  0.00    -0.237 OA
ATOM     83  O   UNL A   1      43.795  40.419  31.365  1.00  0.00    -0.237 OA
ATOM     84  O   UNL A   1      43.949  39.636  33.696  1.00  0.00    -0.744 OA
ENDBRANCH  80  81
ENDBRANCH  52  75
BRANCH  64  85
ATOM     85  C   UNL A   1      47.732  29.947  29.025  1.00  0.00    -0.014 A 
ATOM     86  C   UNL A   1      48.386  30.194  27.804  1.00  0.00     0.010 A 
ATOM     87  C   UNL A   1      48.496  29.575  30.147  1.00  0.00     0.010 A 
ATOM     88  C   UNL A   1      49.769  30.022  27.695  1.00  0.00     0.020 A 
ATOM     89  C   UNL A   1      49.882  29.429  30.048  1.00  0.00     0.020 A 
ATOM     90  C   UNL A   1      50.508  29.633  28.816  1.00  0.00     0.054 A 
BRANCH  90  91
ATOM     91  S   UNL A   1      52.303  29.425  28.655  1.00  0.00     0.124 S 
ATOM     92  O   UNL A   1      52.774  29.826  29.977  1.00  0.00    -0.237 OA
ATOM     93  O   UNL A   1      52.437  28.004  28.344  1.00  0.00    -0.237 OA
ATOM     94  O   UNL A   1      52.658  30.331  27.564  1.00  0.00    -0.744 OA
ENDBRANCH  90  91
ENDBRANCH  64  85
ENDBRANCH  38  39
ENDBRANCH  31  33
ENDBRANCH  30  31
ENDBRANCH  29  30
ENDBRANCH   1  29
TORSDOF 17
ENDMDL
