MODEL 1
REMARK VINA RESULT:     -11.1      0.000      0.000
REMARK SMILES O=C(OCCOC(=O)c1cccc(Br)c1O[C@@H]1CCOC2(CCC2)C1)c1ccc(-c2c3nc(c(-c4ccc(S(=O)(=O)[O-])cc4)c4ccc([nH]4)c(-c4ccc(S(=O)(=O)[O-])cc4)c4nc(c(-c5ccc(S(=O)(=O)[O-])cc5)c5ccc2[nH]5)C=C4)C=C3)cc1
REMARK SMILES IDX 4 1 3 2 2 3 1 4 26 5 27 6 85 7 28 8 84 9 29 10 30 11 31 12
REMARK SMILES IDX 78 13 32 14 83 15 77 16 79 17 33 18 82 19 76 20 75 21 34 23
REMARK SMILES IDX 64 24 45 25 63 26 46 27 49 28 62 29 80 30 47 31 48 32 61 34
REMARK SMILES IDX 81 35 50 36 35 37 36 38 44 39 37 40 43 41 38 42 39 43 40 44
REMARK SMILES IDX 41 45 42 46 65 47 66 48 74 49 67 50 73 51 68 52 69 53 70 54
REMARK SMILES IDX 71 55 72 56 51 57 52 58 60 59 53 60 59 61 54 62 55 63 56 64
REMARK SMILES IDX 57 65 58 66 5 67 6 68 7 69 8 70 9 71 10 72 15 73 11 74 13 75
REMARK SMILES IDX 12 76 14 77 16 78 17 79 18 80 25 81 19 82 21 83 20 84 22 85
REMARK SMILES IDX 24 86 23 87
REMARK H PARENT 79 22 49 33
REMARK Flexibility Score: inf
ROOT
ATOM      1  C   UNL A   1      38.854  19.937  25.403  1.00  0.00     0.275 C 
ENDROOT
BRANCH   1   2
ATOM      2  O   UNL A   1      39.944  19.495  26.219  1.00  0.00    -0.458 OA
BRANCH   2   3
ATOM      3  C   UNL A   1      41.261  19.776  26.098  1.00  0.00     0.338 C 
ATOM      4  O   UNL A   1      41.996  18.900  25.642  1.00  0.00    -0.246 OA
BRANCH   3   5
ATOM      5  C   UNL A   1      41.907  21.049  26.572  1.00  0.00     0.060 A 
ATOM      6  C   UNL A   1      42.270  21.407  27.875  1.00  0.00     0.016 A 
ATOM      7  C   UNL A   1      42.159  21.993  25.571  1.00  0.00     0.016 A 
ATOM      8  C   UNL A   1      42.885  22.639  28.162  1.00  0.00     0.010 A 
ATOM      9  C   UNL A   1      42.801  23.202  25.848  1.00  0.00     0.010 A 
ATOM     10  C   UNL A   1      43.159  23.558  27.151  1.00  0.00    -0.014 A 
BRANCH  10  11
ATOM     11  C   UNL A   1      43.640  24.933  27.476  1.00  0.00     0.031 A 
ATOM     12  C   UNL A   1      45.080  25.286  27.183  1.00  0.00     0.074 A 
ATOM     13  C   UNL A   1      42.816  25.869  27.995  1.00  0.00     0.049 A 
ATOM     14  N   UNL A   1      45.715  26.413  27.375  1.00  0.00    -0.248 NA
ATOM     15  C   UNL A   1      45.931  24.214  26.638  1.00  0.00     0.031 C 
ATOM     16  C   UNL A   1      41.413  25.663  28.363  1.00  0.00     0.029 A 
ATOM     17  N   UNL A   1      43.033  27.197  28.283  1.00  0.00    -0.354 N 
ATOM     18  C   UNL A   1      47.037  26.163  27.017  1.00  0.00     0.074 A 
ATOM     19  C   UNL A   1      47.133  24.758  26.701  1.00  0.00     0.031 C 
ATOM     20  C   UNL A   1      40.885  26.828  28.779  1.00  0.00     0.029 A 
ATOM     21  C   UNL A   1      41.910  27.865  28.723  1.00  0.00     0.049 A 
ATOM     22  H   UNL A   1      43.911  27.631  28.185  1.00  0.00     0.167 HD
ATOM     23  C   UNL A   1      48.070  27.027  26.887  1.00  0.00     0.031 A 
ATOM     24  C   UNL A   1      41.724  29.171  29.014  1.00  0.00     0.031 A 
ATOM     25  C   UNL A   1      47.954  28.439  27.106  1.00  0.00     0.049 A 
ATOM     26  C   UNL A   1      42.875  30.128  28.825  1.00  0.00     0.074 A 
ATOM     27  C   UNL A   1      48.910  29.421  26.931  1.00  0.00     0.029 A 
ATOM     28  N   UNL A   1      46.793  29.072  27.523  1.00  0.00    -0.354 N 
ATOM     29  N   UNL A   1      44.098  29.878  28.420  1.00  0.00    -0.248 NA
ATOM     30  C   UNL A   1      42.612  31.548  29.100  1.00  0.00     0.031 C 
ATOM     31  C   UNL A   1      48.333  30.649  27.268  1.00  0.00     0.029 A 
ATOM     32  C   UNL A   1      47.006  30.434  27.607  1.00  0.00     0.049 A 
ATOM     33  H   UNL A   1      45.944  28.617  27.728  1.00  0.00     0.167 HD
ATOM     34  C   UNL A   1      44.733  31.114  28.345  1.00  0.00     0.074 A 
ATOM     35  C   UNL A   1      43.759  32.110  28.741  1.00  0.00     0.031 C 
ATOM     36  C   UNL A   1      46.006  31.403  27.977  1.00  0.00     0.031 A 
BRANCH  23  37
ATOM     37  C   UNL A   1      49.394  26.449  26.459  1.00  0.00    -0.014 A 
ATOM     38  C   UNL A   1      50.256  25.839  27.391  1.00  0.00     0.010 A 
ATOM     39  C   UNL A   1      49.803  26.554  25.119  1.00  0.00     0.010 A 
ATOM     40  C   UNL A   1      51.534  25.424  27.011  1.00  0.00     0.020 A 
ATOM     41  C   UNL A   1      51.067  26.104  24.724  1.00  0.00     0.020 A 
ATOM     42  C   UNL A   1      51.935  25.570  25.680  1.00  0.00     0.054 A 
BRANCH  42  43
ATOM     43  S   UNL A   1      53.606  25.041  25.215  1.00  0.00     0.124 S 
ATOM     44  O   UNL A   1      54.417  25.663  26.259  1.00  0.00    -0.237 OA
ATOM     45  O   UNL A   1      53.512  23.585  25.279  1.00  0.00    -0.237 OA
ATOM     46  O   UNL A   1      53.783  25.594  23.875  1.00  0.00    -0.744 OA
ENDBRANCH  42  43
ENDBRANCH  23  37
BRANCH  24  47
ATOM     47  C   UNL A   1      40.385  29.675  29.445  1.00  0.00    -0.014 A 
ATOM     48  C   UNL A   1      39.385  29.953  28.493  1.00  0.00     0.010 A 
ATOM     49  C   UNL A   1      40.109  29.912  30.804  1.00  0.00     0.010 A 
ATOM     50  C   UNL A   1      38.152  30.486  28.885  1.00  0.00     0.020 A 
ATOM     51  C   UNL A   1      38.866  30.420  31.204  1.00  0.00     0.020 A 
ATOM     52  C   UNL A   1      37.900  30.717  30.240  1.00  0.00     0.054 A 
BRANCH  52  53
ATOM     53  S   UNL A   1      36.281  31.381  30.727  1.00  0.00     0.124 S 
ATOM     54  O   UNL A   1      35.507  31.231  29.498  1.00  0.00    -0.237 OA
ATOM     55  O   UNL A   1      35.899  30.501  31.828  1.00  0.00    -0.237 OA
ATOM     56  O   UNL A   1      36.581  32.758  31.114  1.00  0.00    -0.744 OA
ENDBRANCH  52  53
ENDBRANCH  24  47
BRANCH  36  57
ATOM     57  C   UNL A   1      46.403  32.853  27.915  1.00  0.00    -0.014 A 
ATOM     58  C   UNL A   1      46.234  33.610  26.744  1.00  0.00     0.010 A 
ATOM     59  C   UNL A   1      46.882  33.483  29.080  1.00  0.00     0.010 A 
ATOM     60  C   UNL A   1      46.568  34.967  26.730  1.00  0.00     0.020 A 
ATOM     61  C   UNL A   1      47.187  34.844  29.077  1.00  0.00     0.020 A 
ATOM     62  C   UNL A   1      47.042  35.575  27.897  1.00  0.00     0.054 A 
BRANCH  62  63
ATOM     63  S   UNL A   1      47.419  37.348  27.868  1.00  0.00     0.124 S 
ATOM     64  O   UNL A   1      46.746  37.781  26.646  1.00  0.00    -0.237 OA
ATOM     65  O   UNL A   1      46.824  37.823  29.114  1.00  0.00    -0.237 OA
ATOM     66  O   UNL A   1      48.878  37.391  27.825  1.00  0.00    -0.744 OA
ENDBRANCH  62  63
ENDBRANCH  36  57
ENDBRANCH  10  11
ENDBRANCH   3   5
ENDBRANCH   2   3
ENDBRANCH   1   2
BRANCH   1  67
ATOM     67  C   UNL A   1      38.534  21.423  25.561  1.00  0.00     0.275 C 
BRANCH  67  68
ATOM     68  O   UNL A   1      37.134  21.682  25.750  1.00  0.00    -0.458 OA
BRANCH  68  69
ATOM     69  C   UNL A   1      36.408  21.886  24.616  1.00  0.00     0.342 C 
ATOM     70  O   UNL A   1      36.801  22.448  23.609  1.00  0.00    -0.246 OA
BRANCH  69  71
ATOM     71  C   UNL A   1      35.027  21.364  24.804  1.00  0.00     0.103 A 
ATOM     72  C   UNL A   1      34.800  20.010  24.598  1.00  0.00     0.020 A 
ATOM     73  C   UNL A   1      33.989  22.191  25.308  1.00  0.00     0.148 A 
ATOM     74  C   UNL A   1      33.566  19.478  24.917  1.00  0.00     0.002 A 
ATOM     75  C   UNL A   1      32.643  21.725  25.734  1.00  0.00     0.060 A 
ATOM     76  C   UNL A   1      32.544  20.278  25.473  1.00  0.00     0.019 A 
ATOM     77  Br  UNL A   1      30.945  23.319  26.873  1.00  0.00    -0.047 Br
BRANCH  73  78
ATOM     78  O   UNL A   1      34.290  23.516  25.411  1.00  0.00    -0.488 OA
BRANCH  78  79
ATOM     79  C   UNL A   1      33.108  23.921  24.808  1.00  0.00     0.178 C 
ATOM     80  C   UNL A   1      33.606  24.026  22.928  1.00  0.00     0.074 C 
ATOM     81  C   UNL A   1      32.640  25.535  25.790  1.00  0.00     0.080 C 
ATOM     82  C   UNL A   1      33.645  25.767  22.118  1.00  0.00     0.165 C 
ATOM     83  C   UNL A   1      32.724  27.204  24.860  1.00  0.00     0.072 C 
ATOM     84  O   UNL A   1      33.104  27.213  23.089  1.00  0.00    -0.375 OA
ATOM     85  C   UNL A   1      31.418  28.085  25.134  1.00  0.00     0.036 C 
ATOM     86  C   UNL A   1      33.429  28.322  25.734  1.00  0.00     0.036 C 
ATOM     87  C   UNL A   1      32.350  29.299  25.274  1.00  0.00     0.006 C 
ENDBRANCH  78  79
ENDBRANCH  73  78
ENDBRANCH  69  71
ENDBRANCH  68  69
ENDBRANCH  67  68
ENDBRANCH   1  67
TORSDOF 16
ENDMDL
MODEL 2
REMARK VINA RESULT:     -11.1      2.492      9.233
REMARK SMILES O=C(OCCOC(=O)c1cccc(Br)c1O[C@@H]1CCOC2(CCC2)C1)c1ccc(-c2c3nc(c(-c4ccc(S(=O)(=O)[O-])cc4)c4ccc([nH]4)c(-c4ccc(S(=O)(=O)[O-])cc4)c4nc(c(-c5ccc(S(=O)(=O)[O-])cc5)c5ccc2[nH]5)C=C4)C=C3)cc1
REMARK SMILES IDX 4 1 3 2 2 3 1 4 26 5 27 6 85 7 28 8 84 9 29 10 30 11 31 12
REMARK SMILES IDX 78 13 32 14 83 15 77 16 79 17 33 18 82 19 76 20 75 21 34 23
REMARK SMILES IDX 64 24 45 25 63 26 46 27 49 28 62 29 80 30 47 31 48 32 61 34
REMARK SMILES IDX 81 35 50 36 35 37 36 38 44 39 37 40 43 41 38 42 39 43 40 44
REMARK SMILES IDX 41 45 42 46 65 47 66 48 74 49 67 50 73 51 68 52 69 53 70 54
REMARK SMILES IDX 71 55 72 56 51 57 52 58 60 59 53 60 59 61 54 62 55 63 56 64
REMARK SMILES IDX 57 65 58 66 5 67 6 68 7 69 8 70 9 71 10 72 15 73 11 74 13 75
REMARK SMILES IDX 12 76 14 77 16 78 17 79 18 80 25 81 19 82 21 83 20 84 22 85
REMARK SMILES IDX 24 86 23 87
REMARK H PARENT 79 22 49 33
REMARK Flexibility Score: inf
ROOT
ATOM      1  C   UNL A   1      35.462  29.313  27.715  1.00  0.00     0.275 C 
ENDROOT
BRANCH   1   2
ATOM      2  O   UNL A   1      35.956  29.851  28.947  1.00  0.00    -0.458 OA
BRANCH   2   3
ATOM      3  C   UNL A   1      36.894  29.343  29.777  1.00  0.00     0.338 C 
ATOM      4  O   UNL A   1      36.600  29.216  30.967  1.00  0.00    -0.246 OA
BRANCH   3   5
ATOM      5  C   UNL A   1      38.303  29.013  29.370  1.00  0.00     0.060 A 
ATOM      6  C   UNL A   1      39.314  28.422  30.136  1.00  0.00     0.016 A 
ATOM      7  C   UNL A   1      38.635  29.360  28.057  1.00  0.00     0.016 A 
ATOM      8  C   UNL A   1      40.590  28.161  29.606  1.00  0.00     0.010 A 
ATOM      9  C   UNL A   1      39.891  29.071  27.517  1.00  0.00     0.010 A 
ATOM     10  C   UNL A   1      40.900  28.483  28.286  1.00  0.00    -0.014 A 
BRANCH  10  11
ATOM     11  C   UNL A   1      42.300  28.377  27.780  1.00  0.00     0.031 A 
ATOM     12  C   UNL A   1      43.233  29.549  27.975  1.00  0.00     0.074 A 
ATOM     13  C   UNL A   1      42.755  27.254  27.183  1.00  0.00     0.049 A 
ATOM     14  N   UNL A   1      44.486  29.682  27.625  1.00  0.00    -0.248 NA
ATOM     15  C   UNL A   1      42.667  30.751  28.614  1.00  0.00     0.031 C 
ATOM     16  C   UNL A   1      41.961  26.057  26.895  1.00  0.00     0.029 A 
ATOM     17  N   UNL A   1      44.012  26.924  26.729  1.00  0.00    -0.354 N 
ATOM     18  C   UNL A   1      44.832  30.987  27.962  1.00  0.00     0.074 A 
ATOM     19  C   UNL A   1      43.634  31.635  28.440  1.00  0.00     0.031 C 
ATOM     20  C   UNL A   1      42.756  25.111  26.361  1.00  0.00     0.029 A 
ATOM     21  C   UNL A   1      44.114  25.633  26.254  1.00  0.00     0.049 A 
ATOM     22  H   UNL A   1      44.769  27.553  26.742  1.00  0.00     0.167 HD
ATOM     23  C   UNL A   1      46.046  31.585  27.948  1.00  0.00     0.031 A 
ATOM     24  C   UNL A   1      45.189  24.943  25.815  1.00  0.00     0.031 A 
ATOM     25  C   UNL A   1      47.254  30.915  27.565  1.00  0.00     0.049 A 
ATOM     26  C   UNL A   1      46.542  25.611  25.845  1.00  0.00     0.074 A 
ATOM     27  C   UNL A   1      48.550  31.394  27.586  1.00  0.00     0.029 A 
ATOM     28  N   UNL A   1      47.312  29.604  27.119  1.00  0.00    -0.354 N 
ATOM     29  N   UNL A   1      46.855  26.825  26.232  1.00  0.00    -0.248 NA
ATOM     30  C   UNL A   1      47.692  24.804  25.411  1.00  0.00     0.031 C 
ATOM     31  C   UNL A   1      49.393  30.377  27.124  1.00  0.00     0.029 A 
ATOM     32  C   UNL A   1      48.623  29.253  26.864  1.00  0.00     0.049 A 
ATOM     33  H   UNL A   1      46.534  29.012  27.001  1.00  0.00     0.167 HD
ATOM     34  C   UNL A   1      48.240  26.910  26.134  1.00  0.00     0.074 A 
ATOM     35  C   UNL A   1      48.705  25.623  25.657  1.00  0.00     0.031 C 
ATOM     36  C   UNL A   1      49.058  27.954  26.417  1.00  0.00     0.031 A 
BRANCH  23  37
ATOM     37  C   UNL A   1      46.104  33.023  28.393  1.00  0.00    -0.014 A 
ATOM     38  C   UNL A   1      46.014  34.077  27.462  1.00  0.00     0.010 A 
ATOM     39  C   UNL A   1      46.295  33.328  29.752  1.00  0.00     0.010 A 
ATOM     40  C   UNL A   1      46.199  35.399  27.867  1.00  0.00     0.020 A 
ATOM     41  C   UNL A   1      46.441  34.655  30.168  1.00  0.00     0.020 A 
ATOM     42  C   UNL A   1      46.423  35.679  29.218  1.00  0.00     0.054 A 
BRANCH  42  43
ATOM     43  S   UNL A   1      46.679  37.404  29.716  1.00  0.00     0.124 S 
ATOM     44  O   UNL A   1      47.816  37.789  28.883  1.00  0.00    -0.237 OA
ATOM     45  O   UNL A   1      45.407  38.031  29.369  1.00  0.00    -0.237 OA
ATOM     46  O   UNL A   1      46.957  37.313  31.147  1.00  0.00    -0.744 OA
ENDBRANCH  42  43
ENDBRANCH  23  37
BRANCH  24  47
ATOM     47  C   UNL A   1      45.058  23.521  25.376  1.00  0.00    -0.014 A 
ATOM     48  C   UNL A   1      45.338  22.469  26.269  1.00  0.00     0.010 A 
ATOM     49  C   UNL A   1      44.683  23.207  24.057  1.00  0.00     0.010 A 
ATOM     50  C   UNL A   1      45.278  21.136  25.846  1.00  0.00     0.020 A 
ATOM     51  C   UNL A   1      44.597  21.873  23.637  1.00  0.00     0.020 A 
ATOM     52  C   UNL A   1      44.909  20.846  24.530  1.00  0.00     0.054 A 
BRANCH  52  53
ATOM     53  S   UNL A   1      44.810  19.108  24.013  1.00  0.00     0.124 S 
ATOM     54  O   UNL A   1      44.575  19.229  22.577  1.00  0.00    -0.237 OA
ATOM     55  O   UNL A   1      46.120  18.590  24.400  1.00  0.00    -0.237 OA
ATOM     56  O   UNL A   1      43.687  18.586  24.790  1.00  0.00    -0.744 OA
ENDBRANCH  52  53
ENDBRANCH  24  47
BRANCH  36  57
ATOM     57  C   UNL A   1      50.541  27.734  26.289  1.00  0.00    -0.014 A 
ATOM     58  C   UNL A   1      51.317  27.314  27.382  1.00  0.00     0.010 A 
ATOM     59  C   UNL A   1      51.149  27.880  25.028  1.00  0.00     0.010 A 
ATOM     60  C   UNL A   1      52.683  27.073  27.222  1.00  0.00     0.020 A 
ATOM     61  C   UNL A   1      52.507  27.611  24.858  1.00  0.00     0.020 A 
ATOM     62  C   UNL A   1      53.270  27.222  25.961  1.00  0.00     0.054 A 
BRANCH  62  63
ATOM     63  S   UNL A   1      55.034  26.854  25.768  1.00  0.00     0.124 S 
ATOM     64  O   UNL A   1      55.547  28.104  25.215  1.00  0.00    -0.237 OA
ATOM     65  O   UNL A   1      55.451  26.553  27.135  1.00  0.00    -0.237 OA
ATOM     66  O   UNL A   1      55.052  25.714  24.854  1.00  0.00    -0.744 OA
ENDBRANCH  62  63
ENDBRANCH  36  57
ENDBRANCH  10  11
ENDBRANCH   3   5
ENDBRANCH   2   3
ENDBRANCH   1   2
BRANCH   1  67
ATOM     67  C   UNL A   1      34.107  29.885  27.297  1.00  0.00     0.275 C 
BRANCH  67  68
ATOM     68  O   UNL A   1      33.573  29.265  26.116  1.00  0.00    -0.458 OA
BRANCH  68  69
ATOM     69  C   UNL A   1      32.392  28.605  26.273  1.00  0.00     0.342 C 
ATOM     70  O   UNL A   1      31.979  28.119  27.310  1.00  0.00    -0.246 OA
BRANCH  69  71
ATOM     71  C   UNL A   1      31.693  28.512  24.962  1.00  0.00     0.103 A 
ATOM     72  C   UNL A   1      30.805  29.522  24.616  1.00  0.00     0.020 A 
ATOM     73  C   UNL A   1      32.013  27.494  24.026  1.00  0.00     0.148 A 
ATOM     74  C   UNL A   1      30.265  29.538  23.344  1.00  0.00     0.002 A 
ATOM     75  C   UNL A   1      31.538  27.435  22.619  1.00  0.00     0.060 A 
ATOM     76  C   UNL A   1      30.620  28.565  22.385  1.00  0.00     0.019 A 
ATOM     77  Br  UNL A   1      32.416  25.650  20.957  1.00  0.00    -0.047 Br
BRANCH  73  78
ATOM     78  O   UNL A   1      32.839  26.513  24.483  1.00  0.00    -0.488 OA
BRANCH  78  79
ATOM     79  C   UNL A   1      31.953  25.495  24.163  1.00  0.00     0.178 C 
ATOM     80  C   UNL A   1      30.872  25.349  25.777  1.00  0.00     0.074 C 
ATOM     81  C   UNL A   1      33.127  24.036  23.632  1.00  0.00     0.080 C 
ATOM     82  C   UNL A   1      31.046  23.743  26.815  1.00  0.00     0.165 C 
ATOM     83  C   UNL A   1      33.204  22.494  24.761  1.00  0.00     0.072 C 
ATOM     84  O   UNL A   1      32.101  22.390  26.195  1.00  0.00    -0.375 OA
ATOM     85  C   UNL A   1      33.104  21.147  23.907  1.00  0.00     0.036 C 
ATOM     86  C   UNL A   1      34.697  22.014  24.988  1.00  0.00     0.036 C 
ATOM     87  C   UNL A   1      34.215  20.577  24.803  1.00  0.00     0.006 C 
ENDBRANCH  78  79
ENDBRANCH  73  78
ENDBRANCH  69  71
ENDBRANCH  68  69
ENDBRANCH  67  68
ENDBRANCH   1  67
TORSDOF 16
ENDMDL
MODEL 3
REMARK VINA RESULT:     -11.1      4.453     10.606
REMARK SMILES O=C(OCCOC(=O)c1cccc(Br)c1O[C@@H]1CCOC2(CCC2)C1)c1ccc(-c2c3nc(c(-c4ccc(S(=O)(=O)[O-])cc4)c4ccc([nH]4)c(-c4ccc(S(=O)(=O)[O-])cc4)c4nc(c(-c5ccc(S(=O)(=O)[O-])cc5)c5ccc2[nH]5)C=C4)C=C3)cc1
REMARK SMILES IDX 4 1 3 2 2 3 1 4 26 5 27 6 85 7 28 8 84 9 29 10 30 11 31 12
REMARK SMILES IDX 78 13 32 14 83 15 77 16 79 17 33 18 82 19 76 20 75 21 34 23
REMARK SMILES IDX 64 24 45 25 63 26 46 27 49 28 62 29 80 30 47 31 48 32 61 34
REMARK SMILES IDX 81 35 50 36 35 37 36 38 44 39 37 40 43 41 38 42 39 43 40 44
REMARK SMILES IDX 41 45 42 46 65 47 66 48 74 49 67 50 73 51 68 52 69 53 70 54
REMARK SMILES IDX 71 55 72 56 51 57 52 58 60 59 53 60 59 61 54 62 55 63 56 64
REMARK SMILES IDX 57 65 58 66 5 67 6 68 7 69 8 70 9 71 10 72 15 73 11 74 13 75
REMARK SMILES IDX 12 76 14 77 16 78 17 79 18 80 25 81 19 82 21 83 20 84 22 85
REMARK SMILES IDX 24 86 23 87
REMARK H PARENT 79 22 49 33
REMARK Flexibility Score: inf
ROOT
ATOM      1  C   UNL A   1      35.268  29.879  27.997  1.00  0.00     0.275 C 
ENDROOT
BRANCH   1   2
ATOM      2  O   UNL A   1      36.064  30.271  29.122  1.00  0.00    -0.458 OA
BRANCH   2   3
ATOM      3  C   UNL A   1      36.916  29.522  29.857  1.00  0.00     0.338 C 
ATOM      4  O   UNL A   1      36.537  29.142  30.966  1.00  0.00    -0.246 OA
BRANCH   3   5
ATOM      5  C   UNL A   1      38.331  29.204  29.459  1.00  0.00     0.060 A 
ATOM      6  C   UNL A   1      39.356  28.665  30.246  1.00  0.00     0.016 A 
ATOM      7  C   UNL A   1      38.653  29.501  28.131  1.00  0.00     0.016 A 
ATOM      8  C   UNL A   1      40.635  28.408  29.722  1.00  0.00     0.010 A 
ATOM      9  C   UNL A   1      39.912  29.214  27.600  1.00  0.00     0.010 A 
ATOM     10  C   UNL A   1      40.935  28.680  28.388  1.00  0.00    -0.014 A 
BRANCH  10  11
ATOM     11  C   UNL A   1      42.335  28.580  27.882  1.00  0.00     0.031 A 
ATOM     12  C   UNL A   1      43.260  29.760  28.070  1.00  0.00     0.074 A 
ATOM     13  C   UNL A   1      42.798  27.456  27.292  1.00  0.00     0.049 A 
ATOM     14  N   UNL A   1      44.513  29.899  27.718  1.00  0.00    -0.248 NA
ATOM     15  C   UNL A   1      42.687  30.962  28.701  1.00  0.00     0.031 C 
ATOM     16  C   UNL A   1      42.011  26.253  27.011  1.00  0.00     0.029 A 
ATOM     17  N   UNL A   1      44.056  27.132  26.839  1.00  0.00    -0.354 N 
ATOM     18  C   UNL A   1      44.849  31.208  28.046  1.00  0.00     0.074 A 
ATOM     19  C   UNL A   1      43.648  31.851  28.522  1.00  0.00     0.031 C 
ATOM     20  C   UNL A   1      42.813  25.309  26.483  1.00  0.00     0.029 A 
ATOM     21  C   UNL A   1      44.167  25.839  26.372  1.00  0.00     0.049 A 
ATOM     22  H   UNL A   1      44.809  27.766  26.847  1.00  0.00     0.167 HD
ATOM     23  C   UNL A   1      46.060  31.814  28.029  1.00  0.00     0.031 A 
ATOM     24  C   UNL A   1      45.246  25.154  25.936  1.00  0.00     0.031 A 
ATOM     25  C   UNL A   1      47.272  31.150  27.649  1.00  0.00     0.049 A 
ATOM     26  C   UNL A   1      46.594  25.831  25.961  1.00  0.00     0.074 A 
ATOM     27  C   UNL A   1      48.565  31.639  27.665  1.00  0.00     0.029 A 
ATOM     28  N   UNL A   1      47.339  29.837  27.210  1.00  0.00    -0.354 N 
ATOM     29  N   UNL A   1      46.900  27.050  26.340  1.00  0.00    -0.248 NA
ATOM     30  C   UNL A   1      47.750  25.029  25.531  1.00  0.00     0.031 C 
ATOM     31  C   UNL A   1      49.414  30.625  27.210  1.00  0.00     0.029 A 
ATOM     32  C   UNL A   1      48.652  29.494  26.956  1.00  0.00     0.049 A 
ATOM     33  H   UNL A   1      46.565  29.239  27.097  1.00  0.00     0.167 HD
ATOM     34  C   UNL A   1      48.285  27.143  26.241  1.00  0.00     0.074 A 
ATOM     35  C   UNL A   1      48.758  25.857  25.771  1.00  0.00     0.031 C 
ATOM     36  C   UNL A   1      49.095  28.195  26.517  1.00  0.00     0.031 A 
BRANCH  23  37
ATOM     37  C   UNL A   1      46.108  33.256  28.465  1.00  0.00    -0.014 A 
ATOM     38  C   UNL A   1      45.945  34.302  27.536  1.00  0.00     0.010 A 
ATOM     39  C   UNL A   1      46.363  33.571  29.810  1.00  0.00     0.010 A 
ATOM     40  C   UNL A   1      46.122  35.631  27.926  1.00  0.00     0.020 A 
ATOM     41  C   UNL A   1      46.500  34.903  30.214  1.00  0.00     0.020 A 
ATOM     42  C   UNL A   1      46.409  35.922  29.262  1.00  0.00     0.054 A 
BRANCH  42  43
ATOM     43  S   UNL A   1      46.652  37.654  29.740  1.00  0.00     0.124 S 
ATOM     44  O   UNL A   1      47.533  37.524  30.898  1.00  0.00    -0.237 OA
ATOM     45  O   UNL A   1      47.266  38.233  28.548  1.00  0.00    -0.237 OA
ATOM     46  O   UNL A   1      45.300  38.125  30.033  1.00  0.00    -0.744 OA
ENDBRANCH  42  43
ENDBRANCH  23  37
BRANCH  24  47
ATOM     47  C   UNL A   1      45.124  23.728  25.506  1.00  0.00    -0.014 A 
ATOM     48  C   UNL A   1      44.777  23.409  24.179  1.00  0.00     0.010 A 
ATOM     49  C   UNL A   1      45.322  22.681  26.424  1.00  0.00     0.010 A 
ATOM     50  C   UNL A   1      44.600  22.078  23.787  1.00  0.00     0.020 A 
ATOM     51  C   UNL A   1      45.172  21.345  26.029  1.00  0.00     0.020 A 
ATOM     52  C   UNL A   1      44.797  21.052  24.716  1.00  0.00     0.054 A 
BRANCH  52  53
ATOM     53  S   UNL A   1      44.589  19.331  24.174  1.00  0.00     0.124 S 
ATOM     54  O   UNL A   1      43.308  18.975  24.774  1.00  0.00    -0.237 OA
ATOM     55  O   UNL A   1      44.596  19.457  22.719  1.00  0.00    -0.237 OA
ATOM     56  O   UNL A   1      45.756  18.654  24.739  1.00  0.00    -0.744 OA
ENDBRANCH  52  53
ENDBRANCH  24  47
BRANCH  36  57
ATOM     57  C   UNL A   1      50.580  27.985  26.390  1.00  0.00    -0.014 A 
ATOM     58  C   UNL A   1      51.344  27.488  27.458  1.00  0.00     0.010 A 
ATOM     59  C   UNL A   1      51.200  28.219  25.148  1.00  0.00     0.010 A 
ATOM     60  C   UNL A   1      52.713  27.259  27.296  1.00  0.00     0.020 A 
ATOM     61  C   UNL A   1      52.560  27.962  24.974  1.00  0.00     0.020 A 
ATOM     62  C   UNL A   1      53.312  27.497  26.055  1.00  0.00     0.054 A 
BRANCH  62  63
ATOM     63  S   UNL A   1      55.078  27.142  25.855  1.00  0.00     0.124 S 
ATOM     64  O   UNL A   1      55.254  27.281  24.412  1.00  0.00    -0.237 OA
ATOM     65  O   UNL A   1      55.708  28.180  26.667  1.00  0.00    -0.237 OA
ATOM     66  O   UNL A   1      55.220  25.783  26.372  1.00  0.00    -0.744 OA
ENDBRANCH  62  63
ENDBRANCH  36  57
ENDBRANCH  10  11
ENDBRANCH   3   5
ENDBRANCH   2   3
ENDBRANCH   1   2
BRANCH   1  67
ATOM     67  C   UNL A   1      34.188  30.896  27.628  1.00  0.00     0.275 C 
BRANCH  67  68
ATOM     68  O   UNL A   1      34.027  31.931  28.611  1.00  0.00    -0.458 OA
BRANCH  68  69
ATOM     69  C   UNL A   1      34.686  33.096  28.361  1.00  0.00     0.342 C 
ATOM     70  O   UNL A   1      35.414  33.313  27.409  1.00  0.00    -0.246 OA
BRANCH  69  71
ATOM     71  C   UNL A   1      34.429  34.064  29.462  1.00  0.00     0.103 A 
ATOM     72  C   UNL A   1      33.642  35.177  29.191  1.00  0.00     0.020 A 
ATOM     73  C   UNL A   1      34.859  33.802  30.789  1.00  0.00     0.148 A 
ATOM     74  C   UNL A   1      33.262  36.002  30.232  1.00  0.00     0.002 A 
ATOM     75  C   UNL A   1      34.473  34.585  31.992  1.00  0.00     0.060 A 
ATOM     76  C   UNL A   1      33.635  35.720  31.565  1.00  0.00     0.019 A 
ATOM     77  Br  UNL A   1      35.134  33.828  34.382  1.00  0.00    -0.047 Br
BRANCH  73  78
ATOM     78  O   UNL A   1      35.680  32.726  30.940  1.00  0.00    -0.488 OA
BRANCH  78  79
ATOM     79  C   UNL A   1      36.747  33.492  31.385  1.00  0.00     0.178 C 
ATOM     80  C   UNL A   1      37.890  33.586  29.810  1.00  0.00     0.074 C 
ATOM     81  C   UNL A   1      37.344  32.542  32.975  1.00  0.00     0.080 C 
ATOM     82  C   UNL A   1      39.582  32.681  29.889  1.00  0.00     0.165 C 
ATOM     83  C   UNL A   1      39.052  31.683  32.915  1.00  0.00     0.072 C 
ATOM     84  O   UNL A   1      40.098  31.891  31.450  1.00  0.00    -0.375 OA
ATOM     85  C   UNL A   1      39.903  31.997  34.231  1.00  0.00     0.036 C 
ATOM     86  C   UNL A   1      38.992  30.225  33.532  1.00  0.00     0.036 C 
ATOM     87  C   UNL A   1      40.316  30.517  34.235  1.00  0.00     0.006 C 
ENDBRANCH  78  79
ENDBRANCH  73  78
ENDBRANCH  69  71
ENDBRANCH  68  69
ENDBRANCH  67  68
ENDBRANCH   1  67
TORSDOF 16
ENDMDL
