MODEL 1
REMARK VINA RESULT:     -11.0      0.000      0.000
REMARK SMILES O=C(OCCOC(=O)[C@@H]1CCCC[C@H]1C(=O)Nc1ccccc1C(=O)N1CCOCC1)c1ccc(-c2c3nc(c(-c4ccc(S(=O)(=O)[O-])cc4)c4ccc([nH]4)c(-c4ccc(S(=O)(=O)[O-])cc4)c4nc(c(-c5ccc(S(=O)(=O)[O-])cc5)c5ccc2[nH]5)C=C4)C=C3)cc1
REMARK SMILES IDX 4 1 3 2 2 3 1 4 32 5 33 6 91 7 34 8 90 9 35 10 36 11 37 12
REMARK SMILES IDX 84 13 38 14 89 15 83 16 85 17 39 18 88 19 82 20 81 21 40 23
REMARK SMILES IDX 70 24 51 25 69 26 52 27 55 28 68 29 86 30 53 31 54 32 67 34
REMARK SMILES IDX 87 35 56 36 41 37 42 38 50 39 43 40 49 41 44 42 45 43 46 44
REMARK SMILES IDX 47 45 48 46 71 47 72 48 80 49 73 50 79 51 74 52 75 53 76 54
REMARK SMILES IDX 77 55 78 56 57 57 58 58 66 59 59 60 65 61 60 62 61 63 62 64
REMARK SMILES IDX 63 65 64 66 5 67 6 68 7 69 8 70 9 71 10 72 14 73 11 74 13 75
REMARK SMILES IDX 12 76 15 77 16 78 17 79 18 81 19 82 23 83 20 84 22 85 21 86
REMARK SMILES IDX 24 87 25 88 26 89 27 90 31 91 28 92 30 93 29 94
REMARK H PARENT 85 22 55 33 17 80
REMARK Flexibility Score: inf
ROOT
ATOM      1  C   UNL A   1      38.534  21.478  25.607  1.00  0.00     0.275 C 
ENDROOT
BRANCH   1   2
ATOM      2  O   UNL A   1      39.355  20.955  26.665  1.00  0.00    -0.458 OA
BRANCH   2   3
ATOM      3  C   UNL A   1      40.618  20.638  26.315  1.00  0.00     0.338 C 
ATOM      4  O   UNL A   1      40.841  19.620  25.697  1.00  0.00    -0.246 OA
BRANCH   3   5
ATOM      5  C   UNL A   1      41.520  21.707  27.012  1.00  0.00     0.060 A 
ATOM      6  C   UNL A   1      41.703  23.007  25.777  1.00  0.00     0.016 A 
ATOM      7  C   UNL A   1      42.132  22.217  28.809  1.00  0.00     0.016 A 
ATOM      8  C   UNL A   1      42.268  24.554  26.204  1.00  0.00     0.010 A 
ATOM      9  C   UNL A   1      42.703  23.880  29.069  1.00  0.00     0.010 A 
ATOM     10  C   UNL A   1      42.706  24.994  27.753  1.00  0.00    -0.014 A 
BRANCH  10  11
ATOM     11  C   UNL A   1      43.083  26.423  28.024  1.00  0.00     0.031 A 
ATOM     12  C   UNL A   1      44.531  26.753  27.844  1.00  0.00     0.074 A 
ATOM     13  C   UNL A   1      42.217  27.382  28.452  1.00  0.00     0.049 A 
ATOM     14  N   UNL A   1      45.140  27.897  27.973  1.00  0.00    -0.248 NA
ATOM     15  C   UNL A   1      45.422  25.652  27.444  1.00  0.00     0.031 C 
ATOM     16  C   UNL A   1      40.775  27.221  28.648  1.00  0.00     0.029 A 
ATOM     17  N   UNL A   1      42.421  28.691  28.849  1.00  0.00    -0.354 N 
ATOM     18  C   UNL A   1      46.452  27.637  27.610  1.00  0.00     0.074 A 
ATOM     19  C   UNL A   1      46.605  26.223  27.446  1.00  0.00     0.031 C 
ATOM     20  C   UNL A   1      40.251  28.328  29.216  1.00  0.00     0.029 A 
ATOM     21  C   UNL A   1      41.300  29.322  29.372  1.00  0.00     0.049 A 
ATOM     22  H   UNL A   1      43.293  29.141  28.766  1.00  0.00     0.167 HD
ATOM     23  C   UNL A   1      47.431  28.509  27.314  1.00  0.00     0.031 A 
ATOM     24  C   UNL A   1      41.138  30.564  29.887  1.00  0.00     0.031 A 
ATOM     25  C   UNL A   1      47.293  29.909  27.529  1.00  0.00     0.049 A 
ATOM     26  C   UNL A   1      42.308  31.509  29.743  1.00  0.00     0.074 A 
ATOM     27  C   UNL A   1      48.210  30.910  27.300  1.00  0.00     0.029 A 
ATOM     28  N   UNL A   1      46.157  30.494  28.069  1.00  0.00    -0.354 N 
ATOM     29  N   UNL A   1      43.500  31.260  29.250  1.00  0.00    -0.248 NA
ATOM     30  C   UNL A   1      42.097  32.910  30.132  1.00  0.00     0.031 C 
ATOM     31  C   UNL A   1      47.660  32.096  27.790  1.00  0.00     0.029 A 
ATOM     32  C   UNL A   1      46.366  31.845  28.231  1.00  0.00     0.049 A 
ATOM     33  H   UNL A   1      45.328  30.016  28.300  1.00  0.00     0.167 HD
ATOM     34  C   UNL A   1      44.155  32.483  29.202  1.00  0.00     0.074 A 
ATOM     35  C   UNL A   1      43.225  33.470  29.714  1.00  0.00     0.031 C 
ATOM     36  C   UNL A   1      45.403  32.777  28.757  1.00  0.00     0.031 A 
BRANCH  23  37
ATOM     37  C   UNL A   1      48.685  27.929  26.733  1.00  0.00    -0.014 A 
ATOM     38  C   UNL A   1      49.770  27.583  27.568  1.00  0.00     0.010 A 
ATOM     39  C   UNL A   1      48.813  27.796  25.344  1.00  0.00     0.010 A 
ATOM     40  C   UNL A   1      50.967  27.127  27.018  1.00  0.00     0.020 A 
ATOM     41  C   UNL A   1      49.999  27.306  24.793  1.00  0.00     0.020 A 
ATOM     42  C   UNL A   1      51.066  26.977  25.633  1.00  0.00     0.054 A 
BRANCH  42  43
ATOM     43  S   UNL A   1      52.598  26.292  24.950  1.00  0.00     0.124 S 
ATOM     44  O   UNL A   1      52.378  26.425  23.513  1.00  0.00    -0.237 OA
ATOM     45  O   UNL A   1      53.615  27.176  25.515  1.00  0.00    -0.237 OA
ATOM     46  O   UNL A   1      52.617  24.921  25.454  1.00  0.00    -0.744 OA
ENDBRANCH  42  43
ENDBRANCH  23  37
BRANCH  24  47
ATOM     47  C   UNL A   1      39.842  31.039  30.491  1.00  0.00    -0.014 A 
ATOM     48  C   UNL A   1      38.834  31.622  29.696  1.00  0.00     0.010 A 
ATOM     49  C   UNL A   1      39.629  30.984  31.883  1.00  0.00     0.010 A 
ATOM     50  C   UNL A   1      37.673  32.166  30.271  1.00  0.00     0.020 A 
ATOM     51  C   UNL A   1      38.457  31.502  32.463  1.00  0.00     0.020 A 
ATOM     52  C   UNL A   1      37.490  32.104  31.654  1.00  0.00     0.054 A 
BRANCH  52  53
ATOM     53  S   UNL A   1      35.970  32.804  32.372  1.00  0.00     0.124 S 
ATOM     54  O   UNL A   1      36.003  32.284  33.735  1.00  0.00    -0.237 OA
ATOM     55  O   UNL A   1      36.196  34.241  32.238  1.00  0.00    -0.237 OA
ATOM     56  O   UNL A   1      34.908  32.264  31.524  1.00  0.00    -0.744 OA
ENDBRANCH  52  53
ENDBRANCH  24  47
BRANCH  36  57
ATOM     57  C   UNL A   1      45.814  34.216  28.776  1.00  0.00    -0.014 A 
ATOM     58  C   UNL A   1      46.510  34.757  29.868  1.00  0.00     0.010 A 
ATOM     59  C   UNL A   1      45.573  35.008  27.639  1.00  0.00     0.010 A 
ATOM     60  C   UNL A   1      46.925  36.086  29.838  1.00  0.00     0.020 A 
ATOM     61  C   UNL A   1      46.030  36.321  27.585  1.00  0.00     0.020 A 
ATOM     62  C   UNL A   1      46.687  36.856  28.694  1.00  0.00     0.054 A 
BRANCH  62  63
ATOM     63  S   UNL A   1      47.282  38.563  28.666  1.00  0.00     0.124 S 
ATOM     64  O   UNL A   1      48.075  38.585  27.440  1.00  0.00    -0.237 OA
ATOM     65  O   UNL A   1      46.039  39.330  28.628  1.00  0.00    -0.237 OA
ATOM     66  O   UNL A   1      48.046  38.685  29.905  1.00  0.00    -0.744 OA
ENDBRANCH  62  63
ENDBRANCH  36  57
ENDBRANCH  10  11
ENDBRANCH   3   5
ENDBRANCH   2   3
ENDBRANCH   1   2
BRANCH   1  67
ATOM     67  C   UNL A   1      36.933  21.589  25.724  1.00  0.00     0.274 C 
BRANCH  67  68
ATOM     68  O   UNL A   1      36.263  22.856  26.136  1.00  0.00    -0.462 OA
BRANCH  68  69
ATOM     69  C   UNL A   1      35.672  23.730  25.237  1.00  0.00     0.309 C 
ATOM     70  O   UNL A   1      36.302  24.007  24.208  1.00  0.00    -0.252 OA
BRANCH  69  71
ATOM     71  C   UNL A   1      34.099  24.533  25.494  1.00  0.00     0.111 C 
ATOM     72  C   UNL A   1      34.594  25.994  25.710  1.00  0.00     0.016 C 
ATOM     73  C   UNL A   1      32.549  24.412  26.299  1.00  0.00     0.093 C 
ATOM     74  C   UNL A   1      33.551  27.102  25.646  1.00  0.00     0.001 C 
ATOM     75  C   UNL A   1      31.637  25.647  26.074  1.00  0.00     0.014 C 
ATOM     76  C   UNL A   1      32.361  26.883  26.546  1.00  0.00     0.001 C 
BRANCH  73  77
ATOM     77  C   UNL A   1      31.382  23.296  26.622  1.00  0.00     0.228 C 
ATOM     78  O   UNL A   1      30.468  23.601  27.411  1.00  0.00    -0.274 OA
ATOM     79  N   UNL A   1      31.085  22.124  25.999  1.00  0.00    -0.325 N 
ATOM     80  H   UNL A   1      30.561  21.438  26.473  1.00  0.00     0.169 HD
BRANCH  79  81
ATOM     81  C   UNL A   1      31.510  21.893  24.720  1.00  0.00     0.054 A 
ATOM     82  C   UNL A   1      30.967  22.781  23.768  1.00  0.00     0.027 A 
ATOM     83  C   UNL A   1      32.691  21.205  24.561  1.00  0.00     0.063 A 
ATOM     84  C   UNL A   1      31.795  23.263  22.770  1.00  0.00     0.002 A 
ATOM     85  C   UNL A   1      33.493  21.669  23.496  1.00  0.00     0.016 A 
ATOM     86  C   UNL A   1      33.084  22.748  22.673  1.00  0.00     0.001 A 
BRANCH  83  87
ATOM     87  C   UNL A   1      33.146  20.131  25.572  1.00  0.00     0.256 C 
ATOM     88  O   UNL A   1      33.586  20.602  26.622  1.00  0.00    -0.269 OA
ATOM     89  N   UNL A   1      33.197  18.695  25.281  1.00  0.00    -0.334 N 
ATOM     90  C   UNL A   1      34.725  18.325  24.564  1.00  0.00     0.148 C 
ATOM     91  C   UNL A   1      32.015  17.262  25.773  1.00  0.00     0.148 C 
ATOM     92  C   UNL A   1      35.306  16.591  24.325  1.00  0.00     0.181 C 
ATOM     93  C   UNL A   1      32.773  15.238  25.373  1.00  0.00     0.181 C 
ATOM     94  O   UNL A   1      34.529  15.218  24.869  1.00  0.00    -0.378 OA
ENDBRANCH  83  87
ENDBRANCH  79  81
ENDBRANCH  73  77
ENDBRANCH  69  71
ENDBRANCH  68  69
ENDBRANCH  67  68
ENDBRANCH   1  67
TORSDOF 17
ENDMDL
MODEL 2
REMARK VINA RESULT:     -10.7      1.985      4.288
REMARK SMILES O=C(OCCOC(=O)[C@@H]1CCCC[C@H]1C(=O)Nc1ccccc1C(=O)N1CCOCC1)c1ccc(-c2c3nc(c(-c4ccc(S(=O)(=O)[O-])cc4)c4ccc([nH]4)c(-c4ccc(S(=O)(=O)[O-])cc4)c4nc(c(-c5ccc(S(=O)(=O)[O-])cc5)c5ccc2[nH]5)C=C4)C=C3)cc1
REMARK SMILES IDX 4 1 3 2 2 3 1 4 32 5 33 6 91 7 34 8 90 9 35 10 36 11 37 12
REMARK SMILES IDX 84 13 38 14 89 15 83 16 85 17 39 18 88 19 82 20 81 21 40 23
REMARK SMILES IDX 70 24 51 25 69 26 52 27 55 28 68 29 86 30 53 31 54 32 67 34
REMARK SMILES IDX 87 35 56 36 41 37 42 38 50 39 43 40 49 41 44 42 45 43 46 44
REMARK SMILES IDX 47 45 48 46 71 47 72 48 80 49 73 50 79 51 74 52 75 53 76 54
REMARK SMILES IDX 77 55 78 56 57 57 58 58 66 59 59 60 65 61 60 62 61 63 62 64
REMARK SMILES IDX 63 65 64 66 5 67 6 68 7 69 8 70 9 71 10 72 14 73 11 74 13 75
REMARK SMILES IDX 12 76 15 77 16 78 17 79 18 81 19 82 23 83 20 84 22 85 21 86
REMARK SMILES IDX 24 87 25 88 26 89 27 90 31 91 28 92 30 93 29 94
REMARK H PARENT 85 22 55 33 17 80
REMARK Flexibility Score: inf
ROOT
ATOM      1  C   UNL A   1      38.776  20.547  25.211  1.00  0.00     0.275 C 
ENDROOT
BRANCH   1   2
ATOM      2  O   UNL A   1      39.584  20.664  26.395  1.00  0.00    -0.458 OA
BRANCH   2   3
ATOM      3  C   UNL A   1      40.866  20.270  26.262  1.00  0.00     0.338 C 
ATOM      4  O   UNL A   1      41.126  19.199  25.761  1.00  0.00    -0.246 OA
BRANCH   3   5
ATOM      5  C   UNL A   1      41.710  21.355  27.008  1.00  0.00     0.060 A 
ATOM      6  C   UNL A   1      42.078  22.580  25.738  1.00  0.00     0.016 A 
ATOM      7  C   UNL A   1      42.117  21.948  28.836  1.00  0.00     0.016 A 
ATOM      8  C   UNL A   1      42.633  24.135  26.150  1.00  0.00     0.010 A 
ATOM      9  C   UNL A   1      42.701  23.609  29.077  1.00  0.00     0.010 A 
ATOM     10  C   UNL A   1      42.895  24.649  27.715  1.00  0.00    -0.014 A 
BRANCH  10  11
ATOM     11  C   UNL A   1      43.278  26.082  27.956  1.00  0.00     0.031 A 
ATOM     12  C   UNL A   1      44.731  26.396  27.789  1.00  0.00     0.074 A 
ATOM     13  C   UNL A   1      42.414  27.057  28.346  1.00  0.00     0.049 A 
ATOM     14  N   UNL A   1      45.347  27.539  27.898  1.00  0.00    -0.248 NA
ATOM     15  C   UNL A   1      45.620  25.279  27.431  1.00  0.00     0.031 C 
ATOM     16  C   UNL A   1      40.968  26.912  28.524  1.00  0.00     0.029 A 
ATOM     17  N   UNL A   1      42.622  28.375  28.713  1.00  0.00    -0.354 N 
ATOM     18  C   UNL A   1      46.663  27.260  27.562  1.00  0.00     0.074 A 
ATOM     19  C   UNL A   1      46.807  25.842  27.436  1.00  0.00     0.031 C 
ATOM     20  C   UNL A   1      40.444  28.037  29.056  1.00  0.00     0.029 A 
ATOM     21  C   UNL A   1      41.498  29.027  29.203  1.00  0.00     0.049 A 
ATOM     22  H   UNL A   1      43.498  28.816  28.632  1.00  0.00     0.167 HD
ATOM     23  C   UNL A   1      47.653  28.117  27.259  1.00  0.00     0.031 A 
ATOM     24  C   UNL A   1      41.337  30.283  29.684  1.00  0.00     0.031 A 
ATOM     25  C   UNL A   1      47.522  29.524  27.436  1.00  0.00     0.049 A 
ATOM     26  C   UNL A   1      42.517  31.216  29.533  1.00  0.00     0.074 A 
ATOM     27  C   UNL A   1      48.450  30.511  27.195  1.00  0.00     0.029 A 
ATOM     28  N   UNL A   1      46.383  30.130  27.944  1.00  0.00    -0.354 N 
ATOM     29  N   UNL A   1      43.714  30.946  29.064  1.00  0.00    -0.248 NA
ATOM     30  C   UNL A   1      42.311  32.628  29.883  1.00  0.00     0.031 C 
ATOM     31  C   UNL A   1      47.902  31.714  27.647  1.00  0.00     0.029 A 
ATOM     32  C   UNL A   1      46.599  31.483  28.075  1.00  0.00     0.049 A 
ATOM     33  H   UNL A   1      45.547  29.665  28.175  1.00  0.00     0.167 HD
ATOM     34  C   UNL A   1      44.379  32.162  28.995  1.00  0.00     0.074 A 
ATOM     35  C   UNL A   1      43.449  33.168  29.468  1.00  0.00     0.031 C 
ATOM     36  C   UNL A   1      45.636  32.435  28.562  1.00  0.00     0.031 A 
BRANCH  23  37
ATOM     37  C   UNL A   1      48.911  27.513  26.712  1.00  0.00    -0.014 A 
ATOM     38  C   UNL A   1      49.875  26.955  27.580  1.00  0.00     0.010 A 
ATOM     39  C   UNL A   1      49.169  27.568  25.336  1.00  0.00     0.010 A 
ATOM     40  C   UNL A   1      51.083  26.475  27.076  1.00  0.00     0.020 A 
ATOM     41  C   UNL A   1      50.363  27.055  24.826  1.00  0.00     0.020 A 
ATOM     42  C   UNL A   1      51.311  26.514  25.699  1.00  0.00     0.054 A 
BRANCH  42  43
ATOM     43  S   UNL A   1      52.847  25.796  25.061  1.00  0.00     0.124 S 
ATOM     44  O   UNL A   1      52.663  25.916  23.617  1.00  0.00    -0.237 OA
ATOM     45  O   UNL A   1      53.864  26.670  25.639  1.00  0.00    -0.237 OA
ATOM     46  O   UNL A   1      52.831  24.431  25.580  1.00  0.00    -0.744 OA
ENDBRANCH  42  43
ENDBRANCH  23  37
BRANCH  24  47
ATOM     47  C   UNL A   1      40.037  30.782  30.255  1.00  0.00    -0.014 A 
ATOM     48  C   UNL A   1      39.102  31.473  29.456  1.00  0.00     0.010 A 
ATOM     49  C   UNL A   1      39.747  30.641  31.627  1.00  0.00     0.010 A 
ATOM     50  C   UNL A   1      37.940  32.036  30.011  1.00  0.00     0.020 A 
ATOM     51  C   UNL A   1      38.573  31.179  32.185  1.00  0.00     0.020 A 
ATOM     52  C   UNL A   1      37.681  31.886  31.375  1.00  0.00     0.054 A 
BRANCH  52  53
ATOM     53  S   UNL A   1      36.162  32.614  32.066  1.00  0.00     0.124 S 
ATOM     54  O   UNL A   1      35.117  31.866  31.373  1.00  0.00    -0.237 OA
ATOM     55  O   UNL A   1      36.301  32.332  33.492  1.00  0.00    -0.237 OA
ATOM     56  O   UNL A   1      36.261  34.027  31.704  1.00  0.00    -0.744 OA
ENDBRANCH  52  53
ENDBRANCH  24  47
BRANCH  36  57
ATOM     57  C   UNL A   1      46.058  33.872  28.551  1.00  0.00    -0.014 A 
ATOM     58  C   UNL A   1      46.724  34.440  29.647  1.00  0.00     0.010 A 
ATOM     59  C   UNL A   1      45.858  34.630  27.383  1.00  0.00     0.010 A 
ATOM     60  C   UNL A   1      47.150  35.765  29.590  1.00  0.00     0.020 A 
ATOM     61  C   UNL A   1      46.326  35.938  27.304  1.00  0.00     0.020 A 
ATOM     62  C   UNL A   1      46.953  36.501  28.417  1.00  0.00     0.054 A 
BRANCH  62  63
ATOM     63  S   UNL A   1      47.563  38.203  28.357  1.00  0.00     0.124 S 
ATOM     64  O   UNL A   1      48.062  38.295  26.988  1.00  0.00    -0.237 OA
ATOM     65  O   UNL A   1      46.359  38.979  28.643  1.00  0.00    -0.237 OA
ATOM     66  O   UNL A   1      48.587  38.243  29.397  1.00  0.00    -0.744 OA
ENDBRANCH  62  63
ENDBRANCH  36  57
ENDBRANCH  10  11
ENDBRANCH   3   5
ENDBRANCH   2   3
ENDBRANCH   1   2
BRANCH   1  67
ATOM     67  C   UNL A   1      37.171  20.655  25.240  1.00  0.00     0.274 C 
BRANCH  67  68
ATOM     68  O   UNL A   1      36.475  21.839  25.821  1.00  0.00    -0.462 OA
BRANCH  68  69
ATOM     69  C   UNL A   1      35.110  21.879  26.053  1.00  0.00     0.309 C 
ATOM     70  O   UNL A   1      34.726  21.859  27.230  1.00  0.00    -0.252 OA
BRANCH  69  71
ATOM     71  C   UNL A   1      33.867  21.888  24.771  1.00  0.00     0.111 C 
ATOM     72  C   UNL A   1      33.507  20.373  24.757  1.00  0.00     0.016 C 
ATOM     73  C   UNL A   1      33.455  22.509  23.188  1.00  0.00     0.093 C 
ATOM     74  C   UNL A   1      32.238  19.962  24.024  1.00  0.00     0.001 C 
ATOM     75  C   UNL A   1      32.104  21.974  22.646  1.00  0.00     0.014 C 
ATOM     76  C   UNL A   1      32.153  20.466  22.606  1.00  0.00     0.001 C 
BRANCH  73  77
ATOM     77  C   UNL A   1      33.532  23.909  22.325  1.00  0.00     0.228 C 
ATOM     78  O   UNL A   1      33.284  23.873  21.104  1.00  0.00    -0.274 OA
ATOM     79  N   UNL A   1      33.606  25.201  22.744  1.00  0.00    -0.325 N 
ATOM     80  H   UNL A   1      33.934  25.896  22.129  1.00  0.00     0.169 HD
BRANCH  79  81
ATOM     81  C   UNL A   1      33.227  25.539  24.014  1.00  0.00     0.054 A 
ATOM     82  C   UNL A   1      34.165  25.183  25.005  1.00  0.00     0.027 A 
ATOM     83  C   UNL A   1      32.293  26.541  24.148  1.00  0.00     0.063 A 
ATOM     84  C   UNL A   1      34.408  26.076  26.033  1.00  0.00     0.002 A 
ATOM     85  C   UNL A   1      32.520  27.403  25.243  1.00  0.00     0.016 A 
ATOM     86  C   UNL A   1      33.622  27.221  26.115  1.00  0.00     0.001 A 
BRANCH  83  87
ATOM     87  C   UNL A   1      31.195  26.772  23.088  1.00  0.00     0.256 C 
ATOM     88  O   UNL A   1      31.541  26.456  21.948  1.00  0.00    -0.269 OA
ATOM     89  N   UNL A   1      29.915  27.435  23.358  1.00  0.00    -0.334 N 
ATOM     90  C   UNL A   1      30.120  29.140  23.170  1.00  0.00     0.148 C 
ATOM     91  C   UNL A   1      28.151  26.721  23.616  1.00  0.00     0.148 C 
ATOM     92  C   UNL A   1      28.691  30.305  23.126  1.00  0.00     0.181 C 
ATOM     93  C   UNL A   1      26.528  28.204  23.625  1.00  0.00     0.181 C 
ATOM     94  O   UNL A   1      27.080  29.871  23.124  1.00  0.00    -0.378 OA
ENDBRANCH  83  87
ENDBRANCH  79  81
ENDBRANCH  73  77
ENDBRANCH  69  71
ENDBRANCH  68  69
ENDBRANCH  67  68
ENDBRANCH   1  67
TORSDOF 17
ENDMDL
MODEL 3
REMARK VINA RESULT:     -10.6      6.476     11.429
REMARK SMILES O=C(OCCOC(=O)[C@@H]1CCCC[C@H]1C(=O)Nc1ccccc1C(=O)N1CCOCC1)c1ccc(-c2c3nc(c(-c4ccc(S(=O)(=O)[O-])cc4)c4ccc([nH]4)c(-c4ccc(S(=O)(=O)[O-])cc4)c4nc(c(-c5ccc(S(=O)(=O)[O-])cc5)c5ccc2[nH]5)C=C4)C=C3)cc1
REMARK SMILES IDX 4 1 3 2 2 3 1 4 32 5 33 6 91 7 34 8 90 9 35 10 36 11 37 12
REMARK SMILES IDX 84 13 38 14 89 15 83 16 85 17 39 18 88 19 82 20 81 21 40 23
REMARK SMILES IDX 70 24 51 25 69 26 52 27 55 28 68 29 86 30 53 31 54 32 67 34
REMARK SMILES IDX 87 35 56 36 41 37 42 38 50 39 43 40 49 41 44 42 45 43 46 44
REMARK SMILES IDX 47 45 48 46 71 47 72 48 80 49 73 50 79 51 74 52 75 53 76 54
REMARK SMILES IDX 77 55 78 56 57 57 58 58 66 59 59 60 65 61 60 62 61 63 62 64
REMARK SMILES IDX 63 65 64 66 5 67 6 68 7 69 8 70 9 71 10 72 14 73 11 74 13 75
REMARK SMILES IDX 12 76 15 77 16 78 17 79 18 81 19 82 23 83 20 84 22 85 21 86
REMARK SMILES IDX 24 87 25 88 26 89 27 90 31 91 28 92 30 93 29 94
REMARK H PARENT 85 22 55 33 17 80
REMARK Flexibility Score: inf
ROOT
ATOM      1  C   UNL A   1      43.347  25.965  25.621  1.00  0.00     0.275 C 
ENDROOT
BRANCH   1   2
ATOM      2  O   UNL A   1      42.036  26.170  25.066  1.00  0.00    -0.458 OA
BRANCH   2   3
ATOM      3  C   UNL A   1      41.008  25.908  25.898  1.00  0.00     0.338 C 
ATOM      4  O   UNL A   1      40.371  24.885  25.777  1.00  0.00    -0.246 OA
BRANCH   3   5
ATOM      5  C   UNL A   1      40.834  27.203  26.758  1.00  0.00     0.060 A 
ATOM      6  C   UNL A   1      39.815  26.678  28.149  1.00  0.00     0.016 A 
ATOM      7  C   UNL A   1      41.647  28.977  26.984  1.00  0.00     0.016 A 
ATOM      8  C   UNL A   1      39.685  27.631  29.553  1.00  0.00     0.010 A 
ATOM      9  C   UNL A   1      41.393  29.836  28.519  1.00  0.00     0.010 A 
ATOM     10  C   UNL A   1      40.450  29.099  29.760  1.00  0.00    -0.014 A 
BRANCH  10  11
ATOM     11  C   UNL A   1      40.347  29.791  31.089  1.00  0.00     0.031 A 
ATOM     12  C   UNL A   1      41.308  29.323  32.136  1.00  0.00     0.074 A 
ATOM     13  C   UNL A   1      39.432  30.752  31.391  1.00  0.00     0.049 A 
ATOM     14  N   UNL A   1      41.476  29.750  33.355  1.00  0.00    -0.248 NA
ATOM     15  C   UNL A   1      42.225  28.234  31.761  1.00  0.00     0.031 C 
ATOM     16  C   UNL A   1      38.451  31.332  30.472  1.00  0.00     0.029 A 
ATOM     17  N   UNL A   1      39.136  31.398  32.578  1.00  0.00    -0.354 N 
ATOM     18  C   UNL A   1      42.548  29.017  33.838  1.00  0.00     0.074 A 
ATOM     19  C   UNL A   1      42.868  28.000  32.883  1.00  0.00     0.031 C 
ATOM     20  C   UNL A   1      37.608  32.150  31.138  1.00  0.00     0.029 A 
ATOM     21  C   UNL A   1      38.019  32.221  32.530  1.00  0.00     0.049 A 
ATOM     22  H   UNL A   1      39.676  31.283  33.393  1.00  0.00     0.167 HD
ATOM     23  C   UNL A   1      43.293  29.239  34.934  1.00  0.00     0.031 A 
ATOM     24  C   UNL A   1      37.420  32.964  33.491  1.00  0.00     0.031 A 
ATOM     25  C   UNL A   1      42.942  30.216  35.908  1.00  0.00     0.049 A 
ATOM     26  C   UNL A   1      38.148  33.068  34.812  1.00  0.00     0.074 A 
ATOM     27  C   UNL A   1      43.588  30.534  37.080  1.00  0.00     0.029 A 
ATOM     28  N   UNL A   1      41.805  31.007  35.825  1.00  0.00    -0.354 N 
ATOM     29  N   UNL A   1      39.256  32.465  35.181  1.00  0.00    -0.248 NA
ATOM     30  C   UNL A   1      37.612  34.007  35.806  1.00  0.00     0.031 C 
ATOM     31  C   UNL A   1      42.789  31.458  37.757  1.00  0.00     0.029 A 
ATOM     32  C   UNL A   1      41.699  31.784  36.956  1.00  0.00     0.049 A 
ATOM     33  H   UNL A   1      41.171  31.012  35.072  1.00  0.00     0.167 HD
ATOM     34  C   UNL A   1      39.588  33.003  36.416  1.00  0.00     0.074 A 
ATOM     35  C   UNL A   1      38.565  33.981  36.729  1.00  0.00     0.031 C 
ATOM     36  C   UNL A   1      40.651  32.735  37.216  1.00  0.00     0.031 A 
BRANCH  23  37
ATOM     37  C   UNL A   1      44.531  28.406  35.077  1.00  0.00    -0.014 A 
ATOM     38  C   UNL A   1      45.730  28.787  34.438  1.00  0.00     0.010 A 
ATOM     39  C   UNL A   1      44.481  27.201  35.789  1.00  0.00     0.010 A 
ATOM     40  C   UNL A   1      46.855  27.966  34.499  1.00  0.00     0.020 A 
ATOM     41  C   UNL A   1      45.616  26.393  35.881  1.00  0.00     0.020 A 
ATOM     42  C   UNL A   1      46.793  26.780  35.236  1.00  0.00     0.054 A 
BRANCH  42  43
ATOM     43  S   UNL A   1      48.296  25.778  35.380  1.00  0.00     0.124 S 
ATOM     44  O   UNL A   1      47.917  24.557  34.675  1.00  0.00    -0.237 OA
ATOM     45  O   UNL A   1      49.291  26.610  34.707  1.00  0.00    -0.237 OA
ATOM     46  O   UNL A   1      48.477  25.635  36.822  1.00  0.00    -0.744 OA
ENDBRANCH  42  43
ENDBRANCH  23  37
BRANCH  24  47
ATOM     47  C   UNL A   1      36.147  33.735  33.258  1.00  0.00    -0.014 A 
ATOM     48  C   UNL A   1      34.885  33.160  33.516  1.00  0.00     0.010 A 
ATOM     49  C   UNL A   1      36.176  35.029  32.702  1.00  0.00     0.010 A 
ATOM     50  C   UNL A   1      33.695  33.837  33.196  1.00  0.00     0.020 A 
ATOM     51  C   UNL A   1      34.989  35.723  32.403  1.00  0.00     0.020 A 
ATOM     52  C   UNL A   1      33.754  35.116  32.639  1.00  0.00     0.054 A 
BRANCH  52  53
ATOM     53  S   UNL A   1      32.196  35.974  32.246  1.00  0.00     0.124 S 
ATOM     54  O   UNL A   1      32.340  36.237  30.817  1.00  0.00    -0.237 OA
ATOM     55  O   UNL A   1      31.191  34.978  32.608  1.00  0.00    -0.237 OA
ATOM     56  O   UNL A   1      32.229  37.158  33.104  1.00  0.00    -0.744 OA
ENDBRANCH  52  53
ENDBRANCH  24  47
BRANCH  36  57
ATOM     57  C   UNL A   1      40.772  33.529  38.480  1.00  0.00    -0.014 A 
ATOM     58  C   UNL A   1      41.426  34.770  38.496  1.00  0.00     0.010 A 
ATOM     59  C   UNL A   1      40.140  33.055  39.644  1.00  0.00     0.010 A 
ATOM     60  C   UNL A   1      41.481  35.510  39.675  1.00  0.00     0.020 A 
ATOM     61  C   UNL A   1      40.149  33.815  40.809  1.00  0.00     0.020 A 
ATOM     62  C   UNL A   1      40.837  35.030  40.820  1.00  0.00     0.054 A 
BRANCH  62  63
ATOM     63  S   UNL A   1      40.883  36.038  42.320  1.00  0.00     0.124 S 
ATOM     64  O   UNL A   1      41.176  35.041  43.345  1.00  0.00    -0.237 OA
ATOM     65  O   UNL A   1      41.960  36.983  42.032  1.00  0.00    -0.237 OA
ATOM     66  O   UNL A   1      39.547  36.625  42.386  1.00  0.00    -0.744 OA
ENDBRANCH  62  63
ENDBRANCH  36  57
ENDBRANCH  10  11
ENDBRANCH   3   5
ENDBRANCH   2   3
ENDBRANCH   1   2
BRANCH   1  67
ATOM     67  C   UNL A   1      44.612  26.873  25.220  1.00  0.00     0.274 C 
BRANCH  67  68
ATOM     68  O   UNL A   1      44.754  28.277  25.704  1.00  0.00    -0.462 OA
BRANCH  68  69
ATOM     69  C   UNL A   1      45.880  28.743  26.363  1.00  0.00     0.309 C 
ATOM     70  O   UNL A   1      46.862  29.052  25.674  1.00  0.00    -0.252 OA
BRANCH  69  71
ATOM     71  C   UNL A   1      46.035  28.863  28.137  1.00  0.00     0.111 C 
ATOM     72  C   UNL A   1      45.138  30.114  28.384  1.00  0.00     0.016 C 
ATOM     73  C   UNL A   1      47.153  28.785  29.481  1.00  0.00     0.093 C 
ATOM     74  C   UNL A   1      44.714  30.396  29.819  1.00  0.00     0.001 C 
ATOM     75  C   UNL A   1      46.495  29.085  30.853  1.00  0.00     0.014 C 
ATOM     76  C   UNL A   1      45.855  30.450  30.802  1.00  0.00     0.001 C 
BRANCH  73  77
ATOM     77  C   UNL A   1      48.426  27.883  30.008  1.00  0.00     0.228 C 
ATOM     78  O   UNL A   1      49.257  28.411  30.771  1.00  0.00    -0.274 OA
ATOM     79  N   UNL A   1      48.644  26.542  29.944  1.00  0.00    -0.325 N 
ATOM     80  H   UNL A   1      49.560  26.191  30.035  1.00  0.00     0.169 HD
BRANCH  79  81
ATOM     81  C   UNL A   1      47.600  25.679  29.754  1.00  0.00     0.054 A 
ATOM     82  C   UNL A   1      46.635  25.715  30.781  1.00  0.00     0.027 A 
ATOM     83  C   UNL A   1      47.355  25.258  28.467  1.00  0.00     0.063 A 
ATOM     84  C   UNL A   1      45.298  25.652  30.431  1.00  0.00     0.002 A 
ATOM     85  C   UNL A   1      45.986  25.135  28.148  1.00  0.00     0.016 A 
ATOM     86  C   UNL A   1      44.973  25.423  29.098  1.00  0.00     0.001 A 
BRANCH  83  87
ATOM     87  C   UNL A   1      48.493  25.094  27.437  1.00  0.00     0.256 C 
ATOM     88  O   UNL A   1      49.307  24.220  27.742  1.00  0.00    -0.269 OA
ATOM     89  N   UNL A   1      48.692  25.973  26.281  1.00  0.00    -0.334 N 
ATOM     90  C   UNL A   1      49.651  27.326  26.768  1.00  0.00     0.148 C 
ATOM     91  C   UNL A   1      48.289  25.725  24.419  1.00  0.00     0.148 C 
ATOM     92  C   UNL A   1      50.377  28.507  25.552  1.00  0.00     0.181 C 
ATOM     93  C   UNL A   1      49.139  27.234  23.064  1.00  0.00     0.181 C 
ATOM     94  O   UNL A   1      50.321  28.353  23.891  1.00  0.00    -0.378 OA
ENDBRANCH  83  87
ENDBRANCH  79  81
ENDBRANCH  73  77
ENDBRANCH  69  71
ENDBRANCH  68  69
ENDBRANCH  67  68
ENDBRANCH   1  67
TORSDOF 17
ENDMDL
