MODEL 1
REMARK VINA RESULT:      -9.6      0.000      0.000
REMARK SMILES C[C@@H](NC(=O)N(CC(=O)OCCOC(=O)c1ccc(-c2c3nc(c(-c4ccc(S(=O)(=O)[O-])cc4)c4ccc([nH]4)c(-c4ccc(S(=O)(=O)[O-])cc4)c4nc(c(-c5ccc(S(=O)(=O)[O-])cc5)c5ccc2[nH]5)C=C4)C=C3)cc1)CC(F)(F)F)C1CCCC1
REMARK SMILES IDX 11 1 10 2 8 3 9 4 7 5 6 6 4 7 3 8 5 10 2 11 1 12 81 13 82 14
REMARK SMILES IDX 85 15 83 16 84 17 76 18 77 19 78 20 79 21 80 22 12 23 13 24
REMARK SMILES IDX 14 25 15 26 16 27 17 28 75 29 18 30 74 31 19 32 20 33 21 34
REMARK SMILES IDX 68 35 22 36 73 37 67 38 69 39 23 40 72 41 66 42 65 43 24 45
REMARK SMILES IDX 54 46 35 47 53 48 36 49 39 50 52 51 70 52 37 53 38 54 51 56
REMARK SMILES IDX 71 57 40 58 25 59 26 60 34 61 27 62 33 63 28 64 29 65 30 66
REMARK SMILES IDX 31 67 32 68 55 69 56 70 64 71 57 72 63 73 58 74 59 75 60 76
REMARK SMILES IDX 61 77 62 78 41 79 42 80 50 81 43 82 49 83 44 84 45 85 46 86
REMARK SMILES IDX 47 87 48 88
REMARK H PARENT 3 9 69 44 39 55
REMARK Flexibility Score: inf
ROOT
ATOM      1  C   UNL A   1      36.132  21.565  24.757  1.00  0.00     0.274 C 
ENDROOT
BRANCH   1   2
ATOM      2  O   UNL A   1      34.872  22.212  24.492  1.00  0.00    -0.461 OA
BRANCH   2   3
ATOM      3  C   UNL A   1      34.847  23.012  23.400  1.00  0.00     0.325 C 
ATOM      4  O   UNL A   1      35.845  23.289  22.739  1.00  0.00    -0.250 OA
BRANCH   3   5
ATOM      5  C   UNL A   1      33.434  23.419  22.958  1.00  0.00     0.244 C 
BRANCH   5   6
ATOM      6  N   UNL A   1      32.930  24.691  23.424  1.00  0.00    -0.305 N 
BRANCH   6   7
ATOM      7  C   UNL A   1      33.241  25.908  22.921  1.00  0.00     0.318 C 
ATOM      8  N   UNL A   1      32.784  27.089  23.364  1.00  0.00    -0.335 N 
ATOM      9  H   UNL A   1      32.857  27.740  22.630  1.00  0.00     0.165 HD
ATOM     10  O   UNL A   1      34.009  25.991  21.956  1.00  0.00    -0.249 OA
BRANCH   8  11
ATOM     11  C   UNL A   1      32.208  27.787  24.543  1.00  0.00     0.083 C 
ATOM     12  C   UNL A   1      30.842  28.387  24.212  1.00  0.00     0.031 C 
BRANCH  11  13
ATOM     13  C   UNL A   1      33.121  28.730  25.334  1.00  0.00     0.011 C 
ATOM     14  C   UNL A   1      32.444  29.839  26.144  1.00  0.00     0.006 C 
ATOM     15  C   UNL A   1      33.976  28.050  26.404  1.00  0.00     0.006 C 
ATOM     16  C   UNL A   1      33.619  30.408  26.936  1.00  0.00     0.000 C 
ATOM     17  C   UNL A   1      34.498  29.202  27.268  1.00  0.00     0.000 C 
ENDBRANCH  11  13
ENDBRANCH   8  11
ENDBRANCH   6   7
BRANCH   6  18
ATOM     18  C   UNL A   1      32.014  24.627  24.596  1.00  0.00     0.237 C 
BRANCH  18  19
ATOM     19  C   UNL A   1      32.616  24.422  25.996  1.00  0.00     0.406 C 
ATOM     20  F   UNL A   1      33.884  24.874  26.091  1.00  0.00    -0.169 F 
ATOM     21  F   UNL A   1      31.894  25.131  26.906  1.00  0.00    -0.169 F 
ATOM     22  F   UNL A   1      32.600  23.138  26.405  1.00  0.00    -0.169 F 
ENDBRANCH  18  19
ENDBRANCH   6  18
ENDBRANCH   5   6
ENDBRANCH   3   5
ENDBRANCH   2   3
ENDBRANCH   1   2
BRANCH   1  23
ATOM     23  C   UNL A   1      36.984  22.316  25.790  1.00  0.00     0.275 C 
BRANCH  23  24
ATOM     24  O   UNL A   1      38.308  22.630  25.312  1.00  0.00    -0.458 OA
BRANCH  24  25
ATOM     25  C   UNL A   1      39.253  22.707  26.279  1.00  0.00     0.338 C 
ATOM     26  O   UNL A   1      40.099  21.868  26.545  1.00  0.00    -0.246 OA
BRANCH  25  27
ATOM     27  C   UNL A   1      39.286  24.048  26.882  1.00  0.00     0.060 A 
ATOM     28  C   UNL A   1      39.965  25.040  26.175  1.00  0.00     0.016 A 
ATOM     29  C   UNL A   1      38.846  24.295  28.181  1.00  0.00     0.016 A 
ATOM     30  C   UNL A   1      40.282  26.246  26.761  1.00  0.00     0.010 A 
ATOM     31  C   UNL A   1      39.132  25.535  28.770  1.00  0.00     0.010 A 
ATOM     32  C   UNL A   1      39.883  26.498  28.071  1.00  0.00    -0.014 A 
BRANCH  32  33
ATOM     33  C   UNL A   1      40.386  27.738  28.694  1.00  0.00     0.031 A 
ATOM     34  C   UNL A   1      41.846  27.851  29.023  1.00  0.00     0.074 A 
ATOM     35  C   UNL A   1      39.568  28.800  28.803  1.00  0.00     0.049 A 
ATOM     36  N   UNL A   1      42.489  28.841  29.579  1.00  0.00    -0.248 NA
ATOM     37  C   UNL A   1      42.692  26.700  28.667  1.00  0.00     0.031 C 
ATOM     38  C   UNL A   1      38.160  28.825  28.393  1.00  0.00     0.029 A 
ATOM     39  N   UNL A   1      39.808  30.068  29.257  1.00  0.00    -0.354 N 
ATOM     40  C   UNL A   1      43.809  28.419  29.680  1.00  0.00     0.074 A 
ATOM     41  C   UNL A   1      43.875  27.085  29.125  1.00  0.00     0.031 C 
ATOM     42  C   UNL A   1      37.668  30.055  28.599  1.00  0.00     0.029 A 
ATOM     43  C   UNL A   1      38.701  30.880  29.215  1.00  0.00     0.049 A 
ATOM     44  H   UNL A   1      40.687  30.369  29.582  1.00  0.00     0.167 HD
ATOM     45  C   UNL A   1      44.867  29.085  30.202  1.00  0.00     0.031 A 
ATOM     46  C   UNL A   1      38.532  32.139  29.660  1.00  0.00     0.031 A 
ATOM     47  C   UNL A   1      44.778  30.410  30.756  1.00  0.00     0.049 A 
ATOM     48  C   UNL A   1      39.701  32.838  30.290  1.00  0.00     0.074 A 
ATOM     49  C   UNL A   1      45.764  31.163  31.366  1.00  0.00     0.029 A 
ATOM     50  N   UNL A   1      43.623  31.183  30.757  1.00  0.00    -0.354 N 
ATOM     51  N   UNL A   1      40.925  32.396  30.460  1.00  0.00    -0.248 NA
ATOM     52  C   UNL A   1      39.467  34.195  30.791  1.00  0.00     0.031 C 
ATOM     53  C   UNL A   1      45.194  32.378  31.771  1.00  0.00     0.029 A 
ATOM     54  C   UNL A   1      43.866  32.399  31.369  1.00  0.00     0.049 A 
ATOM     55  H   UNL A   1      42.758  30.904  30.378  1.00  0.00     0.167 HD
ATOM     56  C   UNL A   1      41.611  33.421  31.098  1.00  0.00     0.074 A 
ATOM     57  C   UNL A   1      40.670  34.516  31.249  1.00  0.00     0.031 C 
ATOM     58  C   UNL A   1      42.897  33.456  31.528  1.00  0.00     0.031 A 
BRANCH  45  59
ATOM     59  C   UNL A   1      46.171  28.336  30.269  1.00  0.00    -0.014 A 
ATOM     60  C   UNL A   1      46.500  27.523  31.370  1.00  0.00     0.010 A 
ATOM     61  C   UNL A   1      47.108  28.495  29.232  1.00  0.00     0.010 A 
ATOM     62  C   UNL A   1      47.767  26.937  31.462  1.00  0.00     0.020 A 
ATOM     63  C   UNL A   1      48.366  27.892  29.309  1.00  0.00     0.020 A 
ATOM     64  C   UNL A   1      48.697  27.139  30.438  1.00  0.00     0.054 A 
BRANCH  64  65
ATOM     65  S   UNL A   1      50.350  26.408  30.594  1.00  0.00     0.124 S 
ATOM     66  O   UNL A   1      50.056  24.981  30.500  1.00  0.00    -0.237 OA
ATOM     67  O   UNL A   1      51.065  26.978  29.454  1.00  0.00    -0.237 OA
ATOM     68  O   UNL A   1      50.808  26.866  31.904  1.00  0.00    -0.744 OA
ENDBRANCH  64  65
ENDBRANCH  45  59
BRANCH  46  69
ATOM     69  C   UNL A   1      37.186  32.766  29.575  1.00  0.00    -0.014 A 
ATOM     70  C   UNL A   1      36.389  32.936  30.718  1.00  0.00     0.010 A 
ATOM     71  C   UNL A   1      36.726  33.263  28.340  1.00  0.00     0.010 A 
ATOM     72  C   UNL A   1      35.162  33.604  30.630  1.00  0.00     0.020 A 
ATOM     73  C   UNL A   1      35.514  33.952  28.252  1.00  0.00     0.020 A 
ATOM     74  C   UNL A   1      34.738  34.116  29.399  1.00  0.00     0.054 A 
BRANCH  74  75
ATOM     75  S   UNL A   1      33.196  35.071  29.323  1.00  0.00     0.124 S 
ATOM     76  O   UNL A   1      32.443  34.352  28.301  1.00  0.00    -0.237 OA
ATOM     77  O   UNL A   1      32.682  34.954  30.686  1.00  0.00    -0.237 OA
ATOM     78  O   UNL A   1      33.643  36.411  28.949  1.00  0.00    -0.744 OA
ENDBRANCH  74  75
ENDBRANCH  46  69
BRANCH  58  79
ATOM     79  C   UNL A   1      43.343  34.724  32.199  1.00  0.00    -0.014 A 
ATOM     80  C   UNL A   1      43.951  35.756  31.462  1.00  0.00     0.010 A 
ATOM     81  C   UNL A   1      43.148  34.885  33.582  1.00  0.00     0.010 A 
ATOM     82  C   UNL A   1      44.401  36.909  32.107  1.00  0.00     0.020 A 
ATOM     83  C   UNL A   1      43.576  36.047  34.226  1.00  0.00     0.020 A 
ATOM     84  C   UNL A   1      44.220  37.042  33.487  1.00  0.00     0.054 A 
BRANCH  84  85
ATOM     85  S   UNL A   1      44.812  38.546  34.309  1.00  0.00     0.124 S 
ATOM     86  O   UNL A   1      44.586  39.560  33.282  1.00  0.00    -0.237 OA
ATOM     87  O   UNL A   1      43.946  38.637  35.482  1.00  0.00    -0.237 OA
ATOM     88  O   UNL A   1      46.213  38.252  34.598  1.00  0.00    -0.744 OA
ENDBRANCH  84  85
ENDBRANCH  58  79
ENDBRANCH  32  33
ENDBRANCH  25  27
ENDBRANCH  24  25
ENDBRANCH  23  24
ENDBRANCH   1  23
TORSDOF 20
ENDMDL
MODEL 2
REMARK VINA RESULT:      -9.3      4.100      5.696
REMARK SMILES C[C@@H](NC(=O)N(CC(=O)OCCOC(=O)c1ccc(-c2c3nc(c(-c4ccc(S(=O)(=O)[O-])cc4)c4ccc([nH]4)c(-c4ccc(S(=O)(=O)[O-])cc4)c4nc(c(-c5ccc(S(=O)(=O)[O-])cc5)c5ccc2[nH]5)C=C4)C=C3)cc1)CC(F)(F)F)C1CCCC1
REMARK SMILES IDX 11 1 10 2 8 3 9 4 7 5 6 6 4 7 3 8 5 10 2 11 1 12 81 13 82 14
REMARK SMILES IDX 85 15 83 16 84 17 76 18 77 19 78 20 79 21 80 22 12 23 13 24
REMARK SMILES IDX 14 25 15 26 16 27 17 28 75 29 18 30 74 31 19 32 20 33 21 34
REMARK SMILES IDX 68 35 22 36 73 37 67 38 69 39 23 40 72 41 66 42 65 43 24 45
REMARK SMILES IDX 54 46 35 47 53 48 36 49 39 50 52 51 70 52 37 53 38 54 51 56
REMARK SMILES IDX 71 57 40 58 25 59 26 60 34 61 27 62 33 63 28 64 29 65 30 66
REMARK SMILES IDX 31 67 32 68 55 69 56 70 64 71 57 72 63 73 58 74 59 75 60 76
REMARK SMILES IDX 61 77 62 78 41 79 42 80 50 81 43 82 49 83 44 84 45 85 46 86
REMARK SMILES IDX 47 87 48 88
REMARK H PARENT 3 9 69 44 39 55
REMARK Flexibility Score: inf
ROOT
ATOM      1  C   UNL A   1      37.951  22.459  25.658  1.00  0.00     0.274 C 
ENDROOT
BRANCH   1   2
ATOM      2  O   UNL A   1      37.069  23.417  25.041  1.00  0.00    -0.461 OA
BRANCH   2   3
ATOM      3  C   UNL A   1      36.460  23.001  23.905  1.00  0.00     0.325 C 
ATOM      4  O   UNL A   1      36.852  23.297  22.779  1.00  0.00    -0.250 OA
BRANCH   3   5
ATOM      5  C   UNL A   1      35.328  21.991  24.139  1.00  0.00     0.244 C 
BRANCH   5   6
ATOM      6  N   UNL A   1      33.971  22.487  24.082  1.00  0.00    -0.305 N 
BRANCH   6   7
ATOM      7  C   UNL A   1      32.886  21.799  23.655  1.00  0.00     0.318 C 
ATOM      8  N   UNL A   1      32.522  20.570  24.051  1.00  0.00    -0.335 N 
ATOM      9  H   UNL A   1      31.953  20.179  23.349  1.00  0.00     0.165 HD
ATOM     10  O   UNL A   1      32.132  22.306  22.817  1.00  0.00    -0.249 OA
BRANCH   8  11
ATOM     11  C   UNL A   1      32.653  19.574  25.146  1.00  0.00     0.083 C 
ATOM     12  C   UNL A   1      33.027  20.251  26.463  1.00  0.00     0.031 C 
BRANCH  11  13
ATOM     13  C   UNL A   1      33.450  18.296  24.860  1.00  0.00     0.011 C 
ATOM     14  C   UNL A   1      32.989  17.015  25.560  1.00  0.00     0.006 C 
ATOM     15  C   UNL A   1      33.457  17.857  23.395  1.00  0.00     0.006 C 
ATOM     16  C   UNL A   1      33.857  15.958  24.881  1.00  0.00     0.000 C 
ATOM     17  C   UNL A   1      33.982  16.418  23.428  1.00  0.00     0.000 C 
ENDBRANCH  11  13
ENDBRANCH   8  11
ENDBRANCH   6   7
BRANCH   6  18
ATOM     18  C   UNL A   1      33.787  23.903  24.501  1.00  0.00     0.237 C 
BRANCH  18  19
ATOM     19  C   UNL A   1      33.414  24.200  25.963  1.00  0.00     0.406 C 
ATOM     20  F   UNL A   1      32.255  23.618  26.335  1.00  0.00    -0.169 F 
ATOM     21  F   UNL A   1      34.372  23.693  26.785  1.00  0.00    -0.169 F 
ATOM     22  F   UNL A   1      33.326  25.517  26.237  1.00  0.00    -0.169 F 
ENDBRANCH  18  19
ENDBRANCH   6  18
ENDBRANCH   5   6
ENDBRANCH   3   5
ENDBRANCH   2   3
ENDBRANCH   1   2
BRANCH   1  23
ATOM     23  C   UNL A   1      39.192  23.107  26.288  1.00  0.00     0.275 C 
BRANCH  23  24
ATOM     24  O   UNL A   1      38.976  24.477  26.686  1.00  0.00    -0.458 OA
BRANCH  24  25
ATOM     25  C   UNL A   1      40.053  25.283  26.533  1.00  0.00     0.338 C 
ATOM     26  O   UNL A   1      40.642  25.530  25.491  1.00  0.00    -0.246 OA
BRANCH  25  27
ATOM     27  C   UNL A   1      40.342  26.023  27.771  1.00  0.00     0.060 A 
ATOM     28  C   UNL A   1      39.383  25.959  28.781  1.00  0.00     0.016 A 
ATOM     29  C   UNL A   1      41.411  26.910  27.879  1.00  0.00     0.016 A 
ATOM     30  C   UNL A   1      39.425  26.813  29.862  1.00  0.00     0.010 A 
ATOM     31  C   UNL A   1      41.480  27.757  28.996  1.00  0.00     0.010 A 
ATOM     32  C   UNL A   1      40.465  27.733  29.970  1.00  0.00    -0.014 A 
BRANCH  32  33
ATOM     33  C   UNL A   1      40.370  28.721  31.061  1.00  0.00     0.031 A 
ATOM     34  C   UNL A   1      41.344  28.650  32.200  1.00  0.00     0.074 A 
ATOM     35  C   UNL A   1      39.525  29.761  30.937  1.00  0.00     0.049 A 
ATOM     36  N   UNL A   1      41.428  29.409  33.259  1.00  0.00    -0.248 NA
ATOM     37  C   UNL A   1      42.364  27.591  32.129  1.00  0.00     0.031 C 
ATOM     38  C   UNL A   1      38.624  29.983  29.802  1.00  0.00     0.029 A 
ATOM     39  N   UNL A   1      39.311  30.839  31.751  1.00  0.00    -0.354 N 
ATOM     40  C   UNL A   1      42.483  28.895  34.004  1.00  0.00     0.074 A 
ATOM     41  C   UNL A   1      43.009  27.763  33.273  1.00  0.00     0.031 C 
ATOM     42  C   UNL A   1      37.967  31.138  29.986  1.00  0.00     0.029 A 
ATOM     43  C   UNL A   1      38.350  31.698  31.278  1.00  0.00     0.049 A 
ATOM     44  H   UNL A   1      39.798  30.985  32.594  1.00  0.00     0.167 HD
ATOM     45  C   UNL A   1      42.958  29.327  35.197  1.00  0.00     0.031 A 
ATOM     46  C   UNL A   1      37.812  32.794  31.842  1.00  0.00     0.031 A 
ATOM     47  C   UNL A   1      42.414  30.452  35.909  1.00  0.00     0.049 A 
ATOM     48  C   UNL A   1      38.310  33.221  33.192  1.00  0.00     0.074 A 
ATOM     49  C   UNL A   1      42.770  30.947  37.150  1.00  0.00     0.029 A 
ATOM     50  N   UNL A   1      41.393  31.264  35.430  1.00  0.00    -0.354 N 
ATOM     51  N   UNL A   1      39.250  32.676  33.928  1.00  0.00    -0.248 NA
ATOM     52  C   UNL A   1      37.677  34.401  33.788  1.00  0.00     0.031 C 
ATOM     53  C   UNL A   1      41.937  32.037  37.438  1.00  0.00     0.029 A 
ATOM     54  C   UNL A   1      41.096  32.249  36.354  1.00  0.00     0.049 A 
ATOM     55  H   UNL A   1      40.947  31.154  34.560  1.00  0.00     0.167 HD
ATOM     56  C   UNL A   1      39.318  33.443  35.084  1.00  0.00     0.074 A 
ATOM     57  C   UNL A   1      38.345  34.510  34.928  1.00  0.00     0.031 C 
ATOM     58  C   UNL A   1      40.102  33.279  36.179  1.00  0.00     0.031 A 
BRANCH  45  59
ATOM     59  C   UNL A   1      44.056  28.509  35.822  1.00  0.00    -0.014 A 
ATOM     60  C   UNL A   1      43.796  27.270  36.436  1.00  0.00     0.010 A 
ATOM     61  C   UNL A   1      45.366  29.021  35.843  1.00  0.00     0.010 A 
ATOM     62  C   UNL A   1      44.813  26.591  37.115  1.00  0.00     0.020 A 
ATOM     63  C   UNL A   1      46.390  28.335  36.499  1.00  0.00     0.020 A 
ATOM     64  C   UNL A   1      46.100  27.137  37.155  1.00  0.00     0.054 A 
BRANCH  64  65
ATOM     65  S   UNL A   1      47.397  26.264  38.077  1.00  0.00     0.124 S 
ATOM     66  O   UNL A   1      47.768  25.206  37.142  1.00  0.00    -0.237 OA
ATOM     67  O   UNL A   1      48.404  27.304  38.281  1.00  0.00    -0.237 OA
ATOM     68  O   UNL A   1      46.716  25.815  39.289  1.00  0.00    -0.744 OA
ENDBRANCH  64  65
ENDBRANCH  45  59
BRANCH  46  69
ATOM     69  C   UNL A   1      36.703  33.502  31.148  1.00  0.00    -0.014 A 
ATOM     70  C   UNL A   1      36.820  33.898  29.806  1.00  0.00     0.010 A 
ATOM     71  C   UNL A   1      35.486  33.719  31.822  1.00  0.00     0.010 A 
ATOM     72  C   UNL A   1      35.735  34.488  29.148  1.00  0.00     0.020 A 
ATOM     73  C   UNL A   1      34.392  34.283  31.161  1.00  0.00     0.020 A 
ATOM     74  C   UNL A   1      34.525  34.667  29.827  1.00  0.00     0.054 A 
BRANCH  74  75
ATOM     75  S   UNL A   1      33.097  35.335  28.927  1.00  0.00     0.124 S 
ATOM     76  O   UNL A   1      32.186  35.676  30.014  1.00  0.00    -0.237 OA
ATOM     77  O   UNL A   1      33.675  36.468  28.208  1.00  0.00    -0.237 OA
ATOM     78  O   UNL A   1      32.676  34.221  28.081  1.00  0.00    -0.744 OA
ENDBRANCH  74  75
ENDBRANCH  46  69
BRANCH  58  79
ATOM     79  C   UNL A   1      39.928  34.285  37.281  1.00  0.00    -0.014 A 
ATOM     80  C   UNL A   1      40.662  35.485  37.286  1.00  0.00     0.010 A 
ATOM     81  C   UNL A   1      39.018  34.027  38.321  1.00  0.00     0.010 A 
ATOM     82  C   UNL A   1      40.523  36.388  38.341  1.00  0.00     0.020 A 
ATOM     83  C   UNL A   1      38.860  34.941  39.365  1.00  0.00     0.020 A 
ATOM     84  C   UNL A   1      39.631  36.105  39.379  1.00  0.00     0.054 A 
BRANCH  84  85
ATOM     85  S   UNL A   1      39.464  37.290  40.742  1.00  0.00     0.124 S 
ATOM     86  O   UNL A   1      39.012  36.431  41.834  1.00  0.00    -0.237 OA
ATOM     87  O   UNL A   1      40.819  37.820  40.878  1.00  0.00    -0.237 OA
ATOM     88  O   UNL A   1      38.475  38.245  40.248  1.00  0.00    -0.744 OA
ENDBRANCH  84  85
ENDBRANCH  58  79
ENDBRANCH  32  33
ENDBRANCH  25  27
ENDBRANCH  24  25
ENDBRANCH  23  24
ENDBRANCH   1  23
TORSDOF 20
ENDMDL
MODEL 3
REMARK VINA RESULT:      -9.3      3.391      9.402
REMARK SMILES C[C@@H](NC(=O)N(CC(=O)OCCOC(=O)c1ccc(-c2c3nc(c(-c4ccc(S(=O)(=O)[O-])cc4)c4ccc([nH]4)c(-c4ccc(S(=O)(=O)[O-])cc4)c4nc(c(-c5ccc(S(=O)(=O)[O-])cc5)c5ccc2[nH]5)C=C4)C=C3)cc1)CC(F)(F)F)C1CCCC1
REMARK SMILES IDX 11 1 10 2 8 3 9 4 7 5 6 6 4 7 3 8 5 10 2 11 1 12 81 13 82 14
REMARK SMILES IDX 85 15 83 16 84 17 76 18 77 19 78 20 79 21 80 22 12 23 13 24
REMARK SMILES IDX 14 25 15 26 16 27 17 28 75 29 18 30 74 31 19 32 20 33 21 34
REMARK SMILES IDX 68 35 22 36 73 37 67 38 69 39 23 40 72 41 66 42 65 43 24 45
REMARK SMILES IDX 54 46 35 47 53 48 36 49 39 50 52 51 70 52 37 53 38 54 51 56
REMARK SMILES IDX 71 57 40 58 25 59 26 60 34 61 27 62 33 63 28 64 29 65 30 66
REMARK SMILES IDX 31 67 32 68 55 69 56 70 64 71 57 72 63 73 58 74 59 75 60 76
REMARK SMILES IDX 61 77 62 78 41 79 42 80 50 81 43 82 49 83 44 84 45 85 46 86
REMARK SMILES IDX 47 87 48 88
REMARK H PARENT 3 9 69 44 39 55
REMARK Flexibility Score: inf
ROOT
ATOM      1  C   UNL A   1      31.792  29.052  26.090  1.00  0.00     0.274 C 
ENDROOT
BRANCH   1   2
ATOM      2  O   UNL A   1      32.479  28.752  24.860  1.00  0.00    -0.461 OA
BRANCH   2   3
ATOM      3  C   UNL A   1      32.389  27.467  24.441  1.00  0.00     0.325 C 
ATOM      4  O   UNL A   1      31.322  26.891  24.245  1.00  0.00    -0.250 OA
BRANCH   3   5
ATOM      5  C   UNL A   1      33.739  26.835  24.075  1.00  0.00     0.244 C 
BRANCH   5   6
ATOM      6  N   UNL A   1      33.741  25.440  23.694  1.00  0.00    -0.305 N 
BRANCH   6   7
ATOM      7  C   UNL A   1      33.362  24.938  22.496  1.00  0.00     0.318 C 
ATOM      8  N   UNL A   1      32.715  23.781  22.292  1.00  0.00    -0.335 N 
ATOM      9  H   UNL A   1      32.892  23.490  21.369  1.00  0.00     0.165 HD
ATOM     10  O   UNL A   1      33.621  25.564  21.462  1.00  0.00    -0.249 OA
BRANCH   8  11
ATOM     11  C   UNL A   1      31.832  22.770  22.931  1.00  0.00     0.083 C 
ATOM     12  C   UNL A   1      30.798  23.439  23.836  1.00  0.00     0.031 C 
BRANCH  11  13
ATOM     13  C   UNL A   1      32.492  21.535  23.555  1.00  0.00     0.011 C 
ATOM     14  C   UNL A   1      32.132  21.211  25.007  1.00  0.00     0.006 C 
ATOM     15  C   UNL A   1      32.168  20.213  22.859  1.00  0.00     0.006 C 
ATOM     16  C   UNL A   1      32.787  19.844  25.195  1.00  0.00     0.000 C 
ATOM     17  C   UNL A   1      32.622  19.136  23.849  1.00  0.00     0.000 C 
ENDBRANCH  11  13
ENDBRANCH   8  11
ENDBRANCH   6   7
BRANCH   6  18
ATOM     18  C   UNL A   1      34.169  24.487  24.755  1.00  0.00     0.237 C 
BRANCH  18  19
ATOM     19  C   UNL A   1      35.485  23.714  24.569  1.00  0.00     0.406 C 
ATOM     20  F   UNL A   1      35.363  22.400  24.849  1.00  0.00    -0.169 F 
ATOM     21  F   UNL A   1      35.872  23.789  23.266  1.00  0.00    -0.169 F 
ATOM     22  F   UNL A   1      36.504  24.205  25.304  1.00  0.00    -0.169 F 
ENDBRANCH  18  19
ENDBRANCH   6  18
ENDBRANCH   5   6
ENDBRANCH   3   5
ENDBRANCH   2   3
ENDBRANCH   1   2
BRANCH   1  23
ATOM     23  C   UNL A   1      32.211  30.398  26.697  1.00  0.00     0.275 C 
BRANCH  23  24
ATOM     24  O   UNL A   1      33.277  30.278  27.662  1.00  0.00    -0.458 OA
BRANCH  24  25
ATOM     25  C   UNL A   1      34.038  31.388  27.801  1.00  0.00     0.338 C 
ATOM     26  O   UNL A   1      33.645  32.543  27.868  1.00  0.00    -0.246 OA
BRANCH  25  27
ATOM     27  C   UNL A   1      35.441  31.039  28.071  1.00  0.00     0.060 A 
ATOM     28  C   UNL A   1      35.706  29.712  28.404  1.00  0.00     0.016 A 
ATOM     29  C   UNL A   1      36.441  32.002  28.192  1.00  0.00     0.016 A 
ATOM     30  C   UNL A   1      36.925  29.335  28.927  1.00  0.00     0.010 A 
ATOM     31  C   UNL A   1      37.696  31.618  28.688  1.00  0.00     0.010 A 
ATOM     32  C   UNL A   1      37.925  30.290  29.091  1.00  0.00    -0.014 A 
BRANCH  32  33
ATOM     33  C   UNL A   1      39.146  29.860  29.799  1.00  0.00     0.031 A 
ATOM     34  C   UNL A   1      39.488  30.490  31.117  1.00  0.00     0.074 A 
ATOM     35  C   UNL A   1      39.838  28.803  29.337  1.00  0.00     0.049 A 
ATOM     36  N   UNL A   1      40.513  30.267  31.894  1.00  0.00    -0.248 NA
ATOM     37  C   UNL A   1      38.543  31.495  31.631  1.00  0.00     0.031 C 
ATOM     38  C   UNL A   1      39.510  28.044  28.127  1.00  0.00     0.029 A 
ATOM     39  N   UNL A   1      40.936  28.164  29.845  1.00  0.00    -0.354 N 
ATOM     40  C   UNL A   1      40.362  31.133  32.970  1.00  0.00     0.074 A 
ATOM     41  C   UNL A   1      39.144  31.882  32.746  1.00  0.00     0.031 C 
ATOM     42  C   UNL A   1      40.379  27.030  27.998  1.00  0.00     0.029 A 
ATOM     43  C   UNL A   1      41.361  27.110  29.073  1.00  0.00     0.049 A 
ATOM     44  H   UNL A   1      41.379  28.433  30.683  1.00  0.00     0.167 HD
ATOM     45  C   UNL A   1      41.176  31.294  34.041  1.00  0.00     0.031 A 
ATOM     46  C   UNL A   1      42.443  26.322  29.201  1.00  0.00     0.031 A 
ATOM     47  C   UNL A   1      42.386  30.543  34.239  1.00  0.00     0.049 A 
ATOM     48  C   UNL A   1      43.366  26.556  30.362  1.00  0.00     0.074 A 
ATOM     49  C   UNL A   1      43.322  30.657  35.251  1.00  0.00     0.029 A 
ATOM     50  N   UNL A   1      42.823  29.525  33.401  1.00  0.00    -0.354 N 
ATOM     51  N   UNL A   1      43.259  27.438  31.328  1.00  0.00    -0.248 NA
ATOM     52  C   UNL A   1      44.551  25.699  30.447  1.00  0.00     0.031 C 
ATOM     53  C   UNL A   1      44.345  29.732  35.002  1.00  0.00     0.029 A 
ATOM     54  C   UNL A   1      44.020  29.010  33.863  1.00  0.00     0.049 A 
ATOM     55  H   UNL A   1      42.348  29.215  32.596  1.00  0.00     0.167 HD
ATOM     56  C   UNL A   1      44.371  27.248  32.138  1.00  0.00     0.074 A 
ATOM     57  C   UNL A   1      45.115  26.142  31.562  1.00  0.00     0.031 C 
ATOM     58  C   UNL A   1      44.750  27.928  33.249  1.00  0.00     0.031 A 
BRANCH  45  59
ATOM     59  C   UNL A   1      40.809  32.386  35.010  1.00  0.00    -0.014 A 
ATOM     60  C   UNL A   1      41.280  33.703  34.851  1.00  0.00     0.010 A 
ATOM     61  C   UNL A   1      40.022  32.072  36.132  1.00  0.00     0.010 A 
ATOM     62  C   UNL A   1      41.024  34.668  35.831  1.00  0.00     0.020 A 
ATOM     63  C   UNL A   1      39.744  33.039  37.102  1.00  0.00     0.020 A 
ATOM     64  C   UNL A   1      40.271  34.324  36.959  1.00  0.00     0.054 A 
BRANCH  64  65
ATOM     65  S   UNL A   1      39.986  35.575  38.241  1.00  0.00     0.124 S 
ATOM     66  O   UNL A   1      41.262  35.571  38.952  1.00  0.00    -0.237 OA
ATOM     67  O   UNL A   1      39.706  36.779  37.462  1.00  0.00    -0.237 OA
ATOM     68  O   UNL A   1      38.851  35.047  38.994  1.00  0.00    -0.744 OA
ENDBRANCH  64  65
ENDBRANCH  45  59
BRANCH  46  69
ATOM     69  C   UNL A   1      42.726  25.298  28.159  1.00  0.00    -0.014 A 
ATOM     70  C   UNL A   1      43.480  25.610  27.018  1.00  0.00     0.010 A 
ATOM     71  C   UNL A   1      42.290  23.972  28.351  1.00  0.00     0.010 A 
ATOM     72  C   UNL A   1      43.804  24.612  26.092  1.00  0.00     0.020 A 
ATOM     73  C   UNL A   1      42.634  22.968  27.443  1.00  0.00     0.020 A 
ATOM     74  C   UNL A   1      43.387  23.296  26.316  1.00  0.00     0.054 A 
BRANCH  74  75
ATOM     75  S   UNL A   1      43.907  21.995  25.161  1.00  0.00     0.124 S 
ATOM     76  O   UNL A   1      45.244  21.673  25.648  1.00  0.00    -0.237 OA
ATOM     77  O   UNL A   1      42.893  20.963  25.368  1.00  0.00    -0.237 OA
ATOM     78  O   UNL A   1      43.854  22.655  23.858  1.00  0.00    -0.744 OA
ENDBRANCH  74  75
ENDBRANCH  46  69
BRANCH  58  79
ATOM     79  C   UNL A   1      46.027  27.480  33.902  1.00  0.00    -0.014 A 
ATOM     80  C   UNL A   1      47.254  28.087  33.579  1.00  0.00     0.010 A 
ATOM     81  C   UNL A   1      45.997  26.444  34.851  1.00  0.00     0.010 A 
ATOM     82  C   UNL A   1      48.438  27.630  34.160  1.00  0.00     0.020 A 
ATOM     83  C   UNL A   1      47.177  26.000  35.451  1.00  0.00     0.020 A 
ATOM     84  C   UNL A   1      48.393  26.582  35.084  1.00  0.00     0.054 A 
BRANCH  84  85
ATOM     85  S   UNL A   1      49.941  26.000  35.828  1.00  0.00     0.124 S 
ATOM     86  O   UNL A   1      49.480  24.878  36.643  1.00  0.00    -0.237 OA
ATOM     87  O   UNL A   1      50.746  25.642  34.663  1.00  0.00    -0.237 OA
ATOM     88  O   UNL A   1      50.420  27.160  36.577  1.00  0.00    -0.744 OA
ENDBRANCH  84  85
ENDBRANCH  58  79
ENDBRANCH  32  33
ENDBRANCH  25  27
ENDBRANCH  24  25
ENDBRANCH  23  24
ENDBRANCH   1  23
TORSDOF 20
ENDMDL
