MODEL 1
REMARK VINA RESULT:     -10.9      0.000      0.000
REMARK SMILES Cc1ccc2oc(C(=O)N[C@@H]3C=C[C@H](C(=O)OCCOC(=O)c4ccc(-c5c6nc(c(-c7ccc(S(=O)(=O)[O-])cc7)c7ccc([nH]7)c(-c7ccc(S(=O)(=O)[O-])cc7)c7nc(c(-c8ccc(S(=O)(=O)[O-])cc8)c8ccc5[nH]8)C=C7)C=C6)cc4)C3)cc2c1
REMARK SMILES IDX 19 1 18 2 17 3 15 4 16 5 14 6 11 7 12 8 83 9 13 10 10 11
REMARK SMILES IDX 8 12 9 13 7 15 1 16 2 17 3 18 86 19 4 20 85 21 5 22 84 23
REMARK SMILES IDX 6 24 20 25 21 26 22 27 23 28 24 29 82 30 25 31 81 32 26 33
REMARK SMILES IDX 27 34 28 35 75 36 29 37 80 38 74 39 76 40 30 41 79 42 73 43
REMARK SMILES IDX 72 44 31 46 61 47 42 48 60 49 43 50 46 51 59 52 77 53 44 54
REMARK SMILES IDX 45 55 58 57 78 58 47 59 32 60 33 61 41 62 34 63 40 64 35 65
REMARK SMILES IDX 36 66 37 67 38 68 39 69 62 70 63 71 71 72 64 73 70 74 65 75
REMARK SMILES IDX 66 76 67 77 68 78 69 79 48 80 49 81 57 82 50 83 56 84 51 85
REMARK SMILES IDX 52 86 53 87 54 88 55 89
REMARK H PARENT 10 14 76 45 46 56
REMARK Flexibility Score: inf
ROOT
ATOM      1  C   UNL A   1      32.690  28.324  27.008  1.00  0.00     0.275 C 
ENDROOT
BRANCH   1   2
ATOM      2  C   UNL A   1      32.463  26.913  26.450  1.00  0.00     0.274 C 
BRANCH   2   3
ATOM      3  O   UNL A   1      31.849  26.912  25.134  1.00  0.00    -0.462 OA
BRANCH   3   4
ATOM      4  C   UNL A   1      32.673  26.452  24.151  1.00  0.00     0.312 C 
ATOM      5  O   UNL A   1      33.894  26.530  24.229  1.00  0.00    -0.252 OA
BRANCH   4   6
ATOM      6  C   UNL A   1      31.946  25.895  22.909  1.00  0.00     0.124 C 
ATOM      7  C   UNL A   1      30.552  24.031  23.756  1.00  0.00     0.106 C 
ATOM      8  C   UNL A   1      31.673  23.530  22.922  1.00  0.00    -0.006 C 
ATOM      9  C   UNL A   1      30.511  25.507  23.311  1.00  0.00     0.048 C 
ATOM     10  C   UNL A   1      32.400  24.541  22.404  1.00  0.00    -0.014 C 
BRANCH   7  11
ATOM     11  N   UNL A   1      30.586  23.767  25.208  1.00  0.00    -0.343 N 
ATOM     12  C   UNL A   1      31.420  23.369  26.246  1.00  0.00     0.287 C 
ATOM     13  O   UNL A   1      30.860  23.276  27.345  1.00  0.00    -0.266 OA
ATOM     14  H   UNL A   1      29.689  23.935  25.578  1.00  0.00     0.164 HD
BRANCH  12  15
ATOM     15  C   UNL A   1      32.829  23.062  26.077  1.00  0.00     0.192 A 
ATOM     16  C   UNL A   1      38.809  22.855  25.991  1.00  0.00     0.044 C 
ATOM     17  C   UNL A   1      37.375  22.447  25.850  1.00  0.00    -0.050 A 
ATOM     18  C   UNL A   1      36.943  21.231  25.293  1.00  0.00     0.007 A 
ATOM     19  C   UNL A   1      36.432  23.366  26.284  1.00  0.00     0.015 A 
ATOM     20  C   UNL A   1      35.568  20.909  25.142  1.00  0.00     0.048 A 
ATOM     21  C   UNL A   1      35.087  23.058  26.119  1.00  0.00     0.021 A 
ATOM     22  C   UNL A   1      34.656  21.874  25.564  1.00  0.00     0.135 A 
ATOM     23  C   UNL A   1      33.943  23.749  26.448  1.00  0.00     0.065 A 
ATOM     24  O   UNL A   1      33.274  21.854  25.530  1.00  0.00    -0.451 OA
ENDBRANCH  12  15
ENDBRANCH   7  11
ENDBRANCH   4   6
ENDBRANCH   3   4
ENDBRANCH   2   3
ENDBRANCH   1   2
BRANCH   1  25
ATOM     25  O   UNL A   1      34.071  28.551  27.353  1.00  0.00    -0.458 OA
BRANCH  25  26
ATOM     26  C   UNL A   1      34.374  29.829  27.680  1.00  0.00     0.338 C 
ATOM     27  O   UNL A   1      33.614  30.784  27.662  1.00  0.00    -0.246 OA
BRANCH  26  28
ATOM     28  C   UNL A   1      35.758  29.954  28.183  1.00  0.00     0.060 A 
ATOM     29  C   UNL A   1      36.746  30.441  27.343  1.00  0.00     0.016 A 
ATOM     30  C   UNL A   1      36.124  29.342  29.379  1.00  0.00     0.016 A 
ATOM     31  C   UNL A   1      38.079  30.110  27.570  1.00  0.00     0.010 A 
ATOM     32  C   UNL A   1      37.482  29.184  29.696  1.00  0.00     0.010 A 
ATOM     33  C   UNL A   1      38.483  29.496  28.759  1.00  0.00    -0.014 A 
BRANCH  33  34
ATOM     34  C   UNL A   1      39.922  29.152  28.990  1.00  0.00     0.031 A 
ATOM     35  C   UNL A   1      40.869  30.180  29.569  1.00  0.00     0.074 A 
ATOM     36  C   UNL A   1      40.393  27.915  28.715  1.00  0.00     0.049 A 
ATOM     37  N   UNL A   1      42.178  30.171  29.604  1.00  0.00    -0.248 NA
ATOM     38  C   UNL A   1      40.270  31.385  30.169  1.00  0.00     0.031 C 
ATOM     39  C   UNL A   1      39.600  26.782  28.223  1.00  0.00     0.029 A 
ATOM     40  N   UNL A   1      41.661  27.394  28.821  1.00  0.00    -0.354 N 
ATOM     41  C   UNL A   1      42.557  31.399  30.140  1.00  0.00     0.074 A 
ATOM     42  C   UNL A   1      41.339  32.125  30.428  1.00  0.00     0.031 C 
ATOM     43  C   UNL A   1      40.376  25.694  28.142  1.00  0.00     0.029 A 
ATOM     44  C   UNL A   1      41.751  26.078  28.422  1.00  0.00     0.049 A 
ATOM     45  H   UNL A   1      42.432  27.911  29.150  1.00  0.00     0.167 HD
ATOM     46  C   UNL A   1      43.806  31.881  30.357  1.00  0.00     0.031 A 
ATOM     47  C   UNL A   1      42.817  25.280  28.222  1.00  0.00     0.031 A 
ATOM     48  C   UNL A   1      45.008  31.125  30.124  1.00  0.00     0.049 A 
ATOM     49  C   UNL A   1      44.191  25.847  28.418  1.00  0.00     0.074 A 
ATOM     50  C   UNL A   1      46.324  31.515  30.315  1.00  0.00     0.029 A 
ATOM     51  N   UNL A   1      45.045  29.814  29.672  1.00  0.00    -0.354 N 
ATOM     52  N   UNL A   1      44.534  27.045  28.825  1.00  0.00    -0.248 NA
ATOM     53  C   UNL A   1      45.321  24.966  28.099  1.00  0.00     0.031 C 
ATOM     54  C   UNL A   1      47.154  30.455  29.935  1.00  0.00     0.029 A 
ATOM     55  C   UNL A   1      46.357  29.385  29.564  1.00  0.00     0.049 A 
ATOM     56  H   UNL A   1      44.254  29.268  29.460  1.00  0.00     0.167 HD
ATOM     57  C   UNL A   1      45.923  27.058  28.822  1.00  0.00     0.074 A 
ATOM     58  C   UNL A   1      46.354  25.742  28.395  1.00  0.00     0.031 C 
ATOM     59  C   UNL A   1      46.766  28.071  29.139  1.00  0.00     0.031 A 
BRANCH  46  60
ATOM     60  C   UNL A   1      43.942  33.312  30.816  1.00  0.00    -0.014 A 
ATOM     61  C   UNL A   1      44.114  33.650  32.169  1.00  0.00     0.010 A 
ATOM     62  C   UNL A   1      43.935  34.343  29.854  1.00  0.00     0.010 A 
ATOM     63  C   UNL A   1      44.232  34.990  32.556  1.00  0.00     0.020 A 
ATOM     64  C   UNL A   1      44.083  35.680  30.233  1.00  0.00     0.020 A 
ATOM     65  C   UNL A   1      44.212  35.996  31.586  1.00  0.00     0.054 A 
BRANCH  65  66
ATOM     66  S   UNL A   1      44.381  37.725  32.112  1.00  0.00     0.124 S 
ATOM     67  O   UNL A   1      44.121  38.445  30.868  1.00  0.00    -0.237 OA
ATOM     68  O   UNL A   1      43.348  37.852  33.137  1.00  0.00    -0.237 OA
ATOM     69  O   UNL A   1      45.755  37.806  32.604  1.00  0.00    -0.744 OA
ENDBRANCH  65  66
ENDBRANCH  46  60
BRANCH  47  70
ATOM     70  C   UNL A   1      42.618  23.888  27.726  1.00  0.00    -0.014 A 
ATOM     71  C   UNL A   1      42.415  22.829  28.627  1.00  0.00     0.010 A 
ATOM     72  C   UNL A   1      42.600  23.621  26.344  1.00  0.00     0.010 A 
ATOM     73  C   UNL A   1      42.204  21.530  28.154  1.00  0.00     0.020 A 
ATOM     74  C   UNL A   1      42.353  22.332  25.867  1.00  0.00     0.020 A 
ATOM     75  C   UNL A   1      42.169  21.291  26.777  1.00  0.00     0.054 A 
BRANCH  75  76
ATOM     76  S   UNL A   1      41.836  19.608  26.184  1.00  0.00     0.124 S 
ATOM     77  O   UNL A   1      42.671  19.538  24.990  1.00  0.00    -0.237 OA
ATOM     78  O   UNL A   1      42.271  18.784  27.310  1.00  0.00    -0.237 OA
ATOM     79  O   UNL A   1      40.395  19.610  25.944  1.00  0.00    -0.744 OA
ENDBRANCH  75  76
ENDBRANCH  47  70
BRANCH  59  80
ATOM     80  C   UNL A   1      48.239  27.777  29.078  1.00  0.00    -0.014 A 
ATOM     81  C   UNL A   1      48.912  27.195  30.166  1.00  0.00     0.010 A 
ATOM     82  C   UNL A   1      48.950  28.058  27.897  1.00  0.00     0.010 A 
ATOM     83  C   UNL A   1      50.281  26.928  30.084  1.00  0.00     0.020 A 
ATOM     84  C   UNL A   1      50.312  27.768  27.803  1.00  0.00     0.020 A 
ATOM     85  C   UNL A   1      50.972  27.218  28.904  1.00  0.00     0.054 A 
BRANCH  85  86
ATOM     86  S   UNL A   1      52.740  26.826  28.807  1.00  0.00     0.124 S 
ATOM     87  O   UNL A   1      53.327  28.137  28.547  1.00  0.00    -0.237 OA
ATOM     88  O   UNL A   1      53.017  26.264  30.128  1.00  0.00    -0.237 OA
ATOM     89  O   UNL A   1      52.824  25.874  27.703  1.00  0.00    -0.744 OA
ENDBRANCH  85  86
ENDBRANCH  59  80
ENDBRANCH  33  34
ENDBRANCH  26  28
ENDBRANCH  25  26
ENDBRANCH   1  25
TORSDOF 16
ENDMDL
MODEL 2
REMARK VINA RESULT:     -10.6      5.083      8.286
REMARK SMILES Cc1ccc2oc(C(=O)N[C@@H]3C=C[C@H](C(=O)OCCOC(=O)c4ccc(-c5c6nc(c(-c7ccc(S(=O)(=O)[O-])cc7)c7ccc([nH]7)c(-c7ccc(S(=O)(=O)[O-])cc7)c7nc(c(-c8ccc(S(=O)(=O)[O-])cc8)c8ccc5[nH]8)C=C7)C=C6)cc4)C3)cc2c1
REMARK SMILES IDX 19 1 18 2 17 3 15 4 16 5 14 6 11 7 12 8 83 9 13 10 10 11
REMARK SMILES IDX 8 12 9 13 7 15 1 16 2 17 3 18 86 19 4 20 85 21 5 22 84 23
REMARK SMILES IDX 6 24 20 25 21 26 22 27 23 28 24 29 82 30 25 31 81 32 26 33
REMARK SMILES IDX 27 34 28 35 75 36 29 37 80 38 74 39 76 40 30 41 79 42 73 43
REMARK SMILES IDX 72 44 31 46 61 47 42 48 60 49 43 50 46 51 59 52 77 53 44 54
REMARK SMILES IDX 45 55 58 57 78 58 47 59 32 60 33 61 41 62 34 63 40 64 35 65
REMARK SMILES IDX 36 66 37 67 38 68 39 69 62 70 63 71 71 72 64 73 70 74 65 75
REMARK SMILES IDX 66 76 67 77 68 78 69 79 48 80 49 81 57 82 50 83 56 84 51 85
REMARK SMILES IDX 52 86 53 87 54 88 55 89
REMARK H PARENT 10 14 76 45 46 56
REMARK Flexibility Score: inf
ROOT
ATOM      1  C   UNL A   1      33.429  33.929  28.198  1.00  0.00     0.275 C 
ENDROOT
BRANCH   1   2
ATOM      2  C   UNL A   1      33.920  34.830  29.338  1.00  0.00     0.274 C 
BRANCH   2   3
ATOM      3  O   UNL A   1      33.468  34.391  30.647  1.00  0.00    -0.462 OA
BRANCH   3   4
ATOM      4  C   UNL A   1      33.572  35.351  31.608  1.00  0.00     0.312 C 
ATOM      5  O   UNL A   1      33.367  36.537  31.375  1.00  0.00    -0.252 OA
BRANCH   4   6
ATOM      6  C   UNL A   1      34.036  34.836  32.987  1.00  0.00     0.124 C 
ATOM      7  C   UNL A   1      36.402  34.177  32.670  1.00  0.00     0.106 C 
ATOM      8  C   UNL A   1      35.536  32.991  32.881  1.00  0.00    -0.006 C 
ATOM      9  C   UNL A   1      35.489  35.291  33.219  1.00  0.00     0.048 C 
ATOM     10  C   UNL A   1      34.256  33.343  33.118  1.00  0.00    -0.014 C 
BRANCH   7  11
ATOM     11  N   UNL A   1      36.989  34.387  31.331  1.00  0.00    -0.343 N 
ATOM     12  C   UNL A   1      38.181  34.332  30.620  1.00  0.00     0.287 C 
ATOM     13  O   UNL A   1      38.086  34.678  29.435  1.00  0.00    -0.266 OA
ATOM     14  H   UNL A   1      36.273  34.669  30.717  1.00  0.00     0.164 HD
BRANCH  12  15
ATOM     15  C   UNL A   1      39.449  33.925  31.197  1.00  0.00     0.192 A 
ATOM     16  C   UNL A   1      44.302  32.909  34.549  1.00  0.00     0.044 C 
ATOM     17  C   UNL A   1      43.301  32.813  33.440  1.00  0.00    -0.050 A 
ATOM     18  C   UNL A   1      43.463  32.028  32.284  1.00  0.00     0.007 A 
ATOM     19  C   UNL A   1      42.157  33.585  33.578  1.00  0.00     0.015 A 
ATOM     20  C   UNL A   1      42.503  32.005  31.238  1.00  0.00     0.048 A 
ATOM     21  C   UNL A   1      41.227  33.576  32.546  1.00  0.00     0.021 A 
ATOM     22  C   UNL A   1      41.385  32.818  31.407  1.00  0.00     0.135 A 
ATOM     23  C   UNL A   1      40.019  34.219  32.398  1.00  0.00     0.065 A 
ATOM     24  O   UNL A   1      40.304  33.017  30.566  1.00  0.00    -0.451 OA
ENDBRANCH  12  15
ENDBRANCH   7  11
ENDBRANCH   4   6
ENDBRANCH   3   4
ENDBRANCH   2   3
ENDBRANCH   1   2
BRANCH   1  25
ATOM     25  O   UNL A   1      34.502  33.164  27.616  1.00  0.00    -0.458 OA
BRANCH  25  26
ATOM     26  C   UNL A   1      34.342  31.821  27.674  1.00  0.00     0.338 C 
ATOM     27  O   UNL A   1      33.316  31.201  27.446  1.00  0.00    -0.246 OA
BRANCH  26  28
ATOM     28  C   UNL A   1      35.615  31.127  27.957  1.00  0.00     0.060 A 
ATOM     29  C   UNL A   1      35.596  29.790  28.319  1.00  0.00     0.016 A 
ATOM     30  C   UNL A   1      36.787  31.860  28.128  1.00  0.00     0.016 A 
ATOM     31  C   UNL A   1      36.644  29.254  29.061  1.00  0.00     0.010 A 
ATOM     32  C   UNL A   1      37.913  31.253  28.705  1.00  0.00     0.010 A 
ATOM     33  C   UNL A   1      37.835  29.960  29.253  1.00  0.00    -0.014 A 
BRANCH  33  34
ATOM     34  C   UNL A   1      38.955  29.366  30.049  1.00  0.00     0.031 A 
ATOM     35  C   UNL A   1      39.146  29.748  31.501  1.00  0.00     0.074 A 
ATOM     36  C   UNL A   1      39.795  28.461  29.499  1.00  0.00     0.049 A 
ATOM     37  N   UNL A   1      40.182  29.554  32.278  1.00  0.00    -0.248 NA
ATOM     38  C   UNL A   1      38.036  30.459  32.161  1.00  0.00     0.031 C 
ATOM     39  C   UNL A   1      39.708  27.923  28.136  1.00  0.00     0.029 A 
ATOM     40  N   UNL A   1      40.889  27.816  30.026  1.00  0.00    -0.354 N 
ATOM     41  C   UNL A   1      39.888  30.196  33.478  1.00  0.00     0.074 A 
ATOM     42  C   UNL A   1      38.570  30.775  33.333  1.00  0.00     0.031 C 
ATOM     43  C   UNL A   1      40.650  26.988  27.962  1.00  0.00     0.029 A 
ATOM     44  C   UNL A   1      41.508  26.965  29.136  1.00  0.00     0.049 A 
ATOM     45  H   UNL A   1      41.201  27.949  30.950  1.00  0.00     0.167 HD
ATOM     46  C   UNL A   1      40.654  30.303  34.592  1.00  0.00     0.031 A 
ATOM     47  C   UNL A   1      42.674  26.297  29.209  1.00  0.00     0.031 A 
ATOM     48  C   UNL A   1      41.938  29.670  34.746  1.00  0.00     0.049 A 
ATOM     49  C   UNL A   1      43.531  26.470  30.428  1.00  0.00     0.074 A 
ATOM     50  C   UNL A   1      42.794  29.711  35.834  1.00  0.00     0.029 A 
ATOM     51  N   UNL A   1      42.541  28.861  33.795  1.00  0.00    -0.354 N 
ATOM     52  N   UNL A   1      43.286  27.165  31.512  1.00  0.00    -0.248 NA
ATOM     53  C   UNL A   1      44.834  25.794  30.420  1.00  0.00     0.031 C 
ATOM     54  C   UNL A   1      43.934  28.962  35.521  1.00  0.00     0.029 A 
ATOM     55  C   UNL A   1      43.763  28.408  34.264  1.00  0.00     0.049 A 
ATOM     56  H   UNL A   1      42.157  28.641  32.916  1.00  0.00     0.167 HD
ATOM     57  C   UNL A   1      44.401  27.000  32.323  1.00  0.00     0.074 A 
ATOM     58  C   UNL A   1      45.310  26.122  31.613  1.00  0.00     0.031 C 
ATOM     59  C   UNL A   1      44.653  27.533  33.543  1.00  0.00     0.031 A 
BRANCH  46  60
ATOM     60  C   UNL A   1      40.155  31.185  35.711  1.00  0.00    -0.014 A 
ATOM     61  C   UNL A   1      40.948  32.200  36.272  1.00  0.00     0.010 A 
ATOM     62  C   UNL A   1      38.838  31.011  36.183  1.00  0.00     0.010 A 
ATOM     63  C   UNL A   1      40.451  32.994  37.312  1.00  0.00     0.020 A 
ATOM     64  C   UNL A   1      38.327  31.822  37.201  1.00  0.00     0.020 A 
ATOM     65  C   UNL A   1      39.145  32.797  37.772  1.00  0.00     0.054 A 
BRANCH  65  66
ATOM     66  S   UNL A   1      38.520  33.850  39.112  1.00  0.00     0.124 S 
ATOM     67  O   UNL A   1      39.409  33.491  40.216  1.00  0.00    -0.237 OA
ATOM     68  O   UNL A   1      38.702  35.196  38.574  1.00  0.00    -0.237 OA
ATOM     69  O   UNL A   1      37.131  33.427  39.269  1.00  0.00    -0.744 OA
ENDBRANCH  65  66
ENDBRANCH  46  60
BRANCH  47  70
ATOM     70  C   UNL A   1      43.134  25.477  28.052  1.00  0.00    -0.014 A 
ATOM     71  C   UNL A   1      43.924  26.046  27.039  1.00  0.00     0.010 A 
ATOM     72  C   UNL A   1      42.808  24.109  27.975  1.00  0.00     0.010 A 
ATOM     73  C   UNL A   1      44.373  25.265  25.969  1.00  0.00     0.020 A 
ATOM     74  C   UNL A   1      43.285  23.317  26.928  1.00  0.00     0.020 A 
ATOM     75  C   UNL A   1      44.055  23.904  25.924  1.00  0.00     0.054 A 
BRANCH  75  76
ATOM     76  S   UNL A   1      44.697  22.897  24.557  1.00  0.00     0.124 S 
ATOM     77  O   UNL A   1      45.262  21.753  25.266  1.00  0.00    -0.237 OA
ATOM     78  O   UNL A   1      43.495  22.624  23.774  1.00  0.00    -0.237 OA
ATOM     79  O   UNL A   1      45.667  23.777  23.911  1.00  0.00    -0.744 OA
ENDBRANCH  75  76
ENDBRANCH  47  70
BRANCH  59  80
ATOM     80  C   UNL A   1      45.944  27.143  34.205  1.00  0.00    -0.014 A 
ATOM     81  C   UNL A   1      46.022  26.019  35.047  1.00  0.00     0.010 A 
ATOM     82  C   UNL A   1      47.105  27.894  33.950  1.00  0.00     0.010 A 
ATOM     83  C   UNL A   1      47.234  25.674  35.648  1.00  0.00     0.020 A 
ATOM     84  C   UNL A   1      48.324  27.536  34.528  1.00  0.00     0.020 A 
ATOM     85  C   UNL A   1      48.378  26.435  35.386  1.00  0.00     0.054 A 
BRANCH  85  86
ATOM     86  S   UNL A   1      49.949  25.944  36.147  1.00  0.00     0.124 S 
ATOM     87  O   UNL A   1      50.821  27.060  35.788  1.00  0.00    -0.237 OA
ATOM     88  O   UNL A   1      49.604  25.846  37.563  1.00  0.00    -0.237 OA
ATOM     89  O   UNL A   1      50.264  24.673  35.500  1.00  0.00    -0.744 OA
ENDBRANCH  85  86
ENDBRANCH  59  80
ENDBRANCH  33  34
ENDBRANCH  26  28
ENDBRANCH  25  26
ENDBRANCH   1  25
TORSDOF 16
ENDMDL
MODEL 3
REMARK VINA RESULT:     -10.6      3.384      4.175
REMARK SMILES Cc1ccc2oc(C(=O)N[C@@H]3C=C[C@H](C(=O)OCCOC(=O)c4ccc(-c5c6nc(c(-c7ccc(S(=O)(=O)[O-])cc7)c7ccc([nH]7)c(-c7ccc(S(=O)(=O)[O-])cc7)c7nc(c(-c8ccc(S(=O)(=O)[O-])cc8)c8ccc5[nH]8)C=C7)C=C6)cc4)C3)cc2c1
REMARK SMILES IDX 19 1 18 2 17 3 15 4 16 5 14 6 11 7 12 8 83 9 13 10 10 11
REMARK SMILES IDX 8 12 9 13 7 15 1 16 2 17 3 18 86 19 4 20 85 21 5 22 84 23
REMARK SMILES IDX 6 24 20 25 21 26 22 27 23 28 24 29 82 30 25 31 81 32 26 33
REMARK SMILES IDX 27 34 28 35 75 36 29 37 80 38 74 39 76 40 30 41 79 42 73 43
REMARK SMILES IDX 72 44 31 46 61 47 42 48 60 49 43 50 46 51 59 52 77 53 44 54
REMARK SMILES IDX 45 55 58 57 78 58 47 59 32 60 33 61 41 62 34 63 40 64 35 65
REMARK SMILES IDX 36 66 37 67 38 68 39 69 62 70 63 71 71 72 64 73 70 74 65 75
REMARK SMILES IDX 66 76 67 77 68 78 69 79 48 80 49 81 57 82 50 83 56 84 51 85
REMARK SMILES IDX 52 86 53 87 54 88 55 89
REMARK H PARENT 10 14 76 45 46 56
REMARK Flexibility Score: inf
ROOT
ATOM      1  C   UNL A   1      32.175  30.884  26.748  1.00  0.00     0.275 C 
ENDROOT
BRANCH   1   2
ATOM      2  C   UNL A   1      31.842  29.943  25.583  1.00  0.00     0.274 C 
BRANCH   2   3
ATOM      3  O   UNL A   1      32.933  29.044  25.247  1.00  0.00    -0.462 OA
BRANCH   3   4
ATOM      4  C   UNL A   1      32.521  27.784  24.931  1.00  0.00     0.312 C 
ATOM      5  O   UNL A   1      32.491  27.376  23.775  1.00  0.00    -0.252 OA
BRANCH   4   6
ATOM      6  C   UNL A   1      32.032  26.945  26.130  1.00  0.00     0.124 C 
ATOM      7  C   UNL A   1      32.386  24.588  25.457  1.00  0.00     0.106 C 
ATOM      8  C   UNL A   1      30.940  24.920  25.519  1.00  0.00    -0.006 C 
ATOM      9  C   UNL A   1      32.972  25.737  26.301  1.00  0.00     0.048 C 
ATOM     10  C   UNL A   1      30.736  26.183  25.946  1.00  0.00    -0.014 C 
BRANCH   7  11
ATOM     11  N   UNL A   1      32.994  24.346  24.134  1.00  0.00    -0.343 N 
ATOM     12  C   UNL A   1      34.163  23.935  23.506  1.00  0.00     0.287 C 
ATOM     13  O   UNL A   1      34.116  23.960  22.270  1.00  0.00    -0.266 OA
ATOM     14  H   UNL A   1      32.325  24.551  23.441  1.00  0.00     0.164 HD
BRANCH  12  15
ATOM     15  C   UNL A   1      35.360  23.524  24.218  1.00  0.00     0.192 A 
ATOM     16  C   UNL A   1      40.182  20.798  26.483  1.00  0.00     0.044 C 
ATOM     17  C   UNL A   1      39.173  21.857  26.162  1.00  0.00    -0.050 A 
ATOM     18  C   UNL A   1      39.169  23.149  26.716  1.00  0.00     0.007 A 
ATOM     19  C   UNL A   1      38.170  21.498  25.275  1.00  0.00     0.015 A 
ATOM     20  C   UNL A   1      38.163  24.105  26.413  1.00  0.00     0.048 A 
ATOM     21  C   UNL A   1      37.176  22.427  24.993  1.00  0.00     0.021 A 
ATOM     22  C   UNL A   1      37.160  23.690  25.540  1.00  0.00     0.135 A 
ATOM     23  C   UNL A   1      36.076  22.368  24.167  1.00  0.00     0.065 A 
ATOM     24  O   UNL A   1      36.054  24.381  25.077  1.00  0.00    -0.451 OA
ENDBRANCH  12  15
ENDBRANCH   7  11
ENDBRANCH   4   6
ENDBRANCH   3   4
ENDBRANCH   2   3
ENDBRANCH   1   2
BRANCH   1  25
ATOM     25  O   UNL A   1      33.348  30.458  27.467  1.00  0.00    -0.458 OA
BRANCH  25  26
ATOM     26  C   UNL A   1      34.255  31.433  27.709  1.00  0.00     0.338 C 
ATOM     27  O   UNL A   1      34.028  32.628  27.808  1.00  0.00    -0.246 OA
BRANCH  26  28
ATOM     28  C   UNL A   1      35.604  30.882  27.953  1.00  0.00     0.060 A 
ATOM     29  C   UNL A   1      35.744  29.539  28.263  1.00  0.00     0.016 A 
ATOM     30  C   UNL A   1      36.685  31.739  28.141  1.00  0.00     0.016 A 
ATOM     31  C   UNL A   1      36.858  29.101  28.975  1.00  0.00     0.010 A 
ATOM     32  C   UNL A   1      37.881  31.246  28.684  1.00  0.00     0.010 A 
ATOM     33  C   UNL A   1      37.961  29.933  29.182  1.00  0.00    -0.014 A 
BRANCH  33  34
ATOM     34  C   UNL A   1      39.154  29.445  29.945  1.00  0.00     0.031 A 
ATOM     35  C   UNL A   1      39.507  30.055  31.283  1.00  0.00     0.074 A 
ATOM     36  C   UNL A   1      39.916  28.435  29.469  1.00  0.00     0.049 A 
ATOM     37  N   UNL A   1      40.619  29.960  31.968  1.00  0.00    -0.248 NA
ATOM     38  C   UNL A   1      38.485  30.900  31.928  1.00  0.00     0.031 C 
ATOM     39  C   UNL A   1      39.674  27.683  28.232  1.00  0.00     0.029 A 
ATOM     40  N   UNL A   1      41.053  27.852  29.978  1.00  0.00    -0.354 N 
ATOM     41  C   UNL A   1      40.466  30.801  33.068  1.00  0.00     0.074 A 
ATOM     42  C   UNL A   1      39.148  31.388  32.967  1.00  0.00     0.031 C 
ATOM     43  C   UNL A   1      40.579  26.702  28.119  1.00  0.00     0.029 A 
ATOM     44  C   UNL A   1      41.560  26.847  29.183  1.00  0.00     0.049 A 
ATOM     45  H   UNL A   1      41.466  28.127  30.828  1.00  0.00     0.167 HD
ATOM     46  C   UNL A   1      41.350  31.066  34.061  1.00  0.00     0.031 A 
ATOM     47  C   UNL A   1      42.718  26.164  29.245  1.00  0.00     0.031 A 
ATOM     48  C   UNL A   1      42.635  30.427  34.183  1.00  0.00     0.049 A 
ATOM     49  C   UNL A   1      43.705  26.509  30.320  1.00  0.00     0.074 A 
ATOM     50  C   UNL A   1      43.605  30.621  35.152  1.00  0.00     0.029 A 
ATOM     51  N   UNL A   1      43.120  29.454  33.323  1.00  0.00    -0.354 N 
ATOM     52  N   UNL A   1      43.589  27.381  31.291  1.00  0.00    -0.248 NA
ATOM     53  C   UNL A   1      44.990  25.800  30.288  1.00  0.00     0.031 C 
ATOM     54  C   UNL A   1      44.694  29.795  34.851  1.00  0.00     0.029 A 
ATOM     55  C   UNL A   1      44.380  29.046  33.730  1.00  0.00     0.049 A 
ATOM     56  H   UNL A   1      42.640  29.103  32.539  1.00  0.00     0.167 HD
ATOM     57  C   UNL A   1      44.783  27.318  31.996  1.00  0.00     0.074 A 
ATOM     58  C   UNL A   1      45.598  26.306  31.352  1.00  0.00     0.031 C 
ATOM     59  C   UNL A   1      45.174  28.037  33.076  1.00  0.00     0.031 A 
BRANCH  46  60
ATOM     60  C   UNL A   1      40.988  32.136  35.062  1.00  0.00    -0.014 A 
ATOM     61  C   UNL A   1      40.320  31.839  36.263  1.00  0.00     0.010 A 
ATOM     62  C   UNL A   1      41.365  33.469  34.806  1.00  0.00     0.010 A 
ATOM     63  C   UNL A   1      39.998  32.860  37.165  1.00  0.00     0.020 A 
ATOM     64  C   UNL A   1      41.072  34.488  35.718  1.00  0.00     0.020 A 
ATOM     65  C   UNL A   1      40.372  34.178  36.884  1.00  0.00     0.054 A 
BRANCH  65  66
ATOM     66  S   UNL A   1      39.954  35.480  38.078  1.00  0.00     0.124 S 
ATOM     67  O   UNL A   1      39.847  36.655  37.215  1.00  0.00    -0.237 OA
ATOM     68  O   UNL A   1      38.695  35.003  38.646  1.00  0.00    -0.237 OA
ATOM     69  O   UNL A   1      41.087  35.485  38.999  1.00  0.00    -0.744 OA
ENDBRANCH  65  66
ENDBRANCH  46  60
BRANCH  47  70
ATOM     70  C   UNL A   1      43.038  25.149  28.199  1.00  0.00    -0.014 A 
ATOM     71  C   UNL A   1      43.697  25.523  27.016  1.00  0.00     0.010 A 
ATOM     72  C   UNL A   1      42.710  23.794  28.399  1.00  0.00     0.010 A 
ATOM     73  C   UNL A   1      44.017  24.563  26.051  1.00  0.00     0.020 A 
ATOM     74  C   UNL A   1      43.060  22.827  27.455  1.00  0.00     0.020 A 
ATOM     75  C   UNL A   1      43.702  23.220  26.279  1.00  0.00     0.054 A 
BRANCH  75  76
ATOM     76  S   UNL A   1      44.177  21.982  25.040  1.00  0.00     0.124 S 
ATOM     77  O   UNL A   1      45.572  21.729  25.387  1.00  0.00    -0.237 OA
ATOM     78  O   UNL A   1      43.249  20.888  25.313  1.00  0.00    -0.237 OA
ATOM     79  O   UNL A   1      43.961  22.670  23.770  1.00  0.00    -0.744 OA
ENDBRANCH  75  76
ENDBRANCH  47  70
BRANCH  59  80
ATOM     80  C   UNL A   1      46.524  27.721  33.655  1.00  0.00    -0.014 A 
ATOM     81  C   UNL A   1      46.685  26.720  34.629  1.00  0.00     0.010 A 
ATOM     82  C   UNL A   1      47.655  28.415  33.187  1.00  0.00     0.010 A 
ATOM     83  C   UNL A   1      47.951  26.442  35.150  1.00  0.00     0.020 A 
ATOM     84  C   UNL A   1      48.925  28.121  33.686  1.00  0.00     0.020 A 
ATOM     85  C   UNL A   1      49.063  27.145  34.676  1.00  0.00     0.054 A 
BRANCH  85  86
ATOM     86  S   UNL A   1      50.701  26.739  35.337  1.00  0.00     0.124 S 
ATOM     87  O   UNL A   1      50.678  27.408  36.635  1.00  0.00    -0.237 OA
ATOM     88  O   UNL A   1      50.677  25.279  35.383  1.00  0.00    -0.237 OA
ATOM     89  O   UNL A   1      51.621  27.310  34.357  1.00  0.00    -0.744 OA
ENDBRANCH  85  86
ENDBRANCH  59  80
ENDBRANCH  33  34
ENDBRANCH  26  28
ENDBRANCH  25  26
ENDBRANCH   1  25
TORSDOF 16
ENDMDL
