MODEL 1
REMARK VINA RESULT:     -11.5      0.000      0.000
REMARK SMILES O=C(OCCOC(=O)[C@@H]1Cc2ccccc2CN1C(=O)COc1ccccc1)c1ccc(-c2c3nc(c(-c4ccc(S(=O)(=O)[O-])cc4)c4ccc([nH]4)c(-c4ccc(S(=O)(=O)[O-])cc4)c4nc(c(-c5ccc(S(=O)(=O)[O-])cc5)c5ccc2[nH]5)C=C4)C=C3)cc1
REMARK SMILES IDX 5 1 4 2 3 3 2 4 1 5 29 6 30 7 88 8 31 9 87 10 32 11 33 12
REMARK SMILES IDX 34 13 81 14 35 15 86 16 80 17 82 18 36 19 85 20 79 21 78 22
REMARK SMILES IDX 37 24 67 25 48 26 66 27 49 28 52 29 65 30 83 31 50 32 51 33
REMARK SMILES IDX 64 35 84 36 53 37 38 38 39 39 47 40 40 41 46 42 41 43 42 44
REMARK SMILES IDX 43 45 44 46 45 47 68 48 69 49 77 50 70 51 76 52 71 53 72 54
REMARK SMILES IDX 73 55 74 56 75 57 54 58 55 59 63 60 56 61 62 62 57 63 58 64
REMARK SMILES IDX 59 65 60 66 61 67 6 68 7 69 8 70 9 71 10 72 18 73 11 74
REMARK SMILES IDX 17 75 12 76 16 77 13 78 15 79 14 80 19 81 20 82 21 83 22 84
REMARK SMILES IDX 23 85 24 86 28 87 25 88 27 89 26 90
REMARK H PARENT 82 23 52 34
REMARK Flexibility Score: inf
ROOT
ATOM      1  C   UNL A   1      33.367  27.084  25.054  1.00  0.00     0.274 C 
ENDROOT
BRANCH   1   2
ATOM      2  C   UNL A   1      33.862  27.758  26.336  1.00  0.00     0.275 C 
BRANCH   2   3
ATOM      3  O   UNL A   1      34.201  29.145  26.185  1.00  0.00    -0.458 OA
BRANCH   3   4
ATOM      4  C   UNL A   1      34.456  29.930  27.266  1.00  0.00     0.338 C 
ATOM      5  O   UNL A   1      33.700  30.830  27.608  1.00  0.00    -0.246 OA
BRANCH   4   6
ATOM      6  C   UNL A   1      35.808  29.825  27.860  1.00  0.00     0.060 A 
ATOM      7  C   UNL A   1      36.985  30.073  27.148  1.00  0.00     0.016 A 
ATOM      8  C   UNL A   1      35.877  29.417  29.191  1.00  0.00     0.016 A 
ATOM      9  C   UNL A   1      38.226  29.953  27.783  1.00  0.00     0.010 A 
ATOM     10  C   UNL A   1      37.112  29.344  29.834  1.00  0.00     0.010 A 
ATOM     11  C   UNL A   1      38.298  29.565  29.126  1.00  0.00    -0.014 A 
BRANCH  11  12
ATOM     12  C   UNL A   1      39.588  29.153  29.729  1.00  0.00     0.031 A 
ATOM     13  C   UNL A   1      40.086  29.930  30.922  1.00  0.00     0.074 A 
ATOM     14  C   UNL A   1      40.307  28.126  29.237  1.00  0.00     0.049 A 
ATOM     15  N   UNL A   1      41.089  29.667  31.719  1.00  0.00    -0.248 NA
ATOM     16  C   UNL A   1      39.365  31.171  31.263  1.00  0.00     0.031 C 
ATOM     17  C   UNL A   1      39.967  27.327  28.059  1.00  0.00     0.029 A 
ATOM     18  N   UNL A   1      41.490  27.583  29.673  1.00  0.00    -0.354 N 
ATOM     19  C   UNL A   1      41.086  30.686  32.665  1.00  0.00     0.074 A 
ATOM     20  C   UNL A   1      40.078  31.638  32.271  1.00  0.00     0.031 C 
ATOM     21  C   UNL A   1      40.936  26.418  27.847  1.00  0.00     0.029 A 
ATOM     22  C   UNL A   1      41.935  26.531  28.906  1.00  0.00     0.049 A 
ATOM     23  H   UNL A   1      41.976  27.915  30.461  1.00  0.00     0.167 HD
ATOM     24  C   UNL A   1      41.799  30.783  33.811  1.00  0.00     0.031 A 
ATOM     25  C   UNL A   1      42.997  25.720  29.073  1.00  0.00     0.031 A 
ATOM     26  C   UNL A   1      42.797  29.833  34.195  1.00  0.00     0.049 A 
ATOM     27  C   UNL A   1      43.809  25.847  30.336  1.00  0.00     0.074 A 
ATOM     28  C   UNL A   1      43.539  29.772  35.359  1.00  0.00     0.029 A 
ATOM     29  N   UNL A   1      43.200  28.770  33.399  1.00  0.00    -0.354 N 
ATOM     30  N   UNL A   1      43.686  26.719  31.310  1.00  0.00    -0.248 NA
ATOM     31  C   UNL A   1      44.855  24.840  30.556  1.00  0.00     0.031 C 
ATOM     32  C   UNL A   1      44.415  28.686  35.251  1.00  0.00     0.029 A 
ATOM     33  C   UNL A   1      44.189  28.050  34.038  1.00  0.00     0.049 A 
ATOM     34  H   UNL A   1      42.833  28.559  32.509  1.00  0.00     0.167 HD
ATOM     35  C   UNL A   1      44.593  26.327  32.288  1.00  0.00     0.074 A 
ATOM     36  C   UNL A   1      45.269  25.149  31.778  1.00  0.00     0.031 C 
ATOM     37  C   UNL A   1      44.830  26.872  33.507  1.00  0.00     0.031 A 
BRANCH  24  38
ATOM     38  C   UNL A   1      41.463  31.942  34.712  1.00  0.00    -0.014 A 
ATOM     39  C   UNL A   1      40.368  31.861  35.597  1.00  0.00     0.010 A 
ATOM     40  C   UNL A   1      42.185  33.143  34.627  1.00  0.00     0.010 A 
ATOM     41  C   UNL A   1      39.945  32.985  36.310  1.00  0.00     0.020 A 
ATOM     42  C   UNL A   1      41.784  34.263  35.365  1.00  0.00     0.020 A 
ATOM     43  C   UNL A   1      40.647  34.185  36.174  1.00  0.00     0.054 A 
BRANCH  43  44
ATOM     44  S   UNL A   1      40.049  35.647  37.068  1.00  0.00     0.124 S 
ATOM     45  O   UNL A   1      38.952  35.088  37.856  1.00  0.00    -0.237 OA
ATOM     46  O   UNL A   1      41.222  36.062  37.832  1.00  0.00    -0.237 OA
ATOM     47  O   UNL A   1      39.647  36.561  36.002  1.00  0.00    -0.744 OA
ENDBRANCH  43  44
ENDBRANCH  24  38
BRANCH  25  48
ATOM     48  C   UNL A   1      43.266  24.636  28.088  1.00  0.00    -0.014 A 
ATOM     49  C   UNL A   1      44.177  24.839  27.034  1.00  0.00     0.010 A 
ATOM     50  C   UNL A   1      42.636  23.384  28.211  1.00  0.00     0.010 A 
ATOM     51  C   UNL A   1      44.442  23.818  26.118  1.00  0.00     0.020 A 
ATOM     52  C   UNL A   1      42.911  22.355  27.303  1.00  0.00     0.020 A 
ATOM     53  C   UNL A   1      43.810  22.581  26.259  1.00  0.00     0.054 A 
BRANCH  53  54
ATOM     54  S   UNL A   1      44.219  21.255  25.086  1.00  0.00     0.124 S 
ATOM     55  O   UNL A   1      44.052  21.924  23.799  1.00  0.00    -0.237 OA
ATOM     56  O   UNL A   1      45.593  20.924  25.454  1.00  0.00    -0.237 OA
ATOM     57  O   UNL A   1      43.234  20.218  25.385  1.00  0.00    -0.744 OA
ENDBRANCH  53  54
ENDBRANCH  25  48
BRANCH  37  58
ATOM     58  C   UNL A   1      45.818  26.177  34.398  1.00  0.00    -0.014 A 
ATOM     59  C   UNL A   1      47.172  26.549  34.413  1.00  0.00     0.010 A 
ATOM     60  C   UNL A   1      45.359  25.200  35.301  1.00  0.00     0.010 A 
ATOM     61  C   UNL A   1      48.057  25.939  35.305  1.00  0.00     0.020 A 
ATOM     62  C   UNL A   1      46.235  24.609  36.212  1.00  0.00     0.020 A 
ATOM     63  C   UNL A   1      47.582  24.976  36.201  1.00  0.00     0.054 A 
BRANCH  63  64
ATOM     64  S   UNL A   1      48.734  24.253  37.399  1.00  0.00     0.124 S 
ATOM     65  O   UNL A   1      47.966  23.125  37.917  1.00  0.00    -0.237 OA
ATOM     66  O   UNL A   1      49.884  23.902  36.569  1.00  0.00    -0.237 OA
ATOM     67  O   UNL A   1      48.970  25.338  38.350  1.00  0.00    -0.744 OA
ENDBRANCH  63  64
ENDBRANCH  37  58
ENDBRANCH  11  12
ENDBRANCH   4   6
ENDBRANCH   3   4
ENDBRANCH   2   3
ENDBRANCH   1   2
BRANCH   1  68
ATOM     68  O   UNL A   1      34.075  25.872  24.763  1.00  0.00    -0.461 OA
BRANCH  68  69
ATOM     69  C   UNL A   1      33.466  24.742  25.217  1.00  0.00     0.329 C 
ATOM     70  O   UNL A   1      32.248  24.629  25.315  1.00  0.00    -0.250 OA
BRANCH  69  71
ATOM     71  C   UNL A   1      34.462  23.641  25.653  1.00  0.00     0.200 C 
ATOM     72  C   UNL A   1      35.796  24.410  25.720  1.00  0.00     0.073 C 
ATOM     73  N   UNL A   1      34.539  22.422  24.801  1.00  0.00    -0.321 N 
ATOM     74  C   UNL A   1      37.003  23.547  25.916  1.00  0.00    -0.040 A 
ATOM     75  C   UNL A   1      35.798  21.673  24.727  1.00  0.00     0.156 C 
ATOM     76  C   UNL A   1      38.166  24.065  26.503  1.00  0.00     0.004 A 
ATOM     77  C   UNL A   1      37.002  22.250  25.407  1.00  0.00    -0.025 A 
ATOM     78  C   UNL A   1      39.316  23.282  26.604  1.00  0.00     0.000 A 
ATOM     79  C   UNL A   1      38.168  21.472  25.504  1.00  0.00     0.006 A 
ATOM     80  C   UNL A   1      39.317  21.983  26.105  1.00  0.00     0.000 A 
BRANCH  73  81
ATOM     81  C   UNL A   1      33.440  21.656  24.400  1.00  0.00     0.261 C 
ATOM     82  O   UNL A   1      32.932  21.819  23.284  1.00  0.00    -0.271 OA
BRANCH  81  83
ATOM     83  C   UNL A   1      32.903  20.540  25.299  1.00  0.00     0.329 C 
BRANCH  83  84
ATOM     84  O   UNL A   1      32.080  19.578  24.645  1.00  0.00    -0.484 OA
BRANCH  84  85
ATOM     85  C   UNL A   1      32.675  18.348  24.559  1.00  0.00     0.120 A 
ATOM     86  C   UNL A   1      32.577  17.520  25.674  1.00  0.00     0.046 A 
ATOM     87  C   UNL A   1      33.403  17.925  23.446  1.00  0.00     0.046 A 
ATOM     88  C   UNL A   1      33.158  16.251  25.648  1.00  0.00     0.004 A 
ATOM     89  C   UNL A   1      33.981  16.659  23.418  1.00  0.00     0.004 A 
ATOM     90  C   UNL A   1      33.852  15.818  24.518  1.00  0.00     0.000 A 
ENDBRANCH  84  85
ENDBRANCH  83  84
ENDBRANCH  81  83
ENDBRANCH  73  81
ENDBRANCH  69  71
ENDBRANCH  68  69
ENDBRANCH   1  68
TORSDOF 18
ENDMDL
MODEL 2
REMARK VINA RESULT:     -11.3      3.988      9.417
REMARK SMILES O=C(OCCOC(=O)[C@@H]1Cc2ccccc2CN1C(=O)COc1ccccc1)c1ccc(-c2c3nc(c(-c4ccc(S(=O)(=O)[O-])cc4)c4ccc([nH]4)c(-c4ccc(S(=O)(=O)[O-])cc4)c4nc(c(-c5ccc(S(=O)(=O)[O-])cc5)c5ccc2[nH]5)C=C4)C=C3)cc1
REMARK SMILES IDX 5 1 4 2 3 3 2 4 1 5 29 6 30 7 88 8 31 9 87 10 32 11 33 12
REMARK SMILES IDX 34 13 81 14 35 15 86 16 80 17 82 18 36 19 85 20 79 21 78 22
REMARK SMILES IDX 37 24 67 25 48 26 66 27 49 28 52 29 65 30 83 31 50 32 51 33
REMARK SMILES IDX 64 35 84 36 53 37 38 38 39 39 47 40 40 41 46 42 41 43 42 44
REMARK SMILES IDX 43 45 44 46 45 47 68 48 69 49 77 50 70 51 76 52 71 53 72 54
REMARK SMILES IDX 73 55 74 56 75 57 54 58 55 59 63 60 56 61 62 62 57 63 58 64
REMARK SMILES IDX 59 65 60 66 61 67 6 68 7 69 8 70 9 71 10 72 18 73 11 74
REMARK SMILES IDX 17 75 12 76 16 77 13 78 15 79 14 80 19 81 20 82 21 83 22 84
REMARK SMILES IDX 23 85 24 86 28 87 25 88 27 89 26 90
REMARK H PARENT 82 23 52 34
REMARK Flexibility Score: inf
ROOT
ATOM      1  C   UNL A   1      32.043  28.473  26.195  1.00  0.00     0.274 C 
ENDROOT
BRANCH   1   2
ATOM      2  C   UNL A   1      32.506  29.560  27.168  1.00  0.00     0.275 C 
BRANCH   2   3
ATOM      3  O   UNL A   1      33.860  29.994  26.971  1.00  0.00    -0.458 OA
BRANCH   3   4
ATOM      4  C   UNL A   1      34.533  30.665  27.944  1.00  0.00     0.338 C 
ATOM      5  O   UNL A   1      34.166  31.761  28.351  1.00  0.00    -0.246 OA
BRANCH   4   6
ATOM      6  C   UNL A   1      35.868  30.142  28.312  1.00  0.00     0.060 A 
ATOM      7  C   UNL A   1      36.188  29.680  29.593  1.00  0.00     0.016 A 
ATOM      8  C   UNL A   1      36.845  30.161  27.319  1.00  0.00     0.016 A 
ATOM      9  C   UNL A   1      37.474  29.199  29.862  1.00  0.00     0.010 A 
ATOM     10  C   UNL A   1      38.111  29.639  27.577  1.00  0.00     0.010 A 
ATOM     11  C   UNL A   1      38.452  29.197  28.860  1.00  0.00    -0.014 A 
BRANCH  11  12
ATOM     12  C   UNL A   1      39.879  28.970  29.192  1.00  0.00     0.031 A 
ATOM     13  C   UNL A   1      40.463  27.611  28.896  1.00  0.00     0.074 A 
ATOM     14  C   UNL A   1      40.641  29.932  29.746  1.00  0.00     0.049 A 
ATOM     15  N   UNL A   1      41.709  27.220  28.940  1.00  0.00    -0.248 NA
ATOM     16  C   UNL A   1      39.519  26.548  28.502  1.00  0.00     0.031 C 
ATOM     17  C   UNL A   1      40.189  31.269  30.132  1.00  0.00     0.029 A 
ATOM     18  N   UNL A   1      41.970  29.922  30.089  1.00  0.00    -0.354 N 
ATOM     19  C   UNL A   1      41.692  25.887  28.545  1.00  0.00     0.074 A 
ATOM     20  C   UNL A   1      40.313  25.498  28.397  1.00  0.00     0.031 C 
ATOM     21  C   UNL A   1      41.214  31.940  30.687  1.00  0.00     0.029 A 
ATOM     22  C   UNL A   1      42.409  31.101  30.645  1.00  0.00     0.049 A 
ATOM     23  H   UNL A   1      42.555  29.144  29.950  1.00  0.00     0.167 HD
ATOM     24  C   UNL A   1      42.735  25.076  28.247  1.00  0.00     0.031 A 
ATOM     25  C   UNL A   1      43.646  31.478  31.025  1.00  0.00     0.031 A 
ATOM     26  C   UNL A   1      44.102  25.472  28.396  1.00  0.00     0.049 A 
ATOM     27  C   UNL A   1      44.803  30.562  30.719  1.00  0.00     0.074 A 
ATOM     28  C   UNL A   1      45.249  24.778  28.063  1.00  0.00     0.029 A 
ATOM     29  N   UNL A   1      44.501  26.683  28.941  1.00  0.00    -0.354 N 
ATOM     30  N   UNL A   1      44.785  29.362  30.186  1.00  0.00    -0.248 NA
ATOM     31  C   UNL A   1      46.149  31.078  30.999  1.00  0.00     0.031 C 
ATOM     32  C   UNL A   1      46.347  25.562  28.439  1.00  0.00     0.029 A 
ATOM     33  C   UNL A   1      45.879  26.758  28.967  1.00  0.00     0.049 A 
ATOM     34  H   UNL A   1      43.892  27.387  29.262  1.00  0.00     0.167 HD
ATOM     35  C   UNL A   1      46.117  29.007  30.006  1.00  0.00     0.074 A 
ATOM     36  C   UNL A   1      46.913  30.113  30.504  1.00  0.00     0.031 C 
ATOM     37  C   UNL A   1      46.639  27.881  29.456  1.00  0.00     0.031 A 
BRANCH  24  38
ATOM     38  C   UNL A   1      42.390  23.717  27.698  1.00  0.00    -0.014 A 
ATOM     39  C   UNL A   1      42.187  22.628  28.570  1.00  0.00     0.010 A 
ATOM     40  C   UNL A   1      42.343  23.500  26.311  1.00  0.00     0.010 A 
ATOM     41  C   UNL A   1      42.037  21.333  28.068  1.00  0.00     0.020 A 
ATOM     42  C   UNL A   1      42.160  22.208  25.804  1.00  0.00     0.020 A 
ATOM     43  C   UNL A   1      42.043  21.130  26.686  1.00  0.00     0.054 A 
BRANCH  43  44
ATOM     44  S   UNL A   1      41.899  19.435  26.057  1.00  0.00     0.124 S 
ATOM     45  O   UNL A   1      42.753  19.482  24.872  1.00  0.00    -0.237 OA
ATOM     46  O   UNL A   1      42.410  18.633  27.166  1.00  0.00    -0.237 OA
ATOM     47  O   UNL A   1      40.471  19.286  25.790  1.00  0.00    -0.744 OA
ENDBRANCH  43  44
ENDBRANCH  24  38
BRANCH  25  48
ATOM     48  C   UNL A   1      43.865  32.830  31.607  1.00  0.00    -0.014 A 
ATOM     49  C   UNL A   1      43.988  32.996  32.999  1.00  0.00     0.010 A 
ATOM     50  C   UNL A   1      43.979  33.958  30.774  1.00  0.00     0.010 A 
ATOM     51  C   UNL A   1      44.208  34.263  33.548  1.00  0.00     0.020 A 
ATOM     52  C   UNL A   1      44.215  35.226  31.319  1.00  0.00     0.020 A 
ATOM     53  C   UNL A   1      44.323  35.371  32.704  1.00  0.00     0.054 A 
BRANCH  53  54
ATOM     54  S   UNL A   1      44.668  36.995  33.441  1.00  0.00     0.124 S 
ATOM     55  O   UNL A   1      45.956  37.334  32.843  1.00  0.00    -0.237 OA
ATOM     56  O   UNL A   1      43.531  37.792  32.989  1.00  0.00    -0.237 OA
ATOM     57  O   UNL A   1      44.697  36.720  34.876  1.00  0.00    -0.744 OA
ENDBRANCH  53  54
ENDBRANCH  25  48
BRANCH  37  58
ATOM     58  C   UNL A   1      48.132  27.807  29.312  1.00  0.00    -0.014 A 
ATOM     59  C   UNL A   1      48.930  27.220  30.307  1.00  0.00     0.010 A 
ATOM     60  C   UNL A   1      48.728  28.249  28.117  1.00  0.00     0.010 A 
ATOM     61  C   UNL A   1      50.308  27.094  30.116  1.00  0.00     0.020 A 
ATOM     62  C   UNL A   1      50.100  28.100  27.912  1.00  0.00     0.020 A 
ATOM     63  C   UNL A   1      50.883  27.532  28.918  1.00  0.00     0.054 A 
BRANCH  63  64
ATOM     64  S   UNL A   1      52.662  27.290  28.663  1.00  0.00     0.124 S 
ATOM     65  O   UNL A   1      53.027  26.479  29.821  1.00  0.00    -0.237 OA
ATOM     66  O   UNL A   1      52.712  26.604  27.374  1.00  0.00    -0.237 OA
ATOM     67  O   UNL A   1      53.198  28.650  28.659  1.00  0.00    -0.744 OA
ENDBRANCH  63  64
ENDBRANCH  37  58
ENDBRANCH  11  12
ENDBRANCH   4   6
ENDBRANCH   3   4
ENDBRANCH   2   3
ENDBRANCH   1   2
BRANCH   1  68
ATOM     68  O   UNL A   1      32.695  27.216  26.426  1.00  0.00    -0.461 OA
BRANCH  68  69
ATOM     69  C   UNL A   1      31.884  26.130  26.291  1.00  0.00     0.329 C 
ATOM     70  O   UNL A   1      30.754  26.072  26.766  1.00  0.00    -0.250 OA
BRANCH  69  71
ATOM     71  C   UNL A   1      32.551  24.958  25.532  1.00  0.00     0.200 C 
ATOM     72  C   UNL A   1      34.028  25.090  25.951  1.00  0.00     0.073 C 
ATOM     73  N   UNL A   1      32.371  24.919  24.054  1.00  0.00    -0.321 N 
ATOM     74  C   UNL A   1      34.971  24.205  25.199  1.00  0.00    -0.040 A 
ATOM     75  C   UNL A   1      33.407  24.304  23.217  1.00  0.00     0.156 C 
ATOM     76  C   UNL A   1      36.192  23.812  25.765  1.00  0.00     0.004 A 
ATOM     77  C   UNL A   1      34.677  23.863  23.880  1.00  0.00    -0.025 A 
ATOM     78  C   UNL A   1      37.104  23.060  25.025  1.00  0.00     0.000 A 
ATOM     79  C   UNL A   1      35.607  23.114  23.140  1.00  0.00     0.006 A 
ATOM     80  C   UNL A   1      36.812  22.709  23.712  1.00  0.00     0.000 A 
BRANCH  73  81
ATOM     81  C   UNL A   1      31.141  25.009  23.396  1.00  0.00     0.261 C 
ATOM     82  O   UNL A   1      30.449  24.000  23.212  1.00  0.00    -0.271 OA
BRANCH  81  83
ATOM     83  C   UNL A   1      30.585  26.370  22.971  1.00  0.00     0.329 C 
BRANCH  83  84
ATOM     84  O   UNL A   1      29.283  26.674  23.461  1.00  0.00    -0.484 OA
BRANCH  84  85
ATOM     85  C   UNL A   1      28.979  28.005  23.359  1.00  0.00     0.120 A 
ATOM     86  C   UNL A   1      27.642  28.333  23.157  1.00  0.00     0.046 A 
ATOM     87  C   UNL A   1      29.941  29.015  23.394  1.00  0.00     0.046 A 
ATOM     88  C   UNL A   1      27.266  29.673  23.048  1.00  0.00     0.004 A 
ATOM     89  C   UNL A   1      29.567  30.352  23.289  1.00  0.00     0.004 A 
ATOM     90  C   UNL A   1      28.227  30.682  23.123  1.00  0.00     0.000 A 
ENDBRANCH  84  85
ENDBRANCH  83  84
ENDBRANCH  81  83
ENDBRANCH  73  81
ENDBRANCH  69  71
ENDBRANCH  68  69
ENDBRANCH   1  68
TORSDOF 18
ENDMDL
MODEL 3
REMARK VINA RESULT:     -11.2      2.163      4.069
REMARK SMILES O=C(OCCOC(=O)[C@@H]1Cc2ccccc2CN1C(=O)COc1ccccc1)c1ccc(-c2c3nc(c(-c4ccc(S(=O)(=O)[O-])cc4)c4ccc([nH]4)c(-c4ccc(S(=O)(=O)[O-])cc4)c4nc(c(-c5ccc(S(=O)(=O)[O-])cc5)c5ccc2[nH]5)C=C4)C=C3)cc1
REMARK SMILES IDX 5 1 4 2 3 3 2 4 1 5 29 6 30 7 88 8 31 9 87 10 32 11 33 12
REMARK SMILES IDX 34 13 81 14 35 15 86 16 80 17 82 18 36 19 85 20 79 21 78 22
REMARK SMILES IDX 37 24 67 25 48 26 66 27 49 28 52 29 65 30 83 31 50 32 51 33
REMARK SMILES IDX 64 35 84 36 53 37 38 38 39 39 47 40 40 41 46 42 41 43 42 44
REMARK SMILES IDX 43 45 44 46 45 47 68 48 69 49 77 50 70 51 76 52 71 53 72 54
REMARK SMILES IDX 73 55 74 56 75 57 54 58 55 59 63 60 56 61 62 62 57 63 58 64
REMARK SMILES IDX 59 65 60 66 61 67 6 68 7 69 8 70 9 71 10 72 18 73 11 74
REMARK SMILES IDX 17 75 12 76 16 77 13 78 15 79 14 80 19 81 20 82 21 83 22 84
REMARK SMILES IDX 23 85 24 86 28 87 25 88 27 89 26 90
REMARK H PARENT 82 23 52 34
REMARK Flexibility Score: inf
ROOT
ATOM      1  C   UNL A   1      32.239  28.755  26.244  1.00  0.00     0.274 C 
ENDROOT
BRANCH   1   2
ATOM      2  C   UNL A   1      32.705  29.780  27.280  1.00  0.00     0.275 C 
BRANCH   2   3
ATOM      3  O   UNL A   1      33.880  30.512  26.904  1.00  0.00    -0.458 OA
BRANCH   3   4
ATOM      4  C   UNL A   1      34.608  31.200  27.825  1.00  0.00     0.338 C 
ATOM      5  O   UNL A   1      34.397  32.380  28.070  1.00  0.00    -0.246 OA
BRANCH   4   6
ATOM      6  C   UNL A   1      35.831  30.539  28.335  1.00  0.00     0.060 A 
ATOM      7  C   UNL A   1      35.856  29.747  29.487  1.00  0.00     0.016 A 
ATOM      8  C   UNL A   1      37.010  30.771  27.629  1.00  0.00     0.016 A 
ATOM      9  C   UNL A   1      37.054  29.156  29.904  1.00  0.00     0.010 A 
ATOM     10  C   UNL A   1      38.192  30.143  28.019  1.00  0.00     0.010 A 
ATOM     11  C   UNL A   1      38.236  29.369  29.184  1.00  0.00    -0.014 A 
BRANCH  11  12
ATOM     12  C   UNL A   1      39.551  29.001  29.758  1.00  0.00     0.031 A 
ATOM     13  C   UNL A   1      40.054  29.801  30.934  1.00  0.00     0.074 A 
ATOM     14  C   UNL A   1      40.291  27.995  29.253  1.00  0.00     0.049 A 
ATOM     15  N   UNL A   1      41.084  29.574  31.708  1.00  0.00    -0.248 NA
ATOM     16  C   UNL A   1      39.303  31.021  31.285  1.00  0.00     0.031 C 
ATOM     17  C   UNL A   1      39.948  27.178  28.089  1.00  0.00     0.029 A 
ATOM     18  N   UNL A   1      41.500  27.491  29.664  1.00  0.00    -0.354 N 
ATOM     19  C   UNL A   1      41.071  30.598  32.648  1.00  0.00     0.074 A 
ATOM     20  C   UNL A   1      40.025  31.516  32.273  1.00  0.00     0.031 C 
ATOM     21  C   UNL A   1      40.938  26.298  27.858  1.00  0.00     0.029 A 
ATOM     22  C   UNL A   1      41.959  26.449  28.892  1.00  0.00     0.049 A 
ATOM     23  H   UNL A   1      41.994  27.843  30.439  1.00  0.00     0.167 HD
ATOM     24  C   UNL A   1      41.808  30.725  33.776  1.00  0.00     0.031 A 
ATOM     25  C   UNL A   1      43.050  25.672  29.038  1.00  0.00     0.031 A 
ATOM     26  C   UNL A   1      42.845  29.808  34.141  1.00  0.00     0.049 A 
ATOM     27  C   UNL A   1      43.887  25.832  30.280  1.00  0.00     0.074 A 
ATOM     28  C   UNL A   1      43.616  29.777  35.287  1.00  0.00     0.029 A 
ATOM     29  N   UNL A   1      43.261  28.753  33.341  1.00  0.00    -0.354 N 
ATOM     30  N   UNL A   1      43.761  26.706  31.252  1.00  0.00    -0.248 NA
ATOM     31  C   UNL A   1      44.969  24.859  30.480  1.00  0.00     0.031 C 
ATOM     32  C   UNL A   1      44.523  28.718  35.163  1.00  0.00     0.029 A 
ATOM     33  C   UNL A   1      44.287  28.068  33.960  1.00  0.00     0.049 A 
ATOM     34  H   UNL A   1      42.880  28.526  32.462  1.00  0.00     0.167 HD
ATOM     35  C   UNL A   1      44.703  26.348  32.210  1.00  0.00     0.074 A 
ATOM     36  C   UNL A   1      45.403  25.189  31.690  1.00  0.00     0.031 C 
ATOM     37  C   UNL A   1      44.951  26.908  33.420  1.00  0.00     0.031 A 
BRANCH  24  38
ATOM     38  C   UNL A   1      41.458  31.878  34.679  1.00  0.00    -0.014 A 
ATOM     39  C   UNL A   1      40.457  31.734  35.662  1.00  0.00     0.010 A 
ATOM     40  C   UNL A   1      42.066  33.131  34.502  1.00  0.00     0.010 A 
ATOM     41  C   UNL A   1      40.007  32.840  36.386  1.00  0.00     0.020 A 
ATOM     42  C   UNL A   1      41.640  34.236  35.249  1.00  0.00     0.020 A 
ATOM     43  C   UNL A   1      40.591  34.089  36.161  1.00  0.00     0.054 A 
BRANCH  43  44
ATOM     44  S   UNL A   1      39.954  35.522  37.073  1.00  0.00     0.124 S 
ATOM     45  O   UNL A   1      41.100  35.879  37.907  1.00  0.00    -0.237 OA
ATOM     46  O   UNL A   1      39.635  36.469  36.008  1.00  0.00    -0.237 OA
ATOM     47  O   UNL A   1      38.802  34.987  37.794  1.00  0.00    -0.744 OA
ENDBRANCH  43  44
ENDBRANCH  24  38
BRANCH  25  48
ATOM     48  C   UNL A   1      43.329  24.591  28.052  1.00  0.00    -0.014 A 
ATOM     49  C   UNL A   1      44.223  24.809  26.988  1.00  0.00     0.010 A 
ATOM     50  C   UNL A   1      42.724  23.328  28.185  1.00  0.00     0.010 A 
ATOM     51  C   UNL A   1      44.498  23.791  26.071  1.00  0.00     0.020 A 
ATOM     52  C   UNL A   1      43.009  22.301  27.277  1.00  0.00     0.020 A 
ATOM     53  C   UNL A   1      43.891  22.542  26.222  1.00  0.00     0.054 A 
BRANCH  53  54
ATOM     54  S   UNL A   1      44.313  21.221  25.048  1.00  0.00     0.124 S 
ATOM     55  O   UNL A   1      44.202  21.908  23.765  1.00  0.00    -0.237 OA
ATOM     56  O   UNL A   1      45.667  20.858  25.457  1.00  0.00    -0.237 OA
ATOM     57  O   UNL A   1      43.298  20.201  25.302  1.00  0.00    -0.744 OA
ENDBRANCH  53  54
ENDBRANCH  25  48
BRANCH  37  58
ATOM     58  C   UNL A   1      45.983  26.249  34.291  1.00  0.00    -0.014 A 
ATOM     59  C   UNL A   1      47.329  26.645  34.250  1.00  0.00     0.010 A 
ATOM     60  C   UNL A   1      45.572  25.284  35.229  1.00  0.00     0.010 A 
ATOM     61  C   UNL A   1      48.255  26.070  35.124  1.00  0.00     0.020 A 
ATOM     62  C   UNL A   1      46.489  24.727  36.121  1.00  0.00     0.020 A 
ATOM     63  C   UNL A   1      47.828  25.117  36.055  1.00  0.00     0.054 A 
BRANCH  63  64
ATOM     64  S   UNL A   1      49.034  24.440  37.228  1.00  0.00     0.124 S 
ATOM     65  O   UNL A   1      48.671  25.125  38.465  1.00  0.00    -0.237 OA
ATOM     66  O   UNL A   1      48.748  23.008  37.194  1.00  0.00    -0.237 OA
ATOM     67  O   UNL A   1      50.324  24.824  36.657  1.00  0.00    -0.744 OA
ENDBRANCH  63  64
ENDBRANCH  37  58
ENDBRANCH  11  12
ENDBRANCH   4   6
ENDBRANCH   3   4
ENDBRANCH   2   3
ENDBRANCH   1   2
BRANCH   1  68
ATOM     68  O   UNL A   1      32.864  27.476  26.419  1.00  0.00    -0.461 OA
BRANCH  68  69
ATOM     69  C   UNL A   1      32.002  26.421  26.386  1.00  0.00     0.329 C 
ATOM     70  O   UNL A   1      30.908  26.430  26.941  1.00  0.00    -0.250 OA
BRANCH  69  71
ATOM     71  C   UNL A   1      32.566  25.192  25.633  1.00  0.00     0.200 C 
ATOM     72  C   UNL A   1      34.084  25.337  25.854  1.00  0.00     0.073 C 
ATOM     73  N   UNL A   1      32.201  25.055  24.195  1.00  0.00    -0.321 N 
ATOM     74  C   UNL A   1      34.923  24.392  25.052  1.00  0.00    -0.040 A 
ATOM     75  C   UNL A   1      33.123  24.372  23.280  1.00  0.00     0.156 C 
ATOM     76  C   UNL A   1      36.205  24.025  25.487  1.00  0.00     0.004 A 
ATOM     77  C   UNL A   1      34.465  23.964  23.808  1.00  0.00    -0.025 A 
ATOM     78  C   UNL A   1      37.015  23.214  24.693  1.00  0.00     0.000 A 
ATOM     79  C   UNL A   1      35.293  23.155  23.011  1.00  0.00     0.006 A 
ATOM     80  C   UNL A   1      36.559  22.777  23.454  1.00  0.00     0.000 A 
BRANCH  73  81
ATOM     81  C   UNL A   1      30.898  25.113  23.692  1.00  0.00     0.261 C 
ATOM     82  O   UNL A   1      30.341  24.093  23.268  1.00  0.00    -0.271 OA
BRANCH  81  83
ATOM     83  C   UNL A   1      30.105  26.421  23.740  1.00  0.00     0.329 C 
BRANCH  83  84
ATOM     84  O   UNL A   1      30.604  27.464  22.908  1.00  0.00    -0.484 OA
BRANCH  84  85
ATOM     85  C   UNL A   1      29.680  28.449  22.688  1.00  0.00     0.120 A 
ATOM     86  C   UNL A   1      30.112  29.578  21.998  1.00  0.00     0.046 A 
ATOM     87  C   UNL A   1      28.369  28.391  23.164  1.00  0.00     0.046 A 
ATOM     88  C   UNL A   1      29.217  30.617  21.738  1.00  0.00     0.004 A 
ATOM     89  C   UNL A   1      27.474  29.425  22.903  1.00  0.00     0.004 A 
ATOM     90  C   UNL A   1      27.897  30.536  22.182  1.00  0.00     0.000 A 
ENDBRANCH  84  85
ENDBRANCH  83  84
ENDBRANCH  81  83
ENDBRANCH  73  81
ENDBRANCH  69  71
ENDBRANCH  68  69
ENDBRANCH   1  68
TORSDOF 18
ENDMDL
