MODEL 1
REMARK VINA RESULT:      -9.0      0.000      0.000
REMARK SMILES C/C=C/C=C/C(=O)N[C@@H](C)CC(=O)OCCOC(=O)c1ccc(-c2c3nc(c(-c4ccc(S(=O)(=O)[O-])cc4)c4ccc([nH]4)c(-c4ccc(S(=O)(=O)[O-])cc4)c4nc(c(-c5ccc(S(=O)(=O)[O-])cc5)c5ccc2[nH]5)C=C4)C=C3)cc1
REMARK SMILES IDX 15 1 14 2 12 3 13 4 11 5 9 6 10 7 8 8 6 9 7 10 5 12 4 13
REMARK SMILES IDX 3 14 1 15 2 16 16 17 17 18 18 19 19 20 20 21 21 22 79 23
REMARK SMILES IDX 22 24 78 25 23 26 24 27 25 28 72 29 26 30 77 31 71 32 73 33
REMARK SMILES IDX 27 34 76 35 70 36 69 37 28 39 58 40 39 41 57 42 40 43 43 44
REMARK SMILES IDX 56 45 74 46 41 47 42 48 55 50 75 51 44 52 29 53 30 54 38 55
REMARK SMILES IDX 31 56 37 57 32 58 33 59 34 60 35 61 36 62 59 63 60 64 68 65
REMARK SMILES IDX 61 66 67 67 62 68 63 69 64 70 65 71 66 72 45 73 46 74 54 75
REMARK SMILES IDX 47 76 53 77 48 78 49 79 50 80 51 81 52 82
REMARK H PARENT 8 11 73 38 43 49
REMARK Flexibility Score: inf
ROOT
ATOM      1  C   UNL A   1      41.853  19.510  26.369  1.00  0.00     0.274 C 
ENDROOT
BRANCH   1   2
ATOM      2  O   UNL A   1      42.435  18.926  25.185  1.00  0.00    -0.462 OA
BRANCH   2   3
ATOM      3  C   UNL A   1      43.769  18.675  25.232  1.00  0.00     0.307 C 
ATOM      4  O   UNL A   1      44.333  18.069  26.134  1.00  0.00    -0.252 OA
BRANCH   3   5
ATOM      5  C   UNL A   1      44.521  19.313  24.089  1.00  0.00     0.147 C 
BRANCH   5   6
ATOM      6  C   UNL A   1      45.353  20.540  24.480  1.00  0.00     0.090 C 
ATOM      7  C   UNL A   1      46.823  20.141  24.638  1.00  0.00     0.031 C 
BRANCH   6   8
ATOM      8  N   UNL A   1      44.897  21.112  25.749  1.00  0.00    -0.350 N 
ATOM      9  C   UNL A   1      44.877  22.390  26.213  1.00  0.00     0.244 C 
ATOM     10  O   UNL A   1      44.362  22.614  27.309  1.00  0.00    -0.270 OA
ATOM     11  H   UNL A   1      44.539  20.450  26.384  1.00  0.00     0.164 HD
BRANCH   9  12
ATOM     12  C   UNL A   1      45.361  23.530  25.405  1.00  0.00     0.071 C 
ATOM     13  C   UNL A   1      46.548  24.143  25.513  1.00  0.00     0.005 C 
BRANCH  13  14
ATOM     14  C   UNL A   1      46.944  25.200  24.605  1.00  0.00    -0.004 C 
ATOM     15  C   UNL A   1      48.652  26.520  23.343  1.00  0.00     0.035 C 
ATOM     16  C   UNL A   1      48.226  25.495  24.345  1.00  0.00    -0.030 C 
ENDBRANCH  13  14
ENDBRANCH   9  12
ENDBRANCH   6   8
ENDBRANCH   5   6
ENDBRANCH   3   5
ENDBRANCH   2   3
ENDBRANCH   1   2
BRANCH   1  17
ATOM     17  C   UNL A   1      41.266  20.906  26.128  1.00  0.00     0.275 C 
BRANCH  17  18
ATOM     18  O   UNL A   1      40.089  21.156  26.921  1.00  0.00    -0.458 OA
BRANCH  18  19
ATOM     19  C   UNL A   1      39.402  22.253  26.539  1.00  0.00     0.338 C 
ATOM     20  O   UNL A   1      38.387  22.262  25.864  1.00  0.00    -0.246 OA
BRANCH  19  21
ATOM     21  C   UNL A   1      39.959  23.485  27.103  1.00  0.00     0.060 A 
ATOM     22  C   UNL A   1      39.674  24.695  26.458  1.00  0.00     0.016 A 
ATOM     23  C   UNL A   1      40.865  23.434  28.162  1.00  0.00     0.016 A 
ATOM     24  C   UNL A   1      40.298  25.866  26.876  1.00  0.00     0.010 A 
ATOM     25  C   UNL A   1      41.487  24.613  28.581  1.00  0.00     0.010 A 
ATOM     26  C   UNL A   1      41.213  25.832  27.937  1.00  0.00    -0.014 A 
BRANCH  26  27
ATOM     27  C   UNL A   1      41.888  27.072  28.381  1.00  0.00     0.031 A 
ATOM     28  C   UNL A   1      41.080  28.242  28.861  1.00  0.00     0.074 A 
ATOM     29  C   UNL A   1      43.230  27.146  28.327  1.00  0.00     0.049 A 
ATOM     30  N   UNL A   1      41.483  29.444  29.182  1.00  0.00    -0.248 NA
ATOM     31  C   UNL A   1      39.630  28.034  28.996  1.00  0.00     0.031 C 
ATOM     32  C   UNL A   1      44.119  26.059  27.915  1.00  0.00     0.029 A 
ATOM     33  N   UNL A   1      44.078  28.187  28.608  1.00  0.00    -0.354 N 
ATOM     34  C   UNL A   1      40.338  30.144  29.540  1.00  0.00     0.074 A 
ATOM     35  C   UNL A   1      39.222  29.234  29.389  1.00  0.00     0.031 C 
ATOM     36  C   UNL A   1      45.390  26.493  27.961  1.00  0.00     0.029 A 
ATOM     37  C   UNL A   1      45.398  27.897  28.362  1.00  0.00     0.049 A 
ATOM     38  H   UNL A   1      43.771  29.056  28.952  1.00  0.00     0.167 HD
ATOM     39  C   UNL A   1      40.229  31.431  29.952  1.00  0.00     0.031 A 
ATOM     40  C   UNL A   1      46.490  28.683  28.421  1.00  0.00     0.031 A 
ATOM     41  C   UNL A   1      41.342  32.334  30.087  1.00  0.00     0.049 A 
ATOM     42  C   UNL A   1      46.337  30.121  28.826  1.00  0.00     0.074 A 
ATOM     43  C   UNL A   1      41.335  33.656  30.495  1.00  0.00     0.029 A 
ATOM     44  N   UNL A   1      42.662  32.007  29.815  1.00  0.00    -0.354 N 
ATOM     45  N   UNL A   1      45.246  30.772  29.154  1.00  0.00    -0.248 NA
ATOM     46  C   UNL A   1      47.561  30.932  28.867  1.00  0.00     0.031 C 
ATOM     47  C   UNL A   1      42.647  34.140  30.435  1.00  0.00     0.029 A 
ATOM     48  C   UNL A   1      43.477  33.106  30.031  1.00  0.00     0.049 A 
ATOM     49  H   UNL A   1      42.975  31.124  29.512  1.00  0.00     0.167 HD
ATOM     50  C   UNL A   1      45.655  32.064  29.460  1.00  0.00     0.074 A 
ATOM     51  C   UNL A   1      47.094  32.101  29.286  1.00  0.00     0.031 C 
ATOM     52  C   UNL A   1      44.906  33.123  29.853  1.00  0.00     0.031 A 
BRANCH  39  53
ATOM     53  C   UNL A   1      38.847  31.949  30.245  1.00  0.00    -0.014 A 
ATOM     54  C   UNL A   1      38.069  32.549  29.240  1.00  0.00     0.010 A 
ATOM     55  C   UNL A   1      38.312  31.808  31.537  1.00  0.00     0.010 A 
ATOM     56  C   UNL A   1      36.792  33.037  29.534  1.00  0.00     0.020 A 
ATOM     57  C   UNL A   1      37.028  32.277  31.830  1.00  0.00     0.020 A 
ATOM     58  C   UNL A   1      36.283  32.906  30.830  1.00  0.00     0.054 A 
BRANCH  58  59
ATOM     59  S   UNL A   1      34.624  33.546  31.190  1.00  0.00     0.124 S 
ATOM     60  O   UNL A   1      34.924  34.865  31.741  1.00  0.00    -0.237 OA
ATOM     61  O   UNL A   1      33.985  33.547  29.875  1.00  0.00    -0.237 OA
ATOM     62  O   UNL A   1      34.080  32.580  32.142  1.00  0.00    -0.744 OA
ENDBRANCH  58  59
ENDBRANCH  39  53
BRANCH  40  63
ATOM     63  C   UNL A   1      47.818  28.122  28.061  1.00  0.00    -0.014 A 
ATOM     64  C   UNL A   1      48.474  27.231  28.926  1.00  0.00     0.010 A 
ATOM     65  C   UNL A   1      48.414  28.451  26.829  1.00  0.00     0.010 A 
ATOM     66  C   UNL A   1      49.709  26.682  28.569  1.00  0.00     0.020 A 
ATOM     67  C   UNL A   1      49.638  27.886  26.460  1.00  0.00     0.020 A 
ATOM     68  C   UNL A   1      50.281  27.012  27.336  1.00  0.00     0.054 A 
BRANCH  68  69
ATOM     69  S   UNL A   1      51.849  26.233  26.859  1.00  0.00     0.124 S 
ATOM     70  O   UNL A   1      52.689  26.503  28.022  1.00  0.00    -0.237 OA
ATOM     71  O   UNL A   1      51.468  24.837  26.665  1.00  0.00    -0.237 OA
ATOM     72  O   UNL A   1      52.223  26.942  25.637  1.00  0.00    -0.744 OA
ENDBRANCH  68  69
ENDBRANCH  40  63
BRANCH  52  73
ATOM     73  C   UNL A   1      45.633  34.404  30.155  1.00  0.00    -0.014 A 
ATOM     74  C   UNL A   1      45.895  35.346  29.144  1.00  0.00     0.010 A 
ATOM     75  C   UNL A   1      46.013  34.690  31.479  1.00  0.00     0.010 A 
ATOM     76  C   UNL A   1      46.545  36.544  29.450  1.00  0.00     0.020 A 
ATOM     77  C   UNL A   1      46.645  35.895  31.791  1.00  0.00     0.020 A 
ATOM     78  C   UNL A   1      46.919  36.810  30.772  1.00  0.00     0.054 A 
BRANCH  78  79
ATOM     79  S   UNL A   1      47.719  38.392  31.156  1.00  0.00     0.124 S 
ATOM     80  O   UNL A   1      46.964  38.839  32.323  1.00  0.00    -0.237 OA
ATOM     81  O   UNL A   1      49.103  38.002  31.415  1.00  0.00    -0.237 OA
ATOM     82  O   UNL A   1      47.519  39.182  29.944  1.00  0.00    -0.744 OA
ENDBRANCH  78  79
ENDBRANCH  52  73
ENDBRANCH  26  27
ENDBRANCH  19  21
ENDBRANCH  18  19
ENDBRANCH  17  18
ENDBRANCH   1  17
TORSDOF 18
ENDMDL
MODEL 2
REMARK VINA RESULT:      -8.7      5.258      7.396
REMARK SMILES C/C=C/C=C/C(=O)N[C@@H](C)CC(=O)OCCOC(=O)c1ccc(-c2c3nc(c(-c4ccc(S(=O)(=O)[O-])cc4)c4ccc([nH]4)c(-c4ccc(S(=O)(=O)[O-])cc4)c4nc(c(-c5ccc(S(=O)(=O)[O-])cc5)c5ccc2[nH]5)C=C4)C=C3)cc1
REMARK SMILES IDX 15 1 14 2 12 3 13 4 11 5 9 6 10 7 8 8 6 9 7 10 5 12 4 13
REMARK SMILES IDX 3 14 1 15 2 16 16 17 17 18 18 19 19 20 20 21 21 22 79 23
REMARK SMILES IDX 22 24 78 25 23 26 24 27 25 28 72 29 26 30 77 31 71 32 73 33
REMARK SMILES IDX 27 34 76 35 70 36 69 37 28 39 58 40 39 41 57 42 40 43 43 44
REMARK SMILES IDX 56 45 74 46 41 47 42 48 55 50 75 51 44 52 29 53 30 54 38 55
REMARK SMILES IDX 31 56 37 57 32 58 33 59 34 60 35 61 36 62 59 63 60 64 68 65
REMARK SMILES IDX 61 66 67 67 62 68 63 69 64 70 65 71 66 72 45 73 46 74 54 75
REMARK SMILES IDX 47 76 53 77 48 78 49 79 50 80 51 81 52 82
REMARK H PARENT 8 11 73 38 43 49
REMARK Flexibility Score: inf
ROOT
ATOM      1  C   UNL A   1      44.307  23.041  25.175  1.00  0.00     0.274 C 
ENDROOT
BRANCH   1   2
ATOM      2  O   UNL A   1      43.027  22.430  24.911  1.00  0.00    -0.462 OA
BRANCH   2   3
ATOM      3  C   UNL A   1      42.640  21.453  25.771  1.00  0.00     0.307 C 
ATOM      4  O   UNL A   1      42.599  20.259  25.499  1.00  0.00    -0.252 OA
BRANCH   3   5
ATOM      5  C   UNL A   1      42.159  21.999  27.094  1.00  0.00     0.147 C 
BRANCH   5   6
ATOM      6  C   UNL A   1      40.866  22.818  27.013  1.00  0.00     0.090 C 
ATOM      7  C   UNL A   1      39.734  21.947  26.460  1.00  0.00     0.031 C 
BRANCH   6   8
ATOM      8  N   UNL A   1      41.022  23.976  26.130  1.00  0.00    -0.350 N 
ATOM      9  C   UNL A   1      40.646  25.276  26.264  1.00  0.00     0.244 C 
ATOM     10  O   UNL A   1      40.971  26.080  25.389  1.00  0.00    -0.270 OA
ATOM     11  H   UNL A   1      41.484  23.778  25.283  1.00  0.00     0.164 HD
BRANCH   9  12
ATOM     12  C   UNL A   1      39.951  25.776  27.468  1.00  0.00     0.071 C 
ATOM     13  C   UNL A   1      39.619  27.048  27.733  1.00  0.00     0.005 C 
BRANCH  13  14
ATOM     14  C   UNL A   1      38.861  27.406  28.914  1.00  0.00    -0.004 C 
ATOM     15  C   UNL A   1      38.494  27.455  31.388  1.00  0.00     0.035 C 
ATOM     16  C   UNL A   1      39.211  27.020  30.150  1.00  0.00    -0.030 C 
ENDBRANCH  13  14
ENDBRANCH   9  12
ENDBRANCH   6   8
ENDBRANCH   5   6
ENDBRANCH   3   5
ENDBRANCH   2   3
ENDBRANCH   1   2
BRANCH   1  17
ATOM     17  C   UNL A   1      44.288  24.568  25.034  1.00  0.00     0.275 C 
BRANCH  17  18
ATOM     18  O   UNL A   1      44.043  25.236  26.287  1.00  0.00    -0.458 OA
BRANCH  18  19
ATOM     19  C   UNL A   1      44.433  26.528  26.297  1.00  0.00     0.338 C 
ATOM     20  O   UNL A   1      45.137  27.068  25.460  1.00  0.00    -0.246 OA
BRANCH  19  21
ATOM     21  C   UNL A   1      43.842  27.283  27.404  1.00  0.00     0.060 A 
ATOM     22  C   UNL A   1      43.989  28.674  27.409  1.00  0.00     0.016 A 
ATOM     23  C   UNL A   1      43.279  26.618  28.494  1.00  0.00     0.016 A 
ATOM     24  C   UNL A   1      43.568  29.412  28.511  1.00  0.00     0.010 A 
ATOM     25  C   UNL A   1      42.855  27.363  29.598  1.00  0.00     0.010 A 
ATOM     26  C   UNL A   1      43.004  28.760  29.615  1.00  0.00    -0.014 A 
BRANCH  26  27
ATOM     27  C   UNL A   1      42.562  29.537  30.796  1.00  0.00     0.031 A 
ATOM     28  C   UNL A   1      41.274  30.306  30.755  1.00  0.00     0.074 A 
ATOM     29  C   UNL A   1      43.339  29.565  31.893  1.00  0.00     0.049 A 
ATOM     30  N   UNL A   1      40.780  31.129  31.643  1.00  0.00    -0.248 NA
ATOM     31  C   UNL A   1      40.434  30.127  29.562  1.00  0.00     0.031 C 
ATOM     32  C   UNL A   1      44.592  28.825  32.059  1.00  0.00     0.029 A 
ATOM     33  N   UNL A   1      43.195  30.252  33.071  1.00  0.00    -0.354 N 
ATOM     34  C   UNL A   1      39.579  31.583  31.111  1.00  0.00     0.074 A 
ATOM     35  C   UNL A   1      39.424  30.949  29.818  1.00  0.00     0.031 C 
ATOM     36  C   UNL A   1      45.108  29.106  33.267  1.00  0.00     0.029 A 
ATOM     37  C   UNL A   1      44.246  30.076  33.937  1.00  0.00     0.049 A 
ATOM     38  H   UNL A   1      42.415  30.816  33.275  1.00  0.00     0.167 HD
ATOM     39  C   UNL A   1      38.692  32.454  31.651  1.00  0.00     0.031 A 
ATOM     40  C   UNL A   1      44.505  30.656  35.125  1.00  0.00     0.031 A 
ATOM     41  C   UNL A   1      38.860  33.091  32.931  1.00  0.00     0.049 A 
ATOM     42  C   UNL A   1      43.534  31.661  35.677  1.00  0.00     0.074 A 
ATOM     43  C   UNL A   1      38.019  33.988  33.565  1.00  0.00     0.029 A 
ATOM     44  N   UNL A   1      39.945  32.897  33.774  1.00  0.00    -0.354 N 
ATOM     45  N   UNL A   1      42.407  32.086  35.158  1.00  0.00    -0.248 NA
ATOM     46  C   UNL A   1      43.871  32.265  36.974  1.00  0.00     0.031 C 
ATOM     47  C   UNL A   1      38.614  34.366  34.775  1.00  0.00     0.029 A 
ATOM     48  C   UNL A   1      39.803  33.670  34.914  1.00  0.00     0.049 A 
ATOM     49  H   UNL A   1      40.705  32.300  33.588  1.00  0.00     0.167 HD
ATOM     50  C   UNL A   1      41.889  32.993  36.075  1.00  0.00     0.074 A 
ATOM     51  C   UNL A   1      42.822  33.048  37.184  1.00  0.00     0.031 C 
ATOM     52  C   UNL A   1      40.742  33.712  36.006  1.00  0.00     0.031 A 
BRANCH  39  53
ATOM     53  C   UNL A   1      37.478  32.800  30.833  1.00  0.00    -0.014 A 
ATOM     54  C   UNL A   1      36.249  32.151  31.047  1.00  0.00     0.010 A 
ATOM     55  C   UNL A   1      37.562  33.806  29.855  1.00  0.00     0.010 A 
ATOM     56  C   UNL A   1      35.134  32.475  30.268  1.00  0.00     0.020 A 
ATOM     57  C   UNL A   1      36.445  34.147  29.088  1.00  0.00     0.020 A 
ATOM     58  C   UNL A   1      35.242  33.466  29.286  1.00  0.00     0.054 A 
BRANCH  58  59
ATOM     59  S   UNL A   1      33.784  33.871  28.287  1.00  0.00     0.124 S 
ATOM     60  O   UNL A   1      34.346  34.780  27.291  1.00  0.00    -0.237 OA
ATOM     61  O   UNL A   1      33.365  32.566  27.780  1.00  0.00    -0.237 OA
ATOM     62  O   UNL A   1      32.868  34.486  29.245  1.00  0.00    -0.744 OA
ENDBRANCH  58  59
ENDBRANCH  39  53
BRANCH  40  63
ATOM     63  C   UNL A   1      45.754  30.312  35.853  1.00  0.00    -0.014 A 
ATOM     64  C   UNL A   1      46.925  31.061  35.654  1.00  0.00     0.010 A 
ATOM     65  C   UNL A   1      45.763  29.252  36.779  1.00  0.00     0.010 A 
ATOM     66  C   UNL A   1      48.089  30.753  36.365  1.00  0.00     0.020 A 
ATOM     67  C   UNL A   1      46.919  28.956  37.507  1.00  0.00     0.020 A 
ATOM     68  C   UNL A   1      48.076  29.703  37.290  1.00  0.00     0.054 A 
BRANCH  68  69
ATOM     69  S   UNL A   1      49.575  29.365  38.255  1.00  0.00     0.124 S 
ATOM     70  O   UNL A   1      50.489  28.867  37.232  1.00  0.00    -0.237 OA
ATOM     71  O   UNL A   1      49.901  30.676  38.811  1.00  0.00    -0.237 OA
ATOM     72  O   UNL A   1      49.131  28.376  39.235  1.00  0.00    -0.744 OA
ENDBRANCH  68  69
ENDBRANCH  40  63
BRANCH  52  73
ATOM     73  C   UNL A   1      40.414  34.597  37.176  1.00  0.00    -0.014 A 
ATOM     74  C   UNL A   1      41.048  35.840  37.347  1.00  0.00     0.010 A 
ATOM     75  C   UNL A   1      39.420  34.199  38.089  1.00  0.00     0.010 A 
ATOM     76  C   UNL A   1      40.708  36.662  38.424  1.00  0.00     0.020 A 
ATOM     77  C   UNL A   1      39.065  35.027  39.156  1.00  0.00     0.020 A 
ATOM     78  C   UNL A   1      39.720  36.248  39.324  1.00  0.00     0.054 A 
BRANCH  78  79
ATOM     79  S   UNL A   1      39.259  37.350  40.689  1.00  0.00     0.124 S 
ATOM     80  O   UNL A   1      38.658  36.421  41.640  1.00  0.00    -0.237 OA
ATOM     81  O   UNL A   1      40.542  37.921  41.093  1.00  0.00    -0.237 OA
ATOM     82  O   UNL A   1      38.333  38.296  40.071  1.00  0.00    -0.744 OA
ENDBRANCH  78  79
ENDBRANCH  52  73
ENDBRANCH  26  27
ENDBRANCH  19  21
ENDBRANCH  18  19
ENDBRANCH  17  18
ENDBRANCH   1  17
TORSDOF 18
ENDMDL
MODEL 3
REMARK VINA RESULT:      -8.5      1.530      8.744
REMARK SMILES C/C=C/C=C/C(=O)N[C@@H](C)CC(=O)OCCOC(=O)c1ccc(-c2c3nc(c(-c4ccc(S(=O)(=O)[O-])cc4)c4ccc([nH]4)c(-c4ccc(S(=O)(=O)[O-])cc4)c4nc(c(-c5ccc(S(=O)(=O)[O-])cc5)c5ccc2[nH]5)C=C4)C=C3)cc1
REMARK SMILES IDX 15 1 14 2 12 3 13 4 11 5 9 6 10 7 8 8 6 9 7 10 5 12 4 13
REMARK SMILES IDX 3 14 1 15 2 16 16 17 17 18 18 19 19 20 20 21 21 22 79 23
REMARK SMILES IDX 22 24 78 25 23 26 24 27 25 28 72 29 26 30 77 31 71 32 73 33
REMARK SMILES IDX 27 34 76 35 70 36 69 37 28 39 58 40 39 41 57 42 40 43 43 44
REMARK SMILES IDX 56 45 74 46 41 47 42 48 55 50 75 51 44 52 29 53 30 54 38 55
REMARK SMILES IDX 31 56 37 57 32 58 33 59 34 60 35 61 36 62 59 63 60 64 68 65
REMARK SMILES IDX 61 66 67 67 62 68 63 69 64 70 65 71 66 72 45 73 46 74 54 75
REMARK SMILES IDX 47 76 53 77 48 78 49 79 50 80 51 81 52 82
REMARK H PARENT 8 11 73 38 43 49
REMARK Flexibility Score: inf
ROOT
ATOM      1  C   UNL A   1      41.847  21.480  27.713  1.00  0.00     0.274 C 
ENDROOT
BRANCH   1   2
ATOM      2  O   UNL A   1      42.843  21.870  26.745  1.00  0.00    -0.462 OA
BRANCH   2   3
ATOM      3  C   UNL A   1      43.209  23.178  26.754  1.00  0.00     0.307 C 
ATOM      4  O   UNL A   1      43.361  23.853  27.765  1.00  0.00    -0.252 OA
BRANCH   3   5
ATOM      5  C   UNL A   1      43.321  23.760  25.366  1.00  0.00     0.147 C 
BRANCH   5   6
ATOM      6  C   UNL A   1      44.751  23.839  24.821  1.00  0.00     0.090 C 
ATOM      7  C   UNL A   1      45.020  22.647  23.896  1.00  0.00     0.031 C 
BRANCH   6   8
ATOM      8  N   UNL A   1      45.738  23.808  25.903  1.00  0.00    -0.350 N 
ATOM      9  C   UNL A   1      46.954  24.399  26.038  1.00  0.00     0.244 C 
ATOM     10  O   UNL A   1      47.562  24.268  27.101  1.00  0.00    -0.270 OA
ATOM     11  H   UNL A   1      45.472  23.257  26.674  1.00  0.00     0.164 HD
BRANCH   9  12
ATOM     12  C   UNL A   1      47.527  25.274  24.993  1.00  0.00     0.071 C 
ATOM     13  C   UNL A   1      47.216  26.558  24.763  1.00  0.00     0.005 C 
BRANCH  13  14
ATOM     14  C   UNL A   1      47.908  27.340  23.759  1.00  0.00    -0.004 C 
ATOM     15  C   UNL A   1      49.532  27.597  21.874  1.00  0.00     0.035 C 
ATOM     16  C   UNL A   1      48.871  26.832  22.976  1.00  0.00    -0.030 C 
ENDBRANCH  13  14
ENDBRANCH   9  12
ENDBRANCH   6   8
ENDBRANCH   5   6
ENDBRANCH   3   5
ENDBRANCH   2   3
ENDBRANCH   1   2
BRANCH   1  17
ATOM     17  C   UNL A   1      40.474  21.202  27.088  1.00  0.00     0.275 C 
BRANCH  17  18
ATOM     18  O   UNL A   1      40.167  22.100  26.004  1.00  0.00    -0.458 OA
BRANCH  18  19
ATOM     19  C   UNL A   1      39.139  22.934  26.267  1.00  0.00     0.338 C 
ATOM     20  O   UNL A   1      37.955  22.654  26.192  1.00  0.00    -0.246 OA
BRANCH  19  21
ATOM     21  C   UNL A   1      39.589  24.240  26.754  1.00  0.00     0.060 A 
ATOM     22  C   UNL A   1      40.119  25.145  25.826  1.00  0.00     0.016 A 
ATOM     23  C   UNL A   1      39.625  24.513  28.121  1.00  0.00     0.016 A 
ATOM     24  C   UNL A   1      40.687  26.336  26.266  1.00  0.00     0.010 A 
ATOM     25  C   UNL A   1      40.194  25.712  28.560  1.00  0.00     0.010 A 
ATOM     26  C   UNL A   1      40.734  26.624  27.637  1.00  0.00    -0.014 A 
BRANCH  26  27
ATOM     27  C   UNL A   1      41.346  27.885  28.114  1.00  0.00     0.031 A 
ATOM     28  C   UNL A   1      42.835  28.066  28.073  1.00  0.00     0.074 A 
ATOM     29  C   UNL A   1      40.555  28.854  28.607  1.00  0.00     0.049 A 
ATOM     30  N   UNL A   1      43.558  29.047  28.546  1.00  0.00    -0.248 NA
ATOM     31  C   UNL A   1      43.612  27.005  27.413  1.00  0.00     0.031 C 
ATOM     32  C   UNL A   1      39.093  28.804  28.661  1.00  0.00     0.029 A 
ATOM     33  N   UNL A   1      40.871  30.065  29.168  1.00  0.00    -0.354 N 
ATOM     34  C   UNL A   1      44.877  28.718  28.261  1.00  0.00     0.074 A 
ATOM     35  C   UNL A   1      44.855  27.440  27.579  1.00  0.00     0.031 C 
ATOM     36  C   UNL A   1      38.638  29.931  29.234  1.00  0.00     0.029 A 
ATOM     37  C   UNL A   1      39.776  30.757  29.624  1.00  0.00     0.049 A 
ATOM     38  H   UNL A   1      41.793  30.404  29.237  1.00  0.00     0.167 HD
ATOM     39  C   UNL A   1      46.003  29.416  28.548  1.00  0.00     0.031 A 
ATOM     40  C   UNL A   1      39.699  31.914  30.311  1.00  0.00     0.031 A 
ATOM     41  C   UNL A   1      46.018  30.679  29.238  1.00  0.00     0.049 A 
ATOM     42  C   UNL A   1      40.964  32.642  30.666  1.00  0.00     0.074 A 
ATOM     43  C   UNL A   1      47.106  31.464  29.577  1.00  0.00     0.029 A 
ATOM     44  N   UNL A   1      44.890  31.342  29.696  1.00  0.00    -0.354 N 
ATOM     45  N   UNL A   1      42.205  32.313  30.396  1.00  0.00    -0.248 NA
ATOM     46  C   UNL A   1      40.819  33.895  31.420  1.00  0.00     0.031 C 
ATOM     47  C   UNL A   1      46.638  32.584  30.273  1.00  0.00     0.029 A 
ATOM     48  C   UNL A   1      45.255  32.518  30.329  1.00  0.00     0.049 A 
ATOM     49  H   UNL A   1      43.965  31.023  29.589  1.00  0.00     0.167 HD
ATOM     50  C   UNL A   1      42.989  33.329  30.930  1.00  0.00     0.074 A 
ATOM     51  C   UNL A   1      42.081  34.288  31.530  1.00  0.00     0.031 C 
ATOM     52  C   UNL A   1      44.338  33.459  30.920  1.00  0.00     0.031 A 
BRANCH  39  53
ATOM     53  C   UNL A   1      47.318  28.801  28.150  1.00  0.00    -0.014 A 
ATOM     54  C   UNL A   1      48.059  29.310  27.069  1.00  0.00     0.010 A 
ATOM     55  C   UNL A   1      47.829  27.717  28.884  1.00  0.00     0.010 A 
ATOM     56  C   UNL A   1      49.272  28.718  26.705  1.00  0.00     0.020 A 
ATOM     57  C   UNL A   1      49.051  27.135  28.535  1.00  0.00     0.020 A 
ATOM     58  C   UNL A   1      49.756  27.627  27.435  1.00  0.00     0.054 A 
BRANCH  58  59
ATOM     59  S   UNL A   1      51.331  26.874  26.945  1.00  0.00     0.124 S 
ATOM     60  O   UNL A   1      50.928  26.043  25.813  1.00  0.00    -0.237 OA
ATOM     61  O   UNL A   1      52.155  28.034  26.609  1.00  0.00    -0.237 OA
ATOM     62  O   UNL A   1      51.751  26.142  28.138  1.00  0.00    -0.744 OA
ENDBRANCH  58  59
ENDBRANCH  39  53
BRANCH  40  63
ATOM     63  C   UNL A   1      38.370  32.434  30.724  1.00  0.00    -0.014 A 
ATOM     64  C   UNL A   1      37.850  32.134  31.993  1.00  0.00     0.010 A 
ATOM     65  C   UNL A   1      37.636  33.266  29.858  1.00  0.00     0.010 A 
ATOM     66  C   UNL A   1      36.613  32.653  32.390  1.00  0.00     0.020 A 
ATOM     67  C   UNL A   1      36.410  33.803  30.260  1.00  0.00     0.020 A 
ATOM     68  C   UNL A   1      35.903  33.486  31.520  1.00  0.00     0.054 A 
BRANCH  68  69
ATOM     69  S   UNL A   1      34.334  34.207  32.080  1.00  0.00     0.124 S 
ATOM     70  O   UNL A   1      33.637  34.433  30.817  1.00  0.00    -0.237 OA
ATOM     71  O   UNL A   1      33.782  33.155  32.928  1.00  0.00    -0.237 OA
ATOM     72  O   UNL A   1      34.750  35.414  32.791  1.00  0.00    -0.744 OA
ENDBRANCH  68  69
ENDBRANCH  40  63
BRANCH  52  73
ATOM     73  C   UNL A   1      44.914  34.697  31.548  1.00  0.00    -0.014 A 
ATOM     74  C   UNL A   1      45.274  34.721  32.908  1.00  0.00     0.010 A 
ATOM     75  C   UNL A   1      45.146  35.834  30.754  1.00  0.00     0.010 A 
ATOM     76  C   UNL A   1      45.836  35.871  33.467  1.00  0.00     0.020 A 
ATOM     77  C   UNL A   1      45.725  36.979  31.306  1.00  0.00     0.020 A 
ATOM     78  C   UNL A   1      46.056  36.994  32.662  1.00  0.00     0.054 A 
BRANCH  78  79
ATOM     79  S   UNL A   1      46.830  38.461  33.396  1.00  0.00     0.124 S 
ATOM     80  O   UNL A   1      48.155  38.444  32.783  1.00  0.00    -0.237 OA
ATOM     81  O   UNL A   1      45.951  39.545  32.963  1.00  0.00    -0.237 OA
ATOM     82  O   UNL A   1      46.804  38.184  34.830  1.00  0.00    -0.744 OA
ENDBRANCH  78  79
ENDBRANCH  52  73
ENDBRANCH  26  27
ENDBRANCH  19  21
ENDBRANCH  18  19
ENDBRANCH  17  18
ENDBRANCH   1  17
TORSDOF 18
ENDMDL
