MODEL 1
REMARK VINA RESULT:     -11.4      0.000      0.000
REMARK SMILES O=C(CSc1nnc(-c2ccncc2)s1)Nc1cccc(C(=O)OCCOC(=O)c2ccc(-c3c4nc(c(-c5ccc(S(=O)(=O)[O-])cc5)c5ccc([nH]5)c(-c5ccc(S(=O)(=O)[O-])cc5)c5nc(c(-c6ccc(S(=O)(=O)[O-])cc6)c6ccc3[nH]6)C=C5)C=C4)cc2)c1
REMARK SMILES IDX 25 1 24 2 22 3 23 4 21 5 17 6 18 7 90 8 19 9 20 10 16 11
REMARK SMILES IDX 1 12 2 13 3 15 4 16 5 17 6 18 15 19 7 20 8 21 9 22 10 23
REMARK SMILES IDX 14 24 11 25 13 26 12 27 26 28 27 29 28 30 29 31 30 32 31 33
REMARK SMILES IDX 89 34 32 35 88 36 33 37 34 38 35 39 82 40 36 41 87 42 81 43
REMARK SMILES IDX 83 44 37 45 86 46 80 47 79 48 38 50 68 51 49 52 67 53 50 54
REMARK SMILES IDX 53 55 66 56 84 57 51 58 52 59 65 61 85 62 54 63 39 64 40 65
REMARK SMILES IDX 48 66 41 67 47 68 42 69 43 70 44 71 45 72 46 73 69 74 70 75
REMARK SMILES IDX 78 76 71 77 77 78 72 79 73 80 74 81 75 82 76 83 55 84 56 85
REMARK SMILES IDX 64 86 57 87 63 88 58 89 59 90 60 91 61 92 62 93
REMARK H PARENT 16 14 83 49 53 60
REMARK Flexibility Score: inf
ROOT
ATOM      1  C   UNL A   1      38.401  22.243  25.772  1.00  0.00     0.275 C 
ENDROOT
BRANCH   1   2
ATOM      2  O   UNL A   1      37.068  21.746  26.005  1.00  0.00    -0.458 OA
BRANCH   2   3
ATOM      3  C   UNL A   1      36.644  20.754  25.179  1.00  0.00     0.338 C 
ATOM      4  O   UNL A   1      37.265  19.755  24.873  1.00  0.00    -0.246 OA
BRANCH   3   5
ATOM      5  C   UNL A   1      35.232  20.989  24.775  1.00  0.00     0.062 A 
ATOM      6  C   UNL A   1      33.421  22.442  24.099  1.00  0.00     0.042 A 
ATOM      7  C   UNL A   1      32.529  21.367  24.206  1.00  0.00     0.026 A 
ATOM      8  C   UNL A   1      34.763  22.263  24.439  1.00  0.00     0.041 A 
ATOM      9  C   UNL A   1      33.001  20.089  24.503  1.00  0.00     0.003 A 
ATOM     10  C   UNL A   1      34.360  19.895  24.735  1.00  0.00     0.016 A 
BRANCH   6  11
ATOM     11  N   UNL A   1      32.903  23.652  23.597  1.00  0.00    -0.325 N 
ATOM     12  O   UNL A   1      33.429  23.445  21.339  1.00  0.00    -0.274 OA
ATOM     13  C   UNL A   1      32.902  24.047  22.272  1.00  0.00     0.234 C 
ATOM     14  H   UNL A   1      32.505  24.273  24.249  1.00  0.00     0.169 HD
BRANCH  13  15
ATOM     15  C   UNL A   1      32.230  25.383  22.009  1.00  0.00     0.177 C 
BRANCH  15  16
ATOM     16  S   UNL A   1      30.834  25.750  23.102  1.00  0.00    -0.084 SA
BRANCH  16  17
ATOM     17  C   UNL A   1      31.423  27.167  23.939  1.00  0.00     0.175 A 
ATOM     18  N   UNL A   1      30.665  28.223  24.109  1.00  0.00    -0.131 NA
ATOM     19  S   UNL A   1      32.949  27.252  24.708  1.00  0.00    -0.086 S 
ATOM     20  N   UNL A   1      31.262  29.160  24.931  1.00  0.00    -0.137 NA
ATOM     21  C   UNL A   1      32.461  28.785  25.333  1.00  0.00     0.148 A 
BRANCH  21  22
ATOM     22  C   UNL A   1      33.288  29.500  26.306  1.00  0.00     0.015 A 
ATOM     23  C   UNL A   1      32.912  30.738  26.833  1.00  0.00     0.031 A 
ATOM     24  C   UNL A   1      34.496  28.935  26.725  1.00  0.00     0.031 A 
ATOM     25  C   UNL A   1      33.767  31.362  27.728  1.00  0.00     0.111 A 
ATOM     26  C   UNL A   1      35.286  29.640  27.617  1.00  0.00     0.111 A 
ATOM     27  N   UNL A   1      34.952  30.847  28.119  1.00  0.00    -0.265 NA
ENDBRANCH  21  22
ENDBRANCH  16  17
ENDBRANCH  15  16
ENDBRANCH  13  15
ENDBRANCH   6  11
ENDBRANCH   3   5
ENDBRANCH   2   3
ENDBRANCH   1   2
BRANCH   1  28
ATOM     28  C   UNL A   1      38.500  23.739  26.073  1.00  0.00     0.275 C 
BRANCH  28  29
ATOM     29  O   UNL A   1      39.699  24.024  26.818  1.00  0.00    -0.458 OA
BRANCH  29  30
ATOM     30  C   UNL A   1      40.343  25.163  26.475  1.00  0.00     0.338 C 
ATOM     31  O   UNL A   1      40.672  25.525  25.359  1.00  0.00    -0.246 OA
BRANCH  30  32
ATOM     32  C   UNL A   1      40.492  26.013  27.665  1.00  0.00     0.060 A 
ATOM     33  C   UNL A   1      39.531  25.880  28.661  1.00  0.00     0.016 A 
ATOM     34  C   UNL A   1      41.459  27.012  27.753  1.00  0.00     0.016 A 
ATOM     35  C   UNL A   1      39.499  26.757  29.740  1.00  0.00     0.010 A 
ATOM     36  C   UNL A   1      41.452  27.876  28.860  1.00  0.00     0.010 A 
ATOM     37  C   UNL A   1      40.455  27.776  29.850  1.00  0.00    -0.014 A 
BRANCH  37  38
ATOM     38  C   UNL A   1      40.332  28.768  30.957  1.00  0.00     0.031 A 
ATOM     39  C   UNL A   1      41.294  28.728  32.118  1.00  0.00     0.074 A 
ATOM     40  C   UNL A   1      39.416  29.755  30.888  1.00  0.00     0.049 A 
ATOM     41  N   UNL A   1      41.331  29.482  33.188  1.00  0.00    -0.248 NA
ATOM     42  C   UNL A   1      42.352  27.707  32.071  1.00  0.00     0.031 C 
ATOM     43  C   UNL A   1      38.456  29.949  29.799  1.00  0.00     0.029 A 
ATOM     44  N   UNL A   1      39.161  30.802  31.742  1.00  0.00    -0.354 N 
ATOM     45  C   UNL A   1      42.387  29.003  33.958  1.00  0.00     0.074 A 
ATOM     46  C   UNL A   1      42.955  27.884  33.239  1.00  0.00     0.031 C 
ATOM     47  C   UNL A   1      37.751  31.068  30.027  1.00  0.00     0.029 A 
ATOM     48  C   UNL A   1      38.160  31.640  31.307  1.00  0.00     0.049 A 
ATOM     49  H   UNL A   1      39.649  30.940  32.586  1.00  0.00     0.167 HD
ATOM     50  C   UNL A   1      42.847  29.455  35.150  1.00  0.00     0.031 A 
ATOM     51  C   UNL A   1      37.618  32.735  31.876  1.00  0.00     0.031 A 
ATOM     52  C   UNL A   1      42.303  30.586  35.856  1.00  0.00     0.049 A 
ATOM     53  C   UNL A   1      38.128  33.197  33.214  1.00  0.00     0.074 A 
ATOM     54  C   UNL A   1      42.698  31.113  37.075  1.00  0.00     0.029 A 
ATOM     55  N   UNL A   1      41.260  31.379  35.401  1.00  0.00    -0.354 N 
ATOM     56  N   UNL A   1      39.095  32.699  33.946  1.00  0.00    -0.248 NA
ATOM     57  C   UNL A   1      37.468  34.372  33.803  1.00  0.00     0.031 C 
ATOM     58  C   UNL A   1      41.869  32.200  37.374  1.00  0.00     0.029 A 
ATOM     59  C   UNL A   1      40.994  32.384  36.316  1.00  0.00     0.049 A 
ATOM     60  H   UNL A   1      40.779  31.246  34.552  1.00  0.00     0.167 HD
ATOM     61  C   UNL A   1      39.170  33.510  35.074  1.00  0.00     0.074 A 
ATOM     62  C   UNL A   1      38.170  34.544  34.914  1.00  0.00     0.031 C 
ATOM     63  C   UNL A   1      39.990  33.403  36.150  1.00  0.00     0.031 A 
BRANCH  50  64
ATOM     64  C   UNL A   1      43.981  28.696  35.790  1.00  0.00    -0.014 A 
ATOM     65  C   UNL A   1      45.316  29.117  35.649  1.00  0.00     0.010 A 
ATOM     66  C   UNL A   1      43.700  27.564  36.576  1.00  0.00     0.010 A 
ATOM     67  C   UNL A   1      46.351  28.396  36.252  1.00  0.00     0.020 A 
ATOM     68  C   UNL A   1      44.730  26.856  37.202  1.00  0.00     0.020 A 
ATOM     69  C   UNL A   1      46.051  27.268  37.022  1.00  0.00     0.054 A 
BRANCH  69  70
ATOM     70  S   UNL A   1      47.412  26.363  37.811  1.00  0.00     0.124 S 
ATOM     71  O   UNL A   1      47.707  25.335  36.817  1.00  0.00    -0.237 OA
ATOM     72  O   UNL A   1      48.435  27.394  37.970  1.00  0.00    -0.237 OA
ATOM     73  O   UNL A   1      46.827  25.873  39.057  1.00  0.00    -0.744 OA
ENDBRANCH  69  70
ENDBRANCH  50  64
BRANCH  51  74
ATOM     74  C   UNL A   1      36.505  33.459  31.199  1.00  0.00    -0.014 A 
ATOM     75  C   UNL A   1      35.330  33.786  31.897  1.00  0.00     0.010 A 
ATOM     76  C   UNL A   1      36.613  33.810  29.841  1.00  0.00     0.010 A 
ATOM     77  C   UNL A   1      34.274  34.431  31.244  1.00  0.00     0.020 A 
ATOM     78  C   UNL A   1      35.574  34.482  29.193  1.00  0.00     0.020 A 
ATOM     79  C   UNL A   1      34.404  34.775  29.895  1.00  0.00     0.054 A 
BRANCH  79  80
ATOM     80  S   UNL A   1      33.041  35.648  29.074  1.00  0.00     0.124 S 
ATOM     81  O   UNL A   1      33.748  36.703  28.355  1.00  0.00    -0.237 OA
ATOM     82  O   UNL A   1      32.449  34.603  28.243  1.00  0.00    -0.237 OA
ATOM     83  O   UNL A   1      32.206  36.098  30.185  1.00  0.00    -0.744 OA
ENDBRANCH  79  80
ENDBRANCH  51  74
BRANCH  63  84
ATOM     84  C   UNL A   1      39.857  34.459  37.216  1.00  0.00    -0.014 A 
ATOM     85  C   UNL A   1      40.518  35.696  37.104  1.00  0.00     0.010 A 
ATOM     86  C   UNL A   1      39.059  34.207  38.346  1.00  0.00     0.010 A 
ATOM     87  C   UNL A   1      40.428  36.639  38.133  1.00  0.00     0.020 A 
ATOM     88  C   UNL A   1      38.945  35.158  39.363  1.00  0.00     0.020 A 
ATOM     89  C   UNL A   1      39.652  36.359  39.262  1.00  0.00     0.054 A 
BRANCH  89  90
ATOM     90  S   UNL A   1      39.556  37.591  40.589  1.00  0.00     0.124 S 
ATOM     91  O   UNL A   1      38.727  38.628  39.981  1.00  0.00    -0.237 OA
ATOM     92  O   UNL A   1      38.931  36.845  41.679  1.00  0.00    -0.237 OA
ATOM     93  O   UNL A   1      40.951  37.962  40.817  1.00  0.00    -0.744 OA
ENDBRANCH  89  90
ENDBRANCH  63  84
ENDBRANCH  37  38
ENDBRANCH  30  32
ENDBRANCH  29  30
ENDBRANCH  28  29
ENDBRANCH   1  28
TORSDOF 19
ENDMDL
MODEL 2
REMARK VINA RESULT:     -10.8      0.750      8.048
REMARK SMILES O=C(CSc1nnc(-c2ccncc2)s1)Nc1cccc(C(=O)OCCOC(=O)c2ccc(-c3c4nc(c(-c5ccc(S(=O)(=O)[O-])cc5)c5ccc([nH]5)c(-c5ccc(S(=O)(=O)[O-])cc5)c5nc(c(-c6ccc(S(=O)(=O)[O-])cc6)c6ccc3[nH]6)C=C5)C=C4)cc2)c1
REMARK SMILES IDX 25 1 24 2 22 3 23 4 21 5 17 6 18 7 90 8 19 9 20 10 16 11
REMARK SMILES IDX 1 12 2 13 3 15 4 16 5 17 6 18 15 19 7 20 8 21 9 22 10 23
REMARK SMILES IDX 14 24 11 25 13 26 12 27 26 28 27 29 28 30 29 31 30 32 31 33
REMARK SMILES IDX 89 34 32 35 88 36 33 37 34 38 35 39 82 40 36 41 87 42 81 43
REMARK SMILES IDX 83 44 37 45 86 46 80 47 79 48 38 50 68 51 49 52 67 53 50 54
REMARK SMILES IDX 53 55 66 56 84 57 51 58 52 59 65 61 85 62 54 63 39 64 40 65
REMARK SMILES IDX 48 66 41 67 47 68 42 69 43 70 44 71 45 72 46 73 69 74 70 75
REMARK SMILES IDX 78 76 71 77 77 78 72 79 73 80 74 81 75 82 76 83 55 84 56 85
REMARK SMILES IDX 64 86 57 87 63 88 58 89 59 90 60 91 61 92 62 93
REMARK H PARENT 16 14 83 49 53 60
REMARK Flexibility Score: inf
ROOT
ATOM      1  C   UNL A   1      39.580  22.252  26.097  1.00  0.00     0.275 C 
ENDROOT
BRANCH   1   2
ATOM      2  O   UNL A   1      38.167  22.292  25.816  1.00  0.00    -0.458 OA
BRANCH   2   3
ATOM      3  C   UNL A   1      37.657  21.224  25.148  1.00  0.00     0.338 C 
ATOM      4  O   UNL A   1      38.226  20.172  24.927  1.00  0.00    -0.246 OA
BRANCH   3   5
ATOM      5  C   UNL A   1      36.229  21.462  24.810  1.00  0.00     0.062 A 
ATOM      6  C   UNL A   1      34.409  22.903  24.131  1.00  0.00     0.042 A 
ATOM      7  C   UNL A   1      33.504  21.862  24.375  1.00  0.00     0.026 A 
ATOM      8  C   UNL A   1      35.766  22.717  24.403  1.00  0.00     0.041 A 
ATOM      9  C   UNL A   1      33.967  20.600  24.744  1.00  0.00     0.003 A 
ATOM     10  C   UNL A   1      35.333  20.390  24.910  1.00  0.00     0.016 A 
BRANCH   6  11
ATOM     11  N   UNL A   1      33.886  24.082  23.566  1.00  0.00    -0.325 N 
ATOM     12  O   UNL A   1      33.555  23.400  21.365  1.00  0.00    -0.274 OA
ATOM     13  C   UNL A   1      33.462  24.238  22.259  1.00  0.00     0.234 C 
ATOM     14  H   UNL A   1      33.815  24.868  24.155  1.00  0.00     0.169 HD
BRANCH  13  15
ATOM     15  C   UNL A   1      32.894  25.608  21.935  1.00  0.00     0.177 C 
BRANCH  15  16
ATOM     16  S   UNL A   1      31.294  25.959  22.705  1.00  0.00    -0.084 SA
BRANCH  16  17
ATOM     17  C   UNL A   1      31.794  26.775  24.168  1.00  0.00     0.175 A 
ATOM     18  N   UNL A   1      31.964  26.119  25.291  1.00  0.00    -0.131 NA
ATOM     19  S   UNL A   1      32.225  28.429  24.236  1.00  0.00    -0.086 S 
ATOM     20  N   UNL A   1      32.514  26.917  26.276  1.00  0.00    -0.137 NA
ATOM     21  C   UNL A   1      32.717  28.154  25.867  1.00  0.00     0.148 A 
BRANCH  21  22
ATOM     22  C   UNL A   1      33.398  29.197  26.635  1.00  0.00     0.015 A 
ATOM     23  C   UNL A   1      32.784  30.415  26.941  1.00  0.00     0.031 A 
ATOM     24  C   UNL A   1      34.705  28.978  27.079  1.00  0.00     0.031 A 
ATOM     25  C   UNL A   1      33.510  31.360  27.648  1.00  0.00     0.111 A 
ATOM     26  C   UNL A   1      35.351  29.989  27.771  1.00  0.00     0.111 A 
ATOM     27  N   UNL A   1      34.783  31.180  28.056  1.00  0.00    -0.265 NA
ENDBRANCH  21  22
ENDBRANCH  16  17
ENDBRANCH  15  16
ENDBRANCH  13  15
ENDBRANCH   6  11
ENDBRANCH   3   5
ENDBRANCH   2   3
ENDBRANCH   1   2
BRANCH   1  28
ATOM     28  C   UNL A   1      39.926  23.078  27.336  1.00  0.00     0.275 C 
BRANCH  28  29
ATOM     29  O   UNL A   1      41.113  23.860  27.104  1.00  0.00    -0.458 OA
BRANCH  29  30
ATOM     30  C   UNL A   1      40.916  25.057  26.506  1.00  0.00     0.338 C 
ATOM     31  O   UNL A   1      40.855  25.292  25.312  1.00  0.00    -0.246 OA
BRANCH  30  32
ATOM     32  C   UNL A   1      40.643  26.073  27.534  1.00  0.00     0.060 A 
ATOM     33  C   UNL A   1      41.521  27.149  27.609  1.00  0.00     0.016 A 
ATOM     34  C   UNL A   1      39.642  25.918  28.489  1.00  0.00     0.016 A 
ATOM     35  C   UNL A   1      41.436  28.064  28.652  1.00  0.00     0.010 A 
ATOM     36  C   UNL A   1      39.530  26.862  29.524  1.00  0.00     0.010 A 
ATOM     37  C   UNL A   1      40.444  27.928  29.632  1.00  0.00    -0.014 A 
BRANCH  37  38
ATOM     38  C   UNL A   1      40.443  28.859  30.797  1.00  0.00     0.031 A 
ATOM     39  C   UNL A   1      39.427  29.971  30.876  1.00  0.00     0.074 A 
ATOM     40  C   UNL A   1      41.295  28.665  31.824  1.00  0.00     0.049 A 
ATOM     41  N   UNL A   1      39.285  30.899  31.789  1.00  0.00    -0.248 NA
ATOM     42  C   UNL A   1      38.442  30.051  29.785  1.00  0.00     0.031 C 
ATOM     43  C   UNL A   1      42.296  27.599  31.908  1.00  0.00     0.029 A 
ATOM     44  N   UNL A   1      41.436  29.343  33.012  1.00  0.00    -0.354 N 
ATOM     45  C   UNL A   1      38.224  31.694  31.365  1.00  0.00     0.074 A 
ATOM     46  C   UNL A   1      37.769  31.148  30.105  1.00  0.00     0.031 C 
ATOM     47  C   UNL A   1      42.913  27.666  33.098  1.00  0.00     0.029 A 
ATOM     48  C   UNL A   1      42.401  28.816  33.839  1.00  0.00     0.049 A 
ATOM     49  H   UNL A   1      40.896  30.132  33.249  1.00  0.00     0.167 HD
ATOM     50  C   UNL A   1      37.674  32.775  31.970  1.00  0.00     0.031 A 
ATOM     51  C   UNL A   1      42.839  29.218  35.048  1.00  0.00     0.031 A 
ATOM     52  C   UNL A   1      38.105  33.305  33.237  1.00  0.00     0.049 A 
ATOM     53  C   UNL A   1      42.231  30.438  35.684  1.00  0.00     0.074 A 
ATOM     54  C   UNL A   1      37.614  34.403  33.925  1.00  0.00     0.029 A 
ATOM     55  N   UNL A   1      39.116  32.768  34.020  1.00  0.00    -0.354 N 
ATOM     56  N   UNL A   1      41.262  31.203  35.242  1.00  0.00    -0.248 NA
ATOM     57  C   UNL A   1      42.781  30.851  36.983  1.00  0.00     0.031 C 
ATOM     58  C   UNL A   1      38.353  34.551  35.104  1.00  0.00     0.029 A 
ATOM     59  C   UNL A   1      39.268  33.514  35.177  1.00  0.00     0.049 A 
ATOM     60  H   UNL A   1      39.648  31.973  33.787  1.00  0.00     0.167 HD
ATOM     61  C   UNL A   1      41.076  32.177  36.217  1.00  0.00     0.074 A 
ATOM     62  C   UNL A   1      42.013  31.888  37.282  1.00  0.00     0.031 C 
ATOM     63  C   UNL A   1      40.209  33.222  36.227  1.00  0.00     0.031 A 
BRANCH  50  64
ATOM     64  C   UNL A   1      36.560  33.485  31.244  1.00  0.00    -0.014 A 
ATOM     65  C   UNL A   1      36.721  33.943  29.924  1.00  0.00     0.010 A 
ATOM     66  C   UNL A   1      35.320  33.663  31.883  1.00  0.00     0.010 A 
ATOM     67  C   UNL A   1      35.673  34.600  29.272  1.00  0.00     0.020 A 
ATOM     68  C   UNL A   1      34.262  34.296  31.225  1.00  0.00     0.020 A 
ATOM     69  C   UNL A   1      34.451  34.775  29.928  1.00  0.00     0.054 A 
BRANCH  69  70
ATOM     70  S   UNL A   1      33.100  35.611  29.051  1.00  0.00     0.124 S 
ATOM     71  O   UNL A   1      32.292  36.119  30.157  1.00  0.00    -0.237 OA
ATOM     72  O   UNL A   1      33.804  36.627  28.271  1.00  0.00    -0.237 OA
ATOM     73  O   UNL A   1      32.483  34.545  28.267  1.00  0.00    -0.744 OA
ENDBRANCH  69  70
ENDBRANCH  50  64
BRANCH  51  74
ATOM     74  C   UNL A   1      43.936  28.475  35.733  1.00  0.00    -0.014 A 
ATOM     75  C   UNL A   1      43.673  27.281  36.425  1.00  0.00     0.010 A 
ATOM     76  C   UNL A   1      45.251  28.973  35.706  1.00  0.00     0.010 A 
ATOM     77  C   UNL A   1      44.700  26.610  37.098  1.00  0.00     0.020 A 
ATOM     78  C   UNL A   1      46.286  28.290  36.350  1.00  0.00     0.020 A 
ATOM     79  C   UNL A   1      46.000  27.120  37.055  1.00  0.00     0.054 A 
BRANCH  79  80
ATOM     80  S   UNL A   1      47.329  26.216  37.899  1.00  0.00     0.124 S 
ATOM     81  O   UNL A   1      47.205  24.884  37.317  1.00  0.00    -0.237 OA
ATOM     82  O   UNL A   1      48.521  26.968  37.512  1.00  0.00    -0.237 OA
ATOM     83  O   UNL A   1      46.968  26.320  39.311  1.00  0.00    -0.744 OA
ENDBRANCH  79  80
ENDBRANCH  51  74
BRANCH  63  84
ATOM     84  C   UNL A   1      40.217  34.102  37.449  1.00  0.00    -0.014 A 
ATOM     85  C   UNL A   1      39.373  33.840  38.543  1.00  0.00     0.010 A 
ATOM     86  C   UNL A   1      41.083  35.209  37.501  1.00  0.00     0.010 A 
ATOM     87  C   UNL A   1      39.353  34.704  39.642  1.00  0.00     0.020 A 
ATOM     88  C   UNL A   1      41.086  36.059  38.609  1.00  0.00     0.020 A 
ATOM     89  C   UNL A   1      40.202  35.815  39.663  1.00  0.00     0.054 A 
BRANCH  89  90
ATOM     90  S   UNL A   1      40.155  36.928  41.093  1.00  0.00     0.124 S 
ATOM     91  O   UNL A   1      38.829  36.660  41.644  1.00  0.00    -0.237 OA
ATOM     92  O   UNL A   1      41.279  36.462  41.904  1.00  0.00    -0.237 OA
ATOM     93  O   UNL A   1      40.329  38.255  40.505  1.00  0.00    -0.744 OA
ENDBRANCH  89  90
ENDBRANCH  63  84
ENDBRANCH  37  38
ENDBRANCH  30  32
ENDBRANCH  29  30
ENDBRANCH  28  29
ENDBRANCH   1  28
TORSDOF 19
ENDMDL
MODEL 3
REMARK VINA RESULT:     -10.7      4.886     10.706
REMARK SMILES O=C(CSc1nnc(-c2ccncc2)s1)Nc1cccc(C(=O)OCCOC(=O)c2ccc(-c3c4nc(c(-c5ccc(S(=O)(=O)[O-])cc5)c5ccc([nH]5)c(-c5ccc(S(=O)(=O)[O-])cc5)c5nc(c(-c6ccc(S(=O)(=O)[O-])cc6)c6ccc3[nH]6)C=C5)C=C4)cc2)c1
REMARK SMILES IDX 25 1 24 2 22 3 23 4 21 5 17 6 18 7 90 8 19 9 20 10 16 11
REMARK SMILES IDX 1 12 2 13 3 15 4 16 5 17 6 18 15 19 7 20 8 21 9 22 10 23
REMARK SMILES IDX 14 24 11 25 13 26 12 27 26 28 27 29 28 30 29 31 30 32 31 33
REMARK SMILES IDX 89 34 32 35 88 36 33 37 34 38 35 39 82 40 36 41 87 42 81 43
REMARK SMILES IDX 83 44 37 45 86 46 80 47 79 48 38 50 68 51 49 52 67 53 50 54
REMARK SMILES IDX 53 55 66 56 84 57 51 58 52 59 65 61 85 62 54 63 39 64 40 65
REMARK SMILES IDX 48 66 41 67 47 68 42 69 43 70 44 71 45 72 46 73 69 74 70 75
REMARK SMILES IDX 78 76 71 77 77 78 72 79 73 80 74 81 75 82 76 83 55 84 56 85
REMARK SMILES IDX 64 86 57 87 63 88 58 89 59 90 60 91 61 92 62 93
REMARK H PARENT 16 14 83 49 53 60
REMARK Flexibility Score: inf
ROOT
ATOM      1  C   UNL A   1      40.944  20.092  26.681  1.00  0.00     0.275 C 
ENDROOT
BRANCH   1   2
ATOM      2  O   UNL A   1      41.705  19.767  25.501  1.00  0.00    -0.458 OA
BRANCH   2   3
ATOM      3  C   UNL A   1      42.766  18.936  25.680  1.00  0.00     0.338 C 
ATOM      4  O   UNL A   1      42.718  17.750  25.942  1.00  0.00    -0.246 OA
BRANCH   3   5
ATOM      5  C   UNL A   1      44.036  19.655  25.391  1.00  0.00     0.062 A 
ATOM      6  C   UNL A   1      45.323  21.683  25.109  1.00  0.00     0.042 A 
ATOM      7  C   UNL A   1      46.408  20.921  24.657  1.00  0.00     0.026 A 
ATOM      8  C   UNL A   1      44.118  21.050  25.423  1.00  0.00     0.041 A 
ATOM      9  C   UNL A   1      46.341  19.529  24.661  1.00  0.00     0.003 A 
ATOM     10  C   UNL A   1      45.172  18.899  25.078  1.00  0.00     0.016 A 
BRANCH   6  11
ATOM     11  N   UNL A   1      45.538  23.065  25.270  1.00  0.00    -0.325 N 
ATOM     12  O   UNL A   1      45.463  23.250  27.589  1.00  0.00    -0.274 OA
ATOM     13  C   UNL A   1      45.634  23.738  26.474  1.00  0.00     0.234 C 
ATOM     14  H   UNL A   1      45.627  23.602  24.449  1.00  0.00     0.169 HD
BRANCH  13  15
ATOM     15  C   UNL A   1      45.919  25.224  26.350  1.00  0.00     0.177 C 
BRANCH  15  16
ATOM     16  S   UNL A   1      44.508  26.217  25.803  1.00  0.00    -0.084 SA
BRANCH  16  17
ATOM     17  C   UNL A   1      45.178  27.829  25.879  1.00  0.00     0.175 A 
ATOM     18  N   UNL A   1      46.031  28.258  24.979  1.00  0.00    -0.131 NA
ATOM     19  S   UNL A   1      44.696  29.008  27.023  1.00  0.00    -0.086 S 
ATOM     20  N   UNL A   1      46.308  29.603  25.131  1.00  0.00    -0.137 NA
ATOM     21  C   UNL A   1      45.673  30.136  26.156  1.00  0.00     0.148 A 
BRANCH  21  22
ATOM     22  C   UNL A   1      45.664  31.559  26.498  1.00  0.00     0.015 A 
ATOM     23  C   UNL A   1      46.840  32.267  26.760  1.00  0.00     0.031 A 
ATOM     24  C   UNL A   1      44.445  32.239  26.568  1.00  0.00     0.031 A 
ATOM     25  C   UNL A   1      46.741  33.606  27.105  1.00  0.00     0.111 A 
ATOM     26  C   UNL A   1      44.449  33.576  26.930  1.00  0.00     0.111 A 
ATOM     27  N   UNL A   1      45.571  34.271  27.210  1.00  0.00    -0.265 NA
ENDBRANCH  21  22
ENDBRANCH  16  17
ENDBRANCH  15  16
ENDBRANCH  13  15
ENDBRANCH   6  11
ENDBRANCH   3   5
ENDBRANCH   2   3
ENDBRANCH   1   2
BRANCH   1  28
ATOM     28  C   UNL A   1      39.695  20.903  26.334  1.00  0.00     0.275 C 
BRANCH  28  29
ATOM     29  O   UNL A   1      40.033  22.290  26.144  1.00  0.00    -0.458 OA
BRANCH  29  30
ATOM     30  C   UNL A   1      38.984  23.132  26.003  1.00  0.00     0.338 C 
ATOM     31  O   UNL A   1      37.928  22.918  25.433  1.00  0.00    -0.246 OA
BRANCH  30  32
ATOM     32  C   UNL A   1      39.239  24.358  26.773  1.00  0.00     0.060 A 
ATOM     33  C   UNL A   1      40.022  25.335  26.166  1.00  0.00     0.016 A 
ATOM     34  C   UNL A   1      38.846  24.502  28.101  1.00  0.00     0.016 A 
ATOM     35  C   UNL A   1      40.451  26.448  26.880  1.00  0.00     0.010 A 
ATOM     36  C   UNL A   1      39.246  25.643  28.815  1.00  0.00     0.010 A 
ATOM     37  C   UNL A   1      40.077  26.614  28.221  1.00  0.00    -0.014 A 
BRANCH  37  38
ATOM     38  C   UNL A   1      40.639  27.758  28.993  1.00  0.00     0.031 A 
ATOM     39  C   UNL A   1      39.788  28.972  29.273  1.00  0.00     0.074 A 
ATOM     40  C   UNL A   1      41.880  27.683  29.517  1.00  0.00     0.049 A 
ATOM     41  N   UNL A   1      40.105  30.078  29.899  1.00  0.00    -0.248 NA
ATOM     42  C   UNL A   1      38.400  28.939  28.786  1.00  0.00     0.031 C 
ATOM     43  C   UNL A   1      42.795  26.549  29.372  1.00  0.00     0.029 A 
ATOM     44  N   UNL A   1      42.576  28.571  30.302  1.00  0.00    -0.354 N 
ATOM     45  C   UNL A   1      38.973  30.886  29.846  1.00  0.00     0.074 A 
ATOM     46  C   UNL A   1      37.967  30.148  29.114  1.00  0.00     0.031 C 
ATOM     47  C   UNL A   1      43.909  26.789  30.081  1.00  0.00     0.029 A 
ATOM     48  C   UNL A   1      43.819  28.118  30.680  1.00  0.00     0.049 A 
ATOM     49  H   UNL A   1      42.219  29.448  30.570  1.00  0.00     0.167 HD
ATOM     50  C   UNL A   1      38.784  32.124  30.363  1.00  0.00     0.031 A 
ATOM     51  C   UNL A   1      44.787  28.707  31.411  1.00  0.00     0.031 A 
ATOM     52  C   UNL A   1      39.773  32.851  31.116  1.00  0.00     0.049 A 
ATOM     53  C   UNL A   1      44.562  30.094  31.948  1.00  0.00     0.074 A 
ATOM     54  C   UNL A   1      39.675  34.116  31.672  1.00  0.00     0.029 A 
ATOM     55  N   UNL A   1      41.035  32.374  31.437  1.00  0.00    -0.354 N 
ATOM     56  N   UNL A   1      43.501  30.857  31.844  1.00  0.00    -0.248 NA
ATOM     57  C   UNL A   1      45.671  30.699  32.700  1.00  0.00     0.031 C 
ATOM     58  C   UNL A   1      40.891  34.417  32.297  1.00  0.00     0.029 A 
ATOM     59  C   UNL A   1      41.726  33.320  32.176  1.00  0.00     0.049 A 
ATOM     60  H   UNL A   1      41.388  31.492  31.177  1.00  0.00     0.167 HD
ATOM     61  C   UNL A   1      43.809  32.026  32.532  1.00  0.00     0.074 A 
ATOM     62  C   UNL A   1      45.143  31.857  33.070  1.00  0.00     0.031 C 
ATOM     63  C   UNL A   1      43.056  33.143  32.699  1.00  0.00     0.031 A 
BRANCH  50  64
ATOM     64  C   UNL A   1      37.460  32.793  30.098  1.00  0.00    -0.014 A 
ATOM     65  C   UNL A   1      36.392  32.691  31.007  1.00  0.00     0.010 A 
ATOM     66  C   UNL A   1      37.296  33.568  28.935  1.00  0.00     0.010 A 
ATOM     67  C   UNL A   1      35.173  33.321  30.738  1.00  0.00     0.020 A 
ATOM     68  C   UNL A   1      36.088  34.220  28.676  1.00  0.00     0.020 A 
ATOM     69  C   UNL A   1      35.027  34.078  29.573  1.00  0.00     0.054 A 
BRANCH  69  70
ATOM     70  S   UNL A   1      33.441  34.903  29.259  1.00  0.00     0.124 S 
ATOM     71  O   UNL A   1      32.809  33.989  28.311  1.00  0.00    -0.237 OA
ATOM     72  O   UNL A   1      32.834  34.948  30.587  1.00  0.00    -0.237 OA
ATOM     73  O   UNL A   1      33.827  36.200  28.709  1.00  0.00    -0.744 OA
ENDBRANCH  69  70
ENDBRANCH  50  64
BRANCH  51  74
ATOM     74  C   UNL A   1      46.076  28.000  31.656  1.00  0.00    -0.014 A 
ATOM     75  C   UNL A   1      47.159  28.152  30.774  1.00  0.00     0.010 A 
ATOM     76  C   UNL A   1      46.218  27.154  32.772  1.00  0.00     0.010 A 
ATOM     77  C   UNL A   1      48.353  27.455  30.989  1.00  0.00     0.020 A 
ATOM     78  C   UNL A   1      47.419  26.480  33.008  1.00  0.00     0.020 A 
ATOM     79  C   UNL A   1      48.474  26.623  32.106  1.00  0.00     0.054 A 
BRANCH  79  80
ATOM     80  S   UNL A   1      50.043  25.758  32.394  1.00  0.00     0.124 S 
ATOM     81  O   UNL A   1      50.136  24.900  31.217  1.00  0.00    -0.237 OA
ATOM     82  O   UNL A   1      51.005  26.855  32.455  1.00  0.00    -0.237 OA
ATOM     83  O   UNL A   1      49.821  25.063  33.660  1.00  0.00    -0.744 OA
ENDBRANCH  79  80
ENDBRANCH  51  74
BRANCH  63  84
ATOM     84  C   UNL A   1      43.653  34.250  33.528  1.00  0.00    -0.014 A 
ATOM     85  C   UNL A   1      43.491  34.284  34.925  1.00  0.00     0.010 A 
ATOM     86  C   UNL A   1      44.387  35.271  32.898  1.00  0.00     0.010 A 
ATOM     87  C   UNL A   1      44.002  35.352  35.669  1.00  0.00     0.020 A 
ATOM     88  C   UNL A   1      44.923  36.325  33.642  1.00  0.00     0.020 A 
ATOM     89  C   UNL A   1      44.706  36.372  35.021  1.00  0.00     0.054 A 
BRANCH  89  90
ATOM     90  S   UNL A   1      45.353  37.752  36.002  1.00  0.00     0.124 S 
ATOM     91  O   UNL A   1      44.150  38.542  36.246  1.00  0.00    -0.237 OA
ATOM     92  O   UNL A   1      45.915  37.082  37.173  1.00  0.00    -0.237 OA
ATOM     93  O   UNL A   1      46.338  38.373  35.117  1.00  0.00    -0.744 OA
ENDBRANCH  89  90
ENDBRANCH  63  84
ENDBRANCH  37  38
ENDBRANCH  30  32
ENDBRANCH  29  30
ENDBRANCH  28  29
ENDBRANCH   1  28
TORSDOF 19
ENDMDL
