MODEL 1
REMARK VINA RESULT:      -9.9      0.000      0.000
REMARK SMILES C#CCN(CC(=O)OCCOC(=O)c1ccc(-c2c3nc(c(-c4ccc(S(=O)(=O)[O-])cc4)c4ccc([nH]4)c(-c4ccc(S(=O)(=O)[O-])cc4)c4nc(c(-c5ccc(S(=O)(=O)[O-])cc5)c5ccc2[nH]5)C=C4)C=C3)cc1)C(=O)[C@H]1C[NH2+]C[C@H]1C
REMARK SMILES IDX 9 1 8 2 6 3 7 4 5 5 4 6 3 7 2 8 1 9 74 10 75 11 76 12 77 13
REMARK SMILES IDX 80 14 78 15 79 16 81 17 10 20 11 21 12 22 13 23 14 24 15 25
REMARK SMILES IDX 73 26 16 27 72 28 17 29 18 30 19 31 66 32 20 33 71 34 65 35
REMARK SMILES IDX 67 36 21 37 70 38 64 39 63 40 22 42 52 43 33 44 51 45 34 46
REMARK SMILES IDX 37 47 50 48 68 49 35 50 36 51 49 53 69 54 38 55 23 56 24 57
REMARK SMILES IDX 32 58 25 59 31 60 26 61 27 62 28 63 29 64 30 65 53 66 54 67
REMARK SMILES IDX 62 68 55 69 61 70 56 71 57 72 58 73 59 74 60 75 39 76 40 77
REMARK SMILES IDX 48 78 41 79 47 80 42 81 43 82 44 83 45 84 46 85
REMARK H PARENT 78 18 78 19 67 41 37 52
REMARK Flexibility Score: inf
ROOT
ATOM      1  C   UNL A   1      34.101  30.501  27.135  1.00  0.00     0.274 C 
ENDROOT
BRANCH   1   2
ATOM      2  O   UNL A   1      32.765  30.312  27.650  1.00  0.00    -0.461 OA
BRANCH   2   3
ATOM      3  C   UNL A   1      31.961  29.451  26.960  1.00  0.00     0.325 C 
ATOM      4  O   UNL A   1      31.320  28.535  27.457  1.00  0.00    -0.250 OA
BRANCH   3   5
ATOM      5  C   UNL A   1      31.788  29.876  25.497  1.00  0.00     0.243 C 
BRANCH   5   6
ATOM      6  N   UNL A   1      31.618  28.756  24.580  1.00  0.00    -0.320 N 
BRANCH   6   7
ATOM      7  C   UNL A   1      32.743  27.830  24.528  1.00  0.00     0.210 C 
BRANCH   7   8
ATOM      8  C   UNL A   1      33.434  28.031  23.190  1.00  0.00    -0.085 C 
ATOM      9  C   UNL A   1      34.028  28.203  22.041  1.00  0.00     0.006 C 
ENDBRANCH   7   8
ENDBRANCH   6   7
BRANCH   6  10
ATOM     10  C   UNL A   1      30.529  28.522  23.738  1.00  0.00     0.233 C 
ATOM     11  O   UNL A   1      30.148  27.369  23.522  1.00  0.00    -0.274 OA
BRANCH  10  12
ATOM     12  C   UNL A   1      29.798  29.734  23.140  1.00  0.00     0.142 C 
ATOM     13  C   UNL A   1      30.236  29.978  21.710  1.00  0.00     0.274 C 
ATOM     14  C   UNL A   1      28.254  29.761  23.026  1.00  0.00     0.059 C 
ATOM     15  N   UNL A   1      29.209  30.840  21.123  1.00  0.00    -0.345 N 
ATOM     16  C   UNL A   1      27.964  30.240  21.596  1.00  0.00     0.264 C 
ATOM     17  C   UNL A   1      27.471  28.491  23.317  1.00  0.00     0.015 C 
ATOM     18  H   UNL A   1      29.259  30.827  20.105  1.00  0.00     0.346 HD
ATOM     19  H   UNL A   1      29.309  31.820  21.389  1.00  0.00     0.346 HD
ENDBRANCH  10  12
ENDBRANCH   6  10
ENDBRANCH   5   6
ENDBRANCH   3   5
ENDBRANCH   2   3
ENDBRANCH   1   2
BRANCH   1  20
ATOM     20  C   UNL A   1      34.732  31.781  27.712  1.00  0.00     0.275 C 
BRANCH  20  21
ATOM     21  O   UNL A   1      36.086  31.627  28.178  1.00  0.00    -0.458 OA
BRANCH  21  22
ATOM     22  C   UNL A   1      36.273  30.964  29.340  1.00  0.00     0.338 C 
ATOM     23  O   UNL A   1      35.687  31.152  30.385  1.00  0.00    -0.246 OA
BRANCH  22  24
ATOM     24  C   UNL A   1      37.482  30.118  29.199  1.00  0.00     0.060 A 
ATOM     25  C   UNL A   1      37.929  29.825  27.907  1.00  0.00     0.016 A 
ATOM     26  C   UNL A   1      38.179  29.634  30.308  1.00  0.00     0.016 A 
ATOM     27  C   UNL A   1      39.089  29.073  27.718  1.00  0.00     0.010 A 
ATOM     28  C   UNL A   1      39.394  28.961  30.120  1.00  0.00     0.010 A 
ATOM     29  C   UNL A   1      39.885  28.725  28.824  1.00  0.00    -0.014 A 
BRANCH  29  30
ATOM     30  C   UNL A   1      41.337  28.464  28.620  1.00  0.00     0.031 A 
ATOM     31  C   UNL A   1      42.384  29.537  28.646  1.00  0.00     0.074 A 
ATOM     32  C   UNL A   1      41.686  27.192  28.327  1.00  0.00     0.049 A 
ATOM     33  N   UNL A   1      43.661  29.435  28.368  1.00  0.00    -0.248 NA
ATOM     34  C   UNL A   1      41.958  30.889  29.030  1.00  0.00     0.031 C 
ATOM     35  C   UNL A   1      40.755  26.058  28.265  1.00  0.00     0.029 A 
ATOM     36  N   UNL A   1      42.899  26.635  28.013  1.00  0.00    -0.354 N 
ATOM     37  C   UNL A   1      44.195  30.706  28.535  1.00  0.00     0.074 A 
ATOM     38  C   UNL A   1      43.098  31.567  28.933  1.00  0.00     0.031 C 
ATOM     39  C   UNL A   1      41.430  24.946  27.952  1.00  0.00     0.029 A 
ATOM     40  C   UNL A   1      42.822  25.296  27.713  1.00  0.00     0.049 A 
ATOM     41  H   UNL A   1      43.741  27.144  28.004  1.00  0.00     0.167 HD
ATOM     42  C   UNL A   1      45.479  31.111  28.367  1.00  0.00     0.031 A 
ATOM     43  C   UNL A   1      43.746  24.437  27.247  1.00  0.00     0.031 A 
ATOM     44  C   UNL A   1      46.560  30.251  27.945  1.00  0.00     0.049 A 
ATOM     45  C   UNL A   1      45.133  24.931  26.988  1.00  0.00     0.074 A 
ATOM     46  C   UNL A   1      47.897  30.571  27.775  1.00  0.00     0.029 A 
ATOM     47  N   UNL A   1      46.429  28.911  27.610  1.00  0.00    -0.354 N 
ATOM     48  N   UNL A   1      45.619  26.134  27.173  1.00  0.00    -0.248 NA
ATOM     49  C   UNL A   1      46.092  23.959  26.450  1.00  0.00     0.031 C 
ATOM     50  C   UNL A   1      48.564  29.440  27.288  1.00  0.00     0.029 A 
ATOM     51  C   UNL A   1      47.653  28.401  27.203  1.00  0.00     0.049 A 
ATOM     52  H   UNL A   1      45.590  28.397  27.655  1.00  0.00     0.167 HD
ATOM     53  C   UNL A   1      46.948  26.063  26.781  1.00  0.00     0.074 A 
ATOM     54  C   UNL A   1      47.191  24.695  26.365  1.00  0.00     0.031 C 
ATOM     55  C   UNL A   1      47.880  27.046  26.768  1.00  0.00     0.031 A 
BRANCH  42  56
ATOM     56  C   UNL A   1      45.797  32.565  28.606  1.00  0.00    -0.014 A 
ATOM     57  C   UNL A   1      45.675  33.514  27.576  1.00  0.00     0.010 A 
ATOM     58  C   UNL A   1      46.142  33.000  29.898  1.00  0.00     0.010 A 
ATOM     59  C   UNL A   1      45.922  34.867  27.827  1.00  0.00     0.020 A 
ATOM     60  C   UNL A   1      46.372  34.355  30.159  1.00  0.00     0.020 A 
ATOM     61  C   UNL A   1      46.274  35.279  29.116  1.00  0.00     0.054 A 
BRANCH  61  62
ATOM     62  S   UNL A   1      46.569  37.043  29.422  1.00  0.00     0.124 S 
ATOM     63  O   UNL A   1      47.506  37.379  28.354  1.00  0.00    -0.237 OA
ATOM     64  O   UNL A   1      45.233  37.621  29.290  1.00  0.00    -0.237 OA
ATOM     65  O   UNL A   1      47.127  37.074  30.772  1.00  0.00    -0.744 OA
ENDBRANCH  61  62
ENDBRANCH  42  56
BRANCH  43  66
ATOM     66  C   UNL A   1      43.351  23.035  26.956  1.00  0.00    -0.014 A 
ATOM     67  C   UNL A   1      43.468  22.517  25.657  1.00  0.00     0.010 A 
ATOM     68  C   UNL A   1      42.926  22.192  28.000  1.00  0.00     0.010 A 
ATOM     69  C   UNL A   1      43.169  21.175  25.405  1.00  0.00     0.020 A 
ATOM     70  C   UNL A   1      42.651  20.845  27.756  1.00  0.00     0.020 A 
ATOM     71  C   UNL A   1      42.767  20.347  26.458  1.00  0.00     0.054 A 
BRANCH  71  72
ATOM     72  S   UNL A   1      42.463  18.590  26.127  1.00  0.00     0.124 S 
ATOM     73  O   UNL A   1      42.781  17.981  27.415  1.00  0.00    -0.237 OA
ATOM     74  O   UNL A   1      41.053  18.575  25.749  1.00  0.00    -0.237 OA
ATOM     75  O   UNL A   1      43.393  18.283  25.041  1.00  0.00    -0.744 OA
ENDBRANCH  71  72
ENDBRANCH  43  66
BRANCH  55  76
ATOM     76  C   UNL A   1      49.257  26.667  26.299  1.00  0.00    -0.014 A 
ATOM     77  C   UNL A   1      50.170  26.048  27.171  1.00  0.00     0.010 A 
ATOM     78  C   UNL A   1      49.634  26.914  24.968  1.00  0.00     0.010 A 
ATOM     79  C   UNL A   1      51.450  25.707  26.724  1.00  0.00     0.020 A 
ATOM     80  C   UNL A   1      50.905  26.556  24.513  1.00  0.00     0.020 A 
ATOM     81  C   UNL A   1      51.809  25.967  25.399  1.00  0.00     0.054 A 
BRANCH  81  82
ATOM     82  S   UNL A   1      53.463  25.481  24.828  1.00  0.00     0.124 S 
ATOM     83  O   UNL A   1      54.327  26.300  25.675  1.00  0.00    -0.237 OA
ATOM     84  O   UNL A   1      53.490  24.046  25.103  1.00  0.00    -0.237 OA
ATOM     85  O   UNL A   1      53.457  25.838  23.412  1.00  0.00    -0.744 OA
ENDBRANCH  81  82
ENDBRANCH  55  76
ENDBRANCH  29  30
ENDBRANCH  22  24
ENDBRANCH  21  22
ENDBRANCH  20  21
ENDBRANCH   1  20
TORSDOF 19
ENDMDL
MODEL 2
REMARK VINA RESULT:      -9.7      5.816     10.099
REMARK SMILES C#CCN(CC(=O)OCCOC(=O)c1ccc(-c2c3nc(c(-c4ccc(S(=O)(=O)[O-])cc4)c4ccc([nH]4)c(-c4ccc(S(=O)(=O)[O-])cc4)c4nc(c(-c5ccc(S(=O)(=O)[O-])cc5)c5ccc2[nH]5)C=C4)C=C3)cc1)C(=O)[C@H]1C[NH2+]C[C@H]1C
REMARK SMILES IDX 9 1 8 2 6 3 7 4 5 5 4 6 3 7 2 8 1 9 74 10 75 11 76 12 77 13
REMARK SMILES IDX 80 14 78 15 79 16 81 17 10 20 11 21 12 22 13 23 14 24 15 25
REMARK SMILES IDX 73 26 16 27 72 28 17 29 18 30 19 31 66 32 20 33 71 34 65 35
REMARK SMILES IDX 67 36 21 37 70 38 64 39 63 40 22 42 52 43 33 44 51 45 34 46
REMARK SMILES IDX 37 47 50 48 68 49 35 50 36 51 49 53 69 54 38 55 23 56 24 57
REMARK SMILES IDX 32 58 25 59 31 60 26 61 27 62 28 63 29 64 30 65 53 66 54 67
REMARK SMILES IDX 62 68 55 69 61 70 56 71 57 72 58 73 59 74 60 75 39 76 40 77
REMARK SMILES IDX 48 78 41 79 47 80 42 81 43 82 44 83 45 84 46 85
REMARK H PARENT 78 18 78 19 67 41 37 52
REMARK Flexibility Score: inf
ROOT
ATOM      1  C   UNL A   1      33.248  29.561  25.385  1.00  0.00     0.274 C 
ENDROOT
BRANCH   1   2
ATOM      2  O   UNL A   1      33.009  28.180  25.735  1.00  0.00    -0.461 OA
BRANCH   2   3
ATOM      3  C   UNL A   1      32.375  27.415  24.800  1.00  0.00     0.325 C 
ATOM      4  O   UNL A   1      31.304  27.688  24.275  1.00  0.00    -0.250 OA
BRANCH   3   5
ATOM      5  C   UNL A   1      33.252  26.252  24.320  1.00  0.00     0.243 C 
BRANCH   5   6
ATOM      6  N   UNL A   1      33.141  25.058  25.149  1.00  0.00    -0.320 N 
BRANCH   6   7
ATOM      7  C   UNL A   1      31.777  24.663  25.474  1.00  0.00     0.210 C 
BRANCH   7   8
ATOM      8  C   UNL A   1      31.196  23.979  24.247  1.00  0.00    -0.085 C 
ATOM      9  C   UNL A   1      30.699  23.392  23.194  1.00  0.00     0.006 C 
ENDBRANCH   7   8
ENDBRANCH   6   7
BRANCH   6  10
ATOM     10  C   UNL A   1      34.193  24.310  25.683  1.00  0.00     0.233 C 
ATOM     11  O   UNL A   1      34.062  23.747  26.772  1.00  0.00    -0.274 OA
BRANCH  10  12
ATOM     12  C   UNL A   1      35.479  24.169  24.854  1.00  0.00     0.142 C 
ATOM     13  C   UNL A   1      36.630  23.698  25.719  1.00  0.00     0.274 C 
ATOM     14  C   UNL A   1      35.550  23.202  23.647  1.00  0.00     0.059 C 
ATOM     15  N   UNL A   1      37.646  23.201  24.790  1.00  0.00    -0.345 N 
ATOM     16  C   UNL A   1      36.864  22.427  23.829  1.00  0.00     0.264 C 
ATOM     17  C   UNL A   1      34.405  22.232  23.410  1.00  0.00     0.015 C 
ATOM     18  H   UNL A   1      38.324  22.611  25.271  1.00  0.00     0.346 HD
ATOM     19  H   UNL A   1      38.191  23.946  24.356  1.00  0.00     0.346 HD
ENDBRANCH  10  12
ENDBRANCH   6  10
ENDBRANCH   5   6
ENDBRANCH   3   5
ENDBRANCH   2   3
ENDBRANCH   1   2
BRANCH   1  20
ATOM     20  C   UNL A   1      32.575  30.505  26.399  1.00  0.00     0.275 C 
BRANCH  20  21
ATOM     21  O   UNL A   1      33.291  30.665  27.638  1.00  0.00    -0.458 OA
BRANCH  21  22
ATOM     22  C   UNL A   1      34.210  31.654  27.703  1.00  0.00     0.338 C 
ATOM     23  O   UNL A   1      34.039  32.822  27.428  1.00  0.00    -0.246 OA
BRANCH  22  24
ATOM     24  C   UNL A   1      35.535  31.036  27.947  1.00  0.00     0.060 A 
ATOM     25  C   UNL A   1      36.634  31.884  28.111  1.00  0.00     0.016 A 
ATOM     26  C   UNL A   1      35.699  29.652  28.034  1.00  0.00     0.016 A 
ATOM     27  C   UNL A   1      37.895  31.356  28.391  1.00  0.00     0.010 A 
ATOM     28  C   UNL A   1      36.943  29.126  28.408  1.00  0.00     0.010 A 
ATOM     29  C   UNL A   1      38.035  29.979  28.644  1.00  0.00    -0.014 A 
BRANCH  29  30
ATOM     30  C   UNL A   1      39.175  29.508  29.479  1.00  0.00     0.031 A 
ATOM     31  C   UNL A   1      40.201  28.523  29.002  1.00  0.00     0.074 A 
ATOM     32  C   UNL A   1      39.215  29.955  30.753  1.00  0.00     0.049 A 
ATOM     33  N   UNL A   1      41.167  27.960  29.684  1.00  0.00    -0.248 NA
ATOM     34  C   UNL A   1      40.145  28.118  27.591  1.00  0.00     0.031 C 
ATOM     35  C   UNL A   1      38.267  30.912  31.338  1.00  0.00     0.029 A 
ATOM     36  N   UNL A   1      40.065  29.664  31.789  1.00  0.00    -0.354 N 
ATOM     37  C   UNL A   1      41.834  27.128  28.794  1.00  0.00     0.074 A 
ATOM     38  C   UNL A   1      41.155  27.255  27.520  1.00  0.00     0.031 C 
ATOM     39  C   UNL A   1      38.597  31.140  32.615  1.00  0.00     0.029 A 
ATOM     40  C   UNL A   1      39.726  30.290  32.965  1.00  0.00     0.049 A 
ATOM     41  H   UNL A   1      40.842  29.066  31.698  1.00  0.00     0.167 HD
ATOM     42  C   UNL A   1      42.908  26.332  29.027  1.00  0.00     0.031 A 
ATOM     43  C   UNL A   1      40.222  30.169  34.208  1.00  0.00     0.031 A 
ATOM     44  C   UNL A   1      43.562  26.192  30.306  1.00  0.00     0.049 A 
ATOM     45  C   UNL A   1      41.350  29.220  34.452  1.00  0.00     0.074 A 
ATOM     46  C   UNL A   1      44.674  25.429  30.625  1.00  0.00     0.029 A 
ATOM     47  N   UNL A   1      43.159  26.810  31.481  1.00  0.00    -0.354 N 
ATOM     48  N   UNL A   1      41.977  28.458  33.590  1.00  0.00    -0.248 NA
ATOM     49  C   UNL A   1      41.832  29.105  35.834  1.00  0.00     0.031 C 
ATOM     50  C   UNL A   1      44.911  25.546  32.000  1.00  0.00     0.029 A 
ATOM     51  C   UNL A   1      43.977  26.421  32.530  1.00  0.00     0.049 A 
ATOM     52  H   UNL A   1      42.402  27.436  31.558  1.00  0.00     0.167 HD
ATOM     53  C   UNL A   1      42.937  27.776  34.325  1.00  0.00     0.074 A 
ATOM     54  C   UNL A   1      42.817  28.229  35.697  1.00  0.00     0.031 C 
ATOM     55  C   UNL A   1      43.836  26.858  33.896  1.00  0.00     0.031 A 
BRANCH  42  56
ATOM     56  C   UNL A   1      43.439  25.512  27.879  1.00  0.00    -0.014 A 
ATOM     57  C   UNL A   1      44.514  25.969  27.097  1.00  0.00     0.010 A 
ATOM     58  C   UNL A   1      42.910  24.232  27.631  1.00  0.00     0.010 A 
ATOM     59  C   UNL A   1      45.031  25.172  26.069  1.00  0.00     0.020 A 
ATOM     60  C   UNL A   1      43.435  23.425  26.616  1.00  0.00     0.020 A 
ATOM     61  C   UNL A   1      44.484  23.908  25.832  1.00  0.00     0.054 A 
BRANCH  61  62
ATOM     62  S   UNL A   1      45.185  22.885  24.506  1.00  0.00     0.124 S 
ATOM     63  O   UNL A   1      43.987  22.478  23.777  1.00  0.00    -0.237 OA
ATOM     64  O   UNL A   1      46.059  23.822  23.805  1.00  0.00    -0.237 OA
ATOM     65  O   UNL A   1      45.873  21.813  25.222  1.00  0.00    -0.744 OA
ENDBRANCH  61  62
ENDBRANCH  42  56
BRANCH  43  66
ATOM     66  C   UNL A   1      39.604  30.946  35.314  1.00  0.00    -0.014 A 
ATOM     67  C   UNL A   1      38.484  30.446  35.996  1.00  0.00     0.010 A 
ATOM     68  C   UNL A   1      40.186  32.157  35.735  1.00  0.00     0.010 A 
ATOM     69  C   UNL A   1      37.954  31.143  37.085  1.00  0.00     0.020 A 
ATOM     70  C   UNL A   1      39.674  32.843  36.839  1.00  0.00     0.020 A 
ATOM     71  C   UNL A   1      38.557  32.335  37.502  1.00  0.00     0.054 A 
BRANCH  71  72
ATOM     72  S   UNL A   1      37.906  33.182  38.968  1.00  0.00     0.124 S 
ATOM     73  O   UNL A   1      36.475  33.224  38.682  1.00  0.00    -0.237 OA
ATOM     74  O   UNL A   1      38.309  32.294  40.055  1.00  0.00    -0.237 OA
ATOM     75  O   UNL A   1      38.590  34.474  38.945  1.00  0.00    -0.744 OA
ENDBRANCH  71  72
ENDBRANCH  43  66
BRANCH  55  76
ATOM     76  C   UNL A   1      44.770  26.292  34.928  1.00  0.00    -0.014 A 
ATOM     77  C   UNL A   1      44.451  25.111  35.619  1.00  0.00     0.010 A 
ATOM     78  C   UNL A   1      45.990  26.938  35.194  1.00  0.00     0.010 A 
ATOM     79  C   UNL A   1      45.325  24.599  36.582  1.00  0.00     0.020 A 
ATOM     80  C   UNL A   1      46.876  26.418  36.141  1.00  0.00     0.020 A 
ATOM     81  C   UNL A   1      46.531  25.258  36.838  1.00  0.00     0.054 A 
BRANCH  81  82
ATOM     82  S   UNL A   1      47.670  24.556  38.064  1.00  0.00     0.124 S 
ATOM     83  O   UNL A   1      48.964  25.035  37.584  1.00  0.00    -0.237 OA
ATOM     84  O   UNL A   1      47.204  25.151  39.315  1.00  0.00    -0.237 OA
ATOM     85  O   UNL A   1      47.455  23.115  37.948  1.00  0.00    -0.744 OA
ENDBRANCH  81  82
ENDBRANCH  55  76
ENDBRANCH  29  30
ENDBRANCH  22  24
ENDBRANCH  21  22
ENDBRANCH  20  21
ENDBRANCH   1  20
TORSDOF 19
ENDMDL
MODEL 3
REMARK VINA RESULT:      -9.6      2.514      3.475
REMARK SMILES C#CCN(CC(=O)OCCOC(=O)c1ccc(-c2c3nc(c(-c4ccc(S(=O)(=O)[O-])cc4)c4ccc([nH]4)c(-c4ccc(S(=O)(=O)[O-])cc4)c4nc(c(-c5ccc(S(=O)(=O)[O-])cc5)c5ccc2[nH]5)C=C4)C=C3)cc1)C(=O)[C@H]1C[NH2+]C[C@H]1C
REMARK SMILES IDX 9 1 8 2 6 3 7 4 5 5 4 6 3 7 2 8 1 9 74 10 75 11 76 12 77 13
REMARK SMILES IDX 80 14 78 15 79 16 81 17 10 20 11 21 12 22 13 23 14 24 15 25
REMARK SMILES IDX 73 26 16 27 72 28 17 29 18 30 19 31 66 32 20 33 71 34 65 35
REMARK SMILES IDX 67 36 21 37 70 38 64 39 63 40 22 42 52 43 33 44 51 45 34 46
REMARK SMILES IDX 37 47 50 48 68 49 35 50 36 51 49 53 69 54 38 55 23 56 24 57
REMARK SMILES IDX 32 58 25 59 31 60 26 61 27 62 28 63 29 64 30 65 53 66 54 67
REMARK SMILES IDX 62 68 55 69 61 70 56 71 57 72 58 73 59 74 60 75 39 76 40 77
REMARK SMILES IDX 48 78 41 79 47 80 42 81 43 82 44 83 45 84 46 85
REMARK H PARENT 78 18 78 19 67 41 37 52
REMARK Flexibility Score: inf
ROOT
ATOM      1  C   UNL A   1      32.844  30.046  25.814  1.00  0.00     0.274 C 
ENDROOT
BRANCH   1   2
ATOM      2  O   UNL A   1      31.762  29.092  25.876  1.00  0.00    -0.461 OA
BRANCH   2   3
ATOM      3  C   UNL A   1      31.332  28.579  24.686  1.00  0.00     0.325 C 
ATOM      4  O   UNL A   1      30.574  29.143  23.909  1.00  0.00    -0.250 OA
BRANCH   3   5
ATOM      5  C   UNL A   1      32.064  27.282  24.324  1.00  0.00     0.243 C 
BRANCH   5   6
ATOM      6  N   UNL A   1      31.999  26.265  25.366  1.00  0.00    -0.320 N 
BRANCH   6   7
ATOM      7  C   UNL A   1      33.220  26.109  26.147  1.00  0.00     0.210 C 
BRANCH   7   8
ATOM      8  C   UNL A   1      34.172  25.246  25.335  1.00  0.00    -0.085 C 
ATOM      9  C   UNL A   1      34.988  24.505  24.639  1.00  0.00     0.006 C 
ENDBRANCH   7   8
ENDBRANCH   6   7
BRANCH   6  10
ATOM     10  C   UNL A   1      30.923  25.419  25.644  1.00  0.00     0.233 C 
ATOM     11  O   UNL A   1      30.133  25.699  26.548  1.00  0.00    -0.274 OA
BRANCH  10  12
ATOM     12  C   UNL A   1      30.730  24.175  24.765  1.00  0.00     0.142 C 
ATOM     13  C   UNL A   1      31.453  24.329  23.443  1.00  0.00     0.274 C 
ATOM     14  C   UNL A   1      31.199  22.778  25.242  1.00  0.00     0.059 C 
ATOM     15  N   UNL A   1      31.563  22.978  22.891  1.00  0.00    -0.345 N 
ATOM     16  C   UNL A   1      31.959  22.180  24.048  1.00  0.00     0.264 C 
ATOM     17  C   UNL A   1      32.045  22.675  26.500  1.00  0.00     0.015 C 
ATOM     18  H   UNL A   1      32.271  22.939  22.159  1.00  0.00     0.346 HD
ATOM     19  H   UNL A   1      30.700  22.652  22.455  1.00  0.00     0.346 HD
ENDBRANCH  10  12
ENDBRANCH   6  10
ENDBRANCH   5   6
ENDBRANCH   3   5
ENDBRANCH   2   3
ENDBRANCH   1   2
BRANCH   1  20
ATOM     20  C   UNL A   1      33.084  30.690  27.192  1.00  0.00     0.275 C 
BRANCH  20  21
ATOM     21  O   UNL A   1      34.409  31.221  27.384  1.00  0.00    -0.458 OA
BRANCH  21  22
ATOM     22  C   UNL A   1      34.836  31.385  28.656  1.00  0.00     0.338 C 
ATOM     23  O   UNL A   1      34.411  32.179  29.467  1.00  0.00    -0.246 OA
BRANCH  22  24
ATOM     24  C   UNL A   1      36.075  30.590  28.831  1.00  0.00     0.060 A 
ATOM     25  C   UNL A   1      36.870  30.358  27.705  1.00  0.00     0.016 A 
ATOM     26  C   UNL A   1      36.463  30.094  30.078  1.00  0.00     0.016 A 
ATOM     27  C   UNL A   1      38.071  29.656  27.824  1.00  0.00     0.010 A 
ATOM     28  C   UNL A   1      37.713  29.473  30.215  1.00  0.00     0.010 A 
ATOM     29  C   UNL A   1      38.548  29.300  29.098  1.00  0.00    -0.014 A 
BRANCH  29  30
ATOM     30  C   UNL A   1      40.011  29.100  29.294  1.00  0.00     0.031 A 
ATOM     31  C   UNL A   1      40.950  30.194  29.709  1.00  0.00     0.074 A 
ATOM     32  C   UNL A   1      40.496  27.873  29.004  1.00  0.00     0.049 A 
ATOM     33  N   UNL A   1      42.257  30.154  29.798  1.00  0.00    -0.248 NA
ATOM     34  C   UNL A   1      40.361  31.490  30.071  1.00  0.00     0.031 C 
ATOM     35  C   UNL A   1      39.683  26.725  28.583  1.00  0.00     0.029 A 
ATOM     36  N   UNL A   1      41.777  27.383  29.001  1.00  0.00    -0.354 N 
ATOM     37  C   UNL A   1      42.653  31.417  30.219  1.00  0.00     0.074 A 
ATOM     38  C   UNL A   1      41.444  32.205  30.361  1.00  0.00     0.031 C 
ATOM     39  C   UNL A   1      40.477  25.668  28.380  1.00  0.00     0.029 A 
ATOM     40  C   UNL A   1      41.860  26.077  28.578  1.00  0.00     0.049 A 
ATOM     41  H   UNL A   1      42.560  27.913  29.276  1.00  0.00     0.167 HD
ATOM     42  C   UNL A   1      43.909  31.871  30.459  1.00  0.00     0.031 A 
ATOM     43  C   UNL A   1      42.923  25.295  28.322  1.00  0.00     0.031 A 
ATOM     44  C   UNL A   1      45.109  31.087  30.290  1.00  0.00     0.049 A 
ATOM     45  C   UNL A   1      44.298  25.849  28.511  1.00  0.00     0.074 A 
ATOM     46  C   UNL A   1      46.422  31.458  30.535  1.00  0.00     0.029 A 
ATOM     47  N   UNL A   1      45.151  29.783  29.817  1.00  0.00    -0.354 N 
ATOM     48  N   UNL A   1      44.647  27.041  28.930  1.00  0.00    -0.248 NA
ATOM     49  C   UNL A   1      45.420  24.961  28.187  1.00  0.00     0.031 C 
ATOM     50  C   UNL A   1      47.258  30.399  30.163  1.00  0.00     0.029 A 
ATOM     51  C   UNL A   1      46.465  29.348  29.732  1.00  0.00     0.049 A 
ATOM     52  H   UNL A   1      44.362  29.244  29.578  1.00  0.00     0.167 HD
ATOM     53  C   UNL A   1      46.035  27.044  28.928  1.00  0.00     0.074 A 
ATOM     54  C   UNL A   1      46.458  25.731  28.482  1.00  0.00     0.031 C 
ATOM     55  C   UNL A   1      46.878  28.049  29.266  1.00  0.00     0.031 A 
BRANCH  42  56
ATOM     56  C   UNL A   1      44.068  33.303  30.902  1.00  0.00    -0.014 A 
ATOM     57  C   UNL A   1      44.176  33.633  32.264  1.00  0.00     0.010 A 
ATOM     58  C   UNL A   1      44.195  34.322  29.940  1.00  0.00     0.010 A 
ATOM     59  C   UNL A   1      44.378  34.960  32.658  1.00  0.00     0.020 A 
ATOM     60  C   UNL A   1      44.415  35.648  30.328  1.00  0.00     0.020 A 
ATOM     61  C   UNL A   1      44.490  35.960  31.687  1.00  0.00     0.054 A 
BRANCH  61  62
ATOM     62  S   UNL A   1      44.772  37.671  32.221  1.00  0.00     0.124 S 
ATOM     63  O   UNL A   1      45.745  37.492  33.296  1.00  0.00    -0.237 OA
ATOM     64  O   UNL A   1      45.285  38.308  31.011  1.00  0.00    -0.237 OA
ATOM     65  O   UNL A   1      43.450  38.125  32.647  1.00  0.00    -0.744 OA
ENDBRANCH  61  62
ENDBRANCH  42  56
BRANCH  43  66
ATOM     66  C   UNL A   1      42.702  23.917  27.810  1.00  0.00    -0.014 A 
ATOM     67  C   UNL A   1      42.654  22.828  28.694  1.00  0.00     0.010 A 
ATOM     68  C   UNL A   1      42.462  23.705  26.439  1.00  0.00     0.010 A 
ATOM     69  C   UNL A   1      42.368  21.547  28.216  1.00  0.00     0.020 A 
ATOM     70  C   UNL A   1      42.152  22.430  25.963  1.00  0.00     0.020 A 
ATOM     71  C   UNL A   1      42.114  21.357  26.854  1.00  0.00     0.054 A 
BRANCH  71  72
ATOM     72  S   UNL A   1      41.664  19.701  26.266  1.00  0.00     0.124 S 
ATOM     73  O   UNL A   1      40.241  19.859  25.983  1.00  0.00    -0.237 OA
ATOM     74  O   UNL A   1      42.527  19.530  25.101  1.00  0.00    -0.237 OA
ATOM     75  O   UNL A   1      41.986  18.838  27.401  1.00  0.00    -0.744 OA
ENDBRANCH  71  72
ENDBRANCH  43  66
BRANCH  55  76
ATOM     76  C   UNL A   1      48.349  27.756  29.177  1.00  0.00    -0.014 A 
ATOM     77  C   UNL A   1      49.062  27.296  30.299  1.00  0.00     0.010 A 
ATOM     78  C   UNL A   1      49.022  27.922  27.955  1.00  0.00     0.010 A 
ATOM     79  C   UNL A   1      50.431  27.034  30.205  1.00  0.00     0.020 A 
ATOM     80  C   UNL A   1      50.387  27.642  27.852  1.00  0.00     0.020 A 
ATOM     81  C   UNL A   1      51.085  27.211  28.983  1.00  0.00     0.054 A 
BRANCH  81  82
ATOM     82  S   UNL A   1      52.856  26.828  28.872  1.00  0.00     0.124 S 
ATOM     83  O   UNL A   1      53.091  26.122  30.129  1.00  0.00    -0.237 OA
ATOM     84  O   UNL A   1      52.933  26.007  27.666  1.00  0.00    -0.237 OA
ATOM     85  O   UNL A   1      53.486  28.142  28.767  1.00  0.00    -0.744 OA
ENDBRANCH  81  82
ENDBRANCH  55  76
ENDBRANCH  29  30
ENDBRANCH  22  24
ENDBRANCH  21  22
ENDBRANCH  20  21
ENDBRANCH   1  20
TORSDOF 19
ENDMDL
