MODEL 1
REMARK VINA RESULT:     -11.7      0.000      0.000
REMARK SMILES O=C1O[C@@H](c2ccc(O)c(O)c2)[C@H](C(=O)OCCOC(=O)c2ccc(-c3c4nc(c(-c5ccc(S(=O)(=O)[O-])cc5)c5ccc([nH]5)c(-c5ccc(S(=O)(=O)[O-])cc5)c5nc(c(-c6ccc(S(=O)(=O)[O-])cc6)c6ccc3[nH]6)C=C5)C=C4)cc2)/C1=C\c1ccc(O)c(O)c1
REMARK SMILES IDX 18 1 17 2 16 3 14 4 15 5 13 6 1 7 2 8 3 9 82 10 4 11 83 12
REMARK SMILES IDX 5 13 6 14 12 15 7 16 10 17 8 18 11 19 9 21 84 23 85 24 91 25
REMARK SMILES IDX 86 26 89 27 87 28 90 29 88 31 19 33 20 34 21 35 22 36 23 37
REMARK SMILES IDX 81 38 24 39 80 40 25 41 26 42 27 43 74 44 28 45 79 46 73 47
REMARK SMILES IDX 75 48 29 49 78 50 72 51 71 52 30 54 60 55 41 56 59 57 42 58
REMARK SMILES IDX 45 59 58 60 76 61 43 62 44 63 57 65 77 66 46 67 31 68 32 69
REMARK SMILES IDX 40 70 33 71 39 72 34 73 35 74 36 75 37 76 38 77 61 78 62 79
REMARK SMILES IDX 70 80 63 81 69 82 64 83 65 84 66 85 67 86 68 87 47 88 48 89
REMARK SMILES IDX 56 90 49 91 55 92 50 93 51 94 52 95 53 96 54 97
REMARK H PARENT 11 20 9 22 90 30 88 32 75 53 45 64
REMARK Flexibility Score: inf
ROOT
ATOM      1  C   UNL A   1      33.518  27.495  26.096  1.00  0.00     0.275 C 
ENDROOT
BRANCH   1   2
ATOM      2  C   UNL A   1      33.997  26.045  25.951  1.00  0.00     0.274 C 
BRANCH   2   3
ATOM      3  O   UNL A   1      33.480  25.407  24.762  1.00  0.00    -0.461 OA
BRANCH   3   4
ATOM      4  C   UNL A   1      32.596  24.385  24.964  1.00  0.00     0.318 C 
ATOM      5  O   UNL A   1      31.501  24.527  25.493  1.00  0.00    -0.251 OA
BRANCH   4   6
ATOM      6  C   UNL A   1      33.200  23.046  24.554  1.00  0.00     0.182 C 
ATOM      7  O   UNL A   1      33.423  23.477  21.049  1.00  0.00    -0.247 OA
ATOM      8  C   UNL A   1      33.153  23.134  22.175  1.00  0.00     0.335 C 
ATOM      9  O   UNL A   1      31.943  22.676  22.609  1.00  0.00    -0.453 OA
ATOM     10  C   UNL A   1      34.070  23.121  23.346  1.00  0.00     0.056 C 
ATOM     11  C   UNL A   1      32.047  22.228  23.977  1.00  0.00     0.226 C 
ATOM     12  C   UNL A   1      35.397  23.031  23.157  1.00  0.00     0.020 C 
BRANCH  11  13
ATOM     13  C   UNL A   1      32.251  20.719  24.027  1.00  0.00    -0.002 A 
ATOM     14  C   UNL A   1      32.211  19.957  22.843  1.00  0.00     0.012 A 
ATOM     15  C   UNL A   1      32.497  20.056  25.243  1.00  0.00     0.057 A 
ATOM     16  C   UNL A   1      32.339  18.566  22.877  1.00  0.00     0.050 A 
ATOM     17  C   UNL A   1      32.630  18.675  25.266  1.00  0.00     0.157 A 
ATOM     18  C   UNL A   1      32.538  17.932  24.096  1.00  0.00     0.157 A 
BRANCH  17  19
ATOM     19  O   UNL A   1      32.840  18.047  26.460  1.00  0.00    -0.504 OA
ATOM     20  H   UNL A   1      33.593  17.502  26.576  1.00  0.00     0.293 HD
ENDBRANCH  17  19
BRANCH  18  21
ATOM     21  O   UNL A   1      32.649  16.573  24.191  1.00  0.00    -0.504 OA
ATOM     22  H   UNL A   1      32.273  16.122  24.921  1.00  0.00     0.293 HD
ENDBRANCH  18  21
ENDBRANCH  11  13
BRANCH  12  23
ATOM     23  C   UNL A   1      36.425  22.943  24.201  1.00  0.00    -0.021 A 
ATOM     24  C   UNL A   1      36.772  24.012  25.032  1.00  0.00     0.012 A 
ATOM     25  C   UNL A   1      37.049  21.716  24.416  1.00  0.00     0.058 A 
ATOM     26  C   UNL A   1      37.741  23.842  26.040  1.00  0.00     0.051 A 
ATOM     27  C   UNL A   1      38.050  21.563  25.358  1.00  0.00     0.157 A 
ATOM     28  C   UNL A   1      38.383  22.616  26.186  1.00  0.00     0.157 A 
BRANCH  27  29
ATOM     29  O   UNL A   1      38.686  20.360  25.469  1.00  0.00    -0.504 OA
ATOM     30  H   UNL A   1      38.309  19.593  25.085  1.00  0.00     0.293 HD
ENDBRANCH  27  29
BRANCH  28  31
ATOM     31  O   UNL A   1      39.333  22.384  27.136  1.00  0.00    -0.504 OA
ATOM     32  H   UNL A   1      39.827  21.587  27.121  1.00  0.00     0.293 HD
ENDBRANCH  28  31
ENDBRANCH  12  23
ENDBRANCH   4   6
ENDBRANCH   3   4
ENDBRANCH   2   3
ENDBRANCH   1   2
BRANCH   1  33
ATOM     33  O   UNL A   1      34.615  28.424  26.229  1.00  0.00    -0.458 OA
BRANCH  33  34
ATOM     34  C   UNL A   1      34.469  29.259  27.281  1.00  0.00     0.338 C 
ATOM     35  O   UNL A   1      33.396  29.603  27.757  1.00  0.00    -0.246 OA
BRANCH  34  36
ATOM     36  C   UNL A   1      35.744  29.670  27.897  1.00  0.00     0.060 A 
ATOM     37  C   UNL A   1      36.796  29.982  27.037  1.00  0.00     0.016 A 
ATOM     38  C   UNL A   1      36.017  29.292  29.216  1.00  0.00     0.016 A 
ATOM     39  C   UNL A   1      38.110  29.737  27.442  1.00  0.00     0.010 A 
ATOM     40  C   UNL A   1      37.349  29.154  29.649  1.00  0.00     0.010 A 
ATOM     41  C   UNL A   1      38.416  29.305  28.749  1.00  0.00    -0.014 A 
BRANCH  41  42
ATOM     42  C   UNL A   1      39.837  29.007  29.129  1.00  0.00     0.031 A 
ATOM     43  C   UNL A   1      40.727  29.999  29.859  1.00  0.00     0.074 A 
ATOM     44  C   UNL A   1      40.330  27.780  28.863  1.00  0.00     0.049 A 
ATOM     45  N   UNL A   1      42.004  29.911  30.157  1.00  0.00    -0.248 NA
ATOM     46  C   UNL A   1      40.109  31.245  30.325  1.00  0.00     0.031 C 
ATOM     47  C   UNL A   1      39.586  26.691  28.225  1.00  0.00     0.029 A 
ATOM     48  N   UNL A   1      41.567  27.237  29.106  1.00  0.00    -0.354 N 
ATOM     49  C   UNL A   1      42.338  31.095  30.819  1.00  0.00     0.074 A 
ATOM     50  C   UNL A   1      41.130  31.886  30.885  1.00  0.00     0.031 C 
ATOM     51  C   UNL A   1      40.355  25.600  28.179  1.00  0.00     0.029 A 
ATOM     52  C   UNL A   1      41.689  25.948  28.647  1.00  0.00     0.049 A 
ATOM     53  H   UNL A   1      42.292  27.720  29.564  1.00  0.00     0.167 HD
ATOM     54  C   UNL A   1      43.542  31.491  31.310  1.00  0.00     0.031 A 
ATOM     55  C   UNL A   1      42.762  25.145  28.523  1.00  0.00     0.031 A 
ATOM     56  C   UNL A   1      44.748  30.697  31.239  1.00  0.00     0.049 A 
ATOM     57  C   UNL A   1      44.101  25.642  28.959  1.00  0.00     0.074 A 
ATOM     58  C   UNL A   1      46.016  31.012  31.700  1.00  0.00     0.029 A 
ATOM     59  N   UNL A   1      44.837  29.437  30.668  1.00  0.00    -0.354 N 
ATOM     60  N   UNL A   1      44.412  26.791  29.510  1.00  0.00    -0.248 NA
ATOM     61  C   UNL A   1      45.238  24.742  28.741  1.00  0.00     0.031 C 
ATOM     62  C   UNL A   1      46.884  29.972  31.349  1.00  0.00     0.029 A 
ATOM     63  C   UNL A   1      46.144  28.977  30.732  1.00  0.00     0.049 A 
ATOM     64  H   UNL A   1      44.084  28.941  30.274  1.00  0.00     0.167 HD
ATOM     65  C   UNL A   1      45.784  26.750  29.710  1.00  0.00     0.074 A 
ATOM     66  C   UNL A   1      46.238  25.455  29.242  1.00  0.00     0.031 C 
ATOM     67  C   UNL A   1      46.594  27.703  30.234  1.00  0.00     0.031 A 
BRANCH  54  68
ATOM     68  C   UNL A   1      43.661  32.871  31.924  1.00  0.00    -0.014 A 
ATOM     69  C   UNL A   1      43.844  34.022  31.139  1.00  0.00     0.010 A 
ATOM     70  C   UNL A   1      43.468  33.023  33.312  1.00  0.00     0.010 A 
ATOM     71  C   UNL A   1      43.849  35.294  31.730  1.00  0.00     0.020 A 
ATOM     72  C   UNL A   1      43.450  34.293  33.905  1.00  0.00     0.020 A 
ATOM     73  C   UNL A   1      43.654  35.421  33.110  1.00  0.00     0.054 A 
BRANCH  73  74
ATOM     74  S   UNL A   1      43.629  37.083  33.844  1.00  0.00     0.124 S 
ATOM     75  O   UNL A   1      42.343  37.087  34.538  1.00  0.00    -0.237 OA
ATOM     76  O   UNL A   1      44.806  37.071  34.709  1.00  0.00    -0.237 OA
ATOM     77  O   UNL A   1      43.715  37.976  32.692  1.00  0.00    -0.744 OA
ENDBRANCH  73  74
ENDBRANCH  54  68
BRANCH  55  78
ATOM     78  C   UNL A   1      42.589  23.832  27.848  1.00  0.00    -0.014 A 
ATOM     79  C   UNL A   1      42.693  23.714  26.454  1.00  0.00     0.010 A 
ATOM     80  C   UNL A   1      42.423  22.669  28.629  1.00  0.00     0.010 A 
ATOM     81  C   UNL A   1      42.654  22.452  25.853  1.00  0.00     0.020 A 
ATOM     82  C   UNL A   1      42.424  21.408  28.036  1.00  0.00     0.020 A 
ATOM     83  C   UNL A   1      42.534  21.307  26.650  1.00  0.00     0.054 A 
BRANCH  83  84
ATOM     84  S   UNL A   1      42.603  19.674  25.864  1.00  0.00     0.124 S 
ATOM     85  O   UNL A   1      43.581  19.890  24.803  1.00  0.00    -0.237 OA
ATOM     86  O   UNL A   1      43.037  18.810  26.959  1.00  0.00    -0.237 OA
ATOM     87  O   UNL A   1      41.229  19.453  25.416  1.00  0.00    -0.744 OA
ENDBRANCH  83  84
ENDBRANCH  55  78
BRANCH  67  88
ATOM     88  C   UNL A   1      48.054  27.359  30.346  1.00  0.00    -0.014 A 
ATOM     89  C   UNL A   1      48.562  26.705  31.481  1.00  0.00     0.010 A 
ATOM     90  C   UNL A   1      48.931  27.715  29.305  1.00  0.00     0.010 A 
ATOM     91  C   UNL A   1      49.933  26.462  31.600  1.00  0.00     0.020 A 
ATOM     92  C   UNL A   1      50.299  27.449  29.408  1.00  0.00     0.020 A 
ATOM     93  C   UNL A   1      50.794  26.845  30.566  1.00  0.00     0.054 A 
BRANCH  93  94
ATOM     94  S   UNL A   1      52.570  26.531  30.747  1.00  0.00     0.124 S 
ATOM     95  O   UNL A   1      53.024  27.739  31.432  1.00  0.00    -0.237 OA
ATOM     96  O   UNL A   1      52.601  25.307  31.546  1.00  0.00    -0.237 OA
ATOM     97  O   UNL A   1      53.038  26.381  29.371  1.00  0.00    -0.744 OA
ENDBRANCH  93  94
ENDBRANCH  67  88
ENDBRANCH  41  42
ENDBRANCH  34  36
ENDBRANCH  33  34
ENDBRANCH   1  33
TORSDOF 20
ENDMDL
MODEL 2
REMARK VINA RESULT:     -11.5      3.250      9.606
REMARK SMILES O=C1O[C@@H](c2ccc(O)c(O)c2)[C@H](C(=O)OCCOC(=O)c2ccc(-c3c4nc(c(-c5ccc(S(=O)(=O)[O-])cc5)c5ccc([nH]5)c(-c5ccc(S(=O)(=O)[O-])cc5)c5nc(c(-c6ccc(S(=O)(=O)[O-])cc6)c6ccc3[nH]6)C=C5)C=C4)cc2)/C1=C\c1ccc(O)c(O)c1
REMARK SMILES IDX 18 1 17 2 16 3 14 4 15 5 13 6 1 7 2 8 3 9 82 10 4 11 83 12
REMARK SMILES IDX 5 13 6 14 12 15 7 16 10 17 8 18 11 19 9 21 84 23 85 24 91 25
REMARK SMILES IDX 86 26 89 27 87 28 90 29 88 31 19 33 20 34 21 35 22 36 23 37
REMARK SMILES IDX 81 38 24 39 80 40 25 41 26 42 27 43 74 44 28 45 79 46 73 47
REMARK SMILES IDX 75 48 29 49 78 50 72 51 71 52 30 54 60 55 41 56 59 57 42 58
REMARK SMILES IDX 45 59 58 60 76 61 43 62 44 63 57 65 77 66 46 67 31 68 32 69
REMARK SMILES IDX 40 70 33 71 39 72 34 73 35 74 36 75 37 76 38 77 61 78 62 79
REMARK SMILES IDX 70 80 63 81 69 82 64 83 65 84 66 85 67 86 68 87 47 88 48 89
REMARK SMILES IDX 56 90 49 91 55 92 50 93 51 94 52 95 53 96 54 97
REMARK H PARENT 11 20 9 22 90 30 88 32 75 53 45 64
REMARK Flexibility Score: inf
ROOT
ATOM      1  C   UNL A   1      35.744  23.806  24.917  1.00  0.00     0.275 C 
ENDROOT
BRANCH   1   2
ATOM      2  C   UNL A   1      34.310  24.207  25.286  1.00  0.00     0.274 C 
BRANCH   2   3
ATOM      3  O   UNL A   1      33.927  25.479  24.716  1.00  0.00    -0.461 OA
BRANCH   3   4
ATOM      4  C   UNL A   1      32.850  25.461  23.876  1.00  0.00     0.318 C 
ATOM      5  O   UNL A   1      32.748  24.708  22.916  1.00  0.00    -0.251 OA
BRANCH   4   6
ATOM      6  C   UNL A   1      31.864  26.572  24.223  1.00  0.00     0.182 C 
ATOM      7  O   UNL A   1      29.790  24.899  26.551  1.00  0.00    -0.247 OA
ATOM      8  C   UNL A   1      30.263  25.468  25.596  1.00  0.00     0.335 C 
ATOM      9  O   UNL A   1      29.902  25.289  24.293  1.00  0.00    -0.453 OA
ATOM     10  C   UNL A   1      31.337  26.498  25.615  1.00  0.00     0.056 C 
ATOM     11  C   UNL A   1      30.584  26.248  23.457  1.00  0.00     0.226 C 
ATOM     12  C   UNL A   1      31.541  27.233  26.720  1.00  0.00     0.020 C 
BRANCH  11  13
ATOM     13  C   UNL A   1      29.686  27.447  23.183  1.00  0.00    -0.002 A 
ATOM     14  C   UNL A   1      28.320  27.404  23.525  1.00  0.00     0.012 A 
ATOM     15  C   UNL A   1      30.195  28.623  22.601  1.00  0.00     0.057 A 
ATOM     16  C   UNL A   1      27.470  28.473  23.230  1.00  0.00     0.050 A 
ATOM     17  C   UNL A   1      29.344  29.682  22.318  1.00  0.00     0.157 A 
ATOM     18  C   UNL A   1      27.990  29.605  22.616  1.00  0.00     0.157 A 
BRANCH  17  19
ATOM     19  O   UNL A   1      29.852  30.802  21.727  1.00  0.00    -0.504 OA
ATOM     20  H   UNL A   1      30.148  31.517  22.256  1.00  0.00     0.293 HD
ENDBRANCH  17  19
BRANCH  18  21
ATOM     21  O   UNL A   1      27.201  30.671  22.284  1.00  0.00    -0.504 OA
ATOM     22  H   UNL A   1      27.197  30.996  21.405  1.00  0.00     0.293 HD
ENDBRANCH  18  21
ENDBRANCH  11  13
BRANCH  12  23
ATOM     23  C   UNL A   1      32.510  28.324  26.878  1.00  0.00    -0.021 A 
ATOM     24  C   UNL A   1      33.889  28.120  26.986  1.00  0.00     0.012 A 
ATOM     25  C   UNL A   1      32.041  29.636  26.863  1.00  0.00     0.058 A 
ATOM     26  C   UNL A   1      34.763  29.219  27.095  1.00  0.00     0.051 A 
ATOM     27  C   UNL A   1      32.887  30.715  27.039  1.00  0.00     0.157 A 
ATOM     28  C   UNL A   1      34.250  30.512  27.133  1.00  0.00     0.157 A 
BRANCH  27  29
ATOM     29  O   UNL A   1      32.364  31.974  27.100  1.00  0.00    -0.504 OA
ATOM     30  H   UNL A   1      31.559  32.169  26.661  1.00  0.00     0.293 HD
ENDBRANCH  27  29
BRANCH  28  31
ATOM     31  O   UNL A   1      35.038  31.620  27.242  1.00  0.00    -0.504 OA
ATOM     32  H   UNL A   1      34.753  32.436  26.879  1.00  0.00     0.293 HD
ENDBRANCH  28  31
ENDBRANCH  12  23
ENDBRANCH   4   6
ENDBRANCH   3   4
ENDBRANCH   2   3
ENDBRANCH   1   2
BRANCH   1  33
ATOM     33  O   UNL A   1      36.723  24.398  25.798  1.00  0.00    -0.458 OA
BRANCH  33  34
ATOM     34  C   UNL A   1      37.880  23.700  25.839  1.00  0.00     0.338 C 
ATOM     35  O   UNL A   1      38.099  22.673  25.213  1.00  0.00    -0.246 OA
BRANCH  34  36
ATOM     36  C   UNL A   1      38.932  24.340  26.649  1.00  0.00     0.060 A 
ATOM     37  C   UNL A   1      38.736  24.385  28.029  1.00  0.00     0.016 A 
ATOM     38  C   UNL A   1      39.797  25.258  26.043  1.00  0.00     0.016 A 
ATOM     39  C   UNL A   1      39.255  25.454  28.762  1.00  0.00     0.010 A 
ATOM     40  C   UNL A   1      40.405  26.269  26.811  1.00  0.00     0.010 A 
ATOM     41  C   UNL A   1      40.088  26.426  28.170  1.00  0.00    -0.014 A 
BRANCH  41  42
ATOM     42  C   UNL A   1      40.585  27.586  28.982  1.00  0.00     0.031 A 
ATOM     43  C   UNL A   1      41.951  27.609  29.647  1.00  0.00     0.074 A 
ATOM     44  C   UNL A   1      39.807  28.684  29.079  1.00  0.00     0.049 A 
ATOM     45  N   UNL A   1      42.467  28.502  30.462  1.00  0.00    -0.248 NA
ATOM     46  C   UNL A   1      42.863  26.497  29.356  1.00  0.00     0.031 C 
ATOM     47  C   UNL A   1      38.495  28.848  28.448  1.00  0.00     0.029 A 
ATOM     48  N   UNL A   1      40.010  29.873  29.732  1.00  0.00    -0.354 N 
ATOM     49  C   UNL A   1      43.744  28.044  30.793  1.00  0.00     0.074 A 
ATOM     50  C   UNL A   1      43.930  26.796  30.088  1.00  0.00     0.031 C 
ATOM     51  C   UNL A   1      38.039  30.079  28.694  1.00  0.00     0.029 A 
ATOM     52  C   UNL A   1      38.950  30.739  29.617  1.00  0.00     0.049 A 
ATOM     53  H   UNL A   1      40.832  30.086  30.231  1.00  0.00     0.167 HD
ATOM     54  C   UNL A   1      44.666  28.604  31.620  1.00  0.00     0.031 A 
ATOM     55  C   UNL A   1      38.676  31.899  30.242  1.00  0.00     0.031 A 
ATOM     56  C   UNL A   1      44.474  29.851  32.324  1.00  0.00     0.049 A 
ATOM     57  C   UNL A   1      39.649  32.440  31.238  1.00  0.00     0.074 A 
ATOM     58  C   UNL A   1      45.343  30.497  33.188  1.00  0.00     0.029 A 
ATOM     59  N   UNL A   1      43.334  30.637  32.251  1.00  0.00    -0.354 N 
ATOM     60  N   UNL A   1      40.813  31.956  31.596  1.00  0.00    -0.248 NA
ATOM     61  C   UNL A   1      39.262  33.676  31.927  1.00  0.00     0.031 C 
ATOM     62  C   UNL A   1      44.704  31.637  33.687  1.00  0.00     0.029 A 
ATOM     63  C   UNL A   1      43.463  31.741  33.081  1.00  0.00     0.049 A 
ATOM     64  H   UNL A   1      42.548  30.441  31.692  1.00  0.00     0.167 HD
ATOM     65  C   UNL A   1      41.305  32.833  32.553  1.00  0.00     0.074 A 
ATOM     66  C   UNL A   1      40.320  33.888  32.699  1.00  0.00     0.031 C 
ATOM     67  C   UNL A   1      42.467  32.767  33.247  1.00  0.00     0.031 A 
BRANCH  54  68
ATOM     68  C   UNL A   1      45.962  27.861  31.876  1.00  0.00    -0.014 A 
ATOM     69  C   UNL A   1      46.069  26.868  32.864  1.00  0.00     0.010 A 
ATOM     70  C   UNL A   1      47.063  28.088  31.024  1.00  0.00     0.010 A 
ATOM     71  C   UNL A   1      47.253  26.130  33.008  1.00  0.00     0.020 A 
ATOM     72  C   UNL A   1      48.239  27.338  31.148  1.00  0.00     0.020 A 
ATOM     73  C   UNL A   1      48.332  26.371  32.150  1.00  0.00     0.054 A 
BRANCH  73  74
ATOM     74  S   UNL A   1      49.840  25.375  32.334  1.00  0.00     0.124 S 
ATOM     75  O   UNL A   1      49.401  24.332  33.259  1.00  0.00    -0.237 OA
ATOM     76  O   UNL A   1      50.103  24.931  30.968  1.00  0.00    -0.237 OA
ATOM     77  O   UNL A   1      50.816  26.316  32.879  1.00  0.00    -0.744 OA
ENDBRANCH  73  74
ENDBRANCH  54  68
BRANCH  55  78
ATOM     78  C   UNL A   1      37.356  32.540  29.998  1.00  0.00    -0.014 A 
ATOM     79  C   UNL A   1      36.220  32.159  30.728  1.00  0.00     0.010 A 
ATOM     80  C   UNL A   1      37.268  33.620  29.096  1.00  0.00     0.010 A 
ATOM     81  C   UNL A   1      35.022  32.862  30.573  1.00  0.00     0.020 A 
ATOM     82  C   UNL A   1      36.085  34.346  28.969  1.00  0.00     0.020 A 
ATOM     83  C   UNL A   1      34.966  33.960  29.705  1.00  0.00     0.054 A 
BRANCH  83  84
ATOM     84  S   UNL A   1      33.438  34.929  29.605  1.00  0.00     0.124 S 
ATOM     85  O   UNL A   1      33.899  36.154  28.958  1.00  0.00    -0.237 OA
ATOM     86  O   UNL A   1      32.569  34.076  28.797  1.00  0.00    -0.237 OA
ATOM     87  O   UNL A   1      33.031  35.071  31.001  1.00  0.00    -0.744 OA
ENDBRANCH  83  84
ENDBRANCH  55  78
BRANCH  67  88
ATOM     88  C   UNL A   1      42.739  33.887  34.212  1.00  0.00    -0.014 A 
ATOM     89  C   UNL A   1      43.360  35.076  33.791  1.00  0.00     0.010 A 
ATOM     90  C   UNL A   1      42.385  33.738  35.566  1.00  0.00     0.010 A 
ATOM     91  C   UNL A   1      43.673  36.074  34.717  1.00  0.00     0.020 A 
ATOM     92  C   UNL A   1      42.672  34.746  36.490  1.00  0.00     0.020 A 
ATOM     93  C   UNL A   1      43.335  35.898  36.063  1.00  0.00     0.054 A 
BRANCH  93  94
ATOM     94  S   UNL A   1      43.763  37.201  37.249  1.00  0.00     0.124 S 
ATOM     95  O   UNL A   1      44.885  36.603  37.966  1.00  0.00    -0.237 OA
ATOM     96  O   UNL A   1      44.101  38.328  36.381  1.00  0.00    -0.237 OA
ATOM     97  O   UNL A   1      42.540  37.371  38.032  1.00  0.00    -0.744 OA
ENDBRANCH  93  94
ENDBRANCH  67  88
ENDBRANCH  41  42
ENDBRANCH  34  36
ENDBRANCH  33  34
ENDBRANCH   1  33
TORSDOF 20
ENDMDL
MODEL 3
REMARK VINA RESULT:     -11.5      2.369      8.105
REMARK SMILES O=C1O[C@@H](c2ccc(O)c(O)c2)[C@H](C(=O)OCCOC(=O)c2ccc(-c3c4nc(c(-c5ccc(S(=O)(=O)[O-])cc5)c5ccc([nH]5)c(-c5ccc(S(=O)(=O)[O-])cc5)c5nc(c(-c6ccc(S(=O)(=O)[O-])cc6)c6ccc3[nH]6)C=C5)C=C4)cc2)/C1=C\c1ccc(O)c(O)c1
REMARK SMILES IDX 18 1 17 2 16 3 14 4 15 5 13 6 1 7 2 8 3 9 82 10 4 11 83 12
REMARK SMILES IDX 5 13 6 14 12 15 7 16 10 17 8 18 11 19 9 21 84 23 85 24 91 25
REMARK SMILES IDX 86 26 89 27 87 28 90 29 88 31 19 33 20 34 21 35 22 36 23 37
REMARK SMILES IDX 81 38 24 39 80 40 25 41 26 42 27 43 74 44 28 45 79 46 73 47
REMARK SMILES IDX 75 48 29 49 78 50 72 51 71 52 30 54 60 55 41 56 59 57 42 58
REMARK SMILES IDX 45 59 58 60 76 61 43 62 44 63 57 65 77 66 46 67 31 68 32 69
REMARK SMILES IDX 40 70 33 71 39 72 34 73 35 74 36 75 37 76 38 77 61 78 62 79
REMARK SMILES IDX 70 80 63 81 69 82 64 83 65 84 66 85 67 86 68 87 47 88 48 89
REMARK SMILES IDX 56 90 49 91 55 92 50 93 51 94 52 95 53 96 54 97
REMARK H PARENT 11 20 9 22 90 30 88 32 75 53 45 64
REMARK Flexibility Score: inf
ROOT
ATOM      1  C   UNL A   1      33.718  27.460  25.576  1.00  0.00     0.275 C 
ENDROOT
BRANCH   1   2
ATOM      2  C   UNL A   1      32.842  26.208  25.715  1.00  0.00     0.274 C 
BRANCH   2   3
ATOM      3  O   UNL A   1      33.593  24.986  25.542  1.00  0.00    -0.461 OA
BRANCH   3   4
ATOM      4  C   UNL A   1      32.899  23.823  25.723  1.00  0.00     0.318 C 
ATOM      5  O   UNL A   1      31.916  23.723  26.446  1.00  0.00    -0.251 OA
BRANCH   4   6
ATOM      6  C   UNL A   1      33.578  22.660  25.007  1.00  0.00     0.182 C 
ATOM      7  O   UNL A   1      33.570  23.852  21.676  1.00  0.00    -0.247 OA
ATOM      8  C   UNL A   1      33.390  23.254  22.709  1.00  0.00     0.335 C 
ATOM      9  O   UNL A   1      32.245  22.612  23.078  1.00  0.00    -0.453 OA
ATOM     10  C   UNL A   1      34.371  23.067  23.813  1.00  0.00     0.056 C 
ATOM     11  C   UNL A   1      32.459  21.890  24.310  1.00  0.00     0.226 C 
ATOM     12  C   UNL A   1      35.688  23.134  23.557  1.00  0.00     0.020 C 
BRANCH  11  13
ATOM     13  C   UNL A   1      32.778  20.429  24.021  1.00  0.00    -0.002 A 
ATOM     14  C   UNL A   1      33.768  19.757  24.764  1.00  0.00     0.012 A 
ATOM     15  C   UNL A   1      32.089  19.714  23.024  1.00  0.00     0.057 A 
ATOM     16  C   UNL A   1      34.113  18.434  24.476  1.00  0.00     0.050 A 
ATOM     17  C   UNL A   1      32.433  18.398  22.749  1.00  0.00     0.157 A 
ATOM     18  C   UNL A   1      33.446  17.766  23.458  1.00  0.00     0.157 A 
BRANCH  17  19
ATOM     19  O   UNL A   1      31.771  17.732  21.759  1.00  0.00    -0.504 OA
ATOM     20  H   UNL A   1      30.882  17.466  21.887  1.00  0.00     0.293 HD
ENDBRANCH  17  19
BRANCH  18  21
ATOM     21  O   UNL A   1      33.756  16.479  23.118  1.00  0.00    -0.504 OA
ATOM     22  H   UNL A   1      34.653  16.214  23.049  1.00  0.00     0.293 HD
ENDBRANCH  18  21
ENDBRANCH  11  13
BRANCH  12  23
ATOM     23  C   UNL A   1      36.776  22.911  24.516  1.00  0.00    -0.021 A 
ATOM     24  C   UNL A   1      37.247  23.896  25.389  1.00  0.00     0.012 A 
ATOM     25  C   UNL A   1      37.334  21.638  24.603  1.00  0.00     0.058 A 
ATOM     26  C   UNL A   1      38.269  23.598  26.311  1.00  0.00     0.051 A 
ATOM     27  C   UNL A   1      38.385  21.359  25.457  1.00  0.00     0.157 A 
ATOM     28  C   UNL A   1      38.840  22.329  26.328  1.00  0.00     0.157 A 
BRANCH  27  29
ATOM     29  O   UNL A   1      38.949  20.116  25.441  1.00  0.00    -0.504 OA
ATOM     30  H   UNL A   1      39.743  19.967  24.965  1.00  0.00     0.293 HD
ENDBRANCH  27  29
BRANCH  28  31
ATOM     31  O   UNL A   1      39.836  21.974  27.190  1.00  0.00    -0.504 OA
ATOM     32  H   UNL A   1      39.911  21.086  27.480  1.00  0.00     0.293 HD
ENDBRANCH  28  31
ENDBRANCH  12  23
ENDBRANCH   4   6
ENDBRANCH   3   4
ENDBRANCH   2   3
ENDBRANCH   1   2
BRANCH   1  33
ATOM     33  O   UNL A   1      34.233  27.912  26.847  1.00  0.00    -0.458 OA
BRANCH  33  34
ATOM     34  C   UNL A   1      34.349  29.257  26.915  1.00  0.00     0.338 C 
ATOM     35  O   UNL A   1      33.544  30.053  26.455  1.00  0.00    -0.246 OA
BRANCH  34  36
ATOM     36  C   UNL A   1      35.515  29.714  27.695  1.00  0.00     0.060 A 
ATOM     37  C   UNL A   1      36.694  29.962  26.994  1.00  0.00     0.016 A 
ATOM     38  C   UNL A   1      35.569  29.438  29.066  1.00  0.00     0.016 A 
ATOM     39  C   UNL A   1      37.923  29.750  27.621  1.00  0.00     0.010 A 
ATOM     40  C   UNL A   1      36.814  29.334  29.716  1.00  0.00     0.010 A 
ATOM     41  C   UNL A   1      38.013  29.419  28.989  1.00  0.00    -0.014 A 
BRANCH  41  42
ATOM     42  C   UNL A   1      39.351  29.152  29.613  1.00  0.00     0.031 A 
ATOM     43  C   UNL A   1      40.302  28.078  29.110  1.00  0.00     0.074 A 
ATOM     44  C   UNL A   1      39.755  29.939  30.631  1.00  0.00     0.049 A 
ATOM     45  N   UNL A   1      41.443  27.672  29.617  1.00  0.00    -0.248 NA
ATOM     46  C   UNL A   1      39.936  27.377  27.874  1.00  0.00     0.031 C 
ATOM     47  C   UNL A   1      38.988  31.055  31.192  1.00  0.00     0.029 A 
ATOM     48  N   UNL A   1      40.913  29.932  31.367  1.00  0.00    -0.354 N 
ATOM     49  C   UNL A   1      41.911  26.658  28.779  1.00  0.00     0.074 A 
ATOM     50  C   UNL A   1      40.933  26.512  27.724  1.00  0.00     0.031 C 
ATOM     51  C   UNL A   1      39.715  31.657  32.137  1.00  0.00     0.029 A 
ATOM     52  C   UNL A   1      40.931  30.887  32.354  1.00  0.00     0.049 A 
ATOM     53  H   UNL A   1      41.656  29.307  31.204  1.00  0.00     0.167 HD
ATOM     54  C   UNL A   1      43.039  25.908  28.887  1.00  0.00     0.031 A 
ATOM     55  C   UNL A   1      41.775  31.088  33.382  1.00  0.00     0.031 A 
ATOM     56  C   UNL A   1      44.012  26.057  29.945  1.00  0.00     0.049 A 
ATOM     57  C   UNL A   1      42.947  30.179  33.555  1.00  0.00     0.074 A 
ATOM     58  C   UNL A   1      45.184  25.343  30.147  1.00  0.00     0.029 A 
ATOM     59  N   UNL A   1      43.927  26.975  30.981  1.00  0.00    -0.354 N 
ATOM     60  N   UNL A   1      43.330  29.180  32.799  1.00  0.00    -0.248 NA
ATOM     61  C   UNL A   1      43.791  30.415  34.731  1.00  0.00     0.031 C 
ATOM     62  C   UNL A   1      45.770  25.784  31.338  1.00  0.00     0.029 A 
ATOM     63  C   UNL A   1      45.003  26.821  31.843  1.00  0.00     0.049 A 
ATOM     64  H   UNL A   1      43.208  27.638  31.088  1.00  0.00     0.167 HD
ATOM     65  C   UNL A   1      44.467  28.666  33.406  1.00  0.00     0.074 A 
ATOM     66  C   UNL A   1      44.721  29.481  34.578  1.00  0.00     0.031 C 
ATOM     67  C   UNL A   1      45.231  27.614  33.024  1.00  0.00     0.031 A 
BRANCH  54  68
ATOM     68  C   UNL A   1      43.283  24.806  27.877  1.00  0.00    -0.014 A 
ATOM     69  C   UNL A   1      43.964  25.039  26.670  1.00  0.00     0.010 A 
ATOM     70  C   UNL A   1      42.920  23.483  28.204  1.00  0.00     0.010 A 
ATOM     71  C   UNL A   1      44.261  23.977  25.803  1.00  0.00     0.020 A 
ATOM     72  C   UNL A   1      43.235  22.416  27.352  1.00  0.00     0.020 A 
ATOM     73  C   UNL A   1      43.893  22.672  26.149  1.00  0.00     0.054 A 
BRANCH  73  74
ATOM     74  S   UNL A   1      44.323  21.311  25.025  1.00  0.00     0.124 S 
ATOM     75  O   UNL A   1      44.207  21.952  23.717  1.00  0.00    -0.237 OA
ATOM     76  O   UNL A   1      45.682  20.969  25.436  1.00  0.00    -0.237 OA
ATOM     77  O   UNL A   1      43.315  20.292  25.308  1.00  0.00    -0.744 OA
ENDBRANCH  73  74
ENDBRANCH  54  68
BRANCH  55  78
ATOM     78  C   UNL A   1      41.439  32.142  34.377  1.00  0.00    -0.014 A 
ATOM     79  C   UNL A   1      41.941  33.445  34.250  1.00  0.00     0.010 A 
ATOM     80  C   UNL A   1      40.517  31.854  35.404  1.00  0.00     0.010 A 
ATOM     81  C   UNL A   1      41.510  34.449  35.123  1.00  0.00     0.020 A 
ATOM     82  C   UNL A   1      40.056  32.862  36.250  1.00  0.00     0.020 A 
ATOM     83  C   UNL A   1      40.560  34.154  36.107  1.00  0.00     0.054 A 
BRANCH  83  84
ATOM     84  S   UNL A   1      39.927  35.492  37.154  1.00  0.00     0.124 S 
ATOM     85  O   UNL A   1      41.064  35.754  38.030  1.00  0.00    -0.237 OA
ATOM     86  O   UNL A   1      39.621  36.541  36.183  1.00  0.00    -0.237 OA
ATOM     87  O   UNL A   1      38.760  34.897  37.801  1.00  0.00    -0.744 OA
ENDBRANCH  83  84
ENDBRANCH  55  78
BRANCH  67  88
ATOM     88  C   UNL A   1      46.428  27.304  33.880  1.00  0.00    -0.014 A 
ATOM     89  C   UNL A   1      47.673  27.908  33.634  1.00  0.00     0.010 A 
ATOM     90  C   UNL A   1      46.307  26.380  34.933  1.00  0.00     0.010 A 
ATOM     91  C   UNL A   1      48.792  27.550  34.391  1.00  0.00     0.020 A 
ATOM     92  C   UNL A   1      47.417  26.041  35.711  1.00  0.00     0.020 A 
ATOM     93  C   UNL A   1      48.658  26.612  35.419  1.00  0.00     0.054 A 
BRANCH  93  94
ATOM     94  S   UNL A   1      50.125  26.155  36.381  1.00  0.00     0.124 S 
ATOM     95  O   UNL A   1      50.766  27.450  36.592  1.00  0.00    -0.237 OA
ATOM     96  O   UNL A   1      49.549  25.538  37.574  1.00  0.00    -0.237 OA
ATOM     97  O   UNL A   1      50.846  25.238  35.500  1.00  0.00    -0.744 OA
ENDBRANCH  93  94
ENDBRANCH  67  88
ENDBRANCH  41  42
ENDBRANCH  34  36
ENDBRANCH  33  34
ENDBRANCH   1  33
TORSDOF 20
ENDMDL
