MODEL 1
REMARK VINA RESULT:      -9.9      0.000      0.000
REMARK SMILES C[C@H](C(=O)OCCOC(=O)c1ccc(-c2c3nc(c(-c4ccc(S(=O)(=O)[O-])cc4)c4ccc([nH]4)c(-c4ccc(S(=O)(=O)[O-])cc4)c4nc(c(-c5ccc(S(=O)(=O)[O-])cc5)c5ccc2[nH]5)C=C4)C=C3)cc1)c1ccc(C[C@H]2CCC[C@@H]2O)cc1
REMARK SMILES IDX 6 1 5 2 3 3 4 4 2 5 1 6 71 7 72 8 83 9 73 10 82 11 74 12
REMARK SMILES IDX 75 13 76 14 77 15 80 16 78 17 79 18 81 19 7 21 8 22 9 23
REMARK SMILES IDX 10 24 11 25 12 26 70 27 13 28 69 29 14 30 15 31 16 32 63 33
REMARK SMILES IDX 17 34 68 35 62 36 64 37 18 38 67 39 61 40 60 41 19 43 49 44
REMARK SMILES IDX 30 45 48 46 31 47 34 48 47 49 65 50 32 51 33 52 46 54 66 55
REMARK SMILES IDX 35 56 20 57 21 58 29 59 22 60 28 61 23 62 24 63 25 64 26 65
REMARK SMILES IDX 27 66 50 67 51 68 59 69 52 70 58 71 53 72 54 73 55 74 56 75
REMARK SMILES IDX 57 76 36 77 37 78 45 79 38 80 44 81 39 82 40 83 41 84 42 85
REMARK SMILES IDX 43 86
REMARK H PARENT 81 20 64 42 34 53
REMARK Flexibility Score: inf
ROOT
ATOM      1  C   UNL A   1      33.184  34.065  28.009  1.00  0.00     0.274 C 
ENDROOT
BRANCH   1   2
ATOM      2  O   UNL A   1      33.089  34.202  29.440  1.00  0.00    -0.462 OA
BRANCH   2   3
ATOM      3  C   UNL A   1      33.182  35.474  29.921  1.00  0.00     0.313 C 
ATOM      4  O   UNL A   1      32.840  36.479  29.307  1.00  0.00    -0.252 OA
BRANCH   3   5
ATOM      5  C   UNL A   1      33.784  35.517  31.316  1.00  0.00     0.126 C 
ATOM      6  C   UNL A   1      32.704  35.684  32.391  1.00  0.00     0.025 C 
BRANCH   5   7
ATOM      7  C   UNL A   1      34.715  34.366  31.646  1.00  0.00    -0.034 A 
ATOM      8  C   UNL A   1      34.522  33.664  32.846  1.00  0.00     0.005 A 
ATOM      9  C   UNL A   1      35.766  33.973  30.807  1.00  0.00     0.005 A 
ATOM     10  C   UNL A   1      35.351  32.604  33.196  1.00  0.00     0.004 A 
ATOM     11  C   UNL A   1      36.615  32.928  31.174  1.00  0.00     0.004 A 
ATOM     12  C   UNL A   1      36.434  32.255  32.386  1.00  0.00    -0.048 A 
BRANCH  12  13
ATOM     13  C   UNL A   1      37.430  31.219  32.842  1.00  0.00     0.041 C 
BRANCH  13  14
ATOM     14  C   UNL A   1      38.442  31.708  33.894  1.00  0.00     0.022 C 
ATOM     15  C   UNL A   1      38.866  33.184  33.797  1.00  0.00     0.007 C 
ATOM     16  C   UNL A   1      38.010  31.533  35.352  1.00  0.00     0.117 C 
ATOM     17  C   UNL A   1      39.037  33.672  35.239  1.00  0.00     0.003 C 
ATOM     18  C   UNL A   1      38.992  32.420  36.100  1.00  0.00     0.032 C 
BRANCH  16  19
ATOM     19  O   UNL A   1      38.111  30.180  35.756  1.00  0.00    -0.393 OA
ATOM     20  H   UNL A   1      37.554  30.034  36.537  1.00  0.00     0.210 HD
ENDBRANCH  16  19
ENDBRANCH  13  14
ENDBRANCH  12  13
ENDBRANCH   5   7
ENDBRANCH   3   5
ENDBRANCH   2   3
ENDBRANCH   1   2
BRANCH   1  21
ATOM     21  C   UNL A   1      33.034  32.592  27.640  1.00  0.00     0.275 C 
BRANCH  21  22
ATOM     22  O   UNL A   1      34.053  31.841  28.323  1.00  0.00    -0.458 OA
BRANCH  22  23
ATOM     23  C   UNL A   1      34.193  30.552  27.934  1.00  0.00     0.338 C 
ATOM     24  O   UNL A   1      33.348  29.863  27.387  1.00  0.00    -0.246 OA
BRANCH  23  25
ATOM     25  C   UNL A   1      35.565  30.071  28.232  1.00  0.00     0.060 A 
ATOM     26  C   UNL A   1      35.940  29.668  29.518  1.00  0.00     0.016 A 
ATOM     27  C   UNL A   1      36.525  30.123  27.220  1.00  0.00     0.016 A 
ATOM     28  C   UNL A   1      37.277  29.395  29.809  1.00  0.00     0.010 A 
ATOM     29  C   UNL A   1      37.844  29.747  27.491  1.00  0.00     0.010 A 
ATOM     30  C   UNL A   1      38.244  29.401  28.793  1.00  0.00    -0.014 A 
BRANCH  30  31
ATOM     31  C   UNL A   1      39.664  29.044  29.064  1.00  0.00     0.031 A 
ATOM     32  C   UNL A   1      40.612  30.075  29.625  1.00  0.00     0.074 A 
ATOM     33  C   UNL A   1      40.129  27.814  28.765  1.00  0.00     0.049 A 
ATOM     34  N   UNL A   1      41.919  30.056  29.674  1.00  0.00    -0.248 NA
ATOM     35  C   UNL A   1      40.009  31.296  30.184  1.00  0.00     0.031 C 
ATOM     36  C   UNL A   1      39.328  26.696  28.259  1.00  0.00     0.029 A 
ATOM     37  N   UNL A   1      41.401  27.299  28.835  1.00  0.00    -0.354 N 
ATOM     38  C   UNL A   1      42.299  31.287  30.199  1.00  0.00     0.074 A 
ATOM     39  C   UNL A   1      41.082  32.023  30.467  1.00  0.00     0.031 C 
ATOM     40  C   UNL A   1      40.117  25.624  28.097  1.00  0.00     0.029 A 
ATOM     41  C   UNL A   1      41.494  26.001  28.389  1.00  0.00     0.049 A 
ATOM     42  H   UNL A   1      42.173  27.810  29.172  1.00  0.00     0.167 HD
ATOM     43  C   UNL A   1      43.547  31.763  30.421  1.00  0.00     0.031 A 
ATOM     44  C   UNL A   1      42.566  25.213  28.180  1.00  0.00     0.031 A 
ATOM     45  C   UNL A   1      44.753  31.008  30.197  1.00  0.00     0.049 A 
ATOM     46  C   UNL A   1      43.941  25.766  28.417  1.00  0.00     0.074 A 
ATOM     47  C   UNL A   1      46.065  31.399  30.406  1.00  0.00     0.029 A 
ATOM     48  N   UNL A   1      44.794  29.703  29.734  1.00  0.00    -0.354 N 
ATOM     49  N   UNL A   1      44.286  26.958  28.840  1.00  0.00    -0.248 NA
ATOM     50  C   UNL A   1      45.071  24.875  28.123  1.00  0.00     0.031 C 
ATOM     51  C   UNL A   1      46.902  30.337  30.040  1.00  0.00     0.029 A 
ATOM     52  C   UNL A   1      46.107  29.274  29.643  1.00  0.00     0.049 A 
ATOM     53  H   UNL A   1      44.006  29.160  29.504  1.00  0.00     0.167 HD
ATOM     54  C   UNL A   1      45.674  26.960  28.867  1.00  0.00     0.074 A 
ATOM     55  C   UNL A   1      46.105  25.645  28.437  1.00  0.00     0.031 C 
ATOM     56  C   UNL A   1      46.517  27.964  29.209  1.00  0.00     0.031 A 
BRANCH  43  57
ATOM     57  C   UNL A   1      43.678  33.189  30.886  1.00  0.00    -0.014 A 
ATOM     58  C   UNL A   1      43.899  33.506  32.238  1.00  0.00     0.010 A 
ATOM     59  C   UNL A   1      43.621  34.229  29.939  1.00  0.00     0.010 A 
ATOM     60  C   UNL A   1      44.026  34.840  32.638  1.00  0.00     0.020 A 
ATOM     61  C   UNL A   1      43.769  35.561  30.333  1.00  0.00     0.020 A 
ATOM     62  C   UNL A   1      43.953  35.860  31.683  1.00  0.00     0.054 A 
BRANCH  62  63
ATOM     63  S   UNL A   1      44.138  37.583  32.223  1.00  0.00     0.124 S 
ATOM     64  O   UNL A   1      43.129  37.678  33.273  1.00  0.00    -0.237 OA
ATOM     65  O   UNL A   1      45.525  37.631  32.680  1.00  0.00    -0.237 OA
ATOM     66  O   UNL A   1      43.858  38.356  31.015  1.00  0.00    -0.744 OA
ENDBRANCH  62  63
ENDBRANCH  43  57
BRANCH  44  67
ATOM     67  C   UNL A   1      42.374  23.832  27.665  1.00  0.00    -0.014 A 
ATOM     68  C   UNL A   1      42.402  23.579  26.282  1.00  0.00     0.010 A 
ATOM     69  C   UNL A   1      42.203  22.756  28.555  1.00  0.00     0.010 A 
ATOM     70  C   UNL A   1      42.265  22.275  25.800  1.00  0.00     0.020 A 
ATOM     71  C   UNL A   1      42.091  21.448  28.078  1.00  0.00     0.020 A 
ATOM     72  C   UNL A   1      42.115  21.216  26.702  1.00  0.00     0.054 A 
BRANCH  72  73
ATOM     73  S   UNL A   1      42.024  19.520  26.064  1.00  0.00     0.124 S 
ATOM     74  O   UNL A   1      42.503  18.743  27.203  1.00  0.00    -0.237 OA
ATOM     75  O   UNL A   1      40.605  19.371  25.749  1.00  0.00    -0.237 OA
ATOM     76  O   UNL A   1      42.910  19.548  24.903  1.00  0.00    -0.744 OA
ENDBRANCH  72  73
ENDBRANCH  44  67
BRANCH  56  77
ATOM     77  C   UNL A   1      47.989  27.666  29.158  1.00  0.00    -0.014 A 
ATOM     78  C   UNL A   1      48.739  27.928  27.998  1.00  0.00     0.010 A 
ATOM     79  C   UNL A   1      48.633  27.148  30.296  1.00  0.00     0.010 A 
ATOM     80  C   UNL A   1      50.108  27.647  27.968  1.00  0.00     0.020 A 
ATOM     81  C   UNL A   1      50.004  26.884  30.274  1.00  0.00     0.020 A 
ATOM     82  C   UNL A   1      50.731  27.121  29.104  1.00  0.00     0.054 A 
BRANCH  82  83
ATOM     83  S   UNL A   1      52.513  26.793  29.057  1.00  0.00     0.124 S 
ATOM     84  O   UNL A   1      52.738  26.152  30.349  1.00  0.00    -0.237 OA
ATOM     85  O   UNL A   1      52.653  25.924  27.890  1.00  0.00    -0.237 OA
ATOM     86  O   UNL A   1      53.105  28.122  28.909  1.00  0.00    -0.744 OA
ENDBRANCH  82  83
ENDBRANCH  56  77
ENDBRANCH  30  31
ENDBRANCH  23  25
ENDBRANCH  22  23
ENDBRANCH  21  22
ENDBRANCH   1  21
TORSDOF 18
ENDMDL
MODEL 2
REMARK VINA RESULT:      -9.9      3.239      6.488
REMARK SMILES C[C@H](C(=O)OCCOC(=O)c1ccc(-c2c3nc(c(-c4ccc(S(=O)(=O)[O-])cc4)c4ccc([nH]4)c(-c4ccc(S(=O)(=O)[O-])cc4)c4nc(c(-c5ccc(S(=O)(=O)[O-])cc5)c5ccc2[nH]5)C=C4)C=C3)cc1)c1ccc(C[C@H]2CCC[C@@H]2O)cc1
REMARK SMILES IDX 6 1 5 2 3 3 4 4 2 5 1 6 71 7 72 8 83 9 73 10 82 11 74 12
REMARK SMILES IDX 75 13 76 14 77 15 80 16 78 17 79 18 81 19 7 21 8 22 9 23
REMARK SMILES IDX 10 24 11 25 12 26 70 27 13 28 69 29 14 30 15 31 16 32 63 33
REMARK SMILES IDX 17 34 68 35 62 36 64 37 18 38 67 39 61 40 60 41 19 43 49 44
REMARK SMILES IDX 30 45 48 46 31 47 34 48 47 49 65 50 32 51 33 52 46 54 66 55
REMARK SMILES IDX 35 56 20 57 21 58 29 59 22 60 28 61 23 62 24 63 25 64 26 65
REMARK SMILES IDX 27 66 50 67 51 68 59 69 52 70 58 71 53 72 54 73 55 74 56 75
REMARK SMILES IDX 57 76 36 77 37 78 45 79 38 80 44 81 39 82 40 83 41 84 42 85
REMARK SMILES IDX 43 86
REMARK H PARENT 81 20 64 42 34 53
REMARK Flexibility Score: inf
ROOT
ATOM      1  C   UNL A   1      33.670  27.624  26.105  1.00  0.00     0.274 C 
ENDROOT
BRANCH   1   2
ATOM      2  O   UNL A   1      32.515  26.798  26.344  1.00  0.00    -0.462 OA
BRANCH   2   3
ATOM      3  C   UNL A   1      32.575  25.534  25.834  1.00  0.00     0.313 C 
ATOM      4  O   UNL A   1      32.814  24.527  26.492  1.00  0.00    -0.252 OA
BRANCH   3   5
ATOM      5  C   UNL A   1      32.329  25.509  24.334  1.00  0.00     0.126 C 
ATOM      6  C   UNL A   1      32.174  24.077  23.811  1.00  0.00     0.025 C 
BRANCH   5   7
ATOM      7  C   UNL A   1      31.193  26.395  23.858  1.00  0.00    -0.034 A 
ATOM      8  C   UNL A   1      31.493  27.497  23.042  1.00  0.00     0.005 A 
ATOM      9  C   UNL A   1      29.855  26.166  24.202  1.00  0.00     0.005 A 
ATOM     10  C   UNL A   1      30.488  28.342  22.584  1.00  0.00     0.004 A 
ATOM     11  C   UNL A   1      28.851  27.032  23.765  1.00  0.00     0.004 A 
ATOM     12  C   UNL A   1      29.162  28.144  22.978  1.00  0.00    -0.048 A 
BRANCH  12  13
ATOM     13  C   UNL A   1      28.098  29.151  22.620  1.00  0.00     0.041 C 
BRANCH  13  14
ATOM     14  C   UNL A   1      28.627  30.521  22.161  1.00  0.00     0.022 C 
ATOM     15  C   UNL A   1      27.965  31.122  20.907  1.00  0.00     0.007 C 
ATOM     16  C   UNL A   1      28.548  31.640  23.203  1.00  0.00     0.117 C 
ATOM     17  C   UNL A   1      27.900  32.634  21.145  1.00  0.00     0.003 C 
ATOM     18  C   UNL A   1      28.765  32.892  22.368  1.00  0.00     0.032 C 
BRANCH  16  19
ATOM     19  O   UNL A   1      29.547  31.488  24.193  1.00  0.00    -0.393 OA
ATOM     20  H   UNL A   1      29.294  30.776  24.801  1.00  0.00     0.210 HD
ENDBRANCH  16  19
ENDBRANCH  13  14
ENDBRANCH  12  13
ENDBRANCH   5   7
ENDBRANCH   3   5
ENDBRANCH   2   3
ENDBRANCH   1   2
BRANCH   1  21
ATOM     21  C   UNL A   1      33.316  29.075  26.419  1.00  0.00     0.275 C 
BRANCH  21  22
ATOM     22  O   UNL A   1      33.578  29.322  27.812  1.00  0.00    -0.458 OA
BRANCH  22  23
ATOM     23  C   UNL A   1      34.394  30.368  28.080  1.00  0.00     0.338 C 
ATOM     24  O   UNL A   1      34.069  31.541  28.153  1.00  0.00    -0.246 OA
BRANCH  23  25
ATOM     25  C   UNL A   1      35.778  29.891  28.322  1.00  0.00     0.060 A 
ATOM     26  C   UNL A   1      36.168  29.362  29.557  1.00  0.00     0.016 A 
ATOM     27  C   UNL A   1      36.733  30.073  27.320  1.00  0.00     0.016 A 
ATOM     28  C   UNL A   1      37.513  29.092  29.815  1.00  0.00     0.010 A 
ATOM     29  C   UNL A   1      38.061  29.703  27.547  1.00  0.00     0.010 A 
ATOM     30  C   UNL A   1      38.475  29.229  28.803  1.00  0.00    -0.014 A 
BRANCH  30  31
ATOM     31  C   UNL A   1      39.904  28.880  29.033  1.00  0.00     0.031 A 
ATOM     32  C   UNL A   1      40.864  29.915  29.563  1.00  0.00     0.074 A 
ATOM     33  C   UNL A   1      40.366  27.651  28.721  1.00  0.00     0.049 A 
ATOM     34  N   UNL A   1      42.171  29.903  29.574  1.00  0.00    -0.248 NA
ATOM     35  C   UNL A   1      40.272  31.135  30.139  1.00  0.00     0.031 C 
ATOM     36  C   UNL A   1      39.556  26.529  28.240  1.00  0.00     0.029 A 
ATOM     37  N   UNL A   1      41.642  27.142  28.753  1.00  0.00    -0.354 N 
ATOM     38  C   UNL A   1      42.561  31.136  30.086  1.00  0.00     0.074 A 
ATOM     39  C   UNL A   1      41.348  31.866  30.389  1.00  0.00     0.031 C 
ATOM     40  C   UNL A   1      40.345  25.461  28.055  1.00  0.00     0.029 A 
ATOM     41  C   UNL A   1      41.728  25.844  28.306  1.00  0.00     0.049 A 
ATOM     42  H   UNL A   1      42.421  27.658  29.066  1.00  0.00     0.167 HD
ATOM     43  C   UNL A   1      43.813  31.618  30.270  1.00  0.00     0.031 A 
ATOM     44  C   UNL A   1      42.797  25.062  28.066  1.00  0.00     0.031 A 
ATOM     45  C   UNL A   1      45.016  30.870  30.011  1.00  0.00     0.049 A 
ATOM     46  C   UNL A   1      44.176  25.622  28.260  1.00  0.00     0.074 A 
ATOM     47  C   UNL A   1      46.331  31.267  30.180  1.00  0.00     0.029 A 
ATOM     48  N   UNL A   1      45.049  29.564  29.548  1.00  0.00    -0.354 N 
ATOM     49  N   UNL A   1      44.527  26.816  28.672  1.00  0.00    -0.248 NA
ATOM     50  C   UNL A   1      45.301  24.736  27.933  1.00  0.00     0.031 C 
ATOM     51  C   UNL A   1      47.162  30.209  29.790  1.00  0.00     0.029 A 
ATOM     52  C   UNL A   1      46.361  29.141  29.418  1.00  0.00     0.049 A 
ATOM     53  H   UNL A   1      44.256  29.017  29.342  1.00  0.00     0.167 HD
ATOM     54  C   UNL A   1      45.916  26.825  28.657  1.00  0.00     0.074 A 
ATOM     55  C   UNL A   1      46.340  25.511  28.216  1.00  0.00     0.031 C 
ATOM     56  C   UNL A   1      46.764  27.833  28.973  1.00  0.00     0.031 A 
BRANCH  43  57
ATOM     57  C   UNL A   1      43.951  33.045  30.730  1.00  0.00    -0.014 A 
ATOM     58  C   UNL A   1      43.895  34.120  29.825  1.00  0.00     0.010 A 
ATOM     59  C   UNL A   1      44.096  33.314  32.104  1.00  0.00     0.010 A 
ATOM     60  C   UNL A   1      44.017  35.436  30.284  1.00  0.00     0.020 A 
ATOM     61  C   UNL A   1      44.197  34.628  32.568  1.00  0.00     0.020 A 
ATOM     62  C   UNL A   1      44.174  35.681  31.653  1.00  0.00     0.054 A 
BRANCH  62  63
ATOM     63  S   UNL A   1      44.312  37.397  32.227  1.00  0.00     0.124 S 
ATOM     64  O   UNL A   1      43.968  38.145  31.022  1.00  0.00    -0.237 OA
ATOM     65  O   UNL A   1      43.327  37.457  33.306  1.00  0.00    -0.237 OA
ATOM     66  O   UNL A   1      45.704  37.508  32.655  1.00  0.00    -0.744 OA
ENDBRANCH  62  63
ENDBRANCH  43  57
BRANCH  44  67
ATOM     67  C   UNL A   1      42.596  23.679  27.557  1.00  0.00    -0.014 A 
ATOM     68  C   UNL A   1      42.715  23.402  26.184  1.00  0.00     0.010 A 
ATOM     69  C   UNL A   1      42.326  22.625  28.448  1.00  0.00     0.010 A 
ATOM     70  C   UNL A   1      42.569  22.096  25.712  1.00  0.00     0.020 A 
ATOM     71  C   UNL A   1      42.206  21.313  27.983  1.00  0.00     0.020 A 
ATOM     72  C   UNL A   1      42.320  21.058  26.616  1.00  0.00     0.054 A 
BRANCH  72  73
ATOM     73  S   UNL A   1      42.218  19.355  25.997  1.00  0.00     0.124 S 
ATOM     74  O   UNL A   1      43.104  19.402  24.839  1.00  0.00    -0.237 OA
ATOM     75  O   UNL A   1      42.700  18.571  27.132  1.00  0.00    -0.237 OA
ATOM     76  O   UNL A   1      40.798  19.189  25.696  1.00  0.00    -0.744 OA
ENDBRANCH  72  73
ENDBRANCH  44  67
BRANCH  56  77
ATOM     77  C   UNL A   1      48.235  27.542  28.878  1.00  0.00    -0.014 A 
ATOM     78  C   UNL A   1      48.913  27.641  27.651  1.00  0.00     0.010 A 
ATOM     79  C   UNL A   1      48.952  27.198  30.038  1.00  0.00     0.010 A 
ATOM     80  C   UNL A   1      50.282  27.369  27.580  1.00  0.00     0.020 A 
ATOM     81  C   UNL A   1      50.323  26.944  29.973  1.00  0.00     0.020 A 
ATOM     82  C   UNL A   1      50.977  27.016  28.741  1.00  0.00     0.054 A 
BRANCH  82  83
ATOM     83  S   UNL A   1      52.759  26.699  28.636  1.00  0.00     0.124 S 
ATOM     84  O   UNL A   1      53.062  26.221  29.982  1.00  0.00    -0.237 OA
ATOM     85  O   UNL A   1      52.849  25.696  27.577  1.00  0.00    -0.237 OA
ATOM     86  O   UNL A   1      53.323  28.004  28.296  1.00  0.00    -0.744 OA
ENDBRANCH  82  83
ENDBRANCH  56  77
ENDBRANCH  30  31
ENDBRANCH  23  25
ENDBRANCH  22  23
ENDBRANCH  21  22
ENDBRANCH   1  21
TORSDOF 18
ENDMDL
MODEL 3
REMARK VINA RESULT:      -9.8      2.811      5.887
REMARK SMILES C[C@H](C(=O)OCCOC(=O)c1ccc(-c2c3nc(c(-c4ccc(S(=O)(=O)[O-])cc4)c4ccc([nH]4)c(-c4ccc(S(=O)(=O)[O-])cc4)c4nc(c(-c5ccc(S(=O)(=O)[O-])cc5)c5ccc2[nH]5)C=C4)C=C3)cc1)c1ccc(C[C@H]2CCC[C@@H]2O)cc1
REMARK SMILES IDX 6 1 5 2 3 3 4 4 2 5 1 6 71 7 72 8 83 9 73 10 82 11 74 12
REMARK SMILES IDX 75 13 76 14 77 15 80 16 78 17 79 18 81 19 7 21 8 22 9 23
REMARK SMILES IDX 10 24 11 25 12 26 70 27 13 28 69 29 14 30 15 31 16 32 63 33
REMARK SMILES IDX 17 34 68 35 62 36 64 37 18 38 67 39 61 40 60 41 19 43 49 44
REMARK SMILES IDX 30 45 48 46 31 47 34 48 47 49 65 50 32 51 33 52 46 54 66 55
REMARK SMILES IDX 35 56 20 57 21 58 29 59 22 60 28 61 23 62 24 63 25 64 26 65
REMARK SMILES IDX 27 66 50 67 51 68 59 69 52 70 58 71 53 72 54 73 55 74 56 75
REMARK SMILES IDX 57 76 36 77 37 78 45 79 38 80 44 81 39 82 40 83 41 84 42 85
REMARK SMILES IDX 43 86
REMARK H PARENT 81 20 64 42 34 53
REMARK Flexibility Score: inf
ROOT
ATOM      1  C   UNL A   1      31.853  28.847  27.092  1.00  0.00     0.274 C 
ENDROOT
BRANCH   1   2
ATOM      2  O   UNL A   1      32.541  27.862  26.298  1.00  0.00    -0.462 OA
BRANCH   2   3
ATOM      3  C   UNL A   1      31.748  27.061  25.531  1.00  0.00     0.313 C 
ATOM      4  O   UNL A   1      31.198  27.412  24.492  1.00  0.00    -0.252 OA
BRANCH   3   5
ATOM      5  C   UNL A   1      31.599  25.667  26.120  1.00  0.00     0.126 C 
ATOM      6  C   UNL A   1      30.153  25.167  26.027  1.00  0.00     0.025 C 
BRANCH   5   7
ATOM      7  C   UNL A   1      32.573  24.638  25.579  1.00  0.00    -0.034 A 
ATOM      8  C   UNL A   1      33.190  23.754  26.479  1.00  0.00     0.005 A 
ATOM      9  C   UNL A   1      32.891  24.532  24.219  1.00  0.00     0.005 A 
ATOM     10  C   UNL A   1      34.094  22.796  26.034  1.00  0.00     0.004 A 
ATOM     11  C   UNL A   1      33.820  23.588  23.778  1.00  0.00     0.004 A 
ATOM     12  C   UNL A   1      34.452  22.733  24.685  1.00  0.00    -0.048 A 
BRANCH  12  13
ATOM     13  C   UNL A   1      35.552  21.809  24.227  1.00  0.00     0.041 C 
BRANCH  13  14
ATOM     14  C   UNL A   1      36.977  22.265  24.587  1.00  0.00     0.022 C 
ATOM     15  C   UNL A   1      37.115  23.691  25.151  1.00  0.00     0.007 C 
ATOM     16  C   UNL A   1      37.713  21.385  25.601  1.00  0.00     0.117 C 
ATOM     17  C   UNL A   1      38.223  23.623  26.208  1.00  0.00     0.003 C 
ATOM     18  C   UNL A   1      38.878  22.264  26.026  1.00  0.00     0.032 C 
BRANCH  16  19
ATOM     19  O   UNL A   1      38.155  20.178  25.005  1.00  0.00    -0.393 OA
ATOM     20  H   UNL A   1      38.096  19.459  25.652  1.00  0.00     0.210 HD
ENDBRANCH  16  19
ENDBRANCH  13  14
ENDBRANCH  12  13
ENDBRANCH   5   7
ENDBRANCH   3   5
ENDBRANCH   2   3
ENDBRANCH   1   2
BRANCH   1  21
ATOM     21  C   UNL A   1      32.740  30.081  27.230  1.00  0.00     0.275 C 
BRANCH  21  22
ATOM     22  O   UNL A   1      34.079  29.653  27.538  1.00  0.00    -0.458 OA
BRANCH  22  23
ATOM     23  C   UNL A   1      34.805  30.501  28.304  1.00  0.00     0.338 C 
ATOM     24  O   UNL A   1      34.404  31.523  28.834  1.00  0.00    -0.246 OA
BRANCH  23  25
ATOM     25  C   UNL A   1      36.191  29.995  28.457  1.00  0.00     0.060 A 
ATOM     26  C   UNL A   1      36.667  29.513  29.682  1.00  0.00     0.016 A 
ATOM     27  C   UNL A   1      37.065  30.101  27.374  1.00  0.00     0.016 A 
ATOM     28  C   UNL A   1      38.021  29.215  29.843  1.00  0.00     0.010 A 
ATOM     29  C   UNL A   1      38.398  29.702  27.511  1.00  0.00     0.010 A 
ATOM     30  C   UNL A   1      38.900  29.276  28.752  1.00  0.00    -0.014 A 
BRANCH  30  31
ATOM     31  C   UNL A   1      40.334  28.895  28.883  1.00  0.00     0.031 A 
ATOM     32  C   UNL A   1      41.357  29.921  29.304  1.00  0.00     0.074 A 
ATOM     33  C   UNL A   1      40.740  27.646  28.577  1.00  0.00     0.049 A 
ATOM     34  N   UNL A   1      42.661  29.873  29.215  1.00  0.00    -0.248 NA
ATOM     35  C   UNL A   1      40.841  31.173  29.883  1.00  0.00     0.031 C 
ATOM     36  C   UNL A   1      39.868  26.532  28.198  1.00  0.00     0.029 A 
ATOM     37  N   UNL A   1      42.002  27.104  28.529  1.00  0.00    -0.354 N 
ATOM     38  C   UNL A   1      43.119  31.111  29.655  1.00  0.00     0.074 A 
ATOM     39  C   UNL A   1      41.952  31.883  30.025  1.00  0.00     0.031 C 
ATOM     40  C   UNL A   1      40.613  25.437  27.989  1.00  0.00     0.029 A 
ATOM     41  C   UNL A   1      42.021  25.790  28.120  1.00  0.00     0.049 A 
ATOM     42  H   UNL A   1      42.815  27.607  28.764  1.00  0.00     0.167 HD
ATOM     43  C   UNL A   1      44.393  31.564  29.726  1.00  0.00     0.031 A 
ATOM     44  C   UNL A   1      43.049  24.972  27.825  1.00  0.00     0.031 A 
ATOM     45  C   UNL A   1      45.553  30.776  29.401  1.00  0.00     0.049 A 
ATOM     46  C   UNL A   1      44.451  25.500  27.894  1.00  0.00     0.074 A 
ATOM     47  C   UNL A   1      46.887  31.142  29.455  1.00  0.00     0.029 A 
ATOM     48  N   UNL A   1      45.518  29.456  28.980  1.00  0.00    -0.354 N 
ATOM     49  N   UNL A   1      44.863  26.696  28.238  1.00  0.00    -0.248 NA
ATOM     50  C   UNL A   1      45.526  24.575  27.512  1.00  0.00     0.031 C 
ATOM     51  C   UNL A   1      47.659  30.050  29.038  1.00  0.00     0.029 A 
ATOM     52  C   UNL A   1      46.806  28.994  28.765  1.00  0.00     0.049 A 
ATOM     53  H   UNL A   1      44.699  28.924  28.854  1.00  0.00     0.167 HD
ATOM     54  C   UNL A   1      46.246  26.668  28.117  1.00  0.00     0.074 A 
ATOM     55  C   UNL A   1      46.602  25.330  27.688  1.00  0.00     0.031 C 
ATOM     56  C   UNL A   1      47.141  27.662  28.334  1.00  0.00     0.031 A 
BRANCH  43  57
ATOM     57  C   UNL A   1      44.601  33.001  30.126  1.00  0.00    -0.014 A 
ATOM     58  C   UNL A   1      44.554  34.043  29.184  1.00  0.00     0.010 A 
ATOM     59  C   UNL A   1      44.805  33.314  31.484  1.00  0.00     0.010 A 
ATOM     60  C   UNL A   1      44.742  35.369  29.588  1.00  0.00     0.020 A 
ATOM     61  C   UNL A   1      44.971  34.639  31.894  1.00  0.00     0.020 A 
ATOM     62  C   UNL A   1      44.957  35.657  30.940  1.00  0.00     0.054 A 
BRANCH  62  63
ATOM     63  S   UNL A   1      45.180  37.387  31.444  1.00  0.00     0.124 S 
ATOM     64  O   UNL A   1      45.193  38.075  30.157  1.00  0.00    -0.237 OA
ATOM     65  O   UNL A   1      44.005  37.636  32.276  1.00  0.00    -0.237 OA
ATOM     66  O   UNL A   1      46.453  37.377  32.160  1.00  0.00    -0.744 OA
ENDBRANCH  62  63
ENDBRANCH  43  57
BRANCH  44  67
ATOM     67  C   UNL A   1      42.775  23.580  27.379  1.00  0.00    -0.014 A 
ATOM     68  C   UNL A   1      42.858  23.240  26.018  1.00  0.00     0.010 A 
ATOM     69  C   UNL A   1      42.470  22.578  28.319  1.00  0.00     0.010 A 
ATOM     70  C   UNL A   1      42.644  21.923  25.605  1.00  0.00     0.020 A 
ATOM     71  C   UNL A   1      42.281  21.255  27.912  1.00  0.00     0.020 A 
ATOM     72  C   UNL A   1      42.361  20.937  26.556  1.00  0.00     0.054 A 
BRANCH  72  73
ATOM     73  S   UNL A   1      42.169  19.216  26.013  1.00  0.00     0.124 S 
ATOM     74  O   UNL A   1      42.654  18.478  27.174  1.00  0.00    -0.237 OA
ATOM     75  O   UNL A   1      40.735  19.119  25.755  1.00  0.00    -0.237 OA
ATOM     76  O   UNL A   1      43.013  19.142  24.823  1.00  0.00    -0.744 OA
ENDBRANCH  72  73
ENDBRANCH  44  67
BRANCH  56  77
ATOM     77  C   UNL A   1      48.593  27.328  28.136  1.00  0.00    -0.014 A 
ATOM     78  C   UNL A   1      49.178  27.378  26.859  1.00  0.00     0.010 A 
ATOM     79  C   UNL A   1      49.386  26.993  29.248  1.00  0.00     0.010 A 
ATOM     80  C   UNL A   1      50.530  27.067  26.693  1.00  0.00     0.020 A 
ATOM     81  C   UNL A   1      50.742  26.700  29.087  1.00  0.00     0.020 A 
ATOM     82  C   UNL A   1      51.302  26.724  27.807  1.00  0.00     0.054 A 
BRANCH  82  83
ATOM     83  S   UNL A   1      53.062  26.355  27.576  1.00  0.00     0.124 S 
ATOM     84  O   UNL A   1      53.469  25.967  28.924  1.00  0.00    -0.237 OA
ATOM     85  O   UNL A   1      53.042  25.277  26.591  1.00  0.00    -0.237 OA
ATOM     86  O   UNL A   1      53.619  27.618  27.096  1.00  0.00    -0.744 OA
ENDBRANCH  82  83
ENDBRANCH  56  77
ENDBRANCH  30  31
ENDBRANCH  23  25
ENDBRANCH  22  23
ENDBRANCH  21  22
ENDBRANCH   1  21
TORSDOF 18
ENDMDL
