MODEL 1
REMARK VINA RESULT:     -10.1      0.000      0.000
REMARK SMILES C[C@@H](Sc1nncn1C)[C@@H](C)C(=O)OCCOC(=O)c1ccc(-c2c3nc(c(-c4ccc(S(=O)(=O)[O-])cc4)c4ccc([nH]4)c(-c4ccc(S(=O)(=O)[O-])cc4)c4nc(c(-c5ccc(S(=O)(=O)[O-])cc5)c5ccc2[nH]5)C=C4)C=C3)cc1
REMARK SMILES IDX 15 1 14 2 12 3 13 4 10 5 11 6 2 7 1 8 3 9 4 10 5 11 8 12
REMARK SMILES IDX 6 13 7 14 9 15 16 16 17 17 18 18 19 19 20 20 21 21 79 22
REMARK SMILES IDX 22 23 78 24 23 25 24 26 25 27 72 28 26 29 77 30 71 31 73 32
REMARK SMILES IDX 27 33 76 34 70 35 69 36 28 38 58 39 39 40 57 41 40 42 43 43
REMARK SMILES IDX 56 44 74 45 41 46 42 47 55 49 75 50 44 51 29 52 30 53 38 54
REMARK SMILES IDX 31 55 37 56 32 57 33 58 34 59 35 60 36 61 59 62 60 63 68 64
REMARK SMILES IDX 61 65 67 66 62 67 63 68 64 69 65 70 66 71 45 72 46 73 54 74
REMARK SMILES IDX 47 75 53 76 48 77 49 78 50 79 51 80 52 81
REMARK H PARENT 73 37 43 48
REMARK Flexibility Score: inf
ROOT
ATOM      1  C   UNL A   1      33.350  30.767  27.263  1.00  0.00     0.274 C 
ENDROOT
BRANCH   1   2
ATOM      2  O   UNL A   1      33.191  29.512  26.567  1.00  0.00    -0.462 OA
BRANCH   2   3
ATOM      3  C   UNL A   1      32.129  29.465  25.723  1.00  0.00     0.309 C 
ATOM      4  O   UNL A   1      31.435  30.434  25.429  1.00  0.00    -0.252 OA
BRANCH   3   5
ATOM      5  C   UNL A   1      31.793  28.071  25.224  1.00  0.00     0.109 C 
ATOM      6  C   UNL A   1      31.786  27.172  26.466  1.00  0.00     0.021 C 
BRANCH   5   7
ATOM      7  C   UNL A   1      32.662  27.512  24.068  1.00  0.00     0.065 C 
ATOM      8  C   UNL A   1      33.646  26.461  24.609  1.00  0.00     0.021 C 
BRANCH   7   9
ATOM      9  S   UNL A   1      31.587  26.733  22.793  1.00  0.00    -0.082 SA
BRANCH   9  10
ATOM     10  C   UNL A   1      30.301  27.875  22.606  1.00  0.00     0.191 A 
ATOM     11  N   UNL A   1      30.342  29.020  21.963  1.00  0.00    -0.124 NA
ATOM     12  N   UNL A   1      29.043  27.679  23.100  1.00  0.00    -0.312 N 
ATOM     13  N   UNL A   1      29.076  29.562  21.982  1.00  0.00    -0.138 NA
ATOM     14  C   UNL A   1      28.307  28.740  22.659  1.00  0.00     0.226 A 
ATOM     15  C   UNL A   1      28.566  26.632  23.962  1.00  0.00     0.153 C 
ENDBRANCH   9  10
ENDBRANCH   7   9
ENDBRANCH   5   7
ENDBRANCH   3   5
ENDBRANCH   2   3
ENDBRANCH   1   2
BRANCH   1  16
ATOM     16  C   UNL A   1      34.826  31.097  27.480  1.00  0.00     0.275 C 
BRANCH  16  17
ATOM     17  O   UNL A   1      35.459  30.050  28.232  1.00  0.00    -0.458 OA
BRANCH  17  18
ATOM     18  C   UNL A   1      36.195  30.448  29.294  1.00  0.00     0.338 C 
ATOM     19  O   UNL A   1      35.800  31.046  30.281  1.00  0.00    -0.246 OA
BRANCH  18  20
ATOM     20  C   UNL A   1      37.612  30.091  29.084  1.00  0.00     0.060 A 
ATOM     21  C   UNL A   1      38.103  29.766  27.816  1.00  0.00     0.016 A 
ATOM     22  C   UNL A   1      38.446  30.006  30.199  1.00  0.00     0.016 A 
ATOM     23  C   UNL A   1      39.416  29.317  27.666  1.00  0.00     0.010 A 
ATOM     24  C   UNL A   1      39.776  29.618  30.039  1.00  0.00     0.010 A 
ATOM     25  C   UNL A   1      40.270  29.251  28.775  1.00  0.00    -0.014 A 
BRANCH  25  26
ATOM     26  C   UNL A   1      41.676  28.790  28.648  1.00  0.00     0.031 A 
ATOM     27  C   UNL A   1      42.801  29.784  28.740  1.00  0.00     0.074 A 
ATOM     28  C   UNL A   1      41.941  27.495  28.388  1.00  0.00     0.049 A 
ATOM     29  N   UNL A   1      44.066  29.630  28.447  1.00  0.00    -0.248 NA
ATOM     30  C   UNL A   1      42.451  31.134  29.212  1.00  0.00     0.031 C 
ATOM     31  C   UNL A   1      40.946  26.423  28.308  1.00  0.00     0.029 A 
ATOM     32  N   UNL A   1      43.131  26.865  28.117  1.00  0.00    -0.354 N 
ATOM     33  C   UNL A   1      44.656  30.872  28.656  1.00  0.00     0.074 A 
ATOM     34  C   UNL A   1      43.608  31.769  29.097  1.00  0.00     0.031 C 
ATOM     35  C   UNL A   1      41.567  25.270  28.008  1.00  0.00     0.029 A 
ATOM     36  C   UNL A   1      42.988  25.534  27.807  1.00  0.00     0.049 A 
ATOM     37  H   UNL A   1      44.002  27.324  28.142  1.00  0.00     0.167 HD
ATOM     38  C   UNL A   1      45.952  31.231  28.491  1.00  0.00     0.031 A 
ATOM     39  C   UNL A   1      43.888  24.634  27.366  1.00  0.00     0.031 A 
ATOM     40  C   UNL A   1      46.991  30.330  28.068  1.00  0.00     0.049 A 
ATOM     41  C   UNL A   1      45.311  25.066  27.142  1.00  0.00     0.074 A 
ATOM     42  C   UNL A   1      48.339  30.592  27.891  1.00  0.00     0.029 A 
ATOM     43  N   UNL A   1      46.801  28.991  27.760  1.00  0.00    -0.354 N 
ATOM     44  N   UNL A   1      45.851  26.248  27.328  1.00  0.00    -0.248 NA
ATOM     45  C   UNL A   1      46.243  24.047  26.641  1.00  0.00     0.031 C 
ATOM     46  C   UNL A   1      48.956  29.423  27.435  1.00  0.00     0.029 A 
ATOM     47  C   UNL A   1      48.001  28.419  27.375  1.00  0.00     0.049 A 
ATOM     48  H   UNL A   1      45.939  28.518  27.807  1.00  0.00     0.167 HD
ATOM     49  C   UNL A   1      47.189  26.109  26.982  1.00  0.00     0.074 A 
ATOM     50  C   UNL A   1      47.381  24.728  26.589  1.00  0.00     0.031 C 
ATOM     51  C   UNL A   1      48.173  27.043  26.987  1.00  0.00     0.031 A 
BRANCH  38  52
ATOM     52  C   UNL A   1      46.311  32.672  28.731  1.00  0.00    -0.014 A 
ATOM     53  C   UNL A   1      46.786  33.110  29.979  1.00  0.00     0.010 A 
ATOM     54  C   UNL A   1      46.203  33.597  27.675  1.00  0.00     0.010 A 
ATOM     55  C   UNL A   1      47.111  34.455  30.178  1.00  0.00     0.020 A 
ATOM     56  C   UNL A   1      46.549  34.938  27.865  1.00  0.00     0.020 A 
ATOM     57  C   UNL A   1      46.984  35.362  29.122  1.00  0.00     0.054 A 
BRANCH  57  58
ATOM     58  S   UNL A   1      47.423  37.100  29.403  1.00  0.00     0.124 S 
ATOM     59  O   UNL A   1      46.504  37.790  28.501  1.00  0.00    -0.237 OA
ATOM     60  O   UNL A   1      47.153  37.274  30.828  1.00  0.00    -0.237 OA
ATOM     61  O   UNL A   1      48.833  37.167  29.026  1.00  0.00    -0.744 OA
ENDBRANCH  57  58
ENDBRANCH  38  52
BRANCH  39  62
ATOM     62  C   UNL A   1      43.457  23.243  27.066  1.00  0.00    -0.014 A 
ATOM     63  C   UNL A   1      43.680  22.685  25.796  1.00  0.00     0.010 A 
ATOM     64  C   UNL A   1      42.840  22.461  28.060  1.00  0.00     0.010 A 
ATOM     65  C   UNL A   1      43.287  21.372  25.522  1.00  0.00     0.020 A 
ATOM     66  C   UNL A   1      42.468  21.139  27.797  1.00  0.00     0.020 A 
ATOM     67  C   UNL A   1      42.685  20.607  26.525  1.00  0.00     0.054 A 
BRANCH  67  68
ATOM     68  S   UNL A   1      42.238  18.885  26.169  1.00  0.00     0.124 S 
ATOM     69  O   UNL A   1      42.491  18.236  27.451  1.00  0.00    -0.237 OA
ATOM     70  O   UNL A   1      40.834  18.995  25.781  1.00  0.00    -0.237 OA
ATOM     71  O   UNL A   1      43.147  18.513  25.086  1.00  0.00    -0.744 OA
ENDBRANCH  67  68
ENDBRANCH  39  62
BRANCH  51  72
ATOM     72  C   UNL A   1      49.551  26.596  26.585  1.00  0.00    -0.014 A 
ATOM     73  C   UNL A   1      50.446  26.064  27.530  1.00  0.00     0.010 A 
ATOM     74  C   UNL A   1      49.934  26.658  25.233  1.00  0.00     0.010 A 
ATOM     75  C   UNL A   1      51.711  25.624  27.132  1.00  0.00     0.020 A 
ATOM     76  C   UNL A   1      51.189  26.197  24.828  1.00  0.00     0.020 A 
ATOM     77  C   UNL A   1      52.075  25.693  25.783  1.00  0.00     0.054 A 
BRANCH  77  78
ATOM     78  S   UNL A   1      53.702  25.068  25.281  1.00  0.00     0.124 S 
ATOM     79  O   UNL A   1      54.554  25.531  26.372  1.00  0.00    -0.237 OA
ATOM     80  O   UNL A   1      53.488  23.623  25.221  1.00  0.00    -0.237 OA
ATOM     81  O   UNL A   1      53.935  25.711  23.990  1.00  0.00    -0.744 OA
ENDBRANCH  77  78
ENDBRANCH  51  72
ENDBRANCH  25  26
ENDBRANCH  18  20
ENDBRANCH  17  18
ENDBRANCH  16  17
ENDBRANCH   1  16
TORSDOF 17
ENDMDL
MODEL 2
REMARK VINA RESULT:      -9.7      6.564     11.212
REMARK SMILES C[C@@H](Sc1nncn1C)[C@@H](C)C(=O)OCCOC(=O)c1ccc(-c2c3nc(c(-c4ccc(S(=O)(=O)[O-])cc4)c4ccc([nH]4)c(-c4ccc(S(=O)(=O)[O-])cc4)c4nc(c(-c5ccc(S(=O)(=O)[O-])cc5)c5ccc2[nH]5)C=C4)C=C3)cc1
REMARK SMILES IDX 15 1 14 2 12 3 13 4 10 5 11 6 2 7 1 8 3 9 4 10 5 11 8 12
REMARK SMILES IDX 6 13 7 14 9 15 16 16 17 17 18 18 19 19 20 20 21 21 79 22
REMARK SMILES IDX 22 23 78 24 23 25 24 26 25 27 72 28 26 29 77 30 71 31 73 32
REMARK SMILES IDX 27 33 76 34 70 35 69 36 28 38 58 39 39 40 57 41 40 42 43 43
REMARK SMILES IDX 56 44 74 45 41 46 42 47 55 49 75 50 44 51 29 52 30 53 38 54
REMARK SMILES IDX 31 55 37 56 32 57 33 58 34 59 35 60 36 61 59 62 60 63 68 64
REMARK SMILES IDX 61 65 67 66 62 67 63 68 64 69 65 70 66 71 45 72 46 73 54 74
REMARK SMILES IDX 47 75 53 76 48 77 49 78 50 79 51 80 52 81
REMARK H PARENT 73 37 43 48
REMARK Flexibility Score: inf
ROOT
ATOM      1  C   UNL A   1      32.624  31.035  26.914  1.00  0.00     0.274 C 
ENDROOT
BRANCH   1   2
ATOM      2  O   UNL A   1      31.862  30.474  25.824  1.00  0.00    -0.462 OA
BRANCH   2   3
ATOM      3  C   UNL A   1      32.393  29.346  25.288  1.00  0.00     0.309 C 
ATOM      4  O   UNL A   1      33.162  29.330  24.331  1.00  0.00    -0.252 OA
BRANCH   3   5
ATOM      5  C   UNL A   1      31.884  28.060  25.914  1.00  0.00     0.109 C 
ATOM      6  C   UNL A   1      33.130  27.296  26.375  1.00  0.00     0.021 C 
BRANCH   5   7
ATOM      7  C   UNL A   1      30.919  27.198  25.058  1.00  0.00     0.065 C 
ATOM      8  C   UNL A   1      30.446  27.997  23.833  1.00  0.00     0.021 C 
BRANCH   7   9
ATOM      9  S   UNL A   1      31.777  25.671  24.490  1.00  0.00    -0.082 SA
BRANCH   9  10
ATOM     10  C   UNL A   1      31.172  24.454  25.559  1.00  0.00     0.191 A 
ATOM     11  N   UNL A   1      30.716  24.622  26.779  1.00  0.00    -0.124 NA
ATOM     12  N   UNL A   1      31.068  23.135  25.217  1.00  0.00    -0.312 N 
ATOM     13  N   UNL A   1      30.249  23.407  27.229  1.00  0.00    -0.138 NA
ATOM     14  C   UNL A   1      30.458  22.529  26.275  1.00  0.00     0.226 A 
ATOM     15  C   UNL A   1      31.547  22.471  24.034  1.00  0.00     0.153 C 
ENDBRANCH   9  10
ENDBRANCH   7   9
ENDBRANCH   5   7
ENDBRANCH   3   5
ENDBRANCH   2   3
ENDBRANCH   1   2
BRANCH   1  16
ATOM     16  C   UNL A   1      32.234  32.491  27.170  1.00  0.00     0.275 C 
BRANCH  16  17
ATOM     17  O   UNL A   1      33.413  33.287  27.372  1.00  0.00    -0.458 OA
BRANCH  17  18
ATOM     18  C   UNL A   1      33.443  34.020  28.508  1.00  0.00     0.338 C 
ATOM     19  O   UNL A   1      32.623  34.848  28.871  1.00  0.00    -0.246 OA
BRANCH  18  20
ATOM     20  C   UNL A   1      34.669  33.713  29.271  1.00  0.00     0.060 A 
ATOM     21  C   UNL A   1      35.910  34.240  28.902  1.00  0.00     0.016 A 
ATOM     22  C   UNL A   1      34.580  32.816  30.334  1.00  0.00     0.016 A 
ATOM     23  C   UNL A   1      37.069  33.840  29.568  1.00  0.00     0.010 A 
ATOM     24  C   UNL A   1      35.730  32.464  31.041  1.00  0.00     0.010 A 
ATOM     25  C   UNL A   1      36.989  32.956  30.653  1.00  0.00    -0.014 A 
BRANCH  25  26
ATOM     26  C   UNL A   1      38.201  32.520  31.392  1.00  0.00     0.031 A 
ATOM     27  C   UNL A   1      39.023  31.373  30.870  1.00  0.00     0.074 A 
ATOM     28  C   UNL A   1      38.529  33.108  32.558  1.00  0.00     0.049 A 
ATOM     29  N   UNL A   1      39.977  30.704  31.463  1.00  0.00    -0.248 NA
ATOM     30  C   UNL A   1      38.718  30.910  29.506  1.00  0.00     0.031 C 
ATOM     31  C   UNL A   1      37.838  34.252  33.157  1.00  0.00     0.029 A 
ATOM     32  N   UNL A   1      39.516  32.805  33.463  1.00  0.00    -0.354 N 
ATOM     33  C   UNL A   1      40.359  29.714  30.563  1.00  0.00     0.074 A 
ATOM     34  C   UNL A   1      39.529  29.868  29.387  1.00  0.00     0.031 C 
ATOM     35  C   UNL A   1      38.422  34.553  34.329  1.00  0.00     0.029 A 
ATOM     36  C   UNL A   1      39.481  33.584  34.595  1.00  0.00     0.049 A 
ATOM     37  H   UNL A   1      40.185  32.098  33.314  1.00  0.00     0.167 HD
ATOM     38  C   UNL A   1      41.312  28.762  30.709  1.00  0.00     0.031 A 
ATOM     39  C   UNL A   1      40.186  33.502  35.739  1.00  0.00     0.031 A 
ATOM     40  C   UNL A   1      42.145  28.625  31.874  1.00  0.00     0.049 A 
ATOM     41  C   UNL A   1      41.204  32.406  35.899  1.00  0.00     0.074 A 
ATOM     42  C   UNL A   1      43.152  27.705  32.109  1.00  0.00     0.029 A 
ATOM     43  N   UNL A   1      42.070  29.432  33.000  1.00  0.00    -0.354 N 
ATOM     44  N   UNL A   1      41.542  31.467  35.047  1.00  0.00    -0.248 NA
ATOM     45  C   UNL A   1      41.928  32.355  37.176  1.00  0.00     0.031 C 
ATOM     46  C   UNL A   1      43.659  27.930  33.393  1.00  0.00     0.029 A 
ATOM     47  C   UNL A   1      43.000  29.020  33.939  1.00  0.00     0.049 A 
ATOM     48  H   UNL A   1      41.448  30.185  33.114  1.00  0.00     0.167 HD
ATOM     49  C   UNL A   1      42.530  30.723  35.680  1.00  0.00     0.074 A 
ATOM     50  C   UNL A   1      42.746  31.328  36.979  1.00  0.00     0.031 C 
ATOM     51  C   UNL A   1      43.199  29.634  35.227  1.00  0.00     0.031 A 
BRANCH  38  52
ATOM     52  C   UNL A   1      41.477  27.766  29.592  1.00  0.00    -0.014 A 
ATOM     53  C   UNL A   1      40.491  26.803  29.320  1.00  0.00     0.010 A 
ATOM     54  C   UNL A   1      42.624  27.824  28.778  1.00  0.00     0.010 A 
ATOM     55  C   UNL A   1      40.668  25.887  28.278  1.00  0.00     0.020 A 
ATOM     56  C   UNL A   1      42.793  26.925  27.722  1.00  0.00     0.020 A 
ATOM     57  C   UNL A   1      41.821  25.950  27.490  1.00  0.00     0.054 A 
BRANCH  57  58
ATOM     58  S   UNL A   1      42.022  24.758  26.137  1.00  0.00     0.124 S 
ATOM     59  O   UNL A   1      41.050  23.728  26.498  1.00  0.00    -0.237 OA
ATOM     60  O   UNL A   1      41.687  25.550  24.956  1.00  0.00    -0.237 OA
ATOM     61  O   UNL A   1      43.422  24.353  26.236  1.00  0.00    -0.744 OA
ENDBRANCH  57  58
ENDBRANCH  38  52
BRANCH  39  62
ATOM     62  C   UNL A   1      39.921  34.463  36.842  1.00  0.00    -0.014 A 
ATOM     63  C   UNL A   1      39.007  34.147  37.860  1.00  0.00     0.010 A 
ATOM     64  C   UNL A   1      40.601  35.695  36.889  1.00  0.00     0.010 A 
ATOM     65  C   UNL A   1      38.771  35.047  38.903  1.00  0.00     0.020 A 
ATOM     66  C   UNL A   1      40.387  36.586  37.944  1.00  0.00     0.020 A 
ATOM     67  C   UNL A   1      39.464  36.261  38.940  1.00  0.00     0.054 A 
BRANCH  67  68
ATOM     68  S   UNL A   1      39.190  37.388  40.334  1.00  0.00     0.124 S 
ATOM     69  O   UNL A   1      38.274  38.366  39.757  1.00  0.00    -0.237 OA
ATOM     70  O   UNL A   1      38.617  36.507  41.348  1.00  0.00    -0.237 OA
ATOM     71  O   UNL A   1      40.530  37.886  40.639  1.00  0.00    -0.744 OA
ENDBRANCH  67  68
ENDBRANCH  39  62
BRANCH  51  72
ATOM     72  C   UNL A   1      44.249  29.044  36.127  1.00  0.00    -0.014 A 
ATOM     73  C   UNL A   1      45.547  29.581  36.179  1.00  0.00     0.010 A 
ATOM     74  C   UNL A   1      43.913  27.973  36.975  1.00  0.00     0.010 A 
ATOM     75  C   UNL A   1      46.499  29.041  37.046  1.00  0.00     0.020 A 
ATOM     76  C   UNL A   1      44.856  27.445  37.860  1.00  0.00     0.020 A 
ATOM     77  C   UNL A   1      46.148  27.976  37.882  1.00  0.00     0.054 A 
BRANCH  77  78
ATOM     78  S   UNL A   1      47.385  27.323  39.037  1.00  0.00     0.124 S 
ATOM     79  O   UNL A   1      47.065  25.899  39.051  1.00  0.00    -0.237 OA
ATOM     80  O   UNL A   1      48.648  27.678  38.393  1.00  0.00    -0.237 OA
ATOM     81  O   UNL A   1      47.106  28.037  40.281  1.00  0.00    -0.744 OA
ENDBRANCH  77  78
ENDBRANCH  51  72
ENDBRANCH  25  26
ENDBRANCH  18  20
ENDBRANCH  17  18
ENDBRANCH  16  17
ENDBRANCH   1  16
TORSDOF 17
ENDMDL
MODEL 3
REMARK VINA RESULT:      -9.6      2.337      8.505
REMARK SMILES C[C@@H](Sc1nncn1C)[C@@H](C)C(=O)OCCOC(=O)c1ccc(-c2c3nc(c(-c4ccc(S(=O)(=O)[O-])cc4)c4ccc([nH]4)c(-c4ccc(S(=O)(=O)[O-])cc4)c4nc(c(-c5ccc(S(=O)(=O)[O-])cc5)c5ccc2[nH]5)C=C4)C=C3)cc1
REMARK SMILES IDX 15 1 14 2 12 3 13 4 10 5 11 6 2 7 1 8 3 9 4 10 5 11 8 12
REMARK SMILES IDX 6 13 7 14 9 15 16 16 17 17 18 18 19 19 20 20 21 21 79 22
REMARK SMILES IDX 22 23 78 24 23 25 24 26 25 27 72 28 26 29 77 30 71 31 73 32
REMARK SMILES IDX 27 33 76 34 70 35 69 36 28 38 58 39 39 40 57 41 40 42 43 43
REMARK SMILES IDX 56 44 74 45 41 46 42 47 55 49 75 50 44 51 29 52 30 53 38 54
REMARK SMILES IDX 31 55 37 56 32 57 33 58 34 59 35 60 36 61 59 62 60 63 68 64
REMARK SMILES IDX 61 65 67 66 62 67 63 68 64 69 65 70 66 71 45 72 46 73 54 74
REMARK SMILES IDX 47 75 53 76 48 77 49 78 50 79 51 80 52 81
REMARK H PARENT 73 37 43 48
REMARK Flexibility Score: inf
ROOT
ATOM      1  C   UNL A   1      37.958  21.495  25.357  1.00  0.00     0.274 C 
ENDROOT
BRANCH   1   2
ATOM      2  O   UNL A   1      37.192  22.714  25.467  1.00  0.00    -0.462 OA
BRANCH   2   3
ATOM      3  C   UNL A   1      35.914  22.619  25.020  1.00  0.00     0.309 C 
ATOM      4  O   UNL A   1      35.600  22.260  23.888  1.00  0.00    -0.252 OA
BRANCH   3   5
ATOM      5  C   UNL A   1      34.870  23.087  26.019  1.00  0.00     0.109 C 
ATOM      6  C   UNL A   1      34.534  21.863  26.878  1.00  0.00     0.021 C 
BRANCH   5   7
ATOM      7  C   UNL A   1      33.616  23.793  25.442  1.00  0.00     0.065 C 
ATOM      8  C   UNL A   1      32.493  23.814  26.492  1.00  0.00     0.021 C 
BRANCH   7   9
ATOM      9  S   UNL A   1      34.031  25.523  24.968  1.00  0.00    -0.082 SA
BRANCH   9  10
ATOM     10  C   UNL A   1      33.439  25.644  23.347  1.00  0.00     0.191 A 
ATOM     11  N   UNL A   1      34.055  25.277  22.246  1.00  0.00    -0.124 NA
ATOM     12  N   UNL A   1      32.200  26.124  23.032  1.00  0.00    -0.312 N 
ATOM     13  N   UNL A   1      33.186  25.462  21.193  1.00  0.00    -0.138 NA
ATOM     14  C   UNL A   1      32.074  25.961  21.684  1.00  0.00     0.226 A 
ATOM     15  C   UNL A   1      31.227  26.743  23.893  1.00  0.00     0.153 C 
ENDBRANCH   9  10
ENDBRANCH   7   9
ENDBRANCH   5   7
ENDBRANCH   3   5
ENDBRANCH   2   3
ENDBRANCH   1   2
BRANCH   1  16
ATOM     16  C   UNL A   1      39.344  21.653  25.982  1.00  0.00     0.275 C 
BRANCH  16  17
ATOM     17  O   UNL A   1      39.870  20.366  26.343  1.00  0.00    -0.458 OA
BRANCH  17  18
ATOM     18  C   UNL A   1      41.193  20.189  26.128  1.00  0.00     0.338 C 
ATOM     19  O   UNL A   1      41.740  19.191  25.688  1.00  0.00    -0.246 OA
BRANCH  18  20
ATOM     20  C   UNL A   1      41.936  21.393  26.551  1.00  0.00     0.060 A 
ATOM     21  C   UNL A   1      42.271  21.611  27.891  1.00  0.00     0.016 A 
ATOM     22  C   UNL A   1      42.234  22.358  25.590  1.00  0.00     0.016 A 
ATOM     23  C   UNL A   1      42.867  22.812  28.279  1.00  0.00     0.010 A 
ATOM     24  C   UNL A   1      42.887  23.532  25.969  1.00  0.00     0.010 A 
ATOM     25  C   UNL A   1      43.192  23.780  27.318  1.00  0.00    -0.014 A 
BRANCH  25  26
ATOM     26  C   UNL A   1      43.839  25.063  27.695  1.00  0.00     0.031 A 
ATOM     27  C   UNL A   1      43.003  26.194  28.228  1.00  0.00     0.074 A 
ATOM     28  C   UNL A   1      45.161  25.235  27.503  1.00  0.00     0.049 A 
ATOM     29  N   UNL A   1      43.328  27.447  28.410  1.00  0.00    -0.248 NA
ATOM     30  C   UNL A   1      41.612  25.873  28.588  1.00  0.00     0.031 C 
ATOM     31  C   UNL A   1      46.091  24.208  27.027  1.00  0.00     0.029 A 
ATOM     32  N   UNL A   1      45.947  26.349  27.661  1.00  0.00    -0.354 N 
ATOM     33  C   UNL A   1      42.173  28.075  28.865  1.00  0.00     0.074 A 
ATOM     34  C   UNL A   1      41.138  27.064  28.926  1.00  0.00     0.031 C 
ATOM     35  C   UNL A   1      47.320  24.741  26.932  1.00  0.00     0.029 A 
ATOM     36  C   UNL A   1      47.252  26.159  27.273  1.00  0.00     0.049 A 
ATOM     37  H   UNL A   1      45.609  27.202  28.019  1.00  0.00     0.167 HD
ATOM     38  C   UNL A   1      41.993  29.376  29.197  1.00  0.00     0.031 A 
ATOM     39  C   UNL A   1      48.269  27.034  27.158  1.00  0.00     0.031 A 
ATOM     40  C   UNL A   1      43.031  30.372  29.149  1.00  0.00     0.049 A 
ATOM     41  C   UNL A   1      48.034  28.483  27.483  1.00  0.00     0.074 A 
ATOM     42  C   UNL A   1      42.953  31.713  29.485  1.00  0.00     0.029 A 
ATOM     43  N   UNL A   1      44.336  30.137  28.744  1.00  0.00    -0.354 N 
ATOM     44  N   UNL A   1      46.933  29.065  27.896  1.00  0.00    -0.248 NA
ATOM     45  C   UNL A   1      49.175  29.393  27.319  1.00  0.00     0.031 C 
ATOM     46  C   UNL A   1      44.200  32.297  29.243  1.00  0.00     0.029 A 
ATOM     47  C   UNL A   1      45.068  31.310  28.802  1.00  0.00     0.049 A 
ATOM     48  H   UNL A   1      44.689  29.264  28.456  1.00  0.00     0.167 HD
ATOM     49  C   UNL A   1      47.254  30.407  28.057  1.00  0.00     0.074 A 
ATOM     50  C   UNL A   1      48.654  30.549  27.710  1.00  0.00     0.031 C 
ATOM     51  C   UNL A   1      46.460  31.432  28.454  1.00  0.00     0.031 A 
BRANCH  38  52
ATOM     52  C   UNL A   1      40.609  29.805  29.604  1.00  0.00    -0.014 A 
ATOM     53  C   UNL A   1      39.595  30.002  28.651  1.00  0.00     0.010 A 
ATOM     54  C   UNL A   1      40.312  29.977  30.969  1.00  0.00     0.010 A 
ATOM     55  C   UNL A   1      38.317  30.403  29.054  1.00  0.00     0.020 A 
ATOM     56  C   UNL A   1      39.030  30.356  31.376  1.00  0.00     0.020 A 
ATOM     57  C   UNL A   1      38.045  30.583  30.413  1.00  0.00     0.054 A 
BRANCH  57  58
ATOM     58  S   UNL A   1      36.375  31.093  30.910  1.00  0.00     0.124 S 
ATOM     59  O   UNL A   1      36.003  30.032  31.843  1.00  0.00    -0.237 OA
ATOM     60  O   UNL A   1      36.604  32.405  31.510  1.00  0.00    -0.237 OA
ATOM     61  O   UNL A   1      35.629  31.107  29.654  1.00  0.00    -0.744 OA
ENDBRANCH  57  58
ENDBRANCH  38  52
BRANCH  39  62
ATOM     62  C   UNL A   1      49.594  26.566  26.670  1.00  0.00    -0.014 A 
ATOM     63  C   UNL A   1      50.528  26.012  27.561  1.00  0.00     0.010 A 
ATOM     64  C   UNL A   1      49.919  26.653  25.303  1.00  0.00     0.010 A 
ATOM     65  C   UNL A   1      51.767  25.561  27.097  1.00  0.00     0.020 A 
ATOM     66  C   UNL A   1      51.147  26.180  24.832  1.00  0.00     0.020 A 
ATOM     67  C   UNL A   1      52.068  25.646  25.735  1.00  0.00     0.054 A 
BRANCH  67  68
ATOM     68  S   UNL A   1      53.655  24.997  25.143  1.00  0.00     0.124 S 
ATOM     69  O   UNL A   1      54.594  25.578  26.097  1.00  0.00    -0.237 OA
ATOM     70  O   UNL A   1      53.465  23.552  25.241  1.00  0.00    -0.237 OA
ATOM     71  O   UNL A   1      53.747  25.513  23.778  1.00  0.00    -0.744 OA
ENDBRANCH  67  68
ENDBRANCH  39  62
BRANCH  51  72
ATOM     72  C   UNL A   1      47.092  32.792  28.566  1.00  0.00    -0.014 A 
ATOM     73  C   UNL A   1      47.079  33.691  27.485  1.00  0.00     0.010 A 
ATOM     74  C   UNL A   1      47.658  33.195  29.789  1.00  0.00     0.010 A 
ATOM     75  C   UNL A   1      47.642  34.962  27.619  1.00  0.00     0.020 A 
ATOM     76  C   UNL A   1      48.202  34.473  29.934  1.00  0.00     0.020 A 
ATOM     77  C   UNL A   1      48.200  35.346  28.842  1.00  0.00     0.054 A 
BRANCH  77  78
ATOM     78  S   UNL A   1      48.879  37.020  29.010  1.00  0.00     0.124 S 
ATOM     79  O   UNL A   1      47.725  37.767  29.501  1.00  0.00    -0.237 OA
ATOM     80  O   UNL A   1      49.963  36.834  29.972  1.00  0.00    -0.237 OA
ATOM     81  O   UNL A   1      49.309  37.355  27.654  1.00  0.00    -0.744 OA
ENDBRANCH  77  78
ENDBRANCH  51  72
ENDBRANCH  25  26
ENDBRANCH  18  20
ENDBRANCH  17  18
ENDBRANCH  16  17
ENDBRANCH   1  16
TORSDOF 17
ENDMDL
