MODEL 1
REMARK VINA RESULT:      -9.3      0.000      0.000
REMARK SMILES COC(=O)C[C@H](c1ccc(C(=O)OCCOC(=O)c2ccc(-c3c4nc(c(-c5ccc(S(=O)(=O)[O-])cc5)c5ccc([nH]5)c(-c5ccc(S(=O)(=O)[O-])cc5)c5nc(c(-c6ccc(S(=O)(=O)[O-])cc6)c6ccc3[nH]6)C=C5)C=C4)cc2)cc1)c1c(O)n[nH]c1C
REMARK SMILES IDX 14 1 13 2 11 3 12 4 10 5 7 6 8 7 80 8 9 9 79 10 6 11 5 12
REMARK SMILES IDX 3 13 4 14 2 15 1 16 81 17 82 18 86 19 84 20 85 21 87 22
REMARK SMILES IDX 83 24 15 26 16 27 17 28 18 29 19 30 20 31 78 32 21 33 77 34
REMARK SMILES IDX 22 35 23 36 24 37 71 38 25 39 76 40 70 41 72 42 26 43 75 44
REMARK SMILES IDX 69 45 68 46 27 48 57 49 38 50 56 51 39 52 42 53 55 54 73 55
REMARK SMILES IDX 40 56 41 57 54 59 74 60 43 61 28 62 29 63 37 64 30 65 36 66
REMARK SMILES IDX 31 67 32 68 33 69 34 70 35 71 58 72 59 73 67 74 60 75 66 76
REMARK SMILES IDX 61 77 62 78 63 79 64 80 65 81 44 82 45 83 53 84 46 85 52 86
REMARK SMILES IDX 47 87 48 88 49 89 50 90 51 91
REMARK H PARENT 85 23 83 25 72 47 42 58
REMARK Flexibility Score: inf
ROOT
ATOM      1  C   UNL A   1      34.443  34.439  28.661  1.00  0.00     0.275 C 
ENDROOT
BRANCH   1   2
ATOM      2  O   UNL A   1      35.587  34.249  29.515  1.00  0.00    -0.458 OA
BRANCH   2   3
ATOM      3  C   UNL A   1      35.320  34.317  30.842  1.00  0.00     0.338 C 
ATOM      4  O   UNL A   1      34.392  34.920  31.358  1.00  0.00    -0.246 OA
BRANCH   3   5
ATOM      5  C   UNL A   1      36.253  33.480  31.633  1.00  0.00     0.060 A 
ATOM      6  C   UNL A   1      37.863  31.846  33.275  1.00  0.00    -0.040 A 
ATOM      7  C   UNL A   1      36.487  31.621  33.173  1.00  0.00     0.005 A 
ATOM      8  C   UNL A   1      38.430  32.874  32.494  1.00  0.00     0.005 A 
ATOM      9  C   UNL A   1      35.689  32.457  32.401  1.00  0.00     0.016 A 
ATOM     10  C   UNL A   1      37.633  33.680  31.668  1.00  0.00     0.016 A 
BRANCH   6  11
ATOM     11  C   UNL A   1      38.710  31.122  34.316  1.00  0.00     0.068 C 
BRANCH  11  12
ATOM     12  C   UNL A   1      38.049  30.802  35.670  1.00  0.00     0.136 C 
BRANCH  12  13
ATOM     13  C   UNL A   1      38.175  31.887  36.709  1.00  0.00     0.306 C 
ATOM     14  O   UNL A   1      37.263  32.659  36.981  1.00  0.00    -0.252 OA
BRANCH  13  15
ATOM     15  O   UNL A   1      39.414  31.922  37.270  1.00  0.00    -0.469 OA
ATOM     16  C   UNL A   1      39.753  33.206  37.802  1.00  0.00     0.282 C 
ENDBRANCH  13  15
ENDBRANCH  12  13
ENDBRANCH  11  12
BRANCH  11  17
ATOM     17  C   UNL A   1      39.278  29.903  33.635  1.00  0.00     0.044 A 
ATOM     18  C   UNL A   1      38.541  28.788  33.203  1.00  0.00     0.234 A 
ATOM     19  C   UNL A   1      40.568  29.582  33.214  1.00  0.00     0.040 A 
ATOM     20  N   UNL A   1      39.236  27.843  32.594  1.00  0.00    -0.137 NA
ATOM     21  N   UNL A   1      40.485  28.337  32.636  1.00  0.00    -0.279 N 
ATOM     22  C   UNL A   1      41.878  30.277  33.288  1.00  0.00     0.066 C 
ATOM     23  H   UNL A   1      41.268  27.852  32.285  1.00  0.00     0.190 HD
BRANCH  18  24
ATOM     24  O   UNL A   1      37.237  28.542  33.289  1.00  0.00    -0.492 OA
ATOM     25  H   UNL A   1      36.652  28.893  32.647  1.00  0.00     0.295 HD
ENDBRANCH  18  24
ENDBRANCH  11  17
ENDBRANCH   6  11
ENDBRANCH   3   5
ENDBRANCH   2   3
ENDBRANCH   1   2
BRANCH   1  26
ATOM     26  C   UNL A   1      33.932  33.104  28.118  1.00  0.00     0.275 C 
BRANCH  26  27
ATOM     27  O   UNL A   1      34.410  31.998  28.906  1.00  0.00    -0.458 OA
BRANCH  27  28
ATOM     28  C   UNL A   1      34.473  30.811  28.257  1.00  0.00     0.338 C 
ATOM     29  O   UNL A   1      33.588  30.267  27.620  1.00  0.00    -0.246 OA
BRANCH  28  30
ATOM     30  C   UNL A   1      35.810  30.221  28.421  1.00  0.00     0.060 A 
ATOM     31  C   UNL A   1      36.276  29.934  29.702  1.00  0.00     0.016 A 
ATOM     32  C   UNL A   1      36.655  30.085  27.323  1.00  0.00     0.016 A 
ATOM     33  C   UNL A   1      37.609  29.576  29.905  1.00  0.00     0.010 A 
ATOM     34  C   UNL A   1      37.970  29.648  27.519  1.00  0.00     0.010 A 
ATOM     35  C   UNL A   1      38.474  29.416  28.813  1.00  0.00    -0.014 A 
BRANCH  35  36
ATOM     36  C   UNL A   1      39.906  29.044  29.000  1.00  0.00     0.031 A 
ATOM     37  C   UNL A   1      40.898  30.089  29.447  1.00  0.00     0.074 A 
ATOM     38  C   UNL A   1      40.339  27.795  28.737  1.00  0.00     0.049 A 
ATOM     39  N   UNL A   1      42.206  30.058  29.413  1.00  0.00    -0.248 NA
ATOM     40  C   UNL A   1      40.341  31.338  29.993  1.00  0.00     0.031 C 
ATOM     41  C   UNL A   1      39.492  26.660  28.362  1.00  0.00     0.029 A 
ATOM     42  N   UNL A   1      41.611  27.273  28.729  1.00  0.00    -0.354 N 
ATOM     43  C   UNL A   1      42.627  31.304  29.866  1.00  0.00     0.074 A 
ATOM     44  C   UNL A   1      41.436  32.063  30.181  1.00  0.00     0.031 C 
ATOM     45  C   UNL A   1      40.264  25.578  28.174  1.00  0.00     0.029 A 
ATOM     46  C   UNL A   1      41.664  25.960  28.323  1.00  0.00     0.049 A 
ATOM     47  H   UNL A   1      42.407  27.789  28.991  1.00  0.00     0.167 HD
ATOM     48  C   UNL A   1      43.891  31.776  29.994  1.00  0.00     0.031 A 
ATOM     49  C   UNL A   1      42.715  25.164  28.039  1.00  0.00     0.031 A 
ATOM     50  C   UNL A   1      45.073  31.003  29.713  1.00  0.00     0.049 A 
ATOM     51  C   UNL A   1      44.108  25.717  28.145  1.00  0.00     0.074 A 
ATOM     52  C   UNL A   1      46.398  31.390  29.811  1.00  0.00     0.029 A 
ATOM     53  N   UNL A   1      45.072  29.681  29.295  1.00  0.00    -0.354 N 
ATOM     54  N   UNL A   1      44.490  26.919  28.506  1.00  0.00    -0.248 NA
ATOM     55  C   UNL A   1      45.212  24.814  27.789  1.00  0.00     0.031 C 
ATOM     56  C   UNL A   1      47.199  30.313  29.419  1.00  0.00     0.029 A 
ATOM     57  C   UNL A   1      46.373  29.239  29.127  1.00  0.00     0.049 A 
ATOM     58  H   UNL A   1      44.266  29.136  29.142  1.00  0.00     0.167 HD
ATOM     59  C   UNL A   1      45.879  26.907  28.445  1.00  0.00     0.074 A 
ATOM     60  C   UNL A   1      46.271  25.581  28.016  1.00  0.00     0.031 C 
ATOM     61  C   UNL A   1      46.748  27.909  28.720  1.00  0.00     0.031 A 
BRANCH  48  62
ATOM     62  C   UNL A   1      44.065  33.212  30.409  1.00  0.00    -0.014 A 
ATOM     63  C   UNL A   1      44.218  34.240  29.463  1.00  0.00     0.010 A 
ATOM     64  C   UNL A   1      44.033  33.542  31.778  1.00  0.00     0.010 A 
ATOM     65  C   UNL A   1      44.376  35.565  29.879  1.00  0.00     0.020 A 
ATOM     66  C   UNL A   1      44.166  34.869  32.197  1.00  0.00     0.020 A 
ATOM     67  C   UNL A   1      44.356  35.870  31.244  1.00  0.00     0.054 A 
BRANCH  67  68
ATOM     68  S   UNL A   1      44.551  37.600  31.757  1.00  0.00     0.124 S 
ATOM     69  O   UNL A   1      45.907  37.896  31.303  1.00  0.00    -0.237 OA
ATOM     70  O   UNL A   1      43.482  38.275  31.025  1.00  0.00    -0.237 OA
ATOM     71  O   UNL A   1      44.376  37.553  33.207  1.00  0.00    -0.744 OA
ENDBRANCH  67  68
ENDBRANCH  48  62
BRANCH  49  72
ATOM     72  C   UNL A   1      42.478  23.770  27.571  1.00  0.00    -0.014 A 
ATOM     73  C   UNL A   1      42.304  23.493  26.205  1.00  0.00     0.010 A 
ATOM     74  C   UNL A   1      42.455  22.706  28.493  1.00  0.00     0.010 A 
ATOM     75  C   UNL A   1      42.109  22.179  25.769  1.00  0.00     0.020 A 
ATOM     76  C   UNL A   1      42.289  21.389  28.058  1.00  0.00     0.020 A 
ATOM     77  C   UNL A   1      42.108  21.135  26.698  1.00  0.00     0.054 A 
BRANCH  77  78
ATOM     78  S   UNL A   1      41.925  19.429  26.105  1.00  0.00     0.124 S 
ATOM     79  O   UNL A   1      42.769  19.431  24.913  1.00  0.00    -0.237 OA
ATOM     80  O   UNL A   1      42.425  18.644  27.232  1.00  0.00    -0.237 OA
ATOM     81  O   UNL A   1      40.491  19.306  25.859  1.00  0.00    -0.744 OA
ENDBRANCH  77  78
ENDBRANCH  49  72
BRANCH  61  82
ATOM     82  C   UNL A   1      48.218  27.603  28.629  1.00  0.00    -0.014 A 
ATOM     83  C   UNL A   1      48.995  28.068  27.554  1.00  0.00     0.010 A 
ATOM     84  C   UNL A   1      48.843  26.918  29.686  1.00  0.00     0.010 A 
ATOM     85  C   UNL A   1      50.374  27.843  27.536  1.00  0.00     0.020 A 
ATOM     86  C   UNL A   1      50.224  26.709  29.681  1.00  0.00     0.020 A 
ATOM     87  C   UNL A   1      50.981  27.169  28.602  1.00  0.00     0.054 A 
BRANCH  87  88
ATOM     88  S   UNL A   1      52.783  26.960  28.595  1.00  0.00     0.124 S 
ATOM     89  O   UNL A   1      53.242  28.289  28.197  1.00  0.00    -0.237 OA
ATOM     90  O   UNL A   1      53.069  26.586  29.978  1.00  0.00    -0.237 OA
ATOM     91  O   UNL A   1      53.005  25.902  27.612  1.00  0.00    -0.744 OA
ENDBRANCH  87  88
ENDBRANCH  61  82
ENDBRANCH  35  36
ENDBRANCH  28  30
ENDBRANCH  27  28
ENDBRANCH  26  27
ENDBRANCH   1  26
TORSDOF 20
ENDMDL
MODEL 2
REMARK VINA RESULT:      -9.1      3.264     11.486
REMARK SMILES COC(=O)C[C@H](c1ccc(C(=O)OCCOC(=O)c2ccc(-c3c4nc(c(-c5ccc(S(=O)(=O)[O-])cc5)c5ccc([nH]5)c(-c5ccc(S(=O)(=O)[O-])cc5)c5nc(c(-c6ccc(S(=O)(=O)[O-])cc6)c6ccc3[nH]6)C=C5)C=C4)cc2)cc1)c1c(O)n[nH]c1C
REMARK SMILES IDX 14 1 13 2 11 3 12 4 10 5 7 6 8 7 80 8 9 9 79 10 6 11 5 12
REMARK SMILES IDX 3 13 4 14 2 15 1 16 81 17 82 18 86 19 84 20 85 21 87 22
REMARK SMILES IDX 83 24 15 26 16 27 17 28 18 29 19 30 20 31 78 32 21 33 77 34
REMARK SMILES IDX 22 35 23 36 24 37 71 38 25 39 76 40 70 41 72 42 26 43 75 44
REMARK SMILES IDX 69 45 68 46 27 48 57 49 38 50 56 51 39 52 42 53 55 54 73 55
REMARK SMILES IDX 40 56 41 57 54 59 74 60 43 61 28 62 29 63 37 64 30 65 36 66
REMARK SMILES IDX 31 67 32 68 33 69 34 70 35 71 58 72 59 73 67 74 60 75 66 76
REMARK SMILES IDX 61 77 62 78 63 79 64 80 65 81 44 82 45 83 53 84 46 85 52 86
REMARK SMILES IDX 47 87 48 88 49 89 50 90 51 91
REMARK H PARENT 85 23 83 25 72 47 42 58
REMARK Flexibility Score: inf
ROOT
ATOM      1  C   UNL A   1      41.380  19.965  26.435  1.00  0.00     0.275 C 
ENDROOT
BRANCH   1   2
ATOM      2  O   UNL A   1      42.671  20.576  26.621  1.00  0.00    -0.458 OA
BRANCH   2   3
ATOM      3  C   UNL A   1      43.472  20.551  25.529  1.00  0.00     0.338 C 
ATOM      4  O   UNL A   1      43.598  19.616  24.751  1.00  0.00    -0.246 OA
BRANCH   3   5
ATOM      5  C   UNL A   1      44.144  21.853  25.309  1.00  0.00     0.060 A 
ATOM      6  C   UNL A   1      45.605  24.243  24.970  1.00  0.00    -0.040 A 
ATOM      7  C   UNL A   1      46.242  23.000  24.904  1.00  0.00     0.005 A 
ATOM      8  C   UNL A   1      44.207  24.266  25.154  1.00  0.00     0.005 A 
ATOM      9  C   UNL A   1      45.529  21.827  25.119  1.00  0.00     0.016 A 
ATOM     10  C   UNL A   1      43.477  23.079  25.312  1.00  0.00     0.016 A 
BRANCH   6  11
ATOM     11  C   UNL A   1      46.402  25.541  25.007  1.00  0.00     0.068 C 
BRANCH  11  12
ATOM     12  C   UNL A   1      45.610  26.857  25.138  1.00  0.00     0.136 C 
BRANCH  12  13
ATOM     13  C   UNL A   1      46.384  28.101  24.783  1.00  0.00     0.306 C 
ATOM     14  O   UNL A   1      47.130  28.168  23.813  1.00  0.00    -0.252 OA
BRANCH  13  15
ATOM     15  O   UNL A   1      46.181  29.106  25.676  1.00  0.00    -0.469 OA
ATOM     16  C   UNL A   1      44.932  29.000  26.365  1.00  0.00     0.282 C 
ENDBRANCH  13  15
ENDBRANCH  12  13
ENDBRANCH  11  12
BRANCH  11  17
ATOM     17  C   UNL A   1      47.447  25.374  26.081  1.00  0.00     0.044 A 
ATOM     18  C   UNL A   1      48.811  25.683  25.950  1.00  0.00     0.234 A 
ATOM     19  C   UNL A   1      47.365  24.964  27.411  1.00  0.00     0.040 A 
ATOM     20  N   UNL A   1      49.547  25.493  27.032  1.00  0.00    -0.137 NA
ATOM     21  N   UNL A   1      48.646  25.023  27.911  1.00  0.00    -0.279 N 
ATOM     22  C   UNL A   1      46.252  24.510  28.281  1.00  0.00     0.066 C 
ATOM     23  H   UNL A   1      48.879  24.748  28.827  1.00  0.00     0.190 HD
BRANCH  18  24
ATOM     24  O   UNL A   1      49.481  26.165  24.908  1.00  0.00    -0.492 OA
ATOM     25  H   UNL A   1      49.027  26.375  24.116  1.00  0.00     0.295 HD
ENDBRANCH  18  24
ENDBRANCH  11  17
ENDBRANCH   6  11
ENDBRANCH   3   5
ENDBRANCH   2   3
ENDBRANCH   1   2
BRANCH   1  26
ATOM     26  C   UNL A   1      40.257  20.893  26.900  1.00  0.00     0.275 C 
BRANCH  26  27
ATOM     27  O   UNL A   1      40.233  22.113  26.135  1.00  0.00    -0.458 OA
BRANCH  27  28
ATOM     28  C   UNL A   1      39.082  22.821  26.213  1.00  0.00     0.338 C 
ATOM     29  O   UNL A   1      37.965  22.457  25.888  1.00  0.00    -0.246 OA
BRANCH  28  30
ATOM     30  C   UNL A   1      39.352  24.157  26.766  1.00  0.00     0.060 A 
ATOM     31  C   UNL A   1      40.058  25.081  26.000  1.00  0.00     0.016 A 
ATOM     32  C   UNL A   1      39.031  24.445  28.090  1.00  0.00     0.016 A 
ATOM     33  C   UNL A   1      40.512  26.271  26.571  1.00  0.00     0.010 A 
ATOM     34  C   UNL A   1      39.417  25.673  28.638  1.00  0.00     0.010 A 
ATOM     35  C   UNL A   1      40.188  26.589  27.897  1.00  0.00    -0.014 A 
BRANCH  35  36
ATOM     36  C   UNL A   1      40.667  27.849  28.536  1.00  0.00     0.031 A 
ATOM     37  C   UNL A   1      42.070  27.923  29.083  1.00  0.00     0.074 A 
ATOM     38  C   UNL A   1      39.851  28.914  28.669  1.00  0.00     0.049 A 
ATOM     39  N   UNL A   1      42.596  28.799  29.901  1.00  0.00    -0.248 NA
ATOM     40  C   UNL A   1      43.000  26.862  28.662  1.00  0.00     0.031 C 
ATOM     41  C   UNL A   1      38.492  29.020  28.134  1.00  0.00     0.029 A 
ATOM     42  N   UNL A   1      40.044  30.112  29.317  1.00  0.00    -0.354 N 
ATOM     43  C   UNL A   1      43.893  28.359  30.147  1.00  0.00     0.074 A 
ATOM     44  C   UNL A   1      44.078  27.145  29.382  1.00  0.00     0.031 C 
ATOM     45  C   UNL A   1      37.981  30.217  28.462  1.00  0.00     0.029 A 
ATOM     46  C   UNL A   1      38.935  30.926  29.308  1.00  0.00     0.049 A 
ATOM     47  H   UNL A   1      40.895  30.363  29.744  1.00  0.00     0.167 HD
ATOM     48  C   UNL A   1      44.836  28.910  30.949  1.00  0.00     0.031 A 
ATOM     49  C   UNL A   1      38.682  32.082  29.954  1.00  0.00     0.031 A 
ATOM     50  C   UNL A   1      44.657  30.138  31.679  1.00  0.00     0.049 A 
ATOM     51  C   UNL A   1      39.724  32.656  30.873  1.00  0.00     0.074 A 
ATOM     52  C   UNL A   1      45.552  30.779  32.518  1.00  0.00     0.029 A 
ATOM     53  N   UNL A   1      43.512  30.920  31.643  1.00  0.00    -0.354 N 
ATOM     54  N   UNL A   1      40.918  32.193  31.152  1.00  0.00    -0.248 NA
ATOM     55  C   UNL A   1      39.378  33.900  31.577  1.00  0.00     0.031 C 
ATOM     56  C   UNL A   1      44.936  31.931  33.018  1.00  0.00     0.029 A 
ATOM     57  C   UNL A   1      43.676  32.033  32.449  1.00  0.00     0.049 A 
ATOM     58  H   UNL A   1      42.703  30.714  31.122  1.00  0.00     0.167 HD
ATOM     59  C   UNL A   1      41.476  33.101  32.045  1.00  0.00     0.074 A 
ATOM     60  C   UNL A   1      40.492  34.142  32.256  1.00  0.00     0.031 C 
ATOM     61  C   UNL A   1      42.695  33.072  32.634  1.00  0.00     0.031 A 
BRANCH  48  62
ATOM     62  C   UNL A   1      46.132  28.165  31.122  1.00  0.00    -0.014 A 
ATOM     63  C   UNL A   1      47.209  28.342  30.235  1.00  0.00     0.010 A 
ATOM     64  C   UNL A   1      46.288  27.300  32.223  1.00  0.00     0.010 A 
ATOM     65  C   UNL A   1      48.401  27.637  30.423  1.00  0.00     0.020 A 
ATOM     66  C   UNL A   1      47.487  26.614  32.428  1.00  0.00     0.020 A 
ATOM     67  C   UNL A   1      48.530  26.772  31.515  1.00  0.00     0.054 A 
BRANCH  67  68
ATOM     68  S   UNL A   1      50.093  25.878  31.743  1.00  0.00     0.124 S 
ATOM     69  O   UNL A   1      50.932  26.898  32.369  1.00  0.00    -0.237 OA
ATOM     70  O   UNL A   1      49.706  24.767  32.609  1.00  0.00    -0.237 OA
ATOM     71  O   UNL A   1      50.479  25.502  30.385  1.00  0.00    -0.744 OA
ENDBRANCH  67  68
ENDBRANCH  48  62
BRANCH  49  72
ATOM     72  C   UNL A   1      37.356  32.741  29.793  1.00  0.00    -0.014 A 
ATOM     73  C   UNL A   1      36.385  32.654  30.805  1.00  0.00     0.010 A 
ATOM     74  C   UNL A   1      37.071  33.488  28.633  1.00  0.00     0.010 A 
ATOM     75  C   UNL A   1      35.152  33.298  30.659  1.00  0.00     0.020 A 
ATOM     76  C   UNL A   1      35.851  34.155  28.497  1.00  0.00     0.020 A 
ATOM     77  C   UNL A   1      34.896  34.049  29.508  1.00  0.00     0.054 A 
BRANCH  77  78
ATOM     78  S   UNL A   1      33.318  34.935  29.370  1.00  0.00     0.124 S 
ATOM     79  O   UNL A   1      32.770  34.789  30.715  1.00  0.00    -0.237 OA
ATOM     80  O   UNL A   1      33.742  36.285  29.003  1.00  0.00    -0.237 OA
ATOM     81  O   UNL A   1      32.609  34.207  28.321  1.00  0.00    -0.744 OA
ENDBRANCH  77  78
ENDBRANCH  49  72
BRANCH  61  82
ATOM     82  C   UNL A   1      43.071  34.227  33.521  1.00  0.00    -0.014 A 
ATOM     83  C   UNL A   1      42.792  34.210  34.898  1.00  0.00     0.010 A 
ATOM     84  C   UNL A   1      43.796  35.302  32.977  1.00  0.00     0.010 A 
ATOM     85  C   UNL A   1      43.227  35.257  35.715  1.00  0.00     0.020 A 
ATOM     86  C   UNL A   1      44.249  36.340  33.794  1.00  0.00     0.020 A 
ATOM     87  C   UNL A   1      43.956  36.314  35.158  1.00  0.00     0.054 A 
BRANCH  87  88
ATOM     88  S   UNL A   1      44.580  37.621  36.252  1.00  0.00     0.124 S 
ATOM     89  O   UNL A   1      44.273  38.828  35.488  1.00  0.00    -0.237 OA
ATOM     90  O   UNL A   1      43.792  37.428  37.466  1.00  0.00    -0.237 OA
ATOM     91  O   UNL A   1      46.002  37.311  36.385  1.00  0.00    -0.744 OA
ENDBRANCH  87  88
ENDBRANCH  61  82
ENDBRANCH  35  36
ENDBRANCH  28  30
ENDBRANCH  27  28
ENDBRANCH  26  27
ENDBRANCH   1  26
TORSDOF 20
ENDMDL
MODEL 3
REMARK VINA RESULT:      -9.0      5.013     12.419
REMARK SMILES COC(=O)C[C@H](c1ccc(C(=O)OCCOC(=O)c2ccc(-c3c4nc(c(-c5ccc(S(=O)(=O)[O-])cc5)c5ccc([nH]5)c(-c5ccc(S(=O)(=O)[O-])cc5)c5nc(c(-c6ccc(S(=O)(=O)[O-])cc6)c6ccc3[nH]6)C=C5)C=C4)cc2)cc1)c1c(O)n[nH]c1C
REMARK SMILES IDX 14 1 13 2 11 3 12 4 10 5 7 6 8 7 80 8 9 9 79 10 6 11 5 12
REMARK SMILES IDX 3 13 4 14 2 15 1 16 81 17 82 18 86 19 84 20 85 21 87 22
REMARK SMILES IDX 83 24 15 26 16 27 17 28 18 29 19 30 20 31 78 32 21 33 77 34
REMARK SMILES IDX 22 35 23 36 24 37 71 38 25 39 76 40 70 41 72 42 26 43 75 44
REMARK SMILES IDX 69 45 68 46 27 48 57 49 38 50 56 51 39 52 42 53 55 54 73 55
REMARK SMILES IDX 40 56 41 57 54 59 74 60 43 61 28 62 29 63 37 64 30 65 36 66
REMARK SMILES IDX 31 67 32 68 33 69 34 70 35 71 58 72 59 73 67 74 60 75 66 76
REMARK SMILES IDX 61 77 62 78 63 79 64 80 65 81 44 82 45 83 53 84 46 85 52 86
REMARK SMILES IDX 47 87 48 88 49 89 50 90 51 91
REMARK H PARENT 85 23 83 25 72 47 42 58
REMARK Flexibility Score: inf
ROOT
ATOM      1  C   UNL A   1      39.943  21.321  26.242  1.00  0.00     0.275 C 
ENDROOT
BRANCH   1   2
ATOM      2  O   UNL A   1      38.675  21.995  26.130  1.00  0.00    -0.458 OA
BRANCH   2   3
ATOM      3  C   UNL A   1      37.805  21.423  25.262  1.00  0.00     0.338 C 
ATOM      4  O   UNL A   1      37.816  20.257  24.897  1.00  0.00    -0.246 OA
BRANCH   3   5
ATOM      5  C   UNL A   1      36.740  22.367  24.849  1.00  0.00     0.060 A 
ATOM      6  C   UNL A   1      34.649  24.170  24.271  1.00  0.00    -0.040 A 
ATOM      7  C   UNL A   1      35.253  24.158  25.532  1.00  0.00     0.005 A 
ATOM      8  C   UNL A   1      35.151  23.298  23.283  1.00  0.00     0.005 A 
ATOM      9  C   UNL A   1      36.250  23.236  25.829  1.00  0.00     0.016 A 
ATOM     10  C   UNL A   1      36.198  22.409  23.564  1.00  0.00     0.016 A 
BRANCH   6  11
ATOM     11  C   UNL A   1      33.383  24.977  24.006  1.00  0.00     0.068 C 
BRANCH  11  12
ATOM     12  C   UNL A   1      32.699  24.796  22.637  1.00  0.00     0.136 C 
BRANCH  12  13
ATOM     13  C   UNL A   1      32.664  26.034  21.778  1.00  0.00     0.306 C 
ATOM     14  O   UNL A   1      33.642  26.452  21.170  1.00  0.00    -0.252 OA
BRANCH  13  15
ATOM     15  O   UNL A   1      31.443  26.634  21.791  1.00  0.00    -0.469 OA
ATOM     16  C   UNL A   1      31.397  27.794  22.626  1.00  0.00     0.282 C 
ENDBRANCH  13  15
ENDBRANCH  12  13
ENDBRANCH  11  12
BRANCH  11  17
ATOM     17  C   UNL A   1      32.456  24.716  25.166  1.00  0.00     0.044 A 
ATOM     18  C   UNL A   1      31.902  23.471  25.507  1.00  0.00     0.234 A 
ATOM     19  C   UNL A   1      31.975  25.539  26.183  1.00  0.00     0.040 A 
ATOM     20  N   UNL A   1      31.143  23.460  26.589  1.00  0.00    -0.137 NA
ATOM     21  N   UNL A   1      31.176  24.747  26.974  1.00  0.00    -0.279 N 
ATOM     22  C   UNL A   1      32.150  26.976  26.514  1.00  0.00     0.066 C 
ATOM     23  H   UNL A   1      30.676  25.090  27.750  1.00  0.00     0.190 HD
BRANCH  18  24
ATOM     24  O   UNL A   1      32.042  22.286  24.923  1.00  0.00    -0.492 OA
ATOM     25  H   UNL A   1      32.877  21.861  24.919  1.00  0.00     0.295 HD
ENDBRANCH  18  24
ENDBRANCH  11  17
ENDBRANCH   6  11
ENDBRANCH   3   5
ENDBRANCH   2   3
ENDBRANCH   1   2
BRANCH   1  26
ATOM     26  C   UNL A   1      41.080  22.318  26.470  1.00  0.00     0.275 C 
BRANCH  26  27
ATOM     27  O   UNL A   1      40.590  23.671  26.528  1.00  0.00    -0.458 OA
BRANCH  27  28
ATOM     28  C   UNL A   1      41.521  24.632  26.329  1.00  0.00     0.338 C 
ATOM     29  O   UNL A   1      42.438  24.621  25.525  1.00  0.00    -0.246 OA
BRANCH  28  30
ATOM     30  C   UNL A   1      41.286  25.756  27.248  1.00  0.00     0.060 A 
ATOM     31  C   UNL A   1      42.010  26.934  27.083  1.00  0.00     0.016 A 
ATOM     32  C   UNL A   1      40.456  25.595  28.354  1.00  0.00     0.016 A 
ATOM     33  C   UNL A   1      41.966  27.933  28.056  1.00  0.00     0.010 A 
ATOM     34  C   UNL A   1      40.350  26.630  29.289  1.00  0.00     0.010 A 
ATOM     35  C   UNL A   1      41.125  27.799  29.170  1.00  0.00    -0.014 A 
BRANCH  35  36
ATOM     36  C   UNL A   1      41.064  28.845  30.231  1.00  0.00     0.031 A 
ATOM     37  C   UNL A   1      42.046  28.807  31.376  1.00  0.00     0.074 A 
ATOM     38  C   UNL A   1      40.118  29.806  30.207  1.00  0.00     0.049 A 
ATOM     39  N   UNL A   1      42.007  29.438  32.522  1.00  0.00    -0.248 NA
ATOM     40  C   UNL A   1      43.220  27.934  31.210  1.00  0.00     0.031 C 
ATOM     41  C   UNL A   1      39.142  30.015  29.135  1.00  0.00     0.029 A 
ATOM     42  N   UNL A   1      39.812  30.782  31.126  1.00  0.00    -0.354 N 
ATOM     43  C   UNL A   1      43.110  28.986  33.241  1.00  0.00     0.074 A 
ATOM     44  C   UNL A   1      43.804  28.039  32.397  1.00  0.00     0.031 C 
ATOM     45  C   UNL A   1      38.358  31.057  29.450  1.00  0.00     0.029 A 
ATOM     46  C   UNL A   1      38.710  31.532  30.784  1.00  0.00     0.049 A 
ATOM     47  H   UNL A   1      40.332  30.930  31.948  1.00  0.00     0.167 HD
ATOM     48  C   UNL A   1      43.497  29.322  34.496  1.00  0.00     0.031 A 
ATOM     49  C   UNL A   1      38.018  32.454  31.482  1.00  0.00     0.031 A 
ATOM     50  C   UNL A   1      42.821  30.292  35.317  1.00  0.00     0.049 A 
ATOM     51  C   UNL A   1      38.436  32.782  32.888  1.00  0.00     0.074 A 
ATOM     52  C   UNL A   1      43.135  30.701  36.601  1.00  0.00     0.029 A 
ATOM     53  N   UNL A   1      41.705  31.017  34.928  1.00  0.00    -0.354 N 
ATOM     54  N   UNL A   1      39.438  32.296  33.581  1.00  0.00    -0.248 NA
ATOM     55  C   UNL A   1      37.622  33.769  33.612  1.00  0.00     0.031 C 
ATOM     56  C   UNL A   1      42.188  31.649  37.003  1.00  0.00     0.029 A 
ATOM     57  C   UNL A   1      41.315  31.867  35.949  1.00  0.00     0.049 A 
ATOM     58  H   UNL A   1      41.257  30.940  34.055  1.00  0.00     0.167 HD
ATOM     59  C   UNL A   1      39.389  32.937  34.814  1.00  0.00     0.074 A 
ATOM     60  C   UNL A   1      38.263  33.847  34.771  1.00  0.00     0.031 C 
ATOM     61  C   UNL A   1      40.206  32.783  35.884  1.00  0.00     0.031 A 
BRANCH  48  62
ATOM     62  C   UNL A   1      44.680  28.598  35.082  1.00  0.00    -0.014 A 
ATOM     63  C   UNL A   1      45.983  29.116  34.987  1.00  0.00     0.010 A 
ATOM     64  C   UNL A   1      44.473  27.392  35.780  1.00  0.00     0.010 A 
ATOM     65  C   UNL A   1      47.061  28.422  35.543  1.00  0.00     0.020 A 
ATOM     66  C   UNL A   1      45.545  26.708  36.359  1.00  0.00     0.020 A 
ATOM     67  C   UNL A   1      46.836  27.218  36.219  1.00  0.00     0.054 A 
BRANCH  67  68
ATOM     68  S   UNL A   1      48.251  26.343  36.943  1.00  0.00     0.124 S 
ATOM     69  O   UNL A   1      48.098  25.005  36.375  1.00  0.00    -0.237 OA
ATOM     70  O   UNL A   1      49.392  27.108  36.446  1.00  0.00    -0.237 OA
ATOM     71  O   UNL A   1      48.019  26.438  38.383  1.00  0.00    -0.744 OA
ENDBRANCH  67  68
ENDBRANCH  48  62
BRANCH  49  72
ATOM     72  C   UNL A   1      36.818  33.091  30.873  1.00  0.00    -0.014 A 
ATOM     73  C   UNL A   1      35.548  32.930  31.454  1.00  0.00     0.010 A 
ATOM     74  C   UNL A   1      36.946  33.890  29.719  1.00  0.00     0.010 A 
ATOM     75  C   UNL A   1      34.429  33.554  30.892  1.00  0.00     0.020 A 
ATOM     76  C   UNL A   1      35.835  34.536  29.172  1.00  0.00     0.020 A 
ATOM     77  C   UNL A   1      34.581  34.357  29.758  1.00  0.00     0.054 A 
BRANCH  77  78
ATOM     78  S   UNL A   1      33.129  35.214  29.086  1.00  0.00     0.124 S 
ATOM     79  O   UNL A   1      33.723  36.427  28.534  1.00  0.00    -0.237 OA
ATOM     80  O   UNL A   1      32.618  34.257  28.107  1.00  0.00    -0.237 OA
ATOM     81  O   UNL A   1      32.277  35.409  30.257  1.00  0.00    -0.744 OA
ENDBRANCH  77  78
ENDBRANCH  49  72
BRANCH  61  82
ATOM     82  C   UNL A   1      39.960  33.656  37.083  1.00  0.00    -0.014 A 
ATOM     83  C   UNL A   1      40.509  34.946  37.171  1.00  0.00     0.010 A 
ATOM     84  C   UNL A   1      39.090  33.207  38.092  1.00  0.00     0.010 A 
ATOM     85  C   UNL A   1      40.197  35.771  38.256  1.00  0.00     0.020 A 
ATOM     86  C   UNL A   1      38.760  34.034  39.168  1.00  0.00     0.020 A 
ATOM     87  C   UNL A   1      39.321  35.310  39.246  1.00  0.00     0.054 A 
BRANCH  87  88
ATOM     88  S   UNL A   1      38.866  36.427  40.602  1.00  0.00     0.124 S 
ATOM     89  O   UNL A   1      37.811  35.674  41.275  1.00  0.00    -0.237 OA
ATOM     90  O   UNL A   1      40.117  36.556  41.346  1.00  0.00    -0.237 OA
ATOM     91  O   UNL A   1      38.428  37.641  39.918  1.00  0.00    -0.744 OA
ENDBRANCH  87  88
ENDBRANCH  61  82
ENDBRANCH  35  36
ENDBRANCH  28  30
ENDBRANCH  27  28
ENDBRANCH  26  27
ENDBRANCH   1  26
TORSDOF 20
ENDMDL
