MODEL 1
REMARK VINA RESULT:     -11.8      0.000      0.000
REMARK SMILES COc1cc(CC(=O)N[C@@H](CC(=O)OCCOC(=O)c2ccc(-c3c4nc(c(-c5ccc(S(=O)(=O)[O-])cc5)c5ccc([nH]5)c(-c5ccc(S(=O)(=O)[O-])cc5)c5nc(c(-c6ccc(S(=O)(=O)[O-])cc6)c6ccc3[nH]6)C=C5)C=C4)cc2)c2cccs2)ccc1C
REMARK SMILES IDX 15 1 14 2 12 3 13 4 11 5 10 6 9 7 7 8 8 9 6 11 5 12 3 13
REMARK SMILES IDX 4 14 87 15 86 16 88 17 85 18 2 19 1 20 80 21 81 22 84 23
REMARK SMILES IDX 82 24 83 25 16 26 17 27 18 28 19 29 20 30 21 31 79 32 22 33
REMARK SMILES IDX 78 34 23 35 24 36 25 37 72 38 26 39 77 40 71 41 73 42 27 43
REMARK SMILES IDX 76 44 70 45 69 46 28 48 58 49 39 50 57 51 40 52 43 53 56 54
REMARK SMILES IDX 74 55 41 56 42 57 55 59 75 60 44 61 29 62 30 63 38 64 31 65
REMARK SMILES IDX 37 66 32 67 33 68 34 69 35 70 36 71 59 72 60 73 68 74 61 75
REMARK SMILES IDX 67 76 62 77 63 78 64 79 65 80 66 81 45 82 46 83 54 84 47 85
REMARK SMILES IDX 53 86 48 87 49 88 50 89 51 90 52 91
REMARK H PARENT 9 10 73 47 43 58
REMARK Flexibility Score: inf
ROOT
ATOM      1  C   UNL A   1      46.740  29.207  28.359  1.00  0.00     0.274 C 
ENDROOT
BRANCH   1   2
ATOM      2  O   UNL A   1      46.636  27.589  28.060  1.00  0.00    -0.462 OA
BRANCH   2   3
ATOM      3  C   UNL A   1      46.027  26.687  27.226  1.00  0.00     0.308 C 
ATOM      4  O   UNL A   1      45.829  26.921  26.036  1.00  0.00    -0.252 OA
BRANCH   3   5
ATOM      5  C   UNL A   1      45.847  25.210  27.805  1.00  0.00     0.153 C 
BRANCH   5   6
ATOM      6  C   UNL A   1      44.834  24.088  27.471  1.00  0.00     0.133 C 
BRANCH   6   7
ATOM      7  N   UNL A   1      44.689  23.148  28.563  1.00  0.00    -0.348 N 
ATOM      8  C   UNL A   1      43.880  23.365  29.652  1.00  0.00     0.224 C 
ATOM      9  O   UNL A   1      44.286  23.022  30.766  1.00  0.00    -0.275 OA
ATOM     10  H   UNL A   1      45.197  22.305  28.523  1.00  0.00     0.164 HD
BRANCH   8  11
ATOM     11  C   UNL A   1      42.441  23.843  29.459  1.00  0.00     0.135 C 
BRANCH  11  12
ATOM     12  C   UNL A   1      41.563  23.242  28.380  1.00  0.00    -0.035 A 
ATOM     13  C   UNL A   1      40.736  21.216  27.260  1.00  0.00     0.122 A 
ATOM     14  C   UNL A   1      41.627  21.853  28.138  1.00  0.00     0.051 A 
ATOM     15  C   UNL A   1      39.769  21.967  26.582  1.00  0.00    -0.009 A 
ATOM     16  C   UNL A   1      39.707  23.352  26.813  1.00  0.00     0.007 A 
ATOM     17  C   UNL A   1      38.762  21.332  25.660  1.00  0.00     0.048 C 
ATOM     18  C   UNL A   1      40.588  23.983  27.705  1.00  0.00     0.005 A 
BRANCH  13  19
ATOM     19  O   UNL A   1      40.797  19.875  26.983  1.00  0.00    -0.496 OA
ATOM     20  C   UNL A   1      41.906  19.472  26.190  1.00  0.00     0.278 C 
ENDBRANCH  13  19
ENDBRANCH  11  12
ENDBRANCH   8  11
ENDBRANCH   6   7
BRANCH   6  21
ATOM     21  C   UNL A   1      44.854  23.435  26.113  1.00  0.00     0.027 A 
ATOM     22  C   UNL A   1      43.761  22.875  25.454  1.00  0.00     0.017 A 
ATOM     23  S   UNL A   1      46.251  23.350  25.130  1.00  0.00    -0.147 S 
ATOM     24  C   UNL A   1      44.016  22.631  24.073  1.00  0.00     0.012 A 
ATOM     25  C   UNL A   1      45.326  22.902  23.752  1.00  0.00     0.065 A 
ENDBRANCH   6  21
ENDBRANCH   5   6
ENDBRANCH   3   5
ENDBRANCH   2   3
ENDBRANCH   1   2
BRANCH   1  26
ATOM     26  C   UNL A   1      45.570  30.421  27.423  1.00  0.00     0.275 C 
BRANCH  26  27
ATOM     27  O   UNL A   1      44.127  29.897  26.333  1.00  0.00    -0.458 OA
BRANCH  27  28
ATOM     28  C   UNL A   1      42.896  28.672  26.166  1.00  0.00     0.338 C 
ATOM     29  O   UNL A   1      42.424  28.653  25.013  1.00  0.00    -0.246 OA
BRANCH  28  30
ATOM     30  C   UNL A   1      41.979  27.545  27.388  1.00  0.00     0.060 A 
ATOM     31  C   UNL A   1      40.592  27.334  27.251  1.00  0.00     0.016 A 
ATOM     32  C   UNL A   1      42.151  27.411  28.857  1.00  0.00     0.016 A 
ATOM     33  C   UNL A   1      39.623  27.537  28.437  1.00  0.00     0.010 A 
ATOM     34  C   UNL A   1      41.278  27.352  30.010  1.00  0.00     0.010 A 
ATOM     35  C   UNL A   1      40.014  27.785  29.800  1.00  0.00    -0.014 A 
BRANCH  35  36
ATOM     36  C   UNL A   1      39.574  28.887  30.828  1.00  0.00     0.031 A 
ATOM     37  C   UNL A   1      38.479  29.834  30.508  1.00  0.00     0.074 A 
ATOM     38  C   UNL A   1      39.754  28.953  32.195  1.00  0.00     0.049 A 
ATOM     39  N   UNL A   1      38.653  31.033  30.060  1.00  0.00    -0.248 NA
ATOM     40  C   UNL A   1      37.095  29.539  30.930  1.00  0.00     0.031 C 
ATOM     41  C   UNL A   1      39.569  30.072  33.144  1.00  0.00     0.029 A 
ATOM     42  N   UNL A   1      40.360  28.067  33.048  1.00  0.00    -0.354 N 
ATOM     43  C   UNL A   1      37.518  31.732  30.450  1.00  0.00     0.074 A 
ATOM     44  C   UNL A   1      36.512  30.734  30.784  1.00  0.00     0.031 C 
ATOM     45  C   UNL A   1      40.475  29.951  34.149  1.00  0.00     0.029 A 
ATOM     46  C   UNL A   1      41.212  28.719  33.947  1.00  0.00     0.049 A 
ATOM     47  H   UNL A   1      40.215  27.094  33.030  1.00  0.00     0.167 HD
ATOM     48  C   UNL A   1      37.589  32.978  31.016  1.00  0.00     0.031 A 
ATOM     49  C   UNL A   1      42.556  28.490  33.770  1.00  0.00     0.031 A 
ATOM     50  C   UNL A   1      38.915  33.251  31.595  1.00  0.00     0.049 A 
ATOM     51  C   UNL A   1      43.138  29.654  32.915  1.00  0.00     0.074 A 
ATOM     52  C   UNL A   1      39.326  33.511  32.896  1.00  0.00     0.029 A 
ATOM     53  N   UNL A   1      40.078  32.986  30.881  1.00  0.00    -0.354 N 
ATOM     54  N   UNL A   1      42.470  30.750  32.668  1.00  0.00    -0.248 NA
ATOM     55  C   UNL A   1      44.439  29.684  32.233  1.00  0.00     0.031 C 
ATOM     56  C   UNL A   1      40.728  33.307  32.974  1.00  0.00     0.029 A 
ATOM     57  C   UNL A   1      41.178  32.943  31.720  1.00  0.00     0.049 A 
ATOM     58  H   UNL A   1      40.114  32.848  29.907  1.00  0.00     0.167 HD
ATOM     59  C   UNL A   1      43.105  31.520  31.727  1.00  0.00     0.074 A 
ATOM     60  C   UNL A   1      44.378  30.848  31.547  1.00  0.00     0.031 C 
ATOM     61  C   UNL A   1      42.496  32.618  31.178  1.00  0.00     0.031 A 
BRANCH  48  62
ATOM     62  C   UNL A   1      36.358  33.809  31.351  1.00  0.00    -0.014 A 
ATOM     63  C   UNL A   1      35.328  33.974  30.401  1.00  0.00     0.010 A 
ATOM     64  C   UNL A   1      36.109  34.353  32.631  1.00  0.00     0.010 A 
ATOM     65  C   UNL A   1      34.158  34.698  30.677  1.00  0.00     0.020 A 
ATOM     66  C   UNL A   1      34.951  35.100  32.916  1.00  0.00     0.020 A 
ATOM     67  C   UNL A   1      33.980  35.267  31.934  1.00  0.00     0.054 A 
BRANCH  67  68
ATOM     68  S   UNL A   1      32.448  36.176  32.269  1.00  0.00     0.124 S 
ATOM     69  O   UNL A   1      31.505  35.103  32.578  1.00  0.00    -0.237 OA
ATOM     70  O   UNL A   1      32.826  37.022  33.398  1.00  0.00    -0.237 OA
ATOM     71  O   UNL A   1      32.185  36.890  31.022  1.00  0.00    -0.744 OA
ENDBRANCH  67  68
ENDBRANCH  48  62
BRANCH  49  72
ATOM     72  C   UNL A   1      42.740  26.977  33.489  1.00  0.00    -0.014 A 
ATOM     73  C   UNL A   1      43.777  26.516  32.684  1.00  0.00     0.010 A 
ATOM     74  C   UNL A   1      42.660  26.187  34.588  1.00  0.00     0.010 A 
ATOM     75  C   UNL A   1      44.837  25.564  33.189  1.00  0.00     0.020 A 
ATOM     76  C   UNL A   1      43.940  25.594  35.092  1.00  0.00     0.020 A 
ATOM     77  C   UNL A   1      45.123  25.033  34.602  1.00  0.00     0.054 A 
BRANCH  77  78
ATOM     78  S   UNL A   1      46.151  23.038  35.440  1.00  0.00     0.124 S 
ATOM     79  O   UNL A   1      46.248  21.972  34.433  1.00  0.00    -0.237 OA
ATOM     80  O   UNL A   1      47.506  23.329  35.925  1.00  0.00    -0.237 OA
ATOM     81  O   UNL A   1      45.384  22.466  36.558  1.00  0.00    -0.744 OA
ENDBRANCH  77  78
ENDBRANCH  49  72
BRANCH  61  82
ATOM     82  C   UNL A   1      43.058  33.578  30.148  1.00  0.00    -0.014 A 
ATOM     83  C   UNL A   1      43.445  33.246  28.844  1.00  0.00     0.010 A 
ATOM     84  C   UNL A   1      43.169  34.948  30.513  1.00  0.00     0.010 A 
ATOM     85  C   UNL A   1      43.999  34.214  27.986  1.00  0.00     0.020 A 
ATOM     86  C   UNL A   1      43.672  35.925  29.656  1.00  0.00     0.020 A 
ATOM     87  C   UNL A   1      44.127  35.542  28.406  1.00  0.00     0.054 A 
BRANCH  87  88
ATOM     88  S   UNL A   1      44.884  36.771  27.314  1.00  0.00     0.124 S 
ATOM     89  O   UNL A   1      43.710  37.434  26.754  1.00  0.00    -0.237 OA
ATOM     90  O   UNL A   1      45.682  37.578  28.234  1.00  0.00    -0.237 OA
ATOM     91  O   UNL A   1      45.658  35.968  26.370  1.00  0.00    -0.744 OA
ENDBRANCH  87  88
ENDBRANCH  61  82
ENDBRANCH  35  36
ENDBRANCH  28  30
ENDBRANCH  27  28
ENDBRANCH  26  27
ENDBRANCH   1  26
TORSDOF 20
ENDMDL
MODEL 2
REMARK VINA RESULT:     -11.6      1.612      2.426
REMARK SMILES COc1cc(CC(=O)N[C@@H](CC(=O)OCCOC(=O)c2ccc(-c3c4nc(c(-c5ccc(S(=O)(=O)[O-])cc5)c5ccc([nH]5)c(-c5ccc(S(=O)(=O)[O-])cc5)c5nc(c(-c6ccc(S(=O)(=O)[O-])cc6)c6ccc3[nH]6)C=C5)C=C4)cc2)c2cccs2)ccc1C
REMARK SMILES IDX 15 1 14 2 12 3 13 4 11 5 10 6 9 7 7 8 8 9 6 11 5 12 3 13
REMARK SMILES IDX 4 14 87 15 86 16 88 17 85 18 2 19 1 20 80 21 81 22 84 23
REMARK SMILES IDX 82 24 83 25 16 26 17 27 18 28 19 29 20 30 21 31 79 32 22 33
REMARK SMILES IDX 78 34 23 35 24 36 25 37 72 38 26 39 77 40 71 41 73 42 27 43
REMARK SMILES IDX 76 44 70 45 69 46 28 48 58 49 39 50 57 51 40 52 43 53 56 54
REMARK SMILES IDX 74 55 41 56 42 57 55 59 75 60 44 61 29 62 30 63 38 64 31 65
REMARK SMILES IDX 37 66 32 67 33 68 34 69 35 70 36 71 59 72 60 73 68 74 61 75
REMARK SMILES IDX 67 76 62 77 63 78 64 79 65 80 66 81 45 82 46 83 54 84 47 85
REMARK SMILES IDX 53 86 48 87 49 88 50 89 51 90 52 91
REMARK H PARENT 9 10 73 47 43 58
REMARK Flexibility Score: inf
ROOT
ATOM      1  C   UNL A   1      46.418  31.073  26.503  1.00  0.00     0.274 C 
ENDROOT
BRANCH   1   2
ATOM      2  O   UNL A   1      46.967  29.587  26.050  1.00  0.00    -0.462 OA
BRANCH   2   3
ATOM      3  C   UNL A   1      46.691  28.554  25.191  1.00  0.00     0.308 C 
ATOM      4  O   UNL A   1      46.596  28.716  23.977  1.00  0.00    -0.252 OA
BRANCH   3   5
ATOM      5  C   UNL A   1      46.781  27.085  25.811  1.00  0.00     0.153 C 
BRANCH   5   6
ATOM      6  C   UNL A   1      47.769  26.450  26.819  1.00  0.00     0.133 C 
BRANCH   6   7
ATOM      7  N   UNL A   1      47.556  26.937  28.166  1.00  0.00    -0.348 N 
ATOM      8  C   UNL A   1      46.457  26.616  28.927  1.00  0.00     0.224 C 
ATOM      9  O   UNL A   1      45.947  27.496  29.625  1.00  0.00    -0.275 OA
ATOM     10  H   UNL A   1      48.236  27.531  28.560  1.00  0.00     0.164 HD
BRANCH   8  11
ATOM     11  C   UNL A   1      46.001  25.163  29.044  1.00  0.00     0.135 C 
BRANCH  11  12
ATOM     12  C   UNL A   1      44.597  24.756  28.641  1.00  0.00    -0.035 A 
ATOM     13  C   UNL A   1      43.045  24.157  26.831  1.00  0.00     0.122 A 
ATOM     14  C   UNL A   1      44.276  24.670  27.269  1.00  0.00     0.051 A 
ATOM     15  C   UNL A   1      42.092  23.739  27.767  1.00  0.00    -0.009 A 
ATOM     16  C   UNL A   1      42.404  23.831  29.134  1.00  0.00     0.007 A 
ATOM     17  C   UNL A   1      40.771  23.144  27.355  1.00  0.00     0.048 C 
ATOM     18  C   UNL A   1      43.643  24.327  29.568  1.00  0.00     0.005 A 
BRANCH  13  19
ATOM     19  O   UNL A   1      42.695  24.093  25.507  1.00  0.00    -0.496 OA
ATOM     20  C   UNL A   1      43.505  23.240  24.709  1.00  0.00     0.278 C 
ENDBRANCH  13  19
ENDBRANCH  11  12
ENDBRANCH   8  11
ENDBRANCH   6   7
BRANCH   6  21
ATOM     21  C   UNL A   1      49.225  26.303  26.456  1.00  0.00     0.027 A 
ATOM     22  C   UNL A   1      50.149  25.470  27.084  1.00  0.00     0.017 A 
ATOM     23  S   UNL A   1      49.952  27.110  25.135  1.00  0.00    -0.147 S 
ATOM     24  C   UNL A   1      51.344  25.302  26.327  1.00  0.00     0.012 A 
ATOM     25  C   UNL A   1      51.341  26.102  25.207  1.00  0.00     0.065 A 
ENDBRANCH   6  21
ENDBRANCH   5   6
ENDBRANCH   3   5
ENDBRANCH   2   3
ENDBRANCH   1   2
BRANCH   1  26
ATOM     26  C   UNL A   1      44.527  31.342  26.774  1.00  0.00     0.275 C 
BRANCH  26  27
ATOM     27  O   UNL A   1      43.170  30.288  26.005  1.00  0.00    -0.458 OA
BRANCH  27  28
ATOM     28  C   UNL A   1      42.506  28.675  26.007  1.00  0.00     0.338 C 
ATOM     29  O   UNL A   1      42.307  28.261  24.849  1.00  0.00    -0.246 OA
BRANCH  28  30
ATOM     30  C   UNL A   1      41.823  27.529  27.357  1.00  0.00     0.060 A 
ATOM     31  C   UNL A   1      40.463  27.155  27.346  1.00  0.00     0.016 A 
ATOM     32  C   UNL A   1      42.120  27.506  28.812  1.00  0.00     0.016 A 
ATOM     33  C   UNL A   1      39.569  27.319  28.595  1.00  0.00     0.010 A 
ATOM     34  C   UNL A   1      41.349  27.421  30.035  1.00  0.00     0.010 A 
ATOM     35  C   UNL A   1      40.031  27.694  29.907  1.00  0.00    -0.014 A 
BRANCH  35  36
ATOM     36  C   UNL A   1      39.543  28.801  30.907  1.00  0.00     0.031 A 
ATOM     37  C   UNL A   1      38.439  29.723  30.546  1.00  0.00     0.074 A 
ATOM     38  C   UNL A   1      39.685  28.888  32.278  1.00  0.00     0.049 A 
ATOM     39  N   UNL A   1      38.603  30.919  30.087  1.00  0.00    -0.248 NA
ATOM     40  C   UNL A   1      37.051  29.407  30.935  1.00  0.00     0.031 C 
ATOM     41  C   UNL A   1      39.453  30.015  33.207  1.00  0.00     0.029 A 
ATOM     42  N   UNL A   1      40.284  28.024  33.159  1.00  0.00    -0.354 N 
ATOM     43  C   UNL A   1      37.446  31.601  30.437  1.00  0.00     0.074 A 
ATOM     44  C   UNL A   1      36.449  30.589  30.758  1.00  0.00     0.031 C 
ATOM     45  C   UNL A   1      40.335  29.924  34.237  1.00  0.00     0.029 A 
ATOM     46  C   UNL A   1      41.099  28.703  34.071  1.00  0.00     0.049 A 
ATOM     47  H   UNL A   1      40.157  27.048  33.150  1.00  0.00     0.167 HD
ATOM     48  C   UNL A   1      37.478  32.856  30.989  1.00  0.00     0.031 A 
ATOM     49  C   UNL A   1      42.451  28.497  33.933  1.00  0.00     0.031 A 
ATOM     50  C   UNL A   1      38.782  33.161  31.599  1.00  0.00     0.049 A 
ATOM     51  C   UNL A   1      43.034  29.661  33.078  1.00  0.00     0.074 A 
ATOM     52  C   UNL A   1      39.154  33.445  32.908  1.00  0.00     0.029 A 
ATOM     53  N   UNL A   1      39.969  32.908  30.920  1.00  0.00    -0.354 N 
ATOM     54  N   UNL A   1      42.353  30.741  32.800  1.00  0.00    -0.248 NA
ATOM     55  C   UNL A   1      44.353  29.707  32.432  1.00  0.00     0.031 C 
ATOM     56  C   UNL A   1      40.556  33.269  33.025  1.00  0.00     0.029 A 
ATOM     57  C   UNL A   1      41.047  32.897  31.789  1.00  0.00     0.049 A 
ATOM     58  H   UNL A   1      40.034  32.759  29.949  1.00  0.00     0.167 HD
ATOM     59  C   UNL A   1      42.999  31.511  31.866  1.00  0.00     0.074 A 
ATOM     60  C   UNL A   1      44.289  30.861  31.729  1.00  0.00     0.031 C 
ATOM     61  C   UNL A   1      42.385  32.590  31.287  1.00  0.00     0.031 A 
BRANCH  48  62
ATOM     62  C   UNL A   1      36.224  33.668  31.280  1.00  0.00    -0.014 A 
ATOM     63  C   UNL A   1      35.362  34.051  30.230  1.00  0.00     0.010 A 
ATOM     64  C   UNL A   1      35.782  33.980  32.585  1.00  0.00     0.010 A 
ATOM     65  C   UNL A   1      34.175  34.765  30.453  1.00  0.00     0.020 A 
ATOM     66  C   UNL A   1      34.606  34.715  32.823  1.00  0.00     0.020 A 
ATOM     67  C   UNL A   1      33.808  35.103  31.752  1.00  0.00     0.054 A 
BRANCH  67  68
ATOM     68  S   UNL A   1      32.257  36.006  32.011  1.00  0.00     0.124 S 
ATOM     69  O   UNL A   1      31.887  36.395  30.653  1.00  0.00    -0.237 OA
ATOM     70  O   UNL A   1      31.404  34.993  32.627  1.00  0.00    -0.237 OA
ATOM     71  O   UNL A   1      32.638  37.110  32.889  1.00  0.00    -0.744 OA
ENDBRANCH  67  68
ENDBRANCH  48  62
BRANCH  49  72
ATOM     72  C   UNL A   1      42.670  26.984  33.677  1.00  0.00    -0.014 A 
ATOM     73  C   UNL A   1      43.637  26.540  32.781  1.00  0.00     0.010 A 
ATOM     74  C   UNL A   1      42.741  26.228  34.800  1.00  0.00     0.010 A 
ATOM     75  C   UNL A   1      44.785  25.648  33.197  1.00  0.00     0.020 A 
ATOM     76  C   UNL A   1      44.091  25.704  35.182  1.00  0.00     0.020 A 
ATOM     77  C   UNL A   1      45.240  25.175  34.586  1.00  0.00     0.054 A 
BRANCH  77  78
ATOM     78  S   UNL A   1      46.436  23.252  35.367  1.00  0.00     0.124 S 
ATOM     79  O   UNL A   1      45.639  22.019  35.317  1.00  0.00    -0.237 OA
ATOM     80  O   UNL A   1      47.645  23.043  34.561  1.00  0.00    -0.237 OA
ATOM     81  O   UNL A   1      46.849  23.408  36.771  1.00  0.00    -0.744 OA
ENDBRANCH  77  78
ENDBRANCH  49  72
BRANCH  61  82
ATOM     82  C   UNL A   1      42.957  33.547  30.259  1.00  0.00    -0.014 A 
ATOM     83  C   UNL A   1      44.170  33.390  29.579  1.00  0.00     0.010 A 
ATOM     84  C   UNL A   1      42.180  34.688  29.916  1.00  0.00     0.010 A 
ATOM     85  C   UNL A   1      44.625  34.369  28.676  1.00  0.00     0.020 A 
ATOM     86  C   UNL A   1      42.598  35.641  28.988  1.00  0.00     0.020 A 
ATOM     87  C   UNL A   1      43.844  35.497  28.403  1.00  0.00     0.054 A 
BRANCH  87  88
ATOM     88  S   UNL A   1      44.457  36.775  27.277  1.00  0.00     0.124 S 
ATOM     89  O   UNL A   1      43.244  37.137  26.549  1.00  0.00    -0.237 OA
ATOM     90  O   UNL A   1      44.970  37.794  28.189  1.00  0.00    -0.237 OA
ATOM     91  O   UNL A   1      45.475  36.085  26.489  1.00  0.00    -0.744 OA
ENDBRANCH  87  88
ENDBRANCH  61  82
ENDBRANCH  35  36
ENDBRANCH  28  30
ENDBRANCH  27  28
ENDBRANCH  26  27
ENDBRANCH   1  26
TORSDOF 20
ENDMDL
MODEL 3
REMARK VINA RESULT:     -11.1      4.790     11.961
REMARK SMILES COc1cc(CC(=O)N[C@@H](CC(=O)OCCOC(=O)c2ccc(-c3c4nc(c(-c5ccc(S(=O)(=O)[O-])cc5)c5ccc([nH]5)c(-c5ccc(S(=O)(=O)[O-])cc5)c5nc(c(-c6ccc(S(=O)(=O)[O-])cc6)c6ccc3[nH]6)C=C5)C=C4)cc2)c2cccs2)ccc1C
REMARK SMILES IDX 15 1 14 2 12 3 13 4 11 5 10 6 9 7 7 8 8 9 6 11 5 12 3 13
REMARK SMILES IDX 4 14 87 15 86 16 88 17 85 18 2 19 1 20 80 21 81 22 84 23
REMARK SMILES IDX 82 24 83 25 16 26 17 27 18 28 19 29 20 30 21 31 79 32 22 33
REMARK SMILES IDX 78 34 23 35 24 36 25 37 72 38 26 39 77 40 71 41 73 42 27 43
REMARK SMILES IDX 76 44 70 45 69 46 28 48 58 49 39 50 57 51 40 52 43 53 56 54
REMARK SMILES IDX 74 55 41 56 42 57 55 59 75 60 44 61 29 62 30 63 38 64 31 65
REMARK SMILES IDX 37 66 32 67 33 68 34 69 35 70 36 71 59 72 60 73 68 74 61 75
REMARK SMILES IDX 67 76 62 77 63 78 64 79 65 80 66 81 45 82 46 83 54 84 47 85
REMARK SMILES IDX 53 86 48 87 49 88 50 89 51 90 52 91
REMARK H PARENT 9 10 73 47 43 58
REMARK Flexibility Score: inf
ROOT
ATOM      1  C   UNL A   1      32.850  29.181  26.201  1.00  0.00     0.274 C 
ENDROOT
BRANCH   1   2
ATOM      2  O   UNL A   1      32.072  29.427  24.769  1.00  0.00    -0.462 OA
BRANCH   2   3
ATOM      3  C   UNL A   1      30.888  29.164  24.129  1.00  0.00     0.308 C 
ATOM      4  O   UNL A   1      30.151  30.057  23.715  1.00  0.00    -0.252 OA
BRANCH   3   5
ATOM      5  C   UNL A   1      30.650  27.647  23.693  1.00  0.00     0.153 C 
BRANCH   5   6
ATOM      6  C   UNL A   1      31.590  26.417  23.683  1.00  0.00     0.133 C 
BRANCH   6   7
ATOM      7  N   UNL A   1      31.694  25.826  22.366  1.00  0.00    -0.348 N 
ATOM      8  C   UNL A   1      32.885  25.461  21.787  1.00  0.00     0.224 C 
ATOM      9  O   UNL A   1      33.045  25.674  20.582  1.00  0.00    -0.275 OA
ATOM     10  H   UNL A   1      30.865  25.676  21.856  1.00  0.00     0.164 HD
BRANCH   8  11
ATOM     11  C   UNL A   1      33.906  24.643  22.577  1.00  0.00     0.135 C 
BRANCH  11  12
ATOM     12  C   UNL A   1      33.618  23.203  22.958  1.00  0.00    -0.035 A 
ATOM     13  C   UNL A   1      33.988  21.356  24.536  1.00  0.00     0.122 A 
ATOM     14  C   UNL A   1      34.314  22.628  24.042  1.00  0.00     0.051 A 
ATOM     15  C   UNL A   1      32.965  20.616  23.933  1.00  0.00    -0.009 A 
ATOM     16  C   UNL A   1      32.274  21.180  22.847  1.00  0.00     0.007 A 
ATOM     17  C   UNL A   1      32.545  19.263  24.445  1.00  0.00     0.048 C 
ATOM     18  C   UNL A   1      32.592  22.461  22.367  1.00  0.00     0.005 A 
BRANCH  13  19
ATOM     19  O   UNL A   1      34.669  20.761  25.567  1.00  0.00    -0.496 OA
ATOM     20  C   UNL A   1      35.774  21.502  26.068  1.00  0.00     0.278 C 
ENDBRANCH  13  19
ENDBRANCH  11  12
ENDBRANCH   8  11
ENDBRANCH   6   7
BRANCH   6  21
ATOM     21  C   UNL A   1      31.512  25.402  24.795  1.00  0.00     0.027 A 
ATOM     22  C   UNL A   1      30.650  24.308  24.849  1.00  0.00     0.017 A 
ATOM     23  S   UNL A   1      32.551  25.411  26.153  1.00  0.00    -0.147 S 
ATOM     24  C   UNL A   1      31.025  23.360  25.846  1.00  0.00     0.012 A 
ATOM     25  C   UNL A   1      32.086  23.816  26.593  1.00  0.00     0.065 A 
ENDBRANCH   6  21
ENDBRANCH   5   6
ENDBRANCH   3   5
ENDBRANCH   2   3
ENDBRANCH   1   2
BRANCH   1  26
ATOM     26  C   UNL A   1      33.449  30.700  27.227  1.00  0.00     0.275 C 
BRANCH  26  27
ATOM     27  O   UNL A   1      35.167  30.879  27.978  1.00  0.00    -0.458 OA
BRANCH  27  28
ATOM     28  C   UNL A   1      36.751  30.149  27.992  1.00  0.00     0.338 C 
ATOM     29  O   UNL A   1      37.064  29.716  26.868  1.00  0.00    -0.246 OA
BRANCH  28  30
ATOM     30  C   UNL A   1      37.976  29.677  29.363  1.00  0.00     0.060 A 
ATOM     31  C   UNL A   1      39.019  30.559  29.715  1.00  0.00     0.016 A 
ATOM     32  C   UNL A   1      38.595  28.360  29.661  1.00  0.00     0.016 A 
ATOM     33  C   UNL A   1      40.489  30.089  29.777  1.00  0.00     0.010 A 
ATOM     34  C   UNL A   1      39.925  27.876  29.965  1.00  0.00     0.010 A 
ATOM     35  C   UNL A   1      40.933  28.724  29.659  1.00  0.00    -0.014 A 
BRANCH  35  36
ATOM     36  C   UNL A   1      42.029  28.059  28.754  1.00  0.00     0.031 A 
ATOM     37  C   UNL A   1      41.958  26.621  28.401  1.00  0.00     0.074 A 
ATOM     38  C   UNL A   1      42.916  28.631  27.863  1.00  0.00     0.049 A 
ATOM     39  N   UNL A   1      42.606  25.683  29.008  1.00  0.00    -0.248 NA
ATOM     40  C   UNL A   1      41.314  26.196  27.141  1.00  0.00     0.031 C 
ATOM     41  C   UNL A   1      44.105  28.071  27.185  1.00  0.00     0.029 A 
ATOM     42  N   UNL A   1      43.084  29.944  27.507  1.00  0.00    -0.354 N 
ATOM     43  C   UNL A   1      42.739  24.670  28.068  1.00  0.00     0.074 A 
ATOM     44  C   UNL A   1      41.756  24.939  27.027  1.00  0.00     0.031 C 
ATOM     45  C   UNL A   1      45.020  29.061  27.015  1.00  0.00     0.029 A 
ATOM     46  C   UNL A   1      44.436  30.302  27.483  1.00  0.00     0.049 A 
ATOM     47  H   UNL A   1      42.344  30.559  27.296  1.00  0.00     0.167 HD
ATOM     48  C   UNL A   1      43.928  24.021  27.859  1.00  0.00     0.031 A 
ATOM     49  C   UNL A   1      44.841  31.176  28.464  1.00  0.00     0.031 A 
ATOM     50  C   UNL A   1      45.080  24.805  28.332  1.00  0.00     0.049 A 
ATOM     51  C   UNL A   1      45.441  30.345  29.636  1.00  0.00     0.074 A 
ATOM     52  C   UNL A   1      46.174  25.346  27.668  1.00  0.00     0.029 A 
ATOM     53  N   UNL A   1      45.076  25.399  29.590  1.00  0.00    -0.354 N 
ATOM     54  N   UNL A   1      45.719  29.073  29.528  1.00  0.00    -0.248 NA
ATOM     55  C   UNL A   1      45.722  30.816  30.999  1.00  0.00     0.031 C 
ATOM     56  C   UNL A   1      46.765  26.331  28.501  1.00  0.00     0.029 A 
ATOM     57  C   UNL A   1      46.047  26.381  29.680  1.00  0.00     0.049 A 
ATOM     58  H   UNL A   1      44.463  25.152  30.320  1.00  0.00     0.167 HD
ATOM     59  C   UNL A   1      46.032  28.525  30.746  1.00  0.00     0.074 A 
ATOM     60  C   UNL A   1      46.101  29.679  31.625  1.00  0.00     0.031 C 
ATOM     61  C   UNL A   1      46.174  27.172  30.903  1.00  0.00     0.031 A 
BRANCH  48  62
ATOM     62  C   UNL A   1      44.073  22.835  26.915  1.00  0.00    -0.014 A 
ATOM     63  C   UNL A   1      45.321  22.540  26.326  1.00  0.00     0.010 A 
ATOM     64  C   UNL A   1      43.038  21.907  26.665  1.00  0.00     0.010 A 
ATOM     65  C   UNL A   1      45.512  21.436  25.482  1.00  0.00     0.020 A 
ATOM     66  C   UNL A   1      43.208  20.808  25.803  1.00  0.00     0.020 A 
ATOM     67  C   UNL A   1      44.449  20.579  25.215  1.00  0.00     0.054 A 
BRANCH  67  68
ATOM     68  S   UNL A   1      44.732  19.147  24.140  1.00  0.00     0.124 S 
ATOM     69  O   UNL A   1      44.428  19.683  22.815  1.00  0.00    -0.237 OA
ATOM     70  O   UNL A   1      46.139  18.844  24.385  1.00  0.00    -0.237 OA
ATOM     71  O   UNL A   1      43.788  18.147  24.633  1.00  0.00    -0.744 OA
ENDBRANCH  67  68
ENDBRANCH  48  62
BRANCH  49  72
ATOM     72  C   UNL A   1      43.753  32.273  28.592  1.00  0.00    -0.014 A 
ATOM     73  C   UNL A   1      43.421  32.815  29.829  1.00  0.00     0.010 A 
ATOM     74  C   UNL A   1      43.862  33.281  27.692  1.00  0.00     0.010 A 
ATOM     75  C   UNL A   1      43.569  34.287  30.138  1.00  0.00     0.020 A 
ATOM     76  C   UNL A   1      44.344  34.602  28.208  1.00  0.00     0.020 A 
ATOM     77  C   UNL A   1      44.201  35.428  29.327  1.00  0.00     0.054 A 
BRANCH  77  78
ATOM     78  S   UNL A   1      43.848  37.796  29.253  1.00  0.00     0.124 S 
ATOM     79  O   UNL A   1      42.565  38.169  28.642  1.00  0.00    -0.237 OA
ATOM     80  O   UNL A   1      43.884  38.359  30.609  1.00  0.00    -0.237 OA
ATOM     81  O   UNL A   1      44.884  38.472  28.456  1.00  0.00    -0.744 OA
ENDBRANCH  77  78
ENDBRANCH  49  72
BRANCH  61  82
ATOM     82  C   UNL A   1      46.529  26.411  32.166  1.00  0.00    -0.014 A 
ATOM     83  C   UNL A   1      47.741  25.757  32.414  1.00  0.00     0.010 A 
ATOM     84  C   UNL A   1      45.569  26.390  33.215  1.00  0.00     0.010 A 
ATOM     85  C   UNL A   1      47.944  25.040  33.609  1.00  0.00     0.020 A 
ATOM     86  C   UNL A   1      45.777  25.725  34.422  1.00  0.00     0.020 A 
ATOM     87  C   UNL A   1      46.952  25.014  34.595  1.00  0.00     0.054 A 
BRANCH  87  88
ATOM     88  S   UNL A   1      47.202  24.052  36.108  1.00  0.00     0.124 S 
ATOM     89  O   UNL A   1      47.499  22.726  35.572  1.00  0.00    -0.237 OA
ATOM     90  O   UNL A   1      48.322  24.736  36.749  1.00  0.00    -0.237 OA
ATOM     91  O   UNL A   1      45.925  24.169  36.809  1.00  0.00    -0.744 OA
ENDBRANCH  87  88
ENDBRANCH  61  82
ENDBRANCH  35  36
ENDBRANCH  28  30
ENDBRANCH  27  28
ENDBRANCH  26  27
ENDBRANCH   1  26
TORSDOF 20
ENDMDL
