MODEL 1
REMARK VINA RESULT:     -11.5      0.000      0.000
REMARK SMILES Cc1cc(C)cc(CSc2cc(C(=O)OCCOC(=O)c3ccc(-c4c5nc(c(-c6ccc(S(=O)(=O)[O-])cc6)c6ccc([nH]6)c(-c6ccc(S(=O)(=O)[O-])cc6)c6nc(c(-c7ccc(S(=O)(=O)[O-])cc7)c7ccc4[nH]7)C=C6)C=C5)cc3)cc(Cl)n2)c1
REMARK SMILES IDX 16 1 15 2 13 3 14 4 12 5 10 6 11 7 84 8 82 9 81 10 83 11
REMARK SMILES IDX 9 12 8 13 7 14 1 15 2 16 3 17 85 18 4 19 5 20 6 21 17 22
REMARK SMILES IDX 18 23 19 24 20 25 21 26 22 27 80 28 23 29 79 30 24 31 25 32
REMARK SMILES IDX 26 33 73 34 27 35 78 36 72 37 74 38 28 39 77 40 71 41 70 42
REMARK SMILES IDX 29 44 59 45 40 46 58 47 41 48 44 49 57 50 75 51 42 52 43 53
REMARK SMILES IDX 56 55 76 56 45 57 30 58 31 59 39 60 32 61 38 62 33 63 34 64
REMARK SMILES IDX 35 65 36 66 37 67 60 68 61 69 69 70 62 71 68 72 63 73 64 74
REMARK SMILES IDX 65 75 66 76 67 77 46 78 47 79 55 80 48 81 54 82 49 83 50 84
REMARK SMILES IDX 51 85 52 86 53 87
REMARK H PARENT 74 43 44 54
REMARK Flexibility Score: inf
ROOT
ATOM      1  C   UNL A   1      37.436  22.590  25.798  1.00  0.00     0.275 C 
ENDROOT
BRANCH   1   2
ATOM      2  O   UNL A   1      37.087  21.775  24.661  1.00  0.00    -0.458 OA
BRANCH   2   3
ATOM      3  C   UNL A   1      36.154  22.288  23.821  1.00  0.00     0.338 C 
ATOM      4  O   UNL A   1      36.355  22.932  22.809  1.00  0.00    -0.246 OA
BRANCH   3   5
ATOM      5  C   UNL A   1      34.806  21.843  24.233  1.00  0.00     0.065 A 
ATOM      6  C   UNL A   1      32.474  22.331  24.401  1.00  0.00     0.099 A 
ATOM      7  C   UNL A   1      33.764  22.766  24.164  1.00  0.00     0.051 A 
ATOM      8  N   UNL A   1      32.196  21.077  24.799  1.00  0.00    -0.230 NA
ATOM      9  C   UNL A   1      33.238  20.234  24.942  1.00  0.00     0.131 A 
ATOM     10  C   UNL A   1      34.551  20.545  24.649  1.00  0.00     0.056 A 
ATOM     11  Cl  UNL A   1      32.821  18.680  25.538  1.00  0.00    -0.062 Cl
BRANCH   6  12
ATOM     12  S   UNL A   1      31.115  23.409  24.006  1.00  0.00    -0.102 SA
BRANCH  12  13
ATOM     13  C   UNL A   1      30.920  24.277  25.596  1.00  0.00     0.112 C 
BRANCH  13  14
ATOM     14  C   UNL A   1      31.055  25.773  25.477  1.00  0.00    -0.037 A 
ATOM     15  C   UNL A   1      30.064  28.561  23.077  1.00  0.00     0.044 C 
ATOM     16  C   UNL A   1      30.650  27.837  24.252  1.00  0.00    -0.051 A 
ATOM     17  C   UNL A   1      31.420  28.534  25.193  1.00  0.00     0.006 A 
ATOM     18  C   UNL A   1      30.476  26.455  24.399  1.00  0.00     0.008 A 
ATOM     19  C   UNL A   1      31.994  27.872  26.284  1.00  0.00    -0.051 A 
ATOM     20  C   UNL A   1      32.857  28.620  27.257  1.00  0.00     0.044 C 
ATOM     21  C   UNL A   1      31.791  26.498  26.428  1.00  0.00     0.008 A 
ENDBRANCH  13  14
ENDBRANCH  12  13
ENDBRANCH   6  12
ENDBRANCH   3   5
ENDBRANCH   2   3
ENDBRANCH   1   2
BRANCH   1  22
ATOM     22  C   UNL A   1      38.950  22.620  26.016  1.00  0.00     0.275 C 
BRANCH  22  23
ATOM     23  O   UNL A   1      39.294  23.509  27.093  1.00  0.00    -0.458 OA
BRANCH  23  24
ATOM     24  C   UNL A   1      40.351  24.319  26.859  1.00  0.00     0.338 C 
ATOM     25  O   UNL A   1      41.246  24.153  26.048  1.00  0.00    -0.246 OA
BRANCH  24  26
ATOM     26  C   UNL A   1      40.241  25.523  27.693  1.00  0.00     0.060 A 
ATOM     27  C   UNL A   1      41.184  26.532  27.519  1.00  0.00     0.016 A 
ATOM     28  C   UNL A   1      39.315  25.599  28.729  1.00  0.00     0.016 A 
ATOM     29  C   UNL A   1      41.283  27.570  28.442  1.00  0.00     0.010 A 
ATOM     30  C   UNL A   1      39.342  26.701  29.589  1.00  0.00     0.010 A 
ATOM     31  C   UNL A   1      40.348  27.683  29.479  1.00  0.00    -0.014 A 
BRANCH  31  32
ATOM     32  C   UNL A   1      40.418  28.804  30.458  1.00  0.00     0.031 A 
ATOM     33  C   UNL A   1      41.447  28.776  31.559  1.00  0.00     0.074 A 
ATOM     34  C   UNL A   1      39.548  29.834  30.389  1.00  0.00     0.049 A 
ATOM     35  N   UNL A   1      41.506  29.488  32.654  1.00  0.00    -0.248 NA
ATOM     36  C   UNL A   1      42.545  27.805  31.413  1.00  0.00     0.031 C 
ATOM     37  C   UNL A   1      38.544  30.035  29.342  1.00  0.00     0.029 A 
ATOM     38  N   UNL A   1      39.362  30.905  31.231  1.00  0.00    -0.354 N 
ATOM     39  C   UNL A   1      42.603  29.006  33.361  1.00  0.00     0.074 A 
ATOM     40  C   UNL A   1      43.186  27.946  32.566  1.00  0.00     0.031 C 
ATOM     41  C   UNL A   1      37.865  31.166  29.591  1.00  0.00     0.029 A 
ATOM     42  C   UNL A   1      38.311  31.714  30.866  1.00  0.00     0.049 A 
ATOM     43  H   UNL A   1      39.926  31.076  32.019  1.00  0.00     0.167 HD
ATOM     44  C   UNL A   1      43.071  29.405  34.569  1.00  0.00     0.031 A 
ATOM     45  C   UNL A   1      37.724  32.744  31.507  1.00  0.00     0.031 A 
ATOM     46  C   UNL A   1      42.508  30.488  35.332  1.00  0.00     0.049 A 
ATOM     47  C   UNL A   1      38.226  33.141  32.866  1.00  0.00     0.074 A 
ATOM     48  C   UNL A   1      42.907  30.972  36.565  1.00  0.00     0.029 A 
ATOM     49  N   UNL A   1      41.437  31.268  34.923  1.00  0.00    -0.354 N 
ATOM     50  N   UNL A   1      39.217  32.628  33.556  1.00  0.00    -0.248 NA
ATOM     51  C   UNL A   1      37.525  34.242  33.540  1.00  0.00     0.031 C 
ATOM     52  C   UNL A   1      42.054  32.021  36.919  1.00  0.00     0.029 A 
ATOM     53  C   UNL A   1      41.157  32.225  35.883  1.00  0.00     0.049 A 
ATOM     54  H   UNL A   1      40.948  31.158  34.074  1.00  0.00     0.167 HD
ATOM     55  C   UNL A   1      39.271  33.360  34.737  1.00  0.00     0.074 A 
ATOM     56  C   UNL A   1      38.219  34.352  34.666  1.00  0.00     0.031 C 
ATOM     57  C   UNL A   1      40.119  33.219  35.784  1.00  0.00     0.031 A 
BRANCH  44  58
ATOM     58  C   UNL A   1      44.218  28.633  35.169  1.00  0.00    -0.014 A 
ATOM     59  C   UNL A   1      45.556  28.978  34.913  1.00  0.00     0.010 A 
ATOM     60  C   UNL A   1      43.943  27.561  36.039  1.00  0.00     0.010 A 
ATOM     61  C   UNL A   1      46.598  28.241  35.485  1.00  0.00     0.020 A 
ATOM     62  C   UNL A   1      44.980  26.838  36.634  1.00  0.00     0.020 A 
ATOM     63  C   UNL A   1      46.304  27.172  36.338  1.00  0.00     0.054 A 
BRANCH  63  64
ATOM     64  S   UNL A   1      47.672  26.239  37.079  1.00  0.00     0.124 S 
ATOM     65  O   UNL A   1      48.111  25.408  35.960  1.00  0.00    -0.237 OA
ATOM     66  O   UNL A   1      48.601  27.292  37.480  1.00  0.00    -0.237 OA
ATOM     67  O   UNL A   1      47.042  25.516  38.181  1.00  0.00    -0.744 OA
ENDBRANCH  63  64
ENDBRANCH  44  58
BRANCH  45  68
ATOM     68  C   UNL A   1      36.554  33.427  30.889  1.00  0.00    -0.014 A 
ATOM     69  C   UNL A   1      35.400  33.693  31.644  1.00  0.00     0.010 A 
ATOM     70  C   UNL A   1      36.605  33.849  29.546  1.00  0.00     0.010 A 
ATOM     71  C   UNL A   1      34.317  34.367  31.069  1.00  0.00     0.020 A 
ATOM     72  C   UNL A   1      35.539  34.548  28.976  1.00  0.00     0.020 A 
ATOM     73  C   UNL A   1      34.396  34.795  29.739  1.00  0.00     0.054 A 
BRANCH  73  74
ATOM     74  S   UNL A   1      33.011  35.729  29.034  1.00  0.00     0.124 S 
ATOM     75  O   UNL A   1      33.691  36.869  28.427  1.00  0.00    -0.237 OA
ATOM     76  O   UNL A   1      32.425  34.771  28.098  1.00  0.00    -0.237 OA
ATOM     77  O   UNL A   1      32.181  36.039  30.195  1.00  0.00    -0.744 OA
ENDBRANCH  73  74
ENDBRANCH  45  68
BRANCH  57  78
ATOM     78  C   UNL A   1      39.994  34.197  36.918  1.00  0.00    -0.014 A 
ATOM     79  C   UNL A   1      40.588  35.469  36.854  1.00  0.00     0.010 A 
ATOM     80  C   UNL A   1      39.182  33.870  38.019  1.00  0.00     0.010 A 
ATOM     81  C   UNL A   1      40.375  36.397  37.877  1.00  0.00     0.020 A 
ATOM     82  C   UNL A   1      38.950  34.802  39.033  1.00  0.00     0.020 A 
ATOM     83  C   UNL A   1      39.552  36.059  38.957  1.00  0.00     0.054 A 
BRANCH  83  84
ATOM     84  S   UNL A   1      39.219  37.310  40.227  1.00  0.00     0.124 S 
ATOM     85  O   UNL A   1      38.512  36.534  41.242  1.00  0.00    -0.237 OA
ATOM     86  O   UNL A   1      40.559  37.758  40.598  1.00  0.00    -0.237 OA
ATOM     87  O   UNL A   1      38.409  38.306  39.528  1.00  0.00    -0.744 OA
ENDBRANCH  83  84
ENDBRANCH  57  78
ENDBRANCH  31  32
ENDBRANCH  24  26
ENDBRANCH  23  24
ENDBRANCH  22  23
ENDBRANCH   1  22
TORSDOF 17
ENDMDL
MODEL 2
REMARK VINA RESULT:     -11.4      6.305     10.711
REMARK SMILES Cc1cc(C)cc(CSc2cc(C(=O)OCCOC(=O)c3ccc(-c4c5nc(c(-c6ccc(S(=O)(=O)[O-])cc6)c6ccc([nH]6)c(-c6ccc(S(=O)(=O)[O-])cc6)c6nc(c(-c7ccc(S(=O)(=O)[O-])cc7)c7ccc4[nH]7)C=C6)C=C5)cc3)cc(Cl)n2)c1
REMARK SMILES IDX 16 1 15 2 13 3 14 4 12 5 10 6 11 7 84 8 82 9 81 10 83 11
REMARK SMILES IDX 9 12 8 13 7 14 1 15 2 16 3 17 85 18 4 19 5 20 6 21 17 22
REMARK SMILES IDX 18 23 19 24 20 25 21 26 22 27 80 28 23 29 79 30 24 31 25 32
REMARK SMILES IDX 26 33 73 34 27 35 78 36 72 37 74 38 28 39 77 40 71 41 70 42
REMARK SMILES IDX 29 44 59 45 40 46 58 47 41 48 44 49 57 50 75 51 42 52 43 53
REMARK SMILES IDX 56 55 76 56 45 57 30 58 31 59 39 60 32 61 38 62 33 63 34 64
REMARK SMILES IDX 35 65 36 66 37 67 60 68 61 69 69 70 62 71 68 72 63 73 64 74
REMARK SMILES IDX 65 75 66 76 67 77 46 78 47 79 55 80 48 81 54 82 49 83 50 84
REMARK SMILES IDX 51 85 52 86 53 87
REMARK H PARENT 74 43 44 54
REMARK Flexibility Score: inf
ROOT
ATOM      1  C   UNL A   1      38.419  21.176  25.655  1.00  0.00     0.275 C 
ENDROOT
BRANCH   1   2
ATOM      2  O   UNL A   1      37.089  21.024  25.120  1.00  0.00    -0.458 OA
BRANCH   2   3
ATOM      3  C   UNL A   1      36.137  21.831  25.650  1.00  0.00     0.338 C 
ATOM      4  O   UNL A   1      36.295  22.943  26.117  1.00  0.00    -0.246 OA
BRANCH   3   5
ATOM      5  C   UNL A   1      34.801  21.222  25.468  1.00  0.00     0.065 A 
ATOM      6  C   UNL A   1      32.430  21.454  25.627  1.00  0.00     0.099 A 
ATOM      7  C   UNL A   1      33.692  21.934  25.920  1.00  0.00     0.051 A 
ATOM      8  N   UNL A   1      32.230  20.272  25.015  1.00  0.00    -0.230 NA
ATOM      9  C   UNL A   1      33.326  19.567  24.671  1.00  0.00     0.131 A 
ATOM     10  C   UNL A   1      34.627  19.996  24.842  1.00  0.00     0.056 A 
ATOM     11  Cl  UNL A   1      32.998  18.033  23.978  1.00  0.00    -0.062 Cl
BRANCH   6  12
ATOM     12  S   UNL A   1      31.021  22.503  25.912  1.00  0.00    -0.102 SA
BRANCH  12  13
ATOM     13  C   UNL A   1      31.826  23.898  26.761  1.00  0.00     0.112 C 
BRANCH  13  14
ATOM     14  C   UNL A   1      31.745  25.191  25.990  1.00  0.00    -0.037 A 
ATOM     15  C   UNL A   1      33.721  28.424  25.600  1.00  0.00     0.044 C 
ATOM     16  C   UNL A   1      32.658  27.380  25.442  1.00  0.00    -0.051 A 
ATOM     17  C   UNL A   1      31.527  27.643  24.658  1.00  0.00     0.006 A 
ATOM     18  C   UNL A   1      32.757  26.152  26.108  1.00  0.00     0.008 A 
ATOM     19  C   UNL A   1      30.512  26.689  24.516  1.00  0.00    -0.051 A 
ATOM     20  C   UNL A   1      29.284  27.001  23.715  1.00  0.00     0.044 C 
ATOM     21  C   UNL A   1      30.640  25.461  25.169  1.00  0.00     0.008 A 
ENDBRANCH  13  14
ENDBRANCH  12  13
ENDBRANCH   6  12
ENDBRANCH   3   5
ENDBRANCH   2   3
ENDBRANCH   1   2
BRANCH   1  22
ATOM     22  C   UNL A   1      39.251  19.909  25.443  1.00  0.00     0.275 C 
BRANCH  22  23
ATOM     23  O   UNL A   1      40.255  19.780  26.465  1.00  0.00    -0.458 OA
BRANCH  23  24
ATOM     24  C   UNL A   1      41.526  19.989  26.056  1.00  0.00     0.338 C 
ATOM     25  O   UNL A   1      42.213  19.257  25.363  1.00  0.00    -0.246 OA
BRANCH  24  26
ATOM     26  C   UNL A   1      41.977  21.311  26.510  1.00  0.00     0.060 A 
ATOM     27  C   UNL A   1      42.118  22.321  25.562  1.00  0.00     0.016 A 
ATOM     28  C   UNL A   1      42.392  21.518  27.822  1.00  0.00     0.016 A 
ATOM     29  C   UNL A   1      42.776  23.504  25.887  1.00  0.00     0.010 A 
ATOM     30  C   UNL A   1      42.950  22.751  28.176  1.00  0.00     0.010 A 
ATOM     31  C   UNL A   1      43.182  23.747  27.205  1.00  0.00    -0.014 A 
BRANCH  31  32
ATOM     32  C   UNL A   1      43.858  25.021  27.579  1.00  0.00     0.031 A 
ATOM     33  C   UNL A   1      43.054  26.152  28.169  1.00  0.00     0.074 A 
ATOM     34  C   UNL A   1      45.181  25.187  27.369  1.00  0.00     0.049 A 
ATOM     35  N   UNL A   1      43.377  27.411  28.307  1.00  0.00    -0.248 NA
ATOM     36  C   UNL A   1      41.702  25.821  28.650  1.00  0.00     0.031 C 
ATOM     37  C   UNL A   1      46.102  24.161  26.873  1.00  0.00     0.029 A 
ATOM     38  N   UNL A   1      45.982  26.291  27.538  1.00  0.00    -0.354 N 
ATOM     39  C   UNL A   1      42.248  28.038  28.824  1.00  0.00     0.074 A 
ATOM     40  C   UNL A   1      41.234  27.017  28.984  1.00  0.00     0.031 C 
ATOM     41  C   UNL A   1      47.339  24.676  26.797  1.00  0.00     0.029 A 
ATOM     42  C   UNL A   1      47.283  26.093  27.138  1.00  0.00     0.049 A 
ATOM     43  H   UNL A   1      45.655  27.143  27.908  1.00  0.00     0.167 HD
ATOM     44  C   UNL A   1      42.072  29.347  29.126  1.00  0.00     0.031 A 
ATOM     45  C   UNL A   1      48.306  26.958  26.997  1.00  0.00     0.031 A 
ATOM     46  C   UNL A   1      43.101  30.346  29.003  1.00  0.00     0.049 A 
ATOM     47  C   UNL A   1      48.079  28.413  27.291  1.00  0.00     0.074 A 
ATOM     48  C   UNL A   1      43.027  31.699  29.283  1.00  0.00     0.029 A 
ATOM     49  N   UNL A   1      44.398  30.095  28.583  1.00  0.00    -0.354 N 
ATOM     50  N   UNL A   1      46.985  29.004  27.708  1.00  0.00    -0.248 NA
ATOM     51  C   UNL A   1      49.215  29.321  27.080  1.00  0.00     0.031 C 
ATOM     52  C   UNL A   1      44.268  32.274  28.996  1.00  0.00     0.029 A 
ATOM     53  C   UNL A   1      45.132  31.269  28.588  1.00  0.00     0.049 A 
ATOM     54  H   UNL A   1      44.747  29.212  28.320  1.00  0.00     0.167 HD
ATOM     55  C   UNL A   1      47.309  30.351  27.832  1.00  0.00     0.074 A 
ATOM     56  C   UNL A   1      48.699  30.486  27.451  1.00  0.00     0.031 C 
ATOM     57  C   UNL A   1      46.522  31.380  28.227  1.00  0.00     0.031 A 
BRANCH  44  58
ATOM     58  C   UNL A   1      40.701  29.789  29.570  1.00  0.00    -0.014 A 
ATOM     59  C   UNL A   1      40.439  30.170  30.897  1.00  0.00     0.010 A 
ATOM     60  C   UNL A   1      39.662  29.859  28.621  1.00  0.00     0.010 A 
ATOM     61  C   UNL A   1      39.155  30.574  31.276  1.00  0.00     0.020 A 
ATOM     62  C   UNL A   1      38.385  30.288  28.990  1.00  0.00     0.020 A 
ATOM     63  C   UNL A   1      38.135  30.625  30.321  1.00  0.00     0.054 A 
BRANCH  63  64
ATOM     64  S   UNL A   1      36.480  31.167  30.834  1.00  0.00     0.124 S 
ATOM     65  O   UNL A   1      35.818  31.371  29.548  1.00  0.00    -0.237 OA
ATOM     66  O   UNL A   1      35.997  30.032  31.616  1.00  0.00    -0.237 OA
ATOM     67  O   UNL A   1      36.736  32.383  31.602  1.00  0.00    -0.744 OA
ENDBRANCH  63  64
ENDBRANCH  44  58
BRANCH  45  68
ATOM     68  C   UNL A   1      49.621  26.470  26.496  1.00  0.00    -0.014 A 
ATOM     69  C   UNL A   1      49.948  26.567  25.133  1.00  0.00     0.010 A 
ATOM     70  C   UNL A   1      50.570  25.938  27.390  1.00  0.00     0.010 A 
ATOM     71  C   UNL A   1      51.198  26.140  24.673  1.00  0.00     0.020 A 
ATOM     72  C   UNL A   1      51.830  25.537  26.940  1.00  0.00     0.020 A 
ATOM     73  C   UNL A   1      52.133  25.632  25.580  1.00  0.00     0.054 A 
BRANCH  73  74
ATOM     74  S   UNL A   1      53.774  25.151  24.975  1.00  0.00     0.124 S 
ATOM     75  O   UNL A   1      53.839  25.842  23.692  1.00  0.00    -0.237 OA
ATOM     76  O   UNL A   1      54.660  25.666  26.017  1.00  0.00    -0.237 OA
ATOM     77  O   UNL A   1      53.697  23.694  24.901  1.00  0.00    -0.744 OA
ENDBRANCH  73  74
ENDBRANCH  45  68
BRANCH  57  78
ATOM     78  C   UNL A   1      47.153  32.740  28.331  1.00  0.00    -0.014 A 
ATOM     79  C   UNL A   1      47.124  33.642  27.254  1.00  0.00     0.010 A 
ATOM     80  C   UNL A   1      47.692  33.153  29.563  1.00  0.00     0.010 A 
ATOM     81  C   UNL A   1      47.630  34.936  27.407  1.00  0.00     0.020 A 
ATOM     82  C   UNL A   1      48.179  34.451  29.726  1.00  0.00     0.020 A 
ATOM     83  C   UNL A   1      48.148  35.333  28.644  1.00  0.00     0.054 A 
BRANCH  83  84
ATOM     84  S   UNL A   1      48.716  37.044  28.844  1.00  0.00     0.124 S 
ATOM     85  O   UNL A   1      49.876  37.086  27.959  1.00  0.00    -0.237 OA
ATOM     86  O   UNL A   1      47.560  37.821  28.403  1.00  0.00    -0.237 OA
ATOM     87  O   UNL A   1      49.017  37.145  30.271  1.00  0.00    -0.744 OA
ENDBRANCH  83  84
ENDBRANCH  57  78
ENDBRANCH  31  32
ENDBRANCH  24  26
ENDBRANCH  23  24
ENDBRANCH  22  23
ENDBRANCH   1  22
TORSDOF 17
ENDMDL
MODEL 3
REMARK VINA RESULT:     -11.2      7.057     12.427
REMARK SMILES Cc1cc(C)cc(CSc2cc(C(=O)OCCOC(=O)c3ccc(-c4c5nc(c(-c6ccc(S(=O)(=O)[O-])cc6)c6ccc([nH]6)c(-c6ccc(S(=O)(=O)[O-])cc6)c6nc(c(-c7ccc(S(=O)(=O)[O-])cc7)c7ccc4[nH]7)C=C6)C=C5)cc3)cc(Cl)n2)c1
REMARK SMILES IDX 16 1 15 2 13 3 14 4 12 5 10 6 11 7 84 8 82 9 81 10 83 11
REMARK SMILES IDX 9 12 8 13 7 14 1 15 2 16 3 17 85 18 4 19 5 20 6 21 17 22
REMARK SMILES IDX 18 23 19 24 20 25 21 26 22 27 80 28 23 29 79 30 24 31 25 32
REMARK SMILES IDX 26 33 73 34 27 35 78 36 72 37 74 38 28 39 77 40 71 41 70 42
REMARK SMILES IDX 29 44 59 45 40 46 58 47 41 48 44 49 57 50 75 51 42 52 43 53
REMARK SMILES IDX 56 55 76 56 45 57 30 58 31 59 39 60 32 61 38 62 33 63 34 64
REMARK SMILES IDX 35 65 36 66 37 67 60 68 61 69 69 70 62 71 68 72 63 73 64 74
REMARK SMILES IDX 65 75 66 76 67 77 46 78 47 79 55 80 48 81 54 82 49 83 50 84
REMARK SMILES IDX 51 85 52 86 53 87
REMARK H PARENT 74 43 44 54
REMARK Flexibility Score: inf
ROOT
ATOM      1  C   UNL A   1      33.995  29.387  26.470  1.00  0.00     0.275 C 
ENDROOT
BRANCH   1   2
ATOM      2  O   UNL A   1      32.594  29.641  26.691  1.00  0.00    -0.458 OA
BRANCH   2   3
ATOM      3  C   UNL A   1      31.772  28.565  26.608  1.00  0.00     0.338 C 
ATOM      4  O   UNL A   1      31.255  27.964  27.531  1.00  0.00    -0.246 OA
BRANCH   3   5
ATOM      5  C   UNL A   1      31.463  28.274  25.191  1.00  0.00     0.065 A 
ATOM      6  C   UNL A   1      31.232  26.645  23.460  1.00  0.00     0.099 A 
ATOM      7  C   UNL A   1      31.654  26.971  24.735  1.00  0.00     0.051 A 
ATOM      8  N   UNL A   1      30.743  27.560  22.605  1.00  0.00    -0.230 NA
ATOM      9  C   UNL A   1      30.656  28.830  23.049  1.00  0.00     0.131 A 
ATOM     10  C   UNL A   1      30.969  29.242  24.328  1.00  0.00     0.056 A 
ATOM     11  Cl  UNL A   1      30.109  29.959  21.879  1.00  0.00    -0.062 Cl
BRANCH   6  12
ATOM     12  S   UNL A   1      31.173  24.932  22.984  1.00  0.00    -0.102 SA
BRANCH  12  13
ATOM     13  C   UNL A   1      30.739  24.170  24.580  1.00  0.00     0.112 C 
BRANCH  13  14
ATOM     14  C   UNL A   1      31.678  23.063  24.986  1.00  0.00    -0.037 A 
ATOM     15  C   UNL A   1      32.644  19.559  23.846  1.00  0.00     0.044 C 
ATOM     16  C   UNL A   1      32.585  20.832  24.635  1.00  0.00    -0.051 A 
ATOM     17  C   UNL A   1      33.327  20.959  25.817  1.00  0.00     0.006 A 
ATOM     18  C   UNL A   1      31.760  21.887  24.229  1.00  0.00     0.008 A 
ATOM     19  C   UNL A   1      33.269  22.131  26.580  1.00  0.00    -0.051 A 
ATOM     20  C   UNL A   1      34.027  22.236  27.869  1.00  0.00     0.044 C 
ATOM     21  C   UNL A   1      32.458  23.183  26.147  1.00  0.00     0.008 A 
ENDBRANCH  13  14
ENDBRANCH  12  13
ENDBRANCH   6  12
ENDBRANCH   3   5
ENDBRANCH   2   3
ENDBRANCH   1   2
BRANCH   1  22
ATOM     22  C   UNL A   1      34.840  29.878  27.648  1.00  0.00     0.275 C 
BRANCH  22  23
ATOM     23  O   UNL A   1      36.045  29.101  27.773  1.00  0.00    -0.458 OA
BRANCH  23  24
ATOM     24  C   UNL A   1      36.829  29.416  28.827  1.00  0.00     0.338 C 
ATOM     25  O   UNL A   1      36.481  29.894  29.894  1.00  0.00    -0.246 OA
BRANCH  24  26
ATOM     26  C   UNL A   1      38.215  29.023  28.543  1.00  0.00     0.060 A 
ATOM     27  C   UNL A   1      38.944  28.401  29.553  1.00  0.00     0.016 A 
ATOM     28  C   UNL A   1      38.837  29.389  27.353  1.00  0.00     0.016 A 
ATOM     29  C   UNL A   1      40.321  28.238  29.430  1.00  0.00     0.010 A 
ATOM     30  C   UNL A   1      40.200  29.122  27.185  1.00  0.00     0.010 A 
ATOM     31  C   UNL A   1      40.967  28.576  28.234  1.00  0.00    -0.014 A 
BRANCH  31  32
ATOM     32  C   UNL A   1      42.435  28.379  28.071  1.00  0.00     0.031 A 
ATOM     33  C   UNL A   1      43.383  29.507  28.392  1.00  0.00     0.074 A 
ATOM     34  C   UNL A   1      42.927  27.211  27.609  1.00  0.00     0.049 A 
ATOM     35  N   UNL A   1      44.642  29.645  28.069  1.00  0.00    -0.248 NA
ATOM     36  C   UNL A   1      42.833  30.634  29.164  1.00  0.00     0.031 C 
ATOM     37  C   UNL A   1      42.143  26.007  27.323  1.00  0.00     0.029 A 
ATOM     38  N   UNL A   1      44.213  26.846  27.287  1.00  0.00    -0.354 N 
ATOM     39  C   UNL A   1      45.018  30.901  28.535  1.00  0.00     0.074 A 
ATOM     40  C   UNL A   1      43.854  31.481  29.171  1.00  0.00     0.031 C 
ATOM     41  C   UNL A   1      42.962  25.037  26.889  1.00  0.00     0.029 A 
ATOM     42  C   UNL A   1      44.311  25.577  26.767  1.00  0.00     0.049 A 
ATOM     43  H   UNL A   1      44.989  27.438  27.415  1.00  0.00     0.167 HD
ATOM     44  C   UNL A   1      46.220  31.517  28.429  1.00  0.00     0.031 A 
ATOM     45  C   UNL A   1      45.347  24.932  26.196  1.00  0.00     0.031 A 
ATOM     46  C   UNL A   1      47.382  30.914  27.832  1.00  0.00     0.049 A 
ATOM     47  C   UNL A   1      46.659  25.647  26.045  1.00  0.00     0.074 A 
ATOM     48  C   UNL A   1      48.648  31.451  27.675  1.00  0.00     0.029 A 
ATOM     49  N   UNL A   1      47.425  29.630  27.310  1.00  0.00    -0.354 N 
ATOM     50  N   UNL A   1      46.979  26.862  26.423  1.00  0.00    -0.248 NA
ATOM     51  C   UNL A   1      47.744  24.916  25.377  1.00  0.00     0.031 C 
ATOM     52  C   UNL A   1      49.447  30.506  27.025  1.00  0.00     0.029 A 
ATOM     53  C   UNL A   1      48.693  29.360  26.824  1.00  0.00     0.049 A 
ATOM     54  H   UNL A   1      46.666  29.003  27.288  1.00  0.00     0.167 HD
ATOM     55  C   UNL A   1      48.310  27.031  26.059  1.00  0.00     0.074 A 
ATOM     56  C   UNL A   1      48.736  25.795  25.436  1.00  0.00     0.031 C 
ATOM     57  C   UNL A   1      49.105  28.115  26.228  1.00  0.00     0.031 A 
BRANCH  44  58
ATOM     58  C   UNL A   1      46.330  32.936  28.924  1.00  0.00    -0.014 A 
ATOM     59  C   UNL A   1      46.698  33.233  30.247  1.00  0.00     0.010 A 
ATOM     60  C   UNL A   1      46.095  33.996  28.026  1.00  0.00     0.010 A 
ATOM     61  C   UNL A   1      46.789  34.561  30.675  1.00  0.00     0.020 A 
ATOM     62  C   UNL A   1      46.212  35.325  28.442  1.00  0.00     0.020 A 
ATOM     63  C   UNL A   1      46.541  35.599  29.771  1.00  0.00     0.054 A 
BRANCH  63  64
ATOM     64  S   UNL A   1      46.680  37.315  30.345  1.00  0.00     0.124 S 
ATOM     65  O   UNL A   1      45.548  37.949  29.675  1.00  0.00    -0.237 OA
ATOM     66  O   UNL A   1      46.557  37.181  31.794  1.00  0.00    -0.237 OA
ATOM     67  O   UNL A   1      47.997  37.733  29.872  1.00  0.00    -0.744 OA
ENDBRANCH  63  64
ENDBRANCH  44  58
BRANCH  45  68
ATOM     68  C   UNL A   1      45.159  23.551  25.671  1.00  0.00    -0.014 A 
ATOM     69  C   UNL A   1      44.767  23.340  24.339  1.00  0.00     0.010 A 
ATOM     70  C   UNL A   1      45.408  22.437  26.496  1.00  0.00     0.010 A 
ATOM     71  C   UNL A   1      44.625  22.040  23.841  1.00  0.00     0.020 A 
ATOM     72  C   UNL A   1      45.296  21.139  25.995  1.00  0.00     0.020 A 
ATOM     73  C   UNL A   1      44.896  20.947  24.671  1.00  0.00     0.054 A 
BRANCH  73  74
ATOM     74  S   UNL A   1      44.777  19.272  23.985  1.00  0.00     0.124 S 
ATOM     75  O   UNL A   1      44.355  19.535  22.614  1.00  0.00    -0.237 OA
ATOM     76  O   UNL A   1      46.139  18.767  24.143  1.00  0.00    -0.237 OA
ATOM     77  O   UNL A   1      43.780  18.626  24.836  1.00  0.00    -0.744 OA
ENDBRANCH  73  74
ENDBRANCH  45  68
BRANCH  57  78
ATOM     78  C   UNL A   1      50.539  28.002  25.792  1.00  0.00    -0.014 A 
ATOM     79  C   UNL A   1      51.540  27.576  26.681  1.00  0.00     0.010 A 
ATOM     80  C   UNL A   1      50.865  28.230  24.443  1.00  0.00     0.010 A 
ATOM     81  C   UNL A   1      52.848  27.385  26.227  1.00  0.00     0.020 A 
ATOM     82  C   UNL A   1      52.166  28.020  23.981  1.00  0.00     0.020 A 
ATOM     83  C   UNL A   1      53.150  27.602  24.879  1.00  0.00     0.054 A 
BRANCH  83  84
ATOM     84  S   UNL A   1      54.833  27.260  24.294  1.00  0.00     0.124 S 
ATOM     85  O   UNL A   1      55.306  26.290  25.279  1.00  0.00    -0.237 OA
ATOM     86  O   UNL A   1      54.607  26.732  22.951  1.00  0.00    -0.237 OA
ATOM     87  O   UNL A   1      55.489  28.565  24.341  1.00  0.00    -0.744 OA
ENDBRANCH  83  84
ENDBRANCH  57  78
ENDBRANCH  31  32
ENDBRANCH  24  26
ENDBRANCH  23  24
ENDBRANCH  22  23
ENDBRANCH   1  22
TORSDOF 17
ENDMDL
