MODEL 1
REMARK VINA RESULT:     -10.8      0.000      0.000
REMARK SMILES C[C@@H](C(=O)OCCOC(=O)c1ccc(-c2c3nc(c(-c4ccc(S(=O)(=O)[O-])cc4)c4ccc([nH]4)c(-c4ccc(S(=O)(=O)[O-])cc4)c4nc(c(-c5ccc(S(=O)(=O)[O-])cc5)c5ccc2[nH]5)C=C4)C=C3)cc1)[N@H+]1CC[N@H+]2CCCC[C@@H]2C1
REMARK SMILES IDX 7 1 6 2 5 3 3 4 4 5 2 6 1 7 71 8 72 9 80 10 73 12 79 13
REMARK SMILES IDX 74 14 78 15 75 16 77 18 76 19 8 20 9 21 10 22 11 23 12 24
REMARK SMILES IDX 70 25 13 26 69 27 14 28 15 29 16 30 63 31 17 32 68 33 62 34
REMARK SMILES IDX 64 35 18 36 67 37 61 38 60 39 19 41 49 42 30 43 48 44 31 45
REMARK SMILES IDX 34 46 47 47 65 48 32 49 33 50 46 52 66 53 35 54 20 55 21 56
REMARK SMILES IDX 29 57 22 58 28 59 23 60 24 61 25 62 26 63 27 64 50 65 51 66
REMARK SMILES IDX 59 67 52 68 58 69 53 70 54 71 55 72 56 73 57 74 36 75 37 76
REMARK SMILES IDX 45 77 38 78 44 79 39 80 40 81 41 82 42 83 43 84
REMARK H PARENT 71 11 74 17 64 40 34 51
REMARK Flexibility Score: inf
ROOT
ATOM      1  C   UNL A   1      40.022  22.414  26.655  1.00  0.00     0.275 C 
ENDROOT
BRANCH   1   2
ATOM      2  C   UNL A   1      38.945  21.650  25.892  1.00  0.00     0.274 C 
BRANCH   2   3
ATOM      3  O   UNL A   1      37.735  22.431  25.866  1.00  0.00    -0.458 OA
BRANCH   3   4
ATOM      4  C   UNL A   1      36.568  21.760  25.639  1.00  0.00     0.364 C 
ATOM      5  O   UNL A   1      36.510  20.648  25.126  1.00  0.00    -0.245 OA
BRANCH   4   6
ATOM      6  C   UNL A   1      35.321  22.581  26.088  1.00  0.00     0.292 C 
ATOM      7  C   UNL A   1      34.373  21.729  26.944  1.00  0.00     0.088 C 
BRANCH   6   8
ATOM      8  N   UNL A   1      34.725  23.201  24.876  1.00  0.00    -0.314 N 
ATOM      9  C   UNL A   1      33.359  22.822  24.484  1.00  0.00     0.325 C 
ATOM     10  C   UNL A   1      34.817  24.680  24.891  1.00  0.00     0.328 C 
ATOM     11  H   UNL A   1      35.321  22.786  24.158  1.00  0.00     0.349 HD
ATOM     12  C   UNL A   1      32.231  23.493  25.297  1.00  0.00     0.324 C 
ATOM     13  C   UNL A   1      33.735  25.346  25.786  1.00  0.00     0.239 C 
ATOM     14  N   UNL A   1      32.367  24.958  25.382  1.00  0.00    -0.323 N 
ATOM     15  C   UNL A   1      33.872  26.875  25.740  1.00  0.00     0.071 C 
ATOM     16  C   UNL A   1      31.356  25.521  26.282  1.00  0.00     0.262 C 
ATOM     17  H   UNL A   1      32.205  25.346  24.453  1.00  0.00     0.348 HD
ATOM     18  C   UNL A   1      32.844  27.532  26.657  1.00  0.00     0.012 C 
ATOM     19  C   UNL A   1      31.436  27.047  26.323  1.00  0.00     0.062 C 
ENDBRANCH   6   8
ENDBRANCH   4   6
ENDBRANCH   3   4
ENDBRANCH   2   3
ENDBRANCH   1   2
BRANCH   1  20
ATOM     20  O   UNL A   1      39.688  23.813  26.674  1.00  0.00    -0.458 OA
BRANCH  20  21
ATOM     21  C   UNL A   1      40.731  24.669  26.571  1.00  0.00     0.338 C 
ATOM     22  O   UNL A   1      41.711  24.563  25.856  1.00  0.00    -0.246 OA
BRANCH  21  23
ATOM     23  C   UNL A   1      40.527  25.794  27.497  1.00  0.00     0.060 A 
ATOM     24  C   UNL A   1      41.343  26.919  27.408  1.00  0.00     0.016 A 
ATOM     25  C   UNL A   1      39.596  25.682  28.529  1.00  0.00     0.016 A 
ATOM     26  C   UNL A   1      41.300  27.892  28.407  1.00  0.00     0.010 A 
ATOM     27  C   UNL A   1      39.484  26.709  29.473  1.00  0.00     0.010 A 
ATOM     28  C   UNL A   1      40.362  27.808  29.448  1.00  0.00    -0.014 A 
BRANCH  28  29
ATOM     29  C   UNL A   1      40.318  28.839  30.525  1.00  0.00     0.031 A 
ATOM     30  C   UNL A   1      41.297  28.782  31.673  1.00  0.00     0.074 A 
ATOM     31  C   UNL A   1      39.405  29.831  30.490  1.00  0.00     0.049 A 
ATOM     32  N   UNL A   1      41.300  29.462  32.792  1.00  0.00    -0.248 NA
ATOM     33  C   UNL A   1      42.406  27.823  31.553  1.00  0.00     0.031 C 
ATOM     34  C   UNL A   1      38.421  30.046  29.427  1.00  0.00     0.029 A 
ATOM     35  N   UNL A   1      39.160  30.852  31.377  1.00  0.00    -0.354 N 
ATOM     36  C   UNL A   1      42.371  28.972  33.533  1.00  0.00     0.074 A 
ATOM     37  C   UNL A   1      42.995  27.937  32.735  1.00  0.00     0.031 C 
ATOM     38  C   UNL A   1      37.709  31.149  29.702  1.00  0.00     0.029 A 
ATOM     39  C   UNL A   1      38.124  31.674  30.998  1.00  0.00     0.049 A 
ATOM     40  H   UNL A   1      39.677  30.983  32.204  1.00  0.00     0.167 HD
ATOM     41  C   UNL A   1      42.793  29.344  34.766  1.00  0.00     0.031 A 
ATOM     42  C   UNL A   1      37.541  32.709  31.634  1.00  0.00     0.031 A 
ATOM     43  C   UNL A   1      42.204  30.403  35.542  1.00  0.00     0.049 A 
ATOM     44  C   UNL A   1      38.019  33.100  33.003  1.00  0.00     0.074 A 
ATOM     45  C   UNL A   1      42.563  30.851  36.802  1.00  0.00     0.029 A 
ATOM     46  N   UNL A   1      41.146  31.195  35.122  1.00  0.00    -0.354 N 
ATOM     47  N   UNL A   1      38.984  32.575  33.717  1.00  0.00    -0.248 NA
ATOM     48  C   UNL A   1      37.314  34.211  33.658  1.00  0.00     0.031 C 
ATOM     49  C   UNL A   1      41.704  31.898  37.156  1.00  0.00     0.029 A 
ATOM     50  C   UNL A   1      40.836  32.126  36.100  1.00  0.00     0.049 A 
ATOM     51  H   UNL A   1      40.685  31.109  34.257  1.00  0.00     0.167 HD
ATOM     52  C   UNL A   1      39.003  33.292  34.908  1.00  0.00     0.074 A 
ATOM     53  C   UNL A   1      37.970  34.303  34.807  1.00  0.00     0.031 C 
ATOM     54  C   UNL A   1      39.801  33.121  35.990  1.00  0.00     0.031 A 
BRANCH  41  55
ATOM     55  C   UNL A   1      43.931  28.565  35.373  1.00  0.00    -0.014 A 
ATOM     56  C   UNL A   1      45.267  28.967  35.206  1.00  0.00     0.010 A 
ATOM     57  C   UNL A   1      43.649  27.423  36.146  1.00  0.00     0.010 A 
ATOM     58  C   UNL A   1      46.305  28.216  35.767  1.00  0.00     0.020 A 
ATOM     59  C   UNL A   1      44.682  26.683  36.728  1.00  0.00     0.020 A 
ATOM     60  C   UNL A   1      46.007  27.074  36.518  1.00  0.00     0.054 A 
BRANCH  60  61
ATOM     61  S   UNL A   1      47.367  26.118  37.241  1.00  0.00     0.124 S 
ATOM     62  O   UNL A   1      47.147  24.795  36.663  1.00  0.00    -0.237 OA
ATOM     63  O   UNL A   1      48.553  26.823  36.759  1.00  0.00    -0.237 OA
ATOM     64  O   UNL A   1      47.132  26.216  38.680  1.00  0.00    -0.744 OA
ENDBRANCH  60  61
ENDBRANCH  41  55
BRANCH  42  65
ATOM     65  C   UNL A   1      36.403  33.418  30.989  1.00  0.00    -0.014 A 
ATOM     66  C   UNL A   1      35.225  33.680  31.707  1.00  0.00     0.010 A 
ATOM     67  C   UNL A   1      36.512  33.870  29.661  1.00  0.00     0.010 A 
ATOM     68  C   UNL A   1      34.175  34.384  31.111  1.00  0.00     0.020 A 
ATOM     69  C   UNL A   1      35.475  34.597  29.069  1.00  0.00     0.020 A 
ATOM     70  C   UNL A   1      34.309  34.843  29.797  1.00  0.00     0.054 A 
BRANCH  70  71
ATOM     71  S   UNL A   1      32.975  35.831  29.064  1.00  0.00     0.124 S 
ATOM     72  O   UNL A   1      33.712  36.932  28.454  1.00  0.00    -0.237 OA
ATOM     73  O   UNL A   1      32.353  34.892  28.134  1.00  0.00    -0.237 OA
ATOM     74  O   UNL A   1      32.149  36.191  30.215  1.00  0.00    -0.744 OA
ENDBRANCH  70  71
ENDBRANCH  42  65
BRANCH  54  75
ATOM     75  C   UNL A   1      39.596  34.058  37.147  1.00  0.00    -0.014 A 
ATOM     76  C   UNL A   1      38.772  33.701  38.228  1.00  0.00     0.010 A 
ATOM     77  C   UNL A   1      40.268  35.293  37.172  1.00  0.00     0.010 A 
ATOM     78  C   UNL A   1      38.599  34.577  39.302  1.00  0.00     0.020 A 
ATOM     79  C   UNL A   1      40.112  36.164  38.253  1.00  0.00     0.020 A 
ATOM     80  C   UNL A   1      39.266  35.806  39.306  1.00  0.00     0.054 A 
BRANCH  80  81
ATOM     81  S   UNL A   1      39.057  36.915  40.727  1.00  0.00     0.124 S 
ATOM     82  O   UNL A   1      40.439  37.143  41.139  1.00  0.00    -0.237 OA
ATOM     83  O   UNL A   1      38.377  38.068  40.142  1.00  0.00    -0.237 OA
ATOM     84  O   UNL A   1      38.249  36.131  41.660  1.00  0.00    -0.744 OA
ENDBRANCH  80  81
ENDBRANCH  54  75
ENDBRANCH  28  29
ENDBRANCH  21  23
ENDBRANCH  20  21
ENDBRANCH   1  20
TORSDOF 15
ENDMDL
MODEL 2
REMARK VINA RESULT:     -10.8      5.117     10.933
REMARK SMILES C[C@@H](C(=O)OCCOC(=O)c1ccc(-c2c3nc(c(-c4ccc(S(=O)(=O)[O-])cc4)c4ccc([nH]4)c(-c4ccc(S(=O)(=O)[O-])cc4)c4nc(c(-c5ccc(S(=O)(=O)[O-])cc5)c5ccc2[nH]5)C=C4)C=C3)cc1)[N@H+]1CC[N@H+]2CCCC[C@@H]2C1
REMARK SMILES IDX 7 1 6 2 5 3 3 4 4 5 2 6 1 7 71 8 72 9 80 10 73 12 79 13
REMARK SMILES IDX 74 14 78 15 75 16 77 18 76 19 8 20 9 21 10 22 11 23 12 24
REMARK SMILES IDX 70 25 13 26 69 27 14 28 15 29 16 30 63 31 17 32 68 33 62 34
REMARK SMILES IDX 64 35 18 36 67 37 61 38 60 39 19 41 49 42 30 43 48 44 31 45
REMARK SMILES IDX 34 46 47 47 65 48 32 49 33 50 46 52 66 53 35 54 20 55 21 56
REMARK SMILES IDX 29 57 22 58 28 59 23 60 24 61 25 62 26 63 27 64 50 65 51 66
REMARK SMILES IDX 59 67 52 68 58 69 53 70 54 71 55 72 56 73 57 74 36 75 37 76
REMARK SMILES IDX 45 77 38 78 44 79 39 80 40 81 41 82 42 83 43 84
REMARK H PARENT 71 11 74 17 64 40 34 51
REMARK Flexibility Score: inf
ROOT
ATOM      1  C   UNL A   1      32.710  30.183  26.546  1.00  0.00     0.275 C 
ENDROOT
BRANCH   1   2
ATOM      2  C   UNL A   1      33.125  29.434  25.284  1.00  0.00     0.274 C 
BRANCH   2   3
ATOM      3  O   UNL A   1      32.233  28.322  25.074  1.00  0.00    -0.458 OA
BRANCH   3   4
ATOM      4  C   UNL A   1      32.673  27.317  24.264  1.00  0.00     0.364 C 
ATOM      5  O   UNL A   1      33.510  27.471  23.380  1.00  0.00    -0.245 OA
BRANCH   4   6
ATOM      6  C   UNL A   1      31.975  25.959  24.579  1.00  0.00     0.292 C 
ATOM      7  C   UNL A   1      30.447  26.097  24.538  1.00  0.00     0.088 C 
BRANCH   6   8
ATOM      8  N   UNL A   1      32.550  25.436  25.846  1.00  0.00    -0.314 N 
ATOM      9  C   UNL A   1      31.989  24.205  26.423  1.00  0.00     0.325 C 
ATOM     10  C   UNL A   1      34.023  25.300  25.787  1.00  0.00     0.328 C 
ATOM     11  H   UNL A   1      32.257  26.175  26.486  1.00  0.00     0.349 HD
ATOM     12  C   UNL A   1      32.452  22.894  25.753  1.00  0.00     0.324 C 
ATOM     13  C   UNL A   1      34.486  24.024  25.029  1.00  0.00     0.239 C 
ATOM     14  N   UNL A   1      33.916  22.793  25.619  1.00  0.00    -0.323 N 
ATOM     15  C   UNL A   1      36.018  23.932  25.024  1.00  0.00     0.071 C 
ATOM     16  C   UNL A   1      34.287  21.602  24.849  1.00  0.00     0.262 C 
ATOM     17  H   UNL A   1      34.314  22.694  26.553  1.00  0.00     0.348 HD
ATOM     18  C   UNL A   1      36.478  22.707  24.238  1.00  0.00     0.012 C 
ATOM     19  C   UNL A   1      35.805  21.444  24.766  1.00  0.00     0.062 C 
ENDBRANCH   6   8
ENDBRANCH   4   6
ENDBRANCH   3   4
ENDBRANCH   2   3
ENDBRANCH   1   2
BRANCH   1  20
ATOM     20  O   UNL A   1      33.523  29.742  27.648  1.00  0.00    -0.458 OA
BRANCH  20  21
ATOM     21  C   UNL A   1      34.329  30.681  28.197  1.00  0.00     0.338 C 
ATOM     22  O   UNL A   1      34.032  31.818  28.518  1.00  0.00    -0.246 OA
BRANCH  21  23
ATOM     23  C   UNL A   1      35.684  30.128  28.348  1.00  0.00     0.060 A 
ATOM     24  C   UNL A   1      36.107  29.667  29.592  1.00  0.00     0.016 A 
ATOM     25  C   UNL A   1      36.573  30.173  27.276  1.00  0.00     0.016 A 
ATOM     26  C   UNL A   1      37.448  29.341  29.794  1.00  0.00     0.010 A 
ATOM     27  C   UNL A   1      37.894  29.748  27.457  1.00  0.00     0.010 A 
ATOM     28  C   UNL A   1      38.360  29.365  28.728  1.00  0.00    -0.014 A 
BRANCH  28  29
ATOM     29  C   UNL A   1      39.797  29.028  28.939  1.00  0.00     0.031 A 
ATOM     30  C   UNL A   1      40.743  30.057  29.511  1.00  0.00     0.074 A 
ATOM     31  C   UNL A   1      40.271  27.806  28.623  1.00  0.00     0.049 A 
ATOM     32  N   UNL A   1      42.049  30.025  29.592  1.00  0.00    -0.248 NA
ATOM     33  C   UNL A   1      40.141  31.288  30.046  1.00  0.00     0.031 C 
ATOM     34  C   UNL A   1      39.475  26.693  28.101  1.00  0.00     0.029 A 
ATOM     35  N   UNL A   1      41.544  27.293  28.698  1.00  0.00    -0.354 N 
ATOM     36  C   UNL A   1      42.429  31.251  30.128  1.00  0.00     0.074 A 
ATOM     37  C   UNL A   1      41.213  32.004  30.354  1.00  0.00     0.031 C 
ATOM     38  C   UNL A   1      40.266  25.621  27.942  1.00  0.00     0.029 A 
ATOM     39  C   UNL A   1      41.639  25.990  28.268  1.00  0.00     0.049 A 
ATOM     40  H   UNL A   1      42.314  27.810  29.027  1.00  0.00     0.167 HD
ATOM     41  C   UNL A   1      43.673  31.711  30.403  1.00  0.00     0.031 A 
ATOM     42  C   UNL A   1      42.711  25.188  28.113  1.00  0.00     0.031 A 
ATOM     43  C   UNL A   1      44.880  30.948  30.223  1.00  0.00     0.049 A 
ATOM     44  C   UNL A   1      44.082  25.720  28.415  1.00  0.00     0.074 A 
ATOM     45  C   UNL A   1      46.188  31.330  30.472  1.00  0.00     0.029 A 
ATOM     46  N   UNL A   1      44.927  29.638  29.770  1.00  0.00    -0.354 N 
ATOM     47  N   UNL A   1      44.425  26.908  28.850  1.00  0.00    -0.248 NA
ATOM     48  C   UNL A   1      45.212  24.808  28.185  1.00  0.00     0.031 C 
ATOM     49  C   UNL A   1      47.028  30.259  30.144  1.00  0.00     0.029 A 
ATOM     50  C   UNL A   1      46.239  29.199  29.728  1.00  0.00     0.049 A 
ATOM     51  H   UNL A   1      44.142  29.100  29.517  1.00  0.00     0.167 HD
ATOM     52  C   UNL A   1      45.812  26.887  28.946  1.00  0.00     0.074 A 
ATOM     53  C   UNL A   1      46.242  25.561  28.548  1.00  0.00     0.031 C 
ATOM     54  C   UNL A   1      46.653  27.881  29.323  1.00  0.00     0.031 A 
BRANCH  41  55
ATOM     55  C   UNL A   1      43.796  33.130  30.891  1.00  0.00    -0.014 A 
ATOM     56  C   UNL A   1      43.705  33.448  32.257  1.00  0.00     0.010 A 
ATOM     57  C   UNL A   1      44.032  34.161  29.961  1.00  0.00     0.010 A 
ATOM     58  C   UNL A   1      43.806  34.777  32.681  1.00  0.00     0.020 A 
ATOM     59  C   UNL A   1      44.156  35.488  30.383  1.00  0.00     0.020 A 
ATOM     60  C   UNL A   1      44.022  35.790  31.741  1.00  0.00     0.054 A 
BRANCH  60  61
ATOM     61  S   UNL A   1      44.156  37.506  32.312  1.00  0.00     0.124 S 
ATOM     62  O   UNL A   1      43.182  37.537  33.400  1.00  0.00    -0.237 OA
ATOM     63  O   UNL A   1      45.556  37.605  32.721  1.00  0.00    -0.237 OA
ATOM     64  O   UNL A   1      43.798  38.292  31.134  1.00  0.00    -0.744 OA
ENDBRANCH  60  61
ENDBRANCH  41  55
BRANCH  42  65
ATOM     65  C   UNL A   1      42.522  23.805  27.599  1.00  0.00    -0.014 A 
ATOM     66  C   UNL A   1      42.591  23.537  26.222  1.00  0.00     0.010 A 
ATOM     67  C   UNL A   1      42.314  22.740  28.496  1.00  0.00     0.010 A 
ATOM     68  C   UNL A   1      42.457  22.229  25.748  1.00  0.00     0.020 A 
ATOM     69  C   UNL A   1      42.205  21.427  28.028  1.00  0.00     0.020 A 
ATOM     70  C   UNL A   1      42.269  21.181  26.655  1.00  0.00     0.054 A 
BRANCH  70  71
ATOM     71  S   UNL A   1      42.184  19.479  26.033  1.00  0.00     0.124 S 
ATOM     72  O   UNL A   1      40.761  19.331  25.747  1.00  0.00    -0.237 OA
ATOM     73  O   UNL A   1      43.064  19.517  24.868  1.00  0.00    -0.237 OA
ATOM     74  O   UNL A   1      42.684  18.684  27.153  1.00  0.00    -0.744 OA
ENDBRANCH  70  71
ENDBRANCH  42  65
BRANCH  54  75
ATOM     75  C   UNL A   1      48.123  27.566  29.336  1.00  0.00    -0.014 A 
ATOM     76  C   UNL A   1      48.945  27.912  28.250  1.00  0.00     0.010 A 
ATOM     77  C   UNL A   1      48.695  26.953  30.465  1.00  0.00     0.010 A 
ATOM     78  C   UNL A   1      50.312  27.624  28.280  1.00  0.00     0.020 A 
ATOM     79  C   UNL A   1      50.065  26.680  30.506  1.00  0.00     0.020 A 
ATOM     80  C   UNL A   1      50.863  27.005  29.406  1.00  0.00     0.054 A 
BRANCH  80  81
ATOM     81  S   UNL A   1      52.645  26.671  29.441  1.00  0.00     0.124 S 
ATOM     82  O   UNL A   1      53.204  28.018  29.520  1.00  0.00    -0.237 OA
ATOM     83  O   UNL A   1      52.799  25.856  30.644  1.00  0.00    -0.237 OA
ATOM     84  O   UNL A   1      52.889  25.966  28.184  1.00  0.00    -0.744 OA
ENDBRANCH  80  81
ENDBRANCH  54  75
ENDBRANCH  28  29
ENDBRANCH  21  23
ENDBRANCH  20  21
ENDBRANCH   1  20
TORSDOF 15
ENDMDL
MODEL 3
REMARK VINA RESULT:     -10.7      6.655     12.372
REMARK SMILES C[C@@H](C(=O)OCCOC(=O)c1ccc(-c2c3nc(c(-c4ccc(S(=O)(=O)[O-])cc4)c4ccc([nH]4)c(-c4ccc(S(=O)(=O)[O-])cc4)c4nc(c(-c5ccc(S(=O)(=O)[O-])cc5)c5ccc2[nH]5)C=C4)C=C3)cc1)[N@H+]1CC[N@H+]2CCCC[C@@H]2C1
REMARK SMILES IDX 7 1 6 2 5 3 3 4 4 5 2 6 1 7 71 8 72 9 80 10 73 12 79 13
REMARK SMILES IDX 74 14 78 15 75 16 77 18 76 19 8 20 9 21 10 22 11 23 12 24
REMARK SMILES IDX 70 25 13 26 69 27 14 28 15 29 16 30 63 31 17 32 68 33 62 34
REMARK SMILES IDX 64 35 18 36 67 37 61 38 60 39 19 41 49 42 30 43 48 44 31 45
REMARK SMILES IDX 34 46 47 47 65 48 32 49 33 50 46 52 66 53 35 54 20 55 21 56
REMARK SMILES IDX 29 57 22 58 28 59 23 60 24 61 25 62 26 63 27 64 50 65 51 66
REMARK SMILES IDX 59 67 52 68 58 69 53 70 54 71 55 72 56 73 57 74 36 75 37 76
REMARK SMILES IDX 45 77 38 78 44 79 39 80 40 81 41 82 42 83 43 84
REMARK H PARENT 71 11 74 17 64 40 34 51
REMARK Flexibility Score: inf
ROOT
ATOM      1  C   UNL A   1      34.494  31.167  27.851  1.00  0.00     0.275 C 
ENDROOT
BRANCH   1   2
ATOM      2  C   UNL A   1      33.274  30.541  27.183  1.00  0.00     0.274 C 
BRANCH   2   3
ATOM      3  O   UNL A   1      33.706  29.695  26.100  1.00  0.00    -0.458 OA
BRANCH   3   4
ATOM      4  C   UNL A   1      32.766  29.342  25.176  1.00  0.00     0.364 C 
ATOM      5  O   UNL A   1      31.623  29.787  25.162  1.00  0.00    -0.245 OA
BRANCH   4   6
ATOM      6  C   UNL A   1      33.309  28.296  24.156  1.00  0.00     0.292 C 
ATOM      7  C   UNL A   1      33.657  28.955  22.814  1.00  0.00     0.088 C 
BRANCH   6   8
ATOM      8  N   UNL A   1      32.338  27.172  24.098  1.00  0.00    -0.314 N 
ATOM      9  C   UNL A   1      32.193  26.424  22.840  1.00  0.00     0.325 C 
ATOM     10  C   UNL A   1      32.525  26.203  25.203  1.00  0.00     0.328 C 
ATOM     11  H   UNL A   1      31.465  27.693  24.188  1.00  0.00     0.349 HD
ATOM     12  C   UNL A   1      33.302  25.388  22.558  1.00  0.00     0.324 C 
ATOM     13  C   UNL A   1      33.704  25.220  24.955  1.00  0.00     0.239 C 
ATOM     14  N   UNL A   1      33.547  24.475  23.688  1.00  0.00    -0.323 N 
ATOM     15  C   UNL A   1      33.829  24.232  26.123  1.00  0.00     0.071 C 
ATOM     16  C   UNL A   1      34.702  23.614  23.419  1.00  0.00     0.262 C 
ATOM     17  H   UNL A   1      32.730  23.873  23.792  1.00  0.00     0.348 HD
ATOM     18  C   UNL A   1      35.017  23.297  25.909  1.00  0.00     0.012 C 
ATOM     19  C   UNL A   1      34.923  22.609  24.550  1.00  0.00     0.062 C 
ENDBRANCH   6   8
ENDBRANCH   4   6
ENDBRANCH   3   4
ENDBRANCH   2   3
ENDBRANCH   1   2
BRANCH   1  20
ATOM     20  O   UNL A   1      35.452  30.137  28.151  1.00  0.00    -0.458 OA
BRANCH  20  21
ATOM     21  C   UNL A   1      36.115  30.272  29.323  1.00  0.00     0.338 C 
ATOM     22  O   UNL A   1      35.649  30.555  30.413  1.00  0.00    -0.246 OA
BRANCH  21  23
ATOM     23  C   UNL A   1      37.550  30.042  29.096  1.00  0.00     0.060 A 
ATOM     24  C   UNL A   1      38.016  29.804  27.805  1.00  0.00     0.016 A 
ATOM     25  C   UNL A   1      38.418  29.950  30.183  1.00  0.00     0.016 A 
ATOM     26  C   UNL A   1      39.329  29.376  27.606  1.00  0.00     0.010 A 
ATOM     27  C   UNL A   1      39.761  29.620  29.969  1.00  0.00     0.010 A 
ATOM     28  C   UNL A   1      40.224  29.289  28.682  1.00  0.00    -0.014 A 
BRANCH  28  29
ATOM     29  C   UNL A   1      41.626  28.823  28.478  1.00  0.00     0.031 A 
ATOM     30  C   UNL A   1      42.777  29.792  28.610  1.00  0.00     0.074 A 
ATOM     31  C   UNL A   1      41.885  27.535  28.173  1.00  0.00     0.049 A 
ATOM     32  N   UNL A   1      44.035  29.630  28.288  1.00  0.00    -0.248 NA
ATOM     33  C   UNL A   1      42.466  31.121  29.159  1.00  0.00     0.031 C 
ATOM     34  C   UNL A   1      40.886  26.471  28.052  1.00  0.00     0.029 A 
ATOM     35  N   UNL A   1      43.075  26.900  27.910  1.00  0.00    -0.354 N 
ATOM     36  C   UNL A   1      44.653  30.851  28.538  1.00  0.00     0.074 A 
ATOM     37  C   UNL A   1      43.630  31.744  29.039  1.00  0.00     0.031 C 
ATOM     38  C   UNL A   1      41.506  25.312  27.781  1.00  0.00     0.029 A 
ATOM     39  C   UNL A   1      42.935  25.562  27.624  1.00  0.00     0.049 A 
ATOM     40  H   UNL A   1      43.946  27.359  27.926  1.00  0.00     0.167 HD
ATOM     41  C   UNL A   1      45.951  31.200  28.361  1.00  0.00     0.031 A 
ATOM     42  C   UNL A   1      43.841  24.641  27.239  1.00  0.00     0.031 A 
ATOM     43  C   UNL A   1      46.980  30.302  27.907  1.00  0.00     0.049 A 
ATOM     44  C   UNL A   1      45.272  25.050  27.042  1.00  0.00     0.074 A 
ATOM     45  C   UNL A   1      48.323  30.565  27.696  1.00  0.00     0.029 A 
ATOM     46  N   UNL A   1      46.785  28.960  27.615  1.00  0.00    -0.354 N 
ATOM     47  N   UNL A   1      45.821  26.229  27.211  1.00  0.00    -0.248 NA
ATOM     48  C   UNL A   1      46.201  24.009  26.582  1.00  0.00     0.031 C 
ATOM     49  C   UNL A   1      48.935  29.388  27.251  1.00  0.00     0.029 A 
ATOM     50  C   UNL A   1      47.981  28.384  27.221  1.00  0.00     0.049 A 
ATOM     51  H   UNL A   1      45.924  28.488  27.678  1.00  0.00     0.167 HD
ATOM     52  C   UNL A   1      47.161  26.071  26.878  1.00  0.00     0.074 A 
ATOM     53  C   UNL A   1      47.345  24.678  26.521  1.00  0.00     0.031 C 
ATOM     54  C   UNL A   1      48.148  27.000  26.862  1.00  0.00     0.031 A 
BRANCH  41  55
ATOM     55  C   UNL A   1      46.324  32.635  28.622  1.00  0.00    -0.014 A 
ATOM     56  C   UNL A   1      46.805  33.053  29.876  1.00  0.00     0.010 A 
ATOM     57  C   UNL A   1      46.214  33.577  27.582  1.00  0.00     0.010 A 
ATOM     58  C   UNL A   1      47.129  34.395  30.095  1.00  0.00     0.020 A 
ATOM     59  C   UNL A   1      46.558  34.915  27.791  1.00  0.00     0.020 A 
ATOM     60  C   UNL A   1      46.995  35.320  29.054  1.00  0.00     0.054 A 
BRANCH  60  61
ATOM     61  S   UNL A   1      47.427  37.055  29.359  1.00  0.00     0.124 S 
ATOM     62  O   UNL A   1      46.149  37.610  29.797  1.00  0.00    -0.237 OA
ATOM     63  O   UNL A   1      48.455  36.958  30.392  1.00  0.00    -0.237 OA
ATOM     64  O   UNL A   1      47.899  37.528  28.059  1.00  0.00    -0.744 OA
ENDBRANCH  60  61
ENDBRANCH  41  55
BRANCH  42  65
ATOM     65  C   UNL A   1      43.399  23.247  26.970  1.00  0.00    -0.014 A 
ATOM     66  C   UNL A   1      43.461  22.715  25.672  1.00  0.00     0.010 A 
ATOM     67  C   UNL A   1      42.952  22.430  28.026  1.00  0.00     0.010 A 
ATOM     68  C   UNL A   1      43.087  21.389  25.432  1.00  0.00     0.020 A 
ATOM     69  C   UNL A   1      42.601  21.098  27.795  1.00  0.00     0.020 A 
ATOM     70  C   UNL A   1      42.663  20.587  26.497  1.00  0.00     0.054 A 
BRANCH  70  71
ATOM     71  S   UNL A   1      42.263  18.845  26.186  1.00  0.00     0.124 S 
ATOM     72  O   UNL A   1      42.543  18.234  27.482  1.00  0.00    -0.237 OA
ATOM     73  O   UNL A   1      40.855  18.901  25.803  1.00  0.00    -0.237 OA
ATOM     74  O   UNL A   1      43.178  18.474  25.108  1.00  0.00    -0.744 OA
ENDBRANCH  70  71
ENDBRANCH  42  65
BRANCH  54  75
ATOM     75  C   UNL A   1      49.519  26.535  26.458  1.00  0.00    -0.014 A 
ATOM     76  C   UNL A   1      50.388  25.950  27.395  1.00  0.00     0.010 A 
ATOM     77  C   UNL A   1      49.928  26.650  25.117  1.00  0.00     0.010 A 
ATOM     78  C   UNL A   1      51.655  25.512  27.003  1.00  0.00     0.020 A 
ATOM     79  C   UNL A   1      51.188  26.197  24.718  1.00  0.00     0.020 A 
ATOM     80  C   UNL A   1      52.050  25.642  25.668  1.00  0.00     0.054 A 
BRANCH  80  81
ATOM     81  S   UNL A   1      53.686  25.035  25.173  1.00  0.00     0.124 S 
ATOM     82  O   UNL A   1      53.894  25.727  23.904  1.00  0.00    -0.237 OA
ATOM     83  O   UNL A   1      54.542  25.471  26.274  1.00  0.00    -0.237 OA
ATOM     84  O   UNL A   1      53.502  23.589  25.072  1.00  0.00    -0.744 OA
ENDBRANCH  80  81
ENDBRANCH  54  75
ENDBRANCH  28  29
ENDBRANCH  21  23
ENDBRANCH  20  21
ENDBRANCH   1  20
TORSDOF 15
ENDMDL
