MODEL 1
REMARK VINA RESULT:      -9.6      0.000      0.000
REMARK SMILES C[C@H]1CN([C@@H](C(=O)OCCOC(=O)c2ccc(-c3c4nc(c(-c5ccc(S(=O)(=O)[O-])cc5)c5ccc([nH]5)c(-c5ccc(S(=O)(=O)[O-])cc5)c5nc(c(-c6ccc(S(=O)(=O)[O-])cc6)c6ccc3[nH]6)C=C5)C=C4)cc2)C(C)(C)C)S(=O)(=O)C1
REMARK SMILES IDX 10 1 9 2 8 3 6 4 7 5 5 6 4 7 1 8 2 9 3 10 81 11 78 12 79 13
REMARK SMILES IDX 80 14 74 15 75 16 76 17 77 18 11 19 12 20 13 21 14 22 15 23
REMARK SMILES IDX 73 24 16 25 72 26 17 27 18 28 19 29 66 30 20 31 71 32 65 33
REMARK SMILES IDX 67 34 21 35 70 36 64 37 63 38 22 40 52 41 33 42 51 43 34 44
REMARK SMILES IDX 37 45 50 46 68 47 35 48 36 49 49 51 69 52 38 53 23 54 24 55
REMARK SMILES IDX 32 56 25 57 31 58 26 59 27 60 28 61 29 62 30 63 53 64 54 65
REMARK SMILES IDX 62 66 55 67 61 68 56 69 57 70 58 71 59 72 60 73 39 74 40 75
REMARK SMILES IDX 48 76 41 77 47 78 42 79 43 80 44 81 45 82 46 83
REMARK H PARENT 67 39 37 50
REMARK Flexibility Score: inf
ROOT
ATOM      1  C   UNL A   1      32.526  29.950  26.234  1.00  0.00     0.275 C 
ENDROOT
BRANCH   1   2
ATOM      2  C   UNL A   1      33.073  29.297  24.971  1.00  0.00     0.274 C 
BRANCH   2   3
ATOM      3  O   UNL A   1      33.794  28.096  25.326  1.00  0.00    -0.461 OA
BRANCH   3   4
ATOM      4  C   UNL A   1      33.616  26.993  24.540  1.00  0.00     0.325 C 
ATOM      5  O   UNL A   1      33.889  26.995  23.345  1.00  0.00    -0.250 OA
BRANCH   4   6
ATOM      6  C   UNL A   1      32.871  25.837  25.277  1.00  0.00     0.188 C 
BRANCH   6   7
ATOM      7  N   UNL A   1      33.456  24.508  24.894  1.00  0.00    -0.187 NA
ATOM      8  C   UNL A   1      32.147  21.740  24.149  1.00  0.00     0.010 C 
ATOM      9  C   UNL A   1      33.377  22.482  23.611  1.00  0.00     0.017 C 
ATOM     10  C   UNL A   1      33.188  24.009  23.536  1.00  0.00     0.107 C 
ATOM     11  C   UNL A   1      34.603  22.240  24.496  1.00  0.00     0.159 C 
ATOM     12  S   UNL A   1      34.716  23.650  25.589  1.00  0.00     0.215 S 
ATOM     13  O   UNL A   1      35.955  24.329  25.268  1.00  0.00    -0.212 OA
ATOM     14  O   UNL A   1      34.359  23.254  26.924  1.00  0.00    -0.212 OA
ENDBRANCH   6   7
BRANCH   6  15
ATOM     15  C   UNL A   1      31.295  25.979  25.389  1.00  0.00    -0.011 C 
ATOM     16  C   UNL A   1      30.672  24.600  25.708  1.00  0.00     0.013 C 
ATOM     17  C   UNL A   1      30.871  26.878  26.585  1.00  0.00     0.013 C 
ATOM     18  C   UNL A   1      30.584  26.545  24.152  1.00  0.00     0.013 C 
ENDBRANCH   6  15
ENDBRANCH   4   6
ENDBRANCH   3   4
ENDBRANCH   2   3
ENDBRANCH   1   2
BRANCH   1  19
ATOM     19  O   UNL A   1      33.394  29.609  27.325  1.00  0.00    -0.458 OA
BRANCH  19  20
ATOM     20  C   UNL A   1      34.199  30.608  27.762  1.00  0.00     0.338 C 
ATOM     21  O   UNL A   1      33.884  31.773  27.937  1.00  0.00    -0.246 OA
BRANCH  20  22
ATOM     22  C   UNL A   1      35.550  30.068  28.022  1.00  0.00     0.060 A 
ATOM     23  C   UNL A   1      35.883  29.599  29.289  1.00  0.00     0.016 A 
ATOM     24  C   UNL A   1      36.534  30.152  27.040  1.00  0.00     0.016 A 
ATOM     25  C   UNL A   1      37.221  29.356  29.606  1.00  0.00     0.010 A 
ATOM     26  C   UNL A   1      37.849  29.756  27.330  1.00  0.00     0.010 A 
ATOM     27  C   UNL A   1      38.232  29.392  28.633  1.00  0.00    -0.014 A 
BRANCH  27  28
ATOM     28  C   UNL A   1      39.659  29.061  28.972  1.00  0.00     0.031 A 
ATOM     29  C   UNL A   1      40.574  30.097  29.599  1.00  0.00     0.074 A 
ATOM     30  C   UNL A   1      40.169  27.835  28.714  1.00  0.00     0.049 A 
ATOM     31  N   UNL A   1      41.883  30.102  29.685  1.00  0.00    -0.248 NA
ATOM     32  C   UNL A   1      39.940  31.287  30.190  1.00  0.00     0.031 C 
ATOM     33  C   UNL A   1      39.428  26.691  28.176  1.00  0.00     0.029 A 
ATOM     34  N   UNL A   1      41.444  27.338  28.876  1.00  0.00    -0.354 N 
ATOM     35  C   UNL A   1      42.230  31.324  30.257  1.00  0.00     0.074 A 
ATOM     36  C   UNL A   1      40.993  32.031  30.507  1.00  0.00     0.031 C 
ATOM     37  C   UNL A   1      40.231  25.621  28.121  1.00  0.00     0.029 A 
ATOM     38  C   UNL A   1      41.584  26.034  28.456  1.00  0.00     0.049 A 
ATOM     39  H   UNL A   1      42.185  27.865  29.255  1.00  0.00     0.167 HD
ATOM     40  C   UNL A   1      43.466  31.814  30.535  1.00  0.00     0.031 A 
ATOM     41  C   UNL A   1      42.672  25.263  28.264  1.00  0.00     0.031 A 
ATOM     42  C   UNL A   1      44.692  31.077  30.342  1.00  0.00     0.049 A 
ATOM     43  C   UNL A   1      44.032  25.844  28.508  1.00  0.00     0.074 A 
ATOM     44  C   UNL A   1      45.990  31.482  30.606  1.00  0.00     0.029 A 
ATOM     45  N   UNL A   1      44.774  29.779  29.862  1.00  0.00    -0.354 N 
ATOM     46  N   UNL A   1      44.347  27.038  28.950  1.00  0.00    -0.248 NA
ATOM     47  C   UNL A   1      45.182  24.985  28.204  1.00  0.00     0.031 C 
ATOM     48  C   UNL A   1      46.859  30.452  30.230  1.00  0.00     0.029 A 
ATOM     49  C   UNL A   1      46.100  29.378  29.800  1.00  0.00     0.049 A 
ATOM     50  H   UNL A   1      44.004  29.224  29.601  1.00  0.00     0.167 HD
ATOM     51  C   UNL A   1      45.735  27.066  28.992  1.00  0.00     0.074 A 
ATOM     52  C   UNL A   1      46.196  25.765  28.552  1.00  0.00     0.031 C 
ATOM     53  C   UNL A   1      46.552  28.083  29.360  1.00  0.00     0.031 A 
BRANCH  40  54
ATOM     54  C   UNL A   1      43.578  33.241  31.026  1.00  0.00    -0.014 A 
ATOM     55  C   UNL A   1      43.601  33.565  32.393  1.00  0.00     0.010 A 
ATOM     56  C   UNL A   1      43.737  34.277  30.083  1.00  0.00     0.010 A 
ATOM     57  C   UNL A   1      43.745  34.895  32.807  1.00  0.00     0.020 A 
ATOM     58  C   UNL A   1      43.912  35.604  30.491  1.00  0.00     0.020 A 
ATOM     59  C   UNL A   1      43.897  35.907  31.852  1.00  0.00     0.054 A 
BRANCH  59  60
ATOM     60  S   UNL A   1      44.108  37.620  32.415  1.00  0.00     0.124 S 
ATOM     61  O   UNL A   1      43.893  38.373  31.181  1.00  0.00    -0.237 OA
ATOM     62  O   UNL A   1      43.060  37.758  33.423  1.00  0.00    -0.237 OA
ATOM     63  O   UNL A   1      45.473  37.654  32.932  1.00  0.00    -0.744 OA
ENDBRANCH  59  60
ENDBRANCH  40  54
BRANCH  41  64
ATOM     64  C   UNL A   1      42.511  23.887  27.715  1.00  0.00    -0.014 A 
ATOM     65  C   UNL A   1      42.703  23.630  26.347  1.00  0.00     0.010 A 
ATOM     66  C   UNL A   1      42.201  22.813  28.574  1.00  0.00     0.010 A 
ATOM     67  C   UNL A   1      42.588  22.328  25.850  1.00  0.00     0.020 A 
ATOM     68  C   UNL A   1      42.126  21.506  28.088  1.00  0.00     0.020 A 
ATOM     69  C   UNL A   1      42.310  21.274  26.725  1.00  0.00     0.054 A 
BRANCH  69  70
ATOM     70  S   UNL A   1      42.239  19.583  26.071  1.00  0.00     0.124 S 
ATOM     71  O   UNL A   1      43.094  19.678  24.892  1.00  0.00    -0.237 OA
ATOM     72  O   UNL A   1      42.771  18.793  27.179  1.00  0.00    -0.237 OA
ATOM     73  O   UNL A   1      40.817  19.380  25.801  1.00  0.00    -0.744 OA
ENDBRANCH  69  70
ENDBRANCH  41  64
BRANCH  53  74
ATOM     74  C   UNL A   1      48.033  27.809  29.352  1.00  0.00    -0.014 A 
ATOM     75  C   UNL A   1      48.775  27.825  28.158  1.00  0.00     0.010 A 
ATOM     76  C   UNL A   1      48.695  27.559  30.568  1.00  0.00     0.010 A 
ATOM     77  C   UNL A   1      50.148  27.558  28.178  1.00  0.00     0.020 A 
ATOM     78  C   UNL A   1      50.071  27.322  30.594  1.00  0.00     0.020 A 
ATOM     79  C   UNL A   1      50.786  27.308  29.396  1.00  0.00     0.054 A 
BRANCH  79  80
ATOM     80  S   UNL A   1      52.574  26.999  29.398  1.00  0.00     0.124 S 
ATOM     81  O   UNL A   1      52.679  25.828  30.265  1.00  0.00    -0.237 OA
ATOM     82  O   UNL A   1      52.859  26.763  27.985  1.00  0.00    -0.237 OA
ATOM     83  O   UNL A   1      53.139  28.230  29.944  1.00  0.00    -0.744 OA
ENDBRANCH  79  80
ENDBRANCH  53  74
ENDBRANCH  27  28
ENDBRANCH  20  22
ENDBRANCH  19  20
ENDBRANCH   1  19
TORSDOF 16
ENDMDL
MODEL 2
REMARK VINA RESULT:      -9.6      4.103      6.393
REMARK SMILES C[C@H]1CN([C@@H](C(=O)OCCOC(=O)c2ccc(-c3c4nc(c(-c5ccc(S(=O)(=O)[O-])cc5)c5ccc([nH]5)c(-c5ccc(S(=O)(=O)[O-])cc5)c5nc(c(-c6ccc(S(=O)(=O)[O-])cc6)c6ccc3[nH]6)C=C5)C=C4)cc2)C(C)(C)C)S(=O)(=O)C1
REMARK SMILES IDX 10 1 9 2 8 3 6 4 7 5 5 6 4 7 1 8 2 9 3 10 81 11 78 12 79 13
REMARK SMILES IDX 80 14 74 15 75 16 76 17 77 18 11 19 12 20 13 21 14 22 15 23
REMARK SMILES IDX 73 24 16 25 72 26 17 27 18 28 19 29 66 30 20 31 71 32 65 33
REMARK SMILES IDX 67 34 21 35 70 36 64 37 63 38 22 40 52 41 33 42 51 43 34 44
REMARK SMILES IDX 37 45 50 46 68 47 35 48 36 49 49 51 69 52 38 53 23 54 24 55
REMARK SMILES IDX 32 56 25 57 31 58 26 59 27 60 28 61 29 62 30 63 53 64 54 65
REMARK SMILES IDX 62 66 55 67 61 68 56 69 57 70 58 71 59 72 60 73 39 74 40 75
REMARK SMILES IDX 48 76 41 77 47 78 42 79 43 80 44 81 45 82 46 83
REMARK H PARENT 67 39 37 50
REMARK Flexibility Score: inf
ROOT
ATOM      1  C   UNL A   1      34.818  29.896  27.634  1.00  0.00     0.275 C 
ENDROOT
BRANCH   1   2
ATOM      2  C   UNL A   1      34.525  31.390  27.701  1.00  0.00     0.274 C 
BRANCH   2   3
ATOM      3  O   UNL A   1      34.304  31.774  29.076  1.00  0.00    -0.461 OA
BRANCH   3   4
ATOM      4  C   UNL A   1      35.206  32.623  29.651  1.00  0.00     0.325 C 
ATOM      5  O   UNL A   1      36.324  32.799  29.182  1.00  0.00    -0.250 OA
BRANCH   4   6
ATOM      6  C   UNL A   1      34.728  33.171  31.031  1.00  0.00     0.188 C 
BRANCH   6   7
ATOM      7  N   UNL A   1      34.026  34.487  30.858  1.00  0.00    -0.187 NA
ATOM      8  C   UNL A   1      31.654  35.856  32.417  1.00  0.00     0.010 C 
ATOM      9  C   UNL A   1      32.938  36.413  31.789  1.00  0.00     0.017 C 
ATOM     10  C   UNL A   1      34.151  35.476  31.942  1.00  0.00     0.107 C 
ATOM     11  C   UNL A   1      32.762  36.655  30.288  1.00  0.00     0.159 C 
ATOM     12  S   UNL A   1      33.448  35.221  29.468  1.00  0.00     0.215 S 
ATOM     13  O   UNL A   1      34.584  35.686  28.698  1.00  0.00    -0.212 OA
ATOM     14  O   UNL A   1      32.386  34.435  28.906  1.00  0.00    -0.212 OA
ENDBRANCH   6   7
BRANCH   6  15
ATOM     15  C   UNL A   1      35.736  32.991  32.244  1.00  0.00    -0.011 C 
ATOM     16  C   UNL A   1      34.998  33.265  33.575  1.00  0.00     0.013 C 
ATOM     17  C   UNL A   1      36.238  31.526  32.376  1.00  0.00     0.013 C 
ATOM     18  C   UNL A   1      36.991  33.875  32.206  1.00  0.00     0.013 C 
ENDBRANCH   6  15
ENDBRANCH   4   6
ENDBRANCH   3   4
ENDBRANCH   2   3
ENDBRANCH   1   2
BRANCH   1  19
ATOM     19  O   UNL A   1      36.243  29.722  27.591  1.00  0.00    -0.458 OA
BRANCH  19  20
ATOM     20  C   UNL A   1      36.819  29.348  28.759  1.00  0.00     0.338 C 
ATOM     21  O   UNL A   1      36.287  29.317  29.856  1.00  0.00    -0.246 OA
BRANCH  20  22
ATOM     22  C   UNL A   1      38.221  28.953  28.507  1.00  0.00     0.060 A 
ATOM     23  C   UNL A   1      38.952  28.302  29.495  1.00  0.00     0.016 A 
ATOM     24  C   UNL A   1      38.856  29.352  27.334  1.00  0.00     0.016 A 
ATOM     25  C   UNL A   1      40.337  28.184  29.366  1.00  0.00     0.010 A 
ATOM     26  C   UNL A   1      40.223  29.088  27.151  1.00  0.00     0.010 A 
ATOM     27  C   UNL A   1      41.004  28.538  28.183  1.00  0.00    -0.014 A 
BRANCH  27  28
ATOM     28  C   UNL A   1      42.487  28.342  28.030  1.00  0.00     0.031 A 
ATOM     29  C   UNL A   1      43.464  29.444  28.401  1.00  0.00     0.074 A 
ATOM     30  C   UNL A   1      42.990  27.184  27.544  1.00  0.00     0.049 A 
ATOM     31  N   UNL A   1      44.724  29.578  28.067  1.00  0.00    -0.248 NA
ATOM     32  C   UNL A   1      42.954  30.543  29.238  1.00  0.00     0.031 C 
ATOM     33  C   UNL A   1      42.215  25.990  27.195  1.00  0.00     0.029 A 
ATOM     34  N   UNL A   1      44.286  26.814  27.261  1.00  0.00    -0.354 N 
ATOM     35  C   UNL A   1      45.132  30.810  28.578  1.00  0.00     0.074 A 
ATOM     36  C   UNL A   1      43.985  31.378  29.253  1.00  0.00     0.031 C 
ATOM     37  C   UNL A   1      43.046  25.010  26.819  1.00  0.00     0.029 A 
ATOM     38  C   UNL A   1      44.394  25.546  26.734  1.00  0.00     0.049 A 
ATOM     39  H   UNL A   1      45.062  27.400  27.420  1.00  0.00     0.167 HD
ATOM     40  C   UNL A   1      46.345  31.413  28.481  1.00  0.00     0.031 A 
ATOM     41  C   UNL A   1      45.424  24.897  26.158  1.00  0.00     0.031 A 
ATOM     42  C   UNL A   1      47.502  30.811  27.862  1.00  0.00     0.049 A 
ATOM     43  C   UNL A   1      46.735  25.604  25.995  1.00  0.00     0.074 A 
ATOM     44  C   UNL A   1      48.777  31.337  27.727  1.00  0.00     0.029 A 
ATOM     45  N   UNL A   1      47.535  29.545  27.297  1.00  0.00    -0.354 N 
ATOM     46  N   UNL A   1      47.073  26.808  26.391  1.00  0.00    -0.248 NA
ATOM     47  C   UNL A   1      47.795  24.877  25.287  1.00  0.00     0.031 C 
ATOM     48  C   UNL A   1      49.563  30.414  27.029  1.00  0.00     0.029 A 
ATOM     49  C   UNL A   1      48.800  29.284  26.792  1.00  0.00     0.049 A 
ATOM     50  H   UNL A   1      46.772  28.924  27.259  1.00  0.00     0.167 HD
ATOM     51  C   UNL A   1      48.393  26.975  25.992  1.00  0.00     0.074 A 
ATOM     52  C   UNL A   1      48.797  25.744  25.346  1.00  0.00     0.031 C 
ATOM     53  C   UNL A   1      49.195  28.057  26.148  1.00  0.00     0.031 A 
BRANCH  40  54
ATOM     54  C   UNL A   1      46.487  32.825  29.004  1.00  0.00    -0.014 A 
ATOM     55  C   UNL A   1      46.820  33.102  30.341  1.00  0.00     0.010 A 
ATOM     56  C   UNL A   1      46.352  33.903  28.104  1.00  0.00     0.010 A 
ATOM     57  C   UNL A   1      46.980  34.424  30.775  1.00  0.00     0.020 A 
ATOM     58  C   UNL A   1      46.541  35.223  28.525  1.00  0.00     0.020 A 
ATOM     59  C   UNL A   1      46.837  35.477  29.864  1.00  0.00     0.054 A 
BRANCH  59  60
ATOM     60  S   UNL A   1      47.074  37.180  30.447  1.00  0.00     0.124 S 
ATOM     61  O   UNL A   1      46.611  37.959  29.301  1.00  0.00    -0.237 OA
ATOM     62  O   UNL A   1      46.220  37.237  31.630  1.00  0.00    -0.237 OA
ATOM     63  O   UNL A   1      48.508  37.262  30.713  1.00  0.00    -0.744 OA
ENDBRANCH  59  60
ENDBRANCH  40  54
BRANCH  41  64
ATOM     64  C   UNL A   1      45.213  23.531  25.599  1.00  0.00    -0.014 A 
ATOM     65  C   UNL A   1      44.764  23.354  24.280  1.00  0.00     0.010 A 
ATOM     66  C   UNL A   1      45.500  22.394  26.381  1.00  0.00     0.010 A 
ATOM     67  C   UNL A   1      44.607  22.067  23.754  1.00  0.00     0.020 A 
ATOM     68  C   UNL A   1      45.385  21.109  25.846  1.00  0.00     0.020 A 
ATOM     69  C   UNL A   1      44.928  20.954  24.538  1.00  0.00     0.054 A 
BRANCH  69  70
ATOM     70  S   UNL A   1      44.788  19.298  23.811  1.00  0.00     0.124 S 
ATOM     71  O   UNL A   1      46.093  18.721  24.118  1.00  0.00    -0.237 OA
ATOM     72  O   UNL A   1      43.656  18.729  24.538  1.00  0.00    -0.237 OA
ATOM     73  O   UNL A   1      44.536  19.565  22.397  1.00  0.00    -0.744 OA
ENDBRANCH  69  70
ENDBRANCH  41  64
BRANCH  53  74
ATOM     74  C   UNL A   1      50.613  27.936  25.653  1.00  0.00    -0.014 A 
ATOM     75  C   UNL A   1      51.643  27.472  26.489  1.00  0.00     0.010 A 
ATOM     76  C   UNL A   1      50.908  28.269  24.318  1.00  0.00     0.010 A 
ATOM     77  C   UNL A   1      52.953  27.379  26.007  1.00  0.00     0.020 A 
ATOM     78  C   UNL A   1      52.210  28.147  23.826  1.00  0.00     0.020 A 
ATOM     79  C   UNL A   1      53.226  27.718  24.679  1.00  0.00     0.054 A 
BRANCH  79  80
ATOM     80  S   UNL A   1      54.928  27.554  24.069  1.00  0.00     0.124 S 
ATOM     81  O   UNL A   1      55.285  28.942  23.790  1.00  0.00    -0.237 OA
ATOM     82  O   UNL A   1      55.616  26.943  25.202  1.00  0.00    -0.237 OA
ATOM     83  O   UNL A   1      54.794  26.698  22.893  1.00  0.00    -0.744 OA
ENDBRANCH  79  80
ENDBRANCH  53  74
ENDBRANCH  27  28
ENDBRANCH  20  22
ENDBRANCH  19  20
ENDBRANCH   1  19
TORSDOF 16
ENDMDL
MODEL 3
REMARK VINA RESULT:      -9.6      3.844      9.037
REMARK SMILES C[C@H]1CN([C@@H](C(=O)OCCOC(=O)c2ccc(-c3c4nc(c(-c5ccc(S(=O)(=O)[O-])cc5)c5ccc([nH]5)c(-c5ccc(S(=O)(=O)[O-])cc5)c5nc(c(-c6ccc(S(=O)(=O)[O-])cc6)c6ccc3[nH]6)C=C5)C=C4)cc2)C(C)(C)C)S(=O)(=O)C1
REMARK SMILES IDX 10 1 9 2 8 3 6 4 7 5 5 6 4 7 1 8 2 9 3 10 81 11 78 12 79 13
REMARK SMILES IDX 80 14 74 15 75 16 76 17 77 18 11 19 12 20 13 21 14 22 15 23
REMARK SMILES IDX 73 24 16 25 72 26 17 27 18 28 19 29 66 30 20 31 71 32 65 33
REMARK SMILES IDX 67 34 21 35 70 36 64 37 63 38 22 40 52 41 33 42 51 43 34 44
REMARK SMILES IDX 37 45 50 46 68 47 35 48 36 49 49 51 69 52 38 53 23 54 24 55
REMARK SMILES IDX 32 56 25 57 31 58 26 59 27 60 28 61 29 62 30 63 53 64 54 65
REMARK SMILES IDX 62 66 55 67 61 68 56 69 57 70 58 71 59 72 60 73 39 74 40 75
REMARK SMILES IDX 48 76 41 77 47 78 42 79 43 80 44 81 45 82 46 83
REMARK H PARENT 67 39 37 50
REMARK Flexibility Score: inf
ROOT
ATOM      1  C   UNL A   1      32.345  29.966  26.919  1.00  0.00     0.275 C 
ENDROOT
BRANCH   1   2
ATOM      2  C   UNL A   1      32.414  28.502  27.332  1.00  0.00     0.274 C 
BRANCH   2   3
ATOM      3  O   UNL A   1      31.860  27.680  26.281  1.00  0.00    -0.461 OA
BRANCH   3   4
ATOM      4  C   UNL A   1      32.734  27.026  25.460  1.00  0.00     0.325 C 
ATOM      5  O   UNL A   1      33.827  27.495  25.167  1.00  0.00    -0.250 OA
BRANCH   4   6
ATOM      6  C   UNL A   1      32.115  25.750  24.810  1.00  0.00     0.188 C 
BRANCH   6   7
ATOM      7  N   UNL A   1      32.641  24.513  25.477  1.00  0.00    -0.187 NA
ATOM      8  C   UNL A   1      34.625  22.258  24.523  1.00  0.00     0.010 C 
ATOM      9  C   UNL A   1      34.417  22.948  25.877  1.00  0.00     0.017 C 
ATOM     10  C   UNL A   1      34.085  24.448  25.756  1.00  0.00     0.107 C 
ATOM     11  C   UNL A   1      33.263  22.310  26.654  1.00  0.00     0.159 C 
ATOM     12  S   UNL A   1      31.829  23.336  26.350  1.00  0.00     0.215 S 
ATOM     13  O   UNL A   1      31.447  23.905  27.627  1.00  0.00    -0.212 OA
ATOM     14  O   UNL A   1      30.911  22.638  25.494  1.00  0.00    -0.212 OA
ENDBRANCH   6   7
BRANCH   6  15
ATOM     15  C   UNL A   1      31.970  25.768  23.229  1.00  0.00    -0.011 C 
ATOM     16  C   UNL A   1      30.944  24.697  22.791  1.00  0.00     0.013 C 
ATOM     17  C   UNL A   1      31.375  27.107  22.710  1.00  0.00     0.013 C 
ATOM     18  C   UNL A   1      33.265  25.536  22.438  1.00  0.00     0.013 C 
ENDBRANCH   6  15
ENDBRANCH   4   6
ENDBRANCH   3   4
ENDBRANCH   2   3
ENDBRANCH   1   2
BRANCH   1  19
ATOM     19  O   UNL A   1      33.687  30.439  26.722  1.00  0.00    -0.458 OA
BRANCH  19  20
ATOM     20  C   UNL A   1      34.118  31.357  27.621  1.00  0.00     0.338 C 
ATOM     21  O   UNL A   1      33.514  32.347  27.996  1.00  0.00    -0.246 OA
BRANCH  20  22
ATOM     22  C   UNL A   1      35.456  30.967  28.113  1.00  0.00     0.060 A 
ATOM     23  C   UNL A   1      35.647  29.725  28.710  1.00  0.00     0.016 A 
ATOM     24  C   UNL A   1      36.497  31.892  28.105  1.00  0.00     0.016 A 
ATOM     25  C   UNL A   1      36.823  29.472  29.418  1.00  0.00     0.010 A 
ATOM     26  C   UNL A   1      37.731  31.565  28.688  1.00  0.00     0.010 A 
ATOM     27  C   UNL A   1      37.907  30.364  29.398  1.00  0.00    -0.014 A 
BRANCH  27  28
ATOM     28  C   UNL A   1      39.194  30.050  30.108  1.00  0.00     0.031 A 
ATOM     29  C   UNL A   1      40.131  28.973  29.590  1.00  0.00     0.074 A 
ATOM     30  C   UNL A   1      39.547  30.711  31.235  1.00  0.00     0.049 A 
ATOM     31  N   UNL A   1      41.112  28.362  30.209  1.00  0.00    -0.248 NA
ATOM     32  C   UNL A   1      39.928  28.512  28.207  1.00  0.00     0.031 C 
ATOM     33  C   UNL A   1      38.810  31.820  31.848  1.00  0.00     0.029 A 
ATOM     34  N   UNL A   1      40.628  30.547  32.073  1.00  0.00    -0.354 N 
ATOM     35  C   UNL A   1      41.584  27.392  29.327  1.00  0.00     0.074 A 
ATOM     36  C   UNL A   1      40.786  27.503  28.125  1.00  0.00     0.031 C 
ATOM     37  C   UNL A   1      39.488  32.278  32.907  1.00  0.00     0.029 A 
ATOM     38  C   UNL A   1      40.617  31.396  33.157  1.00  0.00     0.049 A 
ATOM     39  H   UNL A   1      41.340  29.886  31.914  1.00  0.00     0.167 HD
ATOM     40  C   UNL A   1      42.580  26.486  29.509  1.00  0.00     0.031 A 
ATOM     41  C   UNL A   1      41.358  31.429  34.281  1.00  0.00     0.031 A 
ATOM     42  C   UNL A   1      43.413  26.425  30.686  1.00  0.00     0.049 A 
ATOM     43  C   UNL A   1      42.405  30.379  34.498  1.00  0.00     0.074 A 
ATOM     44  C   UNL A   1      44.455  25.553  30.957  1.00  0.00     0.029 A 
ATOM     45  N   UNL A   1      43.318  27.278  31.775  1.00  0.00    -0.354 N 
ATOM     46  N   UNL A   1      42.767  29.404  33.698  1.00  0.00    -0.248 NA
ATOM     47  C   UNL A   1      43.125  30.416  35.776  1.00  0.00     0.031 C 
ATOM     48  C   UNL A   1      44.951  25.841  32.233  1.00  0.00     0.029 A 
ATOM     49  C   UNL A   1      44.266  26.938  32.728  1.00  0.00     0.049 A 
ATOM     50  H   UNL A   1      42.672  28.015  31.859  1.00  0.00     0.167 HD
ATOM     51  C   UNL A   1      43.771  28.722  34.373  1.00  0.00     0.074 A 
ATOM     52  C   UNL A   1      43.973  29.407  35.634  1.00  0.00     0.031 C 
ATOM     53  C   UNL A   1      44.461  27.622  33.981  1.00  0.00     0.031 A 
BRANCH  40  54
ATOM     54  C   UNL A   1      42.800  25.439  28.440  1.00  0.00    -0.014 A 
ATOM     55  C   UNL A   1      43.715  25.619  27.389  1.00  0.00     0.010 A 
ATOM     56  C   UNL A   1      42.119  24.208  28.539  1.00  0.00     0.010 A 
ATOM     57  C   UNL A   1      43.918  24.608  26.441  1.00  0.00     0.020 A 
ATOM     58  C   UNL A   1      42.341  23.183  27.614  1.00  0.00     0.020 A 
ATOM     59  C   UNL A   1      43.227  23.397  26.558  1.00  0.00     0.054 A 
BRANCH  59  60
ATOM     60  S   UNL A   1      43.527  22.093  25.331  1.00  0.00     0.124 S 
ATOM     61  O   UNL A   1      44.882  21.663  25.671  1.00  0.00    -0.237 OA
ATOM     62  O   UNL A   1      42.472  21.127  25.624  1.00  0.00    -0.237 OA
ATOM     63  O   UNL A   1      43.398  22.781  24.050  1.00  0.00    -0.744 OA
ENDBRANCH  59  60
ENDBRANCH  40  54
BRANCH  41  64
ATOM     64  C   UNL A   1      41.056  32.441  35.334  1.00  0.00    -0.014 A 
ATOM     65  C   UNL A   1      41.746  33.664  35.377  1.00  0.00     0.010 A 
ATOM     66  C   UNL A   1      40.042  32.196  36.282  1.00  0.00     0.010 A 
ATOM     67  C   UNL A   1      41.426  34.622  36.345  1.00  0.00     0.020 A 
ATOM     68  C   UNL A   1      39.692  33.165  37.223  1.00  0.00     0.020 A 
ATOM     69  C   UNL A   1      40.395  34.369  37.255  1.00  0.00     0.054 A 
BRANCH  69  70
ATOM     70  S   UNL A   1      39.948  35.655  38.455  1.00  0.00     0.124 S 
ATOM     71  O   UNL A   1      38.803  35.054  39.131  1.00  0.00    -0.237 OA
ATOM     72  O   UNL A   1      41.164  35.777  39.255  1.00  0.00    -0.237 OA
ATOM     73  O   UNL A   1      39.646  36.814  37.618  1.00  0.00    -0.744 OA
ENDBRANCH  69  70
ENDBRANCH  41  64
BRANCH  53  74
ATOM     74  C   UNL A   1      45.537  27.122  34.908  1.00  0.00    -0.014 A 
ATOM     75  C   UNL A   1      45.270  26.145  35.882  1.00  0.00     0.010 A 
ATOM     76  C   UNL A   1      46.846  27.623  34.779  1.00  0.00     0.010 A 
ATOM     77  C   UNL A   1      46.286  25.705  36.736  1.00  0.00     0.020 A 
ATOM     78  C   UNL A   1      47.869  27.163  35.610  1.00  0.00     0.020 A 
ATOM     79  C   UNL A   1      47.579  26.218  36.594  1.00  0.00     0.054 A 
BRANCH  79  80
ATOM     80  S   UNL A   1      48.887  25.604  37.692  1.00  0.00     0.124 S 
ATOM     81  O   UNL A   1      48.158  24.658  38.533  1.00  0.00    -0.237 OA
ATOM     82  O   UNL A   1      49.837  25.010  36.757  1.00  0.00    -0.237 OA
ATOM     83  O   UNL A   1      49.360  26.806  38.374  1.00  0.00    -0.744 OA
ENDBRANCH  79  80
ENDBRANCH  53  74
ENDBRANCH  27  28
ENDBRANCH  20  22
ENDBRANCH  19  20
ENDBRANCH   1  19
TORSDOF 16
ENDMDL
