MODEL 1
REMARK VINA RESULT:     -10.3      0.000      0.000
REMARK SMILES C[N@@H+]1CCC[C@@H](NC(=O)N(CC(=O)OCCOC(=O)c2ccc(-c3c4nc(c(-c5ccc(S(=O)(=O)[O-])cc5)c5ccc([nH]5)c(-c5ccc(S(=O)(=O)[O-])cc5)c5nc(c(-c6ccc(S(=O)(=O)[O-])cc6)c6ccc3[nH]6)C=C5)C=C4)cc2)C(C)(C)C)C1
REMARK SMILES IDX 15 1 14 2 12 3 13 4 11 5 10 6 8 7 7 8 9 10 6 11 1 12 2 13
REMARK SMILES IDX 3 14 84 15 4 17 5 18 80 19 81 20 82 21 83 22 16 23 17 24
REMARK SMILES IDX 18 25 19 26 20 27 21 28 79 29 22 30 78 31 23 32 24 33 25 34
REMARK SMILES IDX 72 35 26 36 77 37 71 38 73 39 27 40 76 41 70 42 69 43 28 45
REMARK SMILES IDX 58 46 39 47 57 48 40 49 43 50 56 51 74 52 41 53 42 54 55 56
REMARK SMILES IDX 75 57 44 58 29 59 30 60 38 61 31 62 37 63 32 64 33 65 34 66
REMARK SMILES IDX 35 67 36 68 59 69 60 70 68 71 61 72 67 73 62 74 63 75 64 76
REMARK SMILES IDX 65 77 66 78 45 79 46 80 54 81 47 82 53 83 48 84 49 85 50 86
REMARK SMILES IDX 51 87 52 88
REMARK H PARENT 7 9 2 16 73 44 43 55
REMARK Flexibility Score: inf
ROOT
ATOM      1  C   UNL A   1      31.932  29.522  25.655  1.00  0.00     0.274 C 
ENDROOT
BRANCH   1   2
ATOM      2  O   UNL A   1      33.052  29.695  24.766  1.00  0.00    -0.461 OA
BRANCH   2   3
ATOM      3  C   UNL A   1      33.370  28.594  24.034  1.00  0.00     0.325 C 
ATOM      4  O   UNL A   1      33.691  28.621  22.848  1.00  0.00    -0.250 OA
BRANCH   3   5
ATOM      5  C   UNL A   1      33.399  27.292  24.839  1.00  0.00     0.244 C 
BRANCH   5   6
ATOM      6  N   UNL A   1      32.921  26.091  24.161  1.00  0.00    -0.309 N 
BRANCH   6   7
ATOM      7  C   UNL A   1      33.750  25.321  23.374  1.00  0.00     0.318 C 
ATOM      8  N   UNL A   1      34.666  24.460  23.858  1.00  0.00    -0.330 N 
ATOM      9  H   UNL A   1      35.119  24.007  23.111  1.00  0.00     0.165 HD
ATOM     10  O   UNL A   1      33.713  25.352  22.140  1.00  0.00    -0.249 OA
BRANCH   8  11
ATOM     11  C   UNL A   1      35.214  23.974  25.132  1.00  0.00     0.139 C 
ATOM     12  C   UNL A   1      33.631  20.555  25.647  1.00  0.00     0.332 C 
ATOM     13  N   UNL A   1      34.469  21.573  25.006  1.00  0.00    -0.336 N 
ATOM     14  C   UNL A   1      35.868  21.128  24.965  1.00  0.00     0.262 C 
ATOM     15  C   UNL A   1      34.344  22.850  25.735  1.00  0.00     0.287 C 
ATOM     16  H   UNL A   1      34.154  21.712  24.046  1.00  0.00     0.347 HD
ATOM     17  C   UNL A   1      36.750  22.157  24.261  1.00  0.00     0.064 C 
ATOM     18  C   UNL A   1      36.666  23.517  24.944  1.00  0.00     0.037 C 
ENDBRANCH   8  11
ENDBRANCH   6   7
BRANCH   6  19
ATOM     19  C   UNL A   1      31.482  25.649  24.372  1.00  0.00     0.037 C 
ATOM     20  C   UNL A   1      31.035  25.919  25.825  1.00  0.00     0.034 C 
ATOM     21  C   UNL A   1      30.541  26.380  23.382  1.00  0.00     0.034 C 
ATOM     22  C   UNL A   1      31.224  24.137  24.126  1.00  0.00     0.034 C 
ENDBRANCH   6  19
ENDBRANCH   5   6
ENDBRANCH   3   5
ENDBRANCH   2   3
ENDBRANCH   1   2
BRANCH   1  23
ATOM     23  C   UNL A   1      32.245  30.056  27.052  1.00  0.00     0.275 C 
BRANCH  23  24
ATOM     24  O   UNL A   1      33.556  29.631  27.470  1.00  0.00    -0.458 OA
BRANCH  24  25
ATOM     25  C   UNL A   1      34.335  30.593  28.015  1.00  0.00     0.338 C 
ATOM     26  O   UNL A   1      33.997  31.740  28.280  1.00  0.00    -0.246 OA
BRANCH  25  27
ATOM     27  C   UNL A   1      35.698  30.089  28.287  1.00  0.00     0.060 A 
ATOM     28  C   UNL A   1      36.103  29.701  29.568  1.00  0.00     0.016 A 
ATOM     29  C   UNL A   1      36.630  30.111  27.249  1.00  0.00     0.016 A 
ATOM     30  C   UNL A   1      37.446  29.420  29.829  1.00  0.00     0.010 A 
ATOM     31  C   UNL A   1      37.951  29.730  27.490  1.00  0.00     0.010 A 
ATOM     32  C   UNL A   1      38.382  29.405  28.788  1.00  0.00    -0.014 A 
BRANCH  32  33
ATOM     33  C   UNL A   1      39.807  29.039  29.015  1.00  0.00     0.031 A 
ATOM     34  C   UNL A   1      40.785  30.077  29.498  1.00  0.00     0.074 A 
ATOM     35  C   UNL A   1      40.246  27.800  28.720  1.00  0.00     0.049 A 
ATOM     36  N   UNL A   1      42.093  30.044  29.492  1.00  0.00    -0.248 NA
ATOM     37  C   UNL A   1      40.216  31.320  30.043  1.00  0.00     0.031 C 
ATOM     38  C   UNL A   1      39.410  26.677  28.290  1.00  0.00     0.029 A 
ATOM     39  N   UNL A   1      41.519  27.284  28.717  1.00  0.00    -0.354 N 
ATOM     40  C   UNL A   1      42.505  31.286  29.965  1.00  0.00     0.074 A 
ATOM     41  C   UNL A   1      41.307  32.042  30.262  1.00  0.00     0.031 C 
ATOM     42  C   UNL A   1      40.187  25.602  28.084  1.00  0.00     0.029 A 
ATOM     43  C   UNL A   1      41.581  25.984  28.275  1.00  0.00     0.049 A 
ATOM     44  H   UNL A   1      42.310  27.795  29.005  1.00  0.00     0.167 HD
ATOM     45  C   UNL A   1      43.767  31.754  30.124  1.00  0.00     0.031 A 
ATOM     46  C   UNL A   1      42.637  25.197  27.997  1.00  0.00     0.031 A 
ATOM     47  C   UNL A   1      44.955  30.988  29.858  1.00  0.00     0.049 A 
ATOM     48  C   UNL A   1      44.026  25.745  28.139  1.00  0.00     0.074 A 
ATOM     49  C   UNL A   1      46.279  31.369  30.008  1.00  0.00     0.029 A 
ATOM     50  N   UNL A   1      44.967  29.681  29.398  1.00  0.00    -0.354 N 
ATOM     51  N   UNL A   1      44.400  26.939  28.532  1.00  0.00    -0.248 NA
ATOM     52  C   UNL A   1      45.133  24.849  27.781  1.00  0.00     0.031 C 
ATOM     53  C   UNL A   1      47.089  30.301  29.606  1.00  0.00     0.029 A 
ATOM     54  C   UNL A   1      46.271  29.242  29.245  1.00  0.00     0.049 A 
ATOM     55  H   UNL A   1      44.165  29.141  29.207  1.00  0.00     0.167 HD
ATOM     56  C   UNL A   1      45.788  26.933  28.484  1.00  0.00     0.074 A 
ATOM     57  C   UNL A   1      46.187  25.616  28.029  1.00  0.00     0.031 C 
ATOM     58  C   UNL A   1      46.653  27.930  28.791  1.00  0.00     0.031 A 
BRANCH  45  59
ATOM     59  C   UNL A   1      43.924  33.188  30.555  1.00  0.00    -0.014 A 
ATOM     60  C   UNL A   1      44.057  33.541  31.908  1.00  0.00     0.010 A 
ATOM     61  C   UNL A   1      43.956  34.200  29.577  1.00  0.00     0.010 A 
ATOM     62  C   UNL A   1      44.173  34.883  32.281  1.00  0.00     0.020 A 
ATOM     63  C   UNL A   1      44.094  35.541  29.943  1.00  0.00     0.020 A 
ATOM     64  C   UNL A   1      44.180  35.876  31.295  1.00  0.00     0.054 A 
BRANCH  64  65
ATOM     65  S   UNL A   1      44.328  37.613  31.798  1.00  0.00     0.124 S 
ATOM     66  O   UNL A   1      43.828  38.311  30.616  1.00  0.00    -0.237 OA
ATOM     67  O   UNL A   1      43.471  37.684  32.979  1.00  0.00    -0.237 OA
ATOM     68  O   UNL A   1      45.756  37.775  32.061  1.00  0.00    -0.744 OA
ENDBRANCH  64  65
ENDBRANCH  45  59
BRANCH  46  69
ATOM     69  C   UNL A   1      42.402  23.808  27.519  1.00  0.00    -0.014 A 
ATOM     70  C   UNL A   1      42.502  23.507  26.152  1.00  0.00     0.010 A 
ATOM     71  C   UNL A   1      42.150  22.771  28.437  1.00  0.00     0.010 A 
ATOM     72  C   UNL A   1      42.369  22.189  25.709  1.00  0.00     0.020 A 
ATOM     73  C   UNL A   1      42.039  21.449  28.000  1.00  0.00     0.020 A 
ATOM     74  C   UNL A   1      42.148  21.166  26.638  1.00  0.00     0.054 A 
BRANCH  74  75
ATOM     75  S   UNL A   1      42.087  19.449  26.054  1.00  0.00     0.124 S 
ATOM     76  O   UNL A   1      42.603  18.718  27.207  1.00  0.00    -0.237 OA
ATOM     77  O   UNL A   1      40.667  19.260  25.766  1.00  0.00    -0.237 OA
ATOM     78  O   UNL A   1      42.954  19.461  24.877  1.00  0.00    -0.744 OA
ENDBRANCH  74  75
ENDBRANCH  46  69
BRANCH  58  79
ATOM     79  C   UNL A   1      48.120  27.623  28.685  1.00  0.00    -0.014 A 
ATOM     80  C   UNL A   1      48.830  27.870  27.497  1.00  0.00     0.010 A 
ATOM     81  C   UNL A   1      48.805  27.124  29.807  1.00  0.00     0.010 A 
ATOM     82  C   UNL A   1      50.199  27.603  27.428  1.00  0.00     0.020 A 
ATOM     83  C   UNL A   1      50.177  26.872  29.747  1.00  0.00     0.020 A 
ATOM     84  C   UNL A   1      50.864  27.101  28.552  1.00  0.00     0.054 A 
BRANCH  84  85
ATOM     85  S   UNL A   1      52.651  26.803  28.456  1.00  0.00     0.124 S 
ATOM     86  O   UNL A   1      53.021  26.719  29.866  1.00  0.00    -0.237 OA
ATOM     87  O   UNL A   1      52.731  25.550  27.709  1.00  0.00    -0.237 OA
ATOM     88  O   UNL A   1      53.158  27.977  27.747  1.00  0.00    -0.744 OA
ENDBRANCH  84  85
ENDBRANCH  58  79
ENDBRANCH  32  33
ENDBRANCH  25  27
ENDBRANCH  24  25
ENDBRANCH  23  24
ENDBRANCH   1  23
TORSDOF 18
ENDMDL
MODEL 2
REMARK VINA RESULT:      -9.7      3.679      9.775
REMARK SMILES C[N@@H+]1CCC[C@@H](NC(=O)N(CC(=O)OCCOC(=O)c2ccc(-c3c4nc(c(-c5ccc(S(=O)(=O)[O-])cc5)c5ccc([nH]5)c(-c5ccc(S(=O)(=O)[O-])cc5)c5nc(c(-c6ccc(S(=O)(=O)[O-])cc6)c6ccc3[nH]6)C=C5)C=C4)cc2)C(C)(C)C)C1
REMARK SMILES IDX 15 1 14 2 12 3 13 4 11 5 10 6 8 7 7 8 9 10 6 11 1 12 2 13
REMARK SMILES IDX 3 14 84 15 4 17 5 18 80 19 81 20 82 21 83 22 16 23 17 24
REMARK SMILES IDX 18 25 19 26 20 27 21 28 79 29 22 30 78 31 23 32 24 33 25 34
REMARK SMILES IDX 72 35 26 36 77 37 71 38 73 39 27 40 76 41 70 42 69 43 28 45
REMARK SMILES IDX 58 46 39 47 57 48 40 49 43 50 56 51 74 52 41 53 42 54 55 56
REMARK SMILES IDX 75 57 44 58 29 59 30 60 38 61 31 62 37 63 32 64 33 65 34 66
REMARK SMILES IDX 35 67 36 68 59 69 60 70 68 71 61 72 67 73 62 74 63 75 64 76
REMARK SMILES IDX 65 77 66 78 45 79 46 80 54 81 47 82 53 83 48 84 49 85 50 86
REMARK SMILES IDX 51 87 52 88
REMARK H PARENT 7 9 2 16 73 44 43 55
REMARK Flexibility Score: inf
ROOT
ATOM      1  C   UNL A   1      35.855  22.336  24.237  1.00  0.00     0.274 C 
ENDROOT
BRANCH   1   2
ATOM      2  O   UNL A   1      35.654  23.153  23.068  1.00  0.00    -0.461 OA
BRANCH   2   3
ATOM      3  C   UNL A   1      34.372  23.565  22.878  1.00  0.00     0.325 C 
ATOM      4  O   UNL A   1      34.057  24.590  22.277  1.00  0.00    -0.250 OA
BRANCH   3   5
ATOM      5  C   UNL A   1      33.315  22.584  23.390  1.00  0.00     0.244 C 
BRANCH   5   6
ATOM      6  N   UNL A   1      32.311  23.119  24.304  1.00  0.00    -0.309 N 
BRANCH   6   7
ATOM      7  C   UNL A   1      31.469  24.148  23.940  1.00  0.00     0.318 C 
ATOM      8  N   UNL A   1      31.612  25.422  24.352  1.00  0.00    -0.330 N 
ATOM      9  H   UNL A   1      30.909  25.979  23.945  1.00  0.00     0.165 HD
ATOM     10  O   UNL A   1      30.503  23.982  23.190  1.00  0.00    -0.249 OA
BRANCH   8  11
ATOM     11  C   UNL A   1      32.468  26.256  25.207  1.00  0.00     0.139 C 
ATOM     12  C   UNL A   1      34.195  28.665  22.825  1.00  0.00     0.332 C 
ATOM     13  N   UNL A   1      33.080  28.048  23.547  1.00  0.00    -0.336 N 
ATOM     14  C   UNL A   1      32.379  29.054  24.356  1.00  0.00     0.262 C 
ATOM     15  C   UNL A   1      33.583  26.949  24.394  1.00  0.00     0.287 C 
ATOM     16  H   UNL A   1      32.414  27.664  22.876  1.00  0.00     0.347 HD
ATOM     17  C   UNL A   1      31.185  28.437  25.083  1.00  0.00     0.064 C 
ATOM     18  C   UNL A   1      31.617  27.278  25.972  1.00  0.00     0.037 C 
ENDBRANCH   8  11
ENDBRANCH   6   7
BRANCH   6  19
ATOM     19  C   UNL A   1      32.156  22.489  25.679  1.00  0.00     0.037 C 
ATOM     20  C   UNL A   1      32.377  20.962  25.609  1.00  0.00     0.034 C 
ATOM     21  C   UNL A   1      33.151  23.125  26.682  1.00  0.00     0.034 C 
ATOM     22  C   UNL A   1      30.757  22.682  26.328  1.00  0.00     0.034 C 
ENDBRANCH   6  19
ENDBRANCH   5   6
ENDBRANCH   3   5
ENDBRANCH   2   3
ENDBRANCH   1   2
BRANCH   1  23
ATOM     23  C   UNL A   1      36.658  23.080  25.303  1.00  0.00     0.275 C 
BRANCH  23  24
ATOM     24  O   UNL A   1      38.046  23.150  24.928  1.00  0.00    -0.458 OA
BRANCH  24  25
ATOM     25  C   UNL A   1      38.933  22.940  25.928  1.00  0.00     0.338 C 
ATOM     26  O   UNL A   1      39.452  21.871  26.227  1.00  0.00    -0.246 OA
BRANCH  25  27
ATOM     27  C   UNL A   1      39.241  24.195  26.645  1.00  0.00     0.060 A 
ATOM     28  C   UNL A   1      40.034  25.197  26.078  1.00  0.00     0.016 A 
ATOM     29  C   UNL A   1      38.812  24.323  27.966  1.00  0.00     0.016 A 
ATOM     30  C   UNL A   1      40.468  26.276  26.853  1.00  0.00     0.010 A 
ATOM     31  C   UNL A   1      39.162  25.453  28.707  1.00  0.00     0.010 A 
ATOM     32  C   UNL A   1      40.015  26.431  28.168  1.00  0.00    -0.014 A 
BRANCH  32  33
ATOM     33  C   UNL A   1      40.397  27.606  28.999  1.00  0.00     0.031 A 
ATOM     34  C   UNL A   1      41.660  27.572  29.819  1.00  0.00     0.074 A 
ATOM     35  C   UNL A   1      39.581  28.675  29.081  1.00  0.00     0.049 A 
ATOM     36  N   UNL A   1      42.026  28.353  30.804  1.00  0.00    -0.248 NA
ATOM     37  C   UNL A   1      42.628  26.511  29.501  1.00  0.00     0.031 C 
ATOM     38  C   UNL A   1      38.352  28.873  28.311  1.00  0.00     0.029 A 
ATOM     39  N   UNL A   1      39.657  29.794  29.875  1.00  0.00    -0.354 N 
ATOM     40  C   UNL A   1      43.231  27.837  31.268  1.00  0.00     0.074 A 
ATOM     41  C   UNL A   1      43.540  26.685  30.448  1.00  0.00     0.031 C 
ATOM     42  C   UNL A   1      37.800  30.046  28.654  1.00  0.00     0.029 A 
ATOM     43  C   UNL A   1      38.583  30.639  29.733  1.00  0.00     0.049 A 
ATOM     44  H   UNL A   1      40.408  29.973  30.485  1.00  0.00     0.167 HD
ATOM     45  C   UNL A   1      44.000  28.276  32.294  1.00  0.00     0.031 A 
ATOM     46  C   UNL A   1      38.227  31.737  30.425  1.00  0.00     0.031 A 
ATOM     47  C   UNL A   1      43.705  29.441  33.086  1.00  0.00     0.049 A 
ATOM     48  C   UNL A   1      39.068  32.186  31.583  1.00  0.00     0.074 A 
ATOM     49  C   UNL A   1      44.436  29.978  34.134  1.00  0.00     0.029 A 
ATOM     50  N   UNL A   1      42.598  30.255  32.914  1.00  0.00    -0.354 N 
ATOM     51  N   UNL A   1      40.174  31.655  32.047  1.00  0.00    -0.248 NA
ATOM     52  C   UNL A   1      38.604  33.367  32.321  1.00  0.00     0.031 C 
ATOM     53  C   UNL A   1      43.749  31.098  34.616  1.00  0.00     0.029 A 
ATOM     54  C   UNL A   1      42.615  31.283  33.841  1.00  0.00     0.049 A 
ATOM     55  H   UNL A   1      41.900  30.124  32.231  1.00  0.00     0.167 HD
ATOM     56  C   UNL A   1      40.547  32.448  33.125  1.00  0.00     0.074 A 
ATOM     57  C   UNL A   1      39.553  33.497  33.239  1.00  0.00     0.031 C 
ATOM     58  C   UNL A   1      41.619  32.319  33.944  1.00  0.00     0.031 A 
BRANCH  45  59
ATOM     59  C   UNL A   1      45.210  27.455  32.653  1.00  0.00    -0.014 A 
ATOM     60  C   UNL A   1      45.156  26.456  33.639  1.00  0.00     0.010 A 
ATOM     61  C   UNL A   1      46.421  27.682  31.973  1.00  0.00     0.010 A 
ATOM     62  C   UNL A   1      46.303  25.728  33.972  1.00  0.00     0.020 A 
ATOM     63  C   UNL A   1      47.564  26.943  32.286  1.00  0.00     0.020 A 
ATOM     64  C   UNL A   1      47.503  25.985  33.299  1.00  0.00     0.054 A 
BRANCH  64  65
ATOM     65  S   UNL A   1      48.982  25.034  33.746  1.00  0.00     0.124 S 
ATOM     66  O   UNL A   1      49.727  25.029  32.489  1.00  0.00    -0.237 OA
ATOM     67  O   UNL A   1      49.569  25.831  34.821  1.00  0.00    -0.237 OA
ATOM     68  O   UNL A   1      48.447  23.739  34.159  1.00  0.00    -0.744 OA
ENDBRANCH  64  65
ENDBRANCH  45  59
BRANCH  46  69
ATOM     69  C   UNL A   1      36.985  32.463  30.047  1.00  0.00    -0.014 A 
ATOM     70  C   UNL A   1      35.790  32.225  30.744  1.00  0.00     0.010 A 
ATOM     71  C   UNL A   1      37.012  33.446  29.040  1.00  0.00     0.010 A 
ATOM     72  C   UNL A   1      34.643  32.967  30.452  1.00  0.00     0.020 A 
ATOM     73  C   UNL A   1      35.873  34.206  28.761  1.00  0.00     0.020 A 
ATOM     74  C   UNL A   1      34.695  33.960  29.468  1.00  0.00     0.054 A 
BRANCH  74  75
ATOM     75  S   UNL A   1      33.227  34.987  29.180  1.00  0.00     0.124 S 
ATOM     76  O   UNL A   1      32.524  34.230  28.149  1.00  0.00    -0.237 OA
ATOM     77  O   UNL A   1      32.591  35.010  30.495  1.00  0.00    -0.237 OA
ATOM     78  O   UNL A   1      33.788  36.266  28.749  1.00  0.00    -0.744 OA
ENDBRANCH  74  75
ENDBRANCH  46  69
BRANCH  58  79
ATOM     79  C   UNL A   1      41.796  33.360  35.013  1.00  0.00    -0.014 A 
ATOM     80  C   UNL A   1      42.409  34.593  34.732  1.00  0.00     0.010 A 
ATOM     81  C   UNL A   1      41.298  33.115  36.305  1.00  0.00     0.010 A 
ATOM     82  C   UNL A   1      42.539  35.558  35.734  1.00  0.00     0.020 A 
ATOM     83  C   UNL A   1      41.411  34.084  37.304  1.00  0.00     0.020 A 
ATOM     84  C   UNL A   1      42.043  35.295  37.015  1.00  0.00     0.054 A 
BRANCH  84  85
ATOM     85  S   UNL A   1      42.181  36.578  38.291  1.00  0.00     0.124 S 
ATOM     86  O   UNL A   1      43.227  37.437  37.744  1.00  0.00    -0.237 OA
ATOM     87  O   UNL A   1      40.840  37.158  38.315  1.00  0.00    -0.237 OA
ATOM     88  O   UNL A   1      42.550  35.831  39.492  1.00  0.00    -0.744 OA
ENDBRANCH  84  85
ENDBRANCH  58  79
ENDBRANCH  32  33
ENDBRANCH  25  27
ENDBRANCH  24  25
ENDBRANCH  23  24
ENDBRANCH   1  23
TORSDOF 18
ENDMDL
MODEL 3
REMARK VINA RESULT:      -9.4      1.927      2.553
REMARK SMILES C[N@@H+]1CCC[C@@H](NC(=O)N(CC(=O)OCCOC(=O)c2ccc(-c3c4nc(c(-c5ccc(S(=O)(=O)[O-])cc5)c5ccc([nH]5)c(-c5ccc(S(=O)(=O)[O-])cc5)c5nc(c(-c6ccc(S(=O)(=O)[O-])cc6)c6ccc3[nH]6)C=C5)C=C4)cc2)C(C)(C)C)C1
REMARK SMILES IDX 15 1 14 2 12 3 13 4 11 5 10 6 8 7 7 8 9 10 6 11 1 12 2 13
REMARK SMILES IDX 3 14 84 15 4 17 5 18 80 19 81 20 82 21 83 22 16 23 17 24
REMARK SMILES IDX 18 25 19 26 20 27 21 28 79 29 22 30 78 31 23 32 24 33 25 34
REMARK SMILES IDX 72 35 26 36 77 37 71 38 73 39 27 40 76 41 70 42 69 43 28 45
REMARK SMILES IDX 58 46 39 47 57 48 40 49 43 50 56 51 74 52 41 53 42 54 55 56
REMARK SMILES IDX 75 57 44 58 29 59 30 60 38 61 31 62 37 63 32 64 33 65 34 66
REMARK SMILES IDX 35 67 36 68 59 69 60 70 68 71 61 72 67 73 62 74 63 75 64 76
REMARK SMILES IDX 65 77 66 78 45 79 46 80 54 81 47 82 53 83 48 84 49 85 50 86
REMARK SMILES IDX 51 87 52 88
REMARK H PARENT 7 9 2 16 73 44 43 55
REMARK Flexibility Score: inf
ROOT
ATOM      1  C   UNL A   1      33.297  30.776  26.564  1.00  0.00     0.274 C 
ENDROOT
BRANCH   1   2
ATOM      2  O   UNL A   1      33.375  29.445  26.021  1.00  0.00    -0.461 OA
BRANCH   2   3
ATOM      3  C   UNL A   1      32.365  29.118  25.172  1.00  0.00     0.325 C 
ATOM      4  O   UNL A   1      31.359  29.803  24.999  1.00  0.00    -0.250 OA
BRANCH   3   5
ATOM      5  C   UNL A   1      32.621  27.854  24.348  1.00  0.00     0.244 C 
BRANCH   5   6
ATOM      6  N   UNL A   1      31.668  26.761  24.511  1.00  0.00    -0.309 N 
BRANCH   6   7
ATOM      7  C   UNL A   1      31.561  26.057  25.692  1.00  0.00     0.318 C 
ATOM      8  N   UNL A   1      32.507  25.220  26.160  1.00  0.00    -0.330 N 
ATOM      9  H   UNL A   1      32.220  24.853  27.027  1.00  0.00     0.165 HD
ATOM     10  O   UNL A   1      30.576  26.144  26.430  1.00  0.00    -0.249 OA
BRANCH   8  11
ATOM     11  C   UNL A   1      33.824  24.673  25.806  1.00  0.00     0.139 C 
ATOM     12  C   UNL A   1      33.779  21.090  27.077  1.00  0.00     0.332 C 
ATOM     13  N   UNL A   1      33.385  22.235  26.251  1.00  0.00    -0.336 N 
ATOM     14  C   UNL A   1      33.581  21.927  24.828  1.00  0.00     0.262 C 
ATOM     15  C   UNL A   1      34.166  23.423  26.645  1.00  0.00     0.287 C 
ATOM     16  H   UNL A   1      32.395  22.432  26.398  1.00  0.00     0.347 HD
ATOM     17  C   UNL A   1      33.135  23.094  23.949  1.00  0.00     0.064 C 
ATOM     18  C   UNL A   1      33.884  24.372  24.303  1.00  0.00     0.037 C 
ENDBRANCH   8  11
ENDBRANCH   6   7
BRANCH   6  19
ATOM     19  C   UNL A   1      30.730  26.423  23.363  1.00  0.00     0.037 C 
ATOM     20  C   UNL A   1      29.460  27.298  23.419  1.00  0.00     0.034 C 
ATOM     21  C   UNL A   1      31.448  26.614  22.003  1.00  0.00     0.034 C 
ATOM     22  C   UNL A   1      30.228  24.953  23.346  1.00  0.00     0.034 C 
ENDBRANCH   6  19
ENDBRANCH   5   6
ENDBRANCH   3   5
ENDBRANCH   2   3
ENDBRANCH   1   2
BRANCH   1  23
ATOM     23  C   UNL A   1      33.927  30.846  27.955  1.00  0.00     0.275 C 
BRANCH  23  24
ATOM     24  O   UNL A   1      35.340  30.582  27.880  1.00  0.00    -0.458 OA
BRANCH  24  25
ATOM     25  C   UNL A   1      36.079  31.062  28.906  1.00  0.00     0.338 C 
ATOM     26  O   UNL A   1      35.719  31.885  29.740  1.00  0.00    -0.246 OA
BRANCH  25  27
ATOM     27  C   UNL A   1      37.425  30.451  28.930  1.00  0.00     0.060 A 
ATOM     28  C   UNL A   1      38.187  30.384  30.100  1.00  0.00     0.016 A 
ATOM     29  C   UNL A   1      37.982  30.032  27.722  1.00  0.00     0.016 A 
ATOM     30  C   UNL A   1      39.524  29.984  30.049  1.00  0.00     0.010 A 
ATOM     31  C   UNL A   1      39.286  29.534  27.691  1.00  0.00     0.010 A 
ATOM     32  C   UNL A   1      40.082  29.528  28.849  1.00  0.00    -0.014 A 
BRANCH  32  33
ATOM     33  C   UNL A   1      41.481  29.024  28.771  1.00  0.00     0.031 A 
ATOM     34  C   UNL A   1      42.637  29.975  28.942  1.00  0.00     0.074 A 
ATOM     35  C   UNL A   1      41.723  27.732  28.475  1.00  0.00     0.049 A 
ATOM     36  N   UNL A   1      43.898  29.803  28.640  1.00  0.00    -0.248 NA
ATOM     37  C   UNL A   1      42.328  31.297  29.510  1.00  0.00     0.031 C 
ATOM     38  C   UNL A   1      40.710  26.685  28.330  1.00  0.00     0.029 A 
ATOM     39  N   UNL A   1      42.907  27.084  28.220  1.00  0.00    -0.354 N 
ATOM     40  C   UNL A   1      44.522  31.015  28.915  1.00  0.00     0.074 A 
ATOM     41  C   UNL A   1      43.501  31.908  29.421  1.00  0.00     0.031 C 
ATOM     42  C   UNL A   1      41.315  25.525  28.031  1.00  0.00     0.029 A 
ATOM     43  C   UNL A   1      42.745  25.765  27.872  1.00  0.00     0.049 A 
ATOM     44  H   UNL A   1      43.787  27.522  28.282  1.00  0.00     0.167 HD
ATOM     45  C   UNL A   1      45.823  31.354  28.747  1.00  0.00     0.031 A 
ATOM     46  C   UNL A   1      43.629  24.857  27.418  1.00  0.00     0.031 A 
ATOM     47  C   UNL A   1      46.841  30.454  28.275  1.00  0.00     0.049 A 
ATOM     48  C   UNL A   1      45.056  25.261  27.200  1.00  0.00     0.074 A 
ATOM     49  C   UNL A   1      48.192  30.699  28.091  1.00  0.00     0.029 A 
ATOM     50  N   UNL A   1      46.624  29.132  27.920  1.00  0.00    -0.354 N 
ATOM     51  N   UNL A   1      45.620  26.427  27.409  1.00  0.00    -0.248 NA
ATOM     52  C   UNL A   1      45.962  24.235  26.665  1.00  0.00     0.031 C 
ATOM     53  C   UNL A   1      48.784  29.533  27.593  1.00  0.00     0.029 A 
ATOM     54  C   UNL A   1      47.811  28.550  27.507  1.00  0.00     0.049 A 
ATOM     55  H   UNL A   1      45.754  28.672  27.958  1.00  0.00     0.167 HD
ATOM     56  C   UNL A   1      46.952  26.270  27.047  1.00  0.00     0.074 A 
ATOM     57  C   UNL A   1      47.111  24.897  26.611  1.00  0.00     0.031 C 
ATOM     58  C   UNL A   1      47.953  27.184  27.075  1.00  0.00     0.031 A 
BRANCH  45  59
ATOM     59  C   UNL A   1      46.208  32.783  29.026  1.00  0.00    -0.014 A 
ATOM     60  C   UNL A   1      46.155  33.769  28.026  1.00  0.00     0.010 A 
ATOM     61  C   UNL A   1      46.613  33.145  30.324  1.00  0.00     0.010 A 
ATOM     62  C   UNL A   1      46.545  35.082  28.306  1.00  0.00     0.020 A 
ATOM     63  C   UNL A   1      46.982  34.461  30.615  1.00  0.00     0.020 A 
ATOM     64  C   UNL A   1      46.967  35.416  29.599  1.00  0.00     0.054 A 
BRANCH  64  65
ATOM     65  S   UNL A   1      47.473  37.125  29.943  1.00  0.00     0.124 S 
ATOM     66  O   UNL A   1      46.630  37.879  29.018  1.00  0.00    -0.237 OA
ATOM     67  O   UNL A   1      47.147  37.281  31.359  1.00  0.00    -0.237 OA
ATOM     68  O   UNL A   1      48.900  37.131  29.633  1.00  0.00    -0.744 OA
ENDBRANCH  64  65
ENDBRANCH  45  59
BRANCH  46  69
ATOM     69  C   UNL A   1      43.162  23.479  27.110  1.00  0.00    -0.014 A 
ATOM     70  C   UNL A   1      42.966  23.083  25.777  1.00  0.00     0.010 A 
ATOM     71  C   UNL A   1      42.982  22.539  28.141  1.00  0.00     0.010 A 
ATOM     72  C   UNL A   1      42.613  21.765  25.478  1.00  0.00     0.020 A 
ATOM     73  C   UNL A   1      42.651  21.215  27.844  1.00  0.00     0.020 A 
ATOM     74  C   UNL A   1      42.467  20.837  26.513  1.00  0.00     0.054 A 
BRANCH  74  75
ATOM     75  S   UNL A   1      42.116  19.105  26.096  1.00  0.00     0.124 S 
ATOM     76  O   UNL A   1      42.978  18.890  24.940  1.00  0.00    -0.237 OA
ATOM     77  O   UNL A   1      42.502  18.400  27.316  1.00  0.00    -0.237 OA
ATOM     78  O   UNL A   1      40.680  19.109  25.819  1.00  0.00    -0.744 OA
ENDBRANCH  74  75
ENDBRANCH  46  69
BRANCH  58  79
ATOM     79  C   UNL A   1      49.320  26.717  26.660  1.00  0.00    -0.014 A 
ATOM     80  C   UNL A   1      50.226  26.194  27.598  1.00  0.00     0.010 A 
ATOM     81  C   UNL A   1      49.682  26.761  25.301  1.00  0.00     0.010 A 
ATOM     82  C   UNL A   1      51.482  25.741  27.188  1.00  0.00     0.020 A 
ATOM     83  C   UNL A   1      50.930  26.293  24.885  1.00  0.00     0.020 A 
ATOM     84  C   UNL A   1      51.827  25.797  25.833  1.00  0.00     0.054 A 
BRANCH  84  85
ATOM     85  S   UNL A   1      53.445  25.162  25.312  1.00  0.00     0.124 S 
ATOM     86  O   UNL A   1      54.306  25.590  26.410  1.00  0.00    -0.237 OA
ATOM     87  O   UNL A   1      53.214  23.722  25.219  1.00  0.00    -0.237 OA
ATOM     88  O   UNL A   1      53.682  25.832  24.034  1.00  0.00    -0.744 OA
ENDBRANCH  84  85
ENDBRANCH  58  79
ENDBRANCH  32  33
ENDBRANCH  25  27
ENDBRANCH  24  25
ENDBRANCH  23  24
ENDBRANCH   1  23
TORSDOF 18
ENDMDL
