MODEL 1
REMARK VINA RESULT:     -10.1      0.000      0.000
REMARK SMILES C[C@@H](NC(=O)C[C@H]1CCCCO1)C(=O)OCCOC(=O)c1ccc(-c2c3nc(c(-c4ccc(S(=O)(=O)[O-])cc4)c4ccc([nH]4)c(-c4ccc(S(=O)(=O)[O-])cc4)c4nc(c(-c5ccc(S(=O)(=O)[O-])cc5)c5ccc2[nH]5)C=C4)C=C3)cc1
REMARK SMILES IDX 16 1 15 2 13 3 14 4 2 5 1 6 3 7 4 8 5 10 6 11 7 12 8 13
REMARK SMILES IDX 12 14 9 15 11 16 10 17 17 18 18 19 19 20 20 21 21 22 22 23
REMARK SMILES IDX 80 24 23 25 79 26 24 27 25 28 26 29 73 30 27 31 78 32 72 33
REMARK SMILES IDX 74 34 28 35 77 36 71 37 70 38 29 40 59 41 40 42 58 43 41 44
REMARK SMILES IDX 44 45 57 46 75 47 42 48 43 49 56 51 76 52 45 53 30 54 31 55
REMARK SMILES IDX 39 56 32 57 38 58 33 59 34 60 35 61 36 62 37 63 60 64 61 65
REMARK SMILES IDX 69 66 62 67 68 68 63 69 64 70 65 71 66 72 67 73 46 74 47 75
REMARK SMILES IDX 55 76 48 77 54 78 49 79 50 80 51 81 52 82 53 83
REMARK H PARENT 3 9 74 39 44 50
REMARK Flexibility Score: inf
ROOT
ATOM      1  C   UNL A   1      32.605  29.834  26.305  1.00  0.00     0.274 C 
ENDROOT
BRANCH   1   2
ATOM      2  O   UNL A   1      33.235  28.614  26.763  1.00  0.00    -0.461 OA
BRANCH   2   3
ATOM      3  C   UNL A   1      33.351  27.592  25.868  1.00  0.00     0.328 C 
ATOM      4  O   UNL A   1      33.995  26.570  26.075  1.00  0.00    -0.250 OA
BRANCH   3   5
ATOM      5  C   UNL A   1      32.650  27.892  24.529  1.00  0.00     0.189 C 
ATOM      6  C   UNL A   1      33.529  27.958  23.283  1.00  0.00     0.043 C 
BRANCH   5   7
ATOM      7  N   UNL A   1      31.409  27.146  24.271  1.00  0.00    -0.343 N 
ATOM      8  C   UNL A   1      30.277  27.437  23.579  1.00  0.00     0.223 C 
ATOM      9  H   UNL A   1      31.396  26.252  24.685  1.00  0.00     0.164 HD
ATOM     10  O   UNL A   1      29.267  26.783  23.860  1.00  0.00    -0.275 OA
BRANCH   8  11
ATOM     11  C   UNL A   1      30.255  28.374  22.390  1.00  0.00     0.132 C 
BRANCH  11  12
ATOM     12  C   UNL A   1      29.207  29.475  22.378  1.00  0.00     0.127 C 
ATOM     13  C   UNL A   1      29.351  30.456  23.544  1.00  0.00     0.033 C 
ATOM     14  O   UNL A   1      29.204  30.200  21.153  1.00  0.00    -0.378 OA
ATOM     15  C   UNL A   1      28.206  31.472  23.511  1.00  0.00     0.005 C 
ATOM     16  C   UNL A   1      28.054  31.042  21.040  1.00  0.00     0.160 C 
ATOM     17  C   UNL A   1      28.067  32.103  22.129  1.00  0.00     0.029 C 
ENDBRANCH  11  12
ENDBRANCH   8  11
ENDBRANCH   5   7
ENDBRANCH   3   5
ENDBRANCH   2   3
ENDBRANCH   1   2
BRANCH   1  18
ATOM     18  C   UNL A   1      32.875  30.981  27.276  1.00  0.00     0.275 C 
BRANCH  18  19
ATOM     19  O   UNL A   1      34.275  31.280  27.263  1.00  0.00    -0.458 OA
BRANCH  19  20
ATOM     20  C   UNL A   1      34.810  31.396  28.500  1.00  0.00     0.338 C 
ATOM     21  O   UNL A   1      34.310  31.919  29.479  1.00  0.00    -0.246 OA
BRANCH  20  22
ATOM     22  C   UNL A   1      36.022  30.569  28.555  1.00  0.00     0.060 A 
ATOM     23  C   UNL A   1      36.425  30.103  29.811  1.00  0.00     0.016 A 
ATOM     24  C   UNL A   1      36.769  30.303  27.406  1.00  0.00     0.016 A 
ATOM     25  C   UNL A   1      37.625  29.422  29.939  1.00  0.00     0.010 A 
ATOM     26  C   UNL A   1      37.981  29.633  27.536  1.00  0.00     0.010 A 
ATOM     27  C   UNL A   1      38.431  29.245  28.809  1.00  0.00    -0.014 A 
BRANCH  27  28
ATOM     28  C   UNL A   1      39.850  28.901  29.001  1.00  0.00     0.031 A 
ATOM     29  C   UNL A   1      40.747  29.956  29.586  1.00  0.00     0.074 A 
ATOM     30  C   UNL A   1      40.302  27.676  28.694  1.00  0.00     0.049 A 
ATOM     31  N   UNL A   1      42.036  29.928  29.789  1.00  0.00    -0.248 NA
ATOM     32  C   UNL A   1      40.101  31.219  29.989  1.00  0.00     0.031 C 
ATOM     33  C   UNL A   1      39.483  26.573  28.189  1.00  0.00     0.029 A 
ATOM     34  N   UNL A   1      41.565  27.158  28.766  1.00  0.00    -0.354 N 
ATOM     35  C   UNL A   1      42.359  31.176  30.311  1.00  0.00     0.074 A 
ATOM     36  C   UNL A   1      41.137  31.944  30.380  1.00  0.00     0.031 C 
ATOM     37  C   UNL A   1      40.272  25.502  27.994  1.00  0.00     0.029 A 
ATOM     38  C   UNL A   1      41.649  25.860  28.324  1.00  0.00     0.049 A 
ATOM     39  H   UNL A   1      42.339  27.664  29.102  1.00  0.00     0.167 HD
ATOM     40  C   UNL A   1      43.572  31.638  30.693  1.00  0.00     0.031 A 
ATOM     41  C   UNL A   1      42.728  25.068  28.186  1.00  0.00     0.031 A 
ATOM     42  C   UNL A   1      44.772  30.851  30.612  1.00  0.00     0.049 A 
ATOM     43  C   UNL A   1      44.073  25.617  28.582  1.00  0.00     0.074 A 
ATOM     44  C   UNL A   1      46.061  31.200  30.970  1.00  0.00     0.029 A 
ATOM     45  N   UNL A   1      44.823  29.546  30.140  1.00  0.00    -0.354 N 
ATOM     46  N   UNL A   1      44.373  26.804  29.059  1.00  0.00    -0.248 NA
ATOM     47  C   UNL A   1      45.222  24.717  28.431  1.00  0.00     0.031 C 
ATOM     48  C   UNL A   1      46.899  30.121  30.670  1.00  0.00     0.029 A 
ATOM     49  C   UNL A   1      46.123  29.079  30.184  1.00  0.00     0.049 A 
ATOM     50  H   UNL A   1      44.048  29.031  29.821  1.00  0.00     0.167 HD
ATOM     51  C   UNL A   1      45.741  26.780  29.302  1.00  0.00     0.074 A 
ATOM     52  C   UNL A   1      46.206  25.459  28.923  1.00  0.00     0.031 C 
ATOM     53  C   UNL A   1      46.544  27.755  29.800  1.00  0.00     0.031 A 
BRANCH  40  54
ATOM     54  C   UNL A   1      43.654  33.064  31.167  1.00  0.00    -0.014 A 
ATOM     55  C   UNL A   1      43.820  34.134  30.269  1.00  0.00     0.010 A 
ATOM     56  C   UNL A   1      43.569  33.339  32.544  1.00  0.00     0.010 A 
ATOM     57  C   UNL A   1      43.945  35.445  30.741  1.00  0.00     0.020 A 
ATOM     58  C   UNL A   1      43.664  34.651  33.019  1.00  0.00     0.020 A 
ATOM     59  C   UNL A   1      43.872  35.693  32.115  1.00  0.00     0.054 A 
BRANCH  59  60
ATOM     60  S   UNL A   1      44.031  37.402  32.704  1.00  0.00     0.124 S 
ATOM     61  O   UNL A   1      43.012  37.456  33.748  1.00  0.00    -0.237 OA
ATOM     62  O   UNL A   1      45.414  37.452  33.174  1.00  0.00    -0.237 OA
ATOM     63  O   UNL A   1      43.751  38.206  31.517  1.00  0.00    -0.744 OA
ENDBRANCH  59  60
ENDBRANCH  40  54
BRANCH  41  64
ATOM     64  C   UNL A   1      42.574  23.685  27.660  1.00  0.00    -0.014 A 
ATOM     65  C   UNL A   1      42.687  23.427  26.284  1.00  0.00     0.010 A 
ATOM     66  C   UNL A   1      42.335  22.612  28.539  1.00  0.00     0.010 A 
ATOM     67  C   UNL A   1      42.548  22.125  25.792  1.00  0.00     0.020 A 
ATOM     68  C   UNL A   1      42.223  21.305  28.055  1.00  0.00     0.020 A 
ATOM     69  C   UNL A   1      42.320  21.072  26.682  1.00  0.00     0.054 A 
BRANCH  69  70
ATOM     70  S   UNL A   1      42.196  19.384  26.027  1.00  0.00     0.124 S 
ATOM     71  O   UNL A   1      40.771  19.277  25.732  1.00  0.00    -0.237 OA
ATOM     72  O   UNL A   1      43.082  19.430  24.868  1.00  0.00    -0.237 OA
ATOM     73  O   UNL A   1      42.671  18.553  27.132  1.00  0.00    -0.744 OA
ENDBRANCH  69  70
ENDBRANCH  41  64
BRANCH  53  74
ATOM     74  C   UNL A   1      47.989  27.400  30.018  1.00  0.00    -0.014 A 
ATOM     75  C   UNL A   1      48.413  26.724  31.176  1.00  0.00     0.010 A 
ATOM     76  C   UNL A   1      48.930  27.723  29.024  1.00  0.00     0.010 A 
ATOM     77  C   UNL A   1      49.765  26.421  31.355  1.00  0.00     0.020 A 
ATOM     78  C   UNL A   1      50.276  27.395  29.185  1.00  0.00     0.020 A 
ATOM     79  C   UNL A   1      50.688  26.763  30.361  1.00  0.00     0.054 A 
BRANCH  79  80
ATOM     80  S   UNL A   1      52.435  26.345  30.607  1.00  0.00     0.124 S 
ATOM     81  O   UNL A   1      52.848  25.973  29.257  1.00  0.00    -0.237 OA
ATOM     82  O   UNL A   1      52.997  27.594  31.115  1.00  0.00    -0.237 OA
ATOM     83  O   UNL A   1      52.396  25.249  31.572  1.00  0.00    -0.744 OA
ENDBRANCH  79  80
ENDBRANCH  53  74
ENDBRANCH  27  28
ENDBRANCH  20  22
ENDBRANCH  19  20
ENDBRANCH  18  19
ENDBRANCH   1  18
TORSDOF 17
ENDMDL
MODEL 2
REMARK VINA RESULT:     -10.0      4.062      6.339
REMARK SMILES C[C@@H](NC(=O)C[C@H]1CCCCO1)C(=O)OCCOC(=O)c1ccc(-c2c3nc(c(-c4ccc(S(=O)(=O)[O-])cc4)c4ccc([nH]4)c(-c4ccc(S(=O)(=O)[O-])cc4)c4nc(c(-c5ccc(S(=O)(=O)[O-])cc5)c5ccc2[nH]5)C=C4)C=C3)cc1
REMARK SMILES IDX 16 1 15 2 13 3 14 4 2 5 1 6 3 7 4 8 5 10 6 11 7 12 8 13
REMARK SMILES IDX 12 14 9 15 11 16 10 17 17 18 18 19 19 20 20 21 21 22 22 23
REMARK SMILES IDX 80 24 23 25 79 26 24 27 25 28 26 29 73 30 27 31 78 32 72 33
REMARK SMILES IDX 74 34 28 35 77 36 71 37 70 38 29 40 59 41 40 42 58 43 41 44
REMARK SMILES IDX 44 45 57 46 75 47 42 48 43 49 56 51 76 52 45 53 30 54 31 55
REMARK SMILES IDX 39 56 32 57 38 58 33 59 34 60 35 61 36 62 37 63 60 64 61 65
REMARK SMILES IDX 69 66 62 67 68 68 63 69 64 70 65 71 66 72 67 73 46 74 47 75
REMARK SMILES IDX 55 76 48 77 54 78 49 79 50 80 51 81 52 82 53 83
REMARK H PARENT 3 9 74 39 44 50
REMARK Flexibility Score: inf
ROOT
ATOM      1  C   UNL A   1      34.631  34.205  29.214  1.00  0.00     0.274 C 
ENDROOT
BRANCH   1   2
ATOM      2  O   UNL A   1      33.573  34.525  30.150  1.00  0.00    -0.461 OA
BRANCH   2   3
ATOM      3  C   UNL A   1      32.808  35.620  29.883  1.00  0.00     0.328 C 
ATOM      4  O   UNL A   1      32.553  36.020  28.752  1.00  0.00    -0.250 OA
BRANCH   3   5
ATOM      5  C   UNL A   1      32.359  36.358  31.159  1.00  0.00     0.189 C 
ATOM      6  C   UNL A   1      31.610  35.541  32.209  1.00  0.00     0.043 C 
BRANCH   5   7
ATOM      7  N   UNL A   1      33.361  37.239  31.779  1.00  0.00    -0.343 N 
ATOM      8  C   UNL A   1      33.874  37.324  33.034  1.00  0.00     0.223 C 
ATOM      9  H   UNL A   1      33.736  37.904  31.157  1.00  0.00     0.164 HD
ATOM     10  O   UNL A   1      34.402  38.395  33.350  1.00  0.00    -0.275 OA
BRANCH   8  11
ATOM     11  C   UNL A   1      33.982  36.132  33.963  1.00  0.00     0.132 C 
BRANCH  11  12
ATOM     12  C   UNL A   1      35.032  35.081  33.642  1.00  0.00     0.127 C 
ATOM     13  C   UNL A   1      34.448  33.677  33.472  1.00  0.00     0.033 C 
ATOM     14  O   UNL A   1      35.791  35.417  32.485  1.00  0.00    -0.378 OA
ATOM     15  C   UNL A   1      35.577  32.669  33.245  1.00  0.00     0.005 C 
ATOM     16  C   UNL A   1      36.940  34.579  32.344  1.00  0.00     0.160 C 
ATOM     17  C   UNL A   1      36.518  33.133  32.137  1.00  0.00     0.029 C 
ENDBRANCH  11  12
ENDBRANCH   8  11
ENDBRANCH   5   7
ENDBRANCH   3   5
ENDBRANCH   2   3
ENDBRANCH   1   2
BRANCH   1  18
ATOM     18  C   UNL A   1      34.101  33.343  28.071  1.00  0.00     0.275 C 
BRANCH  18  19
ATOM     19  O   UNL A   1      35.140  32.459  27.637  1.00  0.00    -0.458 OA
BRANCH  19  20
ATOM     20  C   UNL A   1      34.783  31.154  27.674  1.00  0.00     0.338 C 
ATOM     21  O   UNL A   1      33.740  30.659  27.288  1.00  0.00    -0.246 OA
BRANCH  20  22
ATOM     22  C   UNL A   1      35.965  30.366  28.044  1.00  0.00     0.060 A 
ATOM     23  C   UNL A   1      35.912  29.657  29.249  1.00  0.00     0.016 A 
ATOM     24  C   UNL A   1      37.113  30.367  27.250  1.00  0.00     0.016 A 
ATOM     25  C   UNL A   1      37.040  28.996  29.708  1.00  0.00     0.010 A 
ATOM     26  C   UNL A   1      38.250  29.717  27.717  1.00  0.00     0.010 A 
ATOM     27  C   UNL A   1      38.226  29.082  28.970  1.00  0.00    -0.014 A 
BRANCH  27  28
ATOM     28  C   UNL A   1      39.496  28.741  29.635  1.00  0.00     0.031 A 
ATOM     29  C   UNL A   1      39.875  29.534  30.854  1.00  0.00     0.074 A 
ATOM     30  C   UNL A   1      40.256  27.736  29.176  1.00  0.00     0.049 A 
ATOM     31  N   UNL A   1      40.963  29.478  31.573  1.00  0.00    -0.248 NA
ATOM     32  C   UNL A   1      38.895  30.532  31.321  1.00  0.00     0.031 C 
ATOM     33  C   UNL A   1      39.926  26.872  28.043  1.00  0.00     0.029 A 
ATOM     34  N   UNL A   1      41.466  27.273  29.616  1.00  0.00    -0.354 N 
ATOM     35  C   UNL A   1      40.813  30.453  32.553  1.00  0.00     0.074 A 
ATOM     36  C   UNL A   1      39.539  31.096  32.331  1.00  0.00     0.031 C 
ATOM     37  C   UNL A   1      40.916  25.979  27.875  1.00  0.00     0.029 A 
ATOM     38  C   UNL A   1      41.961  26.238  28.862  1.00  0.00     0.049 A 
ATOM     39  H   UNL A   1      41.936  27.645  30.397  1.00  0.00     0.167 HD
ATOM     40  C   UNL A   1      41.670  30.782  33.548  1.00  0.00     0.031 A 
ATOM     41  C   UNL A   1      43.138  25.593  28.958  1.00  0.00     0.031 A 
ATOM     42  C   UNL A   1      42.932  30.126  33.745  1.00  0.00     0.049 A 
ATOM     43  C   UNL A   1      44.092  26.002  30.048  1.00  0.00     0.074 A 
ATOM     44  C   UNL A   1      43.888  30.362  34.715  1.00  0.00     0.029 A 
ATOM     45  N   UNL A   1      43.411  29.093  32.949  1.00  0.00    -0.354 N 
ATOM     46  N   UNL A   1      43.949  26.936  30.962  1.00  0.00    -0.248 NA
ATOM     47  C   UNL A   1      45.358  25.265  30.128  1.00  0.00     0.031 C 
ATOM     48  C   UNL A   1      44.966  29.503  34.477  1.00  0.00     0.029 A 
ATOM     49  C   UNL A   1      44.655  28.689  33.397  1.00  0.00     0.049 A 
ATOM     50  H   UNL A   1      42.935  28.706  32.179  1.00  0.00     0.167 HD
ATOM     51  C   UNL A   1      45.093  26.872  31.750  1.00  0.00     0.074 A 
ATOM     52  C   UNL A   1      45.911  25.805  31.206  1.00  0.00     0.031 C 
ATOM     53  C   UNL A   1      45.437  27.619  32.830  1.00  0.00     0.031 A 
BRANCH  40  54
ATOM     54  C   UNL A   1      41.287  31.932  34.442  1.00  0.00    -0.014 A 
ATOM     55  C   UNL A   1      40.693  31.724  35.700  1.00  0.00     0.010 A 
ATOM     56  C   UNL A   1      41.522  33.250  34.010  1.00  0.00     0.010 A 
ATOM     57  C   UNL A   1      40.300  32.811  36.488  1.00  0.00     0.020 A 
ATOM     58  C   UNL A   1      41.158  34.339  34.806  1.00  0.00     0.020 A 
ATOM     59  C   UNL A   1      40.530  34.112  36.032  1.00  0.00     0.054 A 
BRANCH  59  60
ATOM     60  S   UNL A   1      40.018  35.507  37.073  1.00  0.00     0.124 S 
ATOM     61  O   UNL A   1      38.900  34.933  37.816  1.00  0.00    -0.237 OA
ATOM     62  O   UNL A   1      41.219  35.781  37.858  1.00  0.00    -0.237 OA
ATOM     63  O   UNL A   1      39.658  36.545  36.110  1.00  0.00    -0.744 OA
ENDBRANCH  59  60
ENDBRANCH  40  54
BRANCH  41  64
ATOM     64  C   UNL A   1      43.467  24.500  28.003  1.00  0.00    -0.014 A 
ATOM     65  C   UNL A   1      42.980  23.199  28.211  1.00  0.00     0.010 A 
ATOM     66  C   UNL A   1      44.252  24.762  26.865  1.00  0.00     0.010 A 
ATOM     67  C   UNL A   1      43.285  22.175  27.308  1.00  0.00     0.020 A 
ATOM     68  C   UNL A   1      44.537  23.748  25.945  1.00  0.00     0.020 A 
ATOM     69  C   UNL A   1      44.059  22.457  26.179  1.00  0.00     0.054 A 
BRANCH  69  70
ATOM     70  S   UNL A   1      44.397  21.126  24.994  1.00  0.00     0.124 S 
ATOM     71  O   UNL A   1      43.310  20.191  25.270  1.00  0.00    -0.237 OA
ATOM     72  O   UNL A   1      44.326  21.819  23.711  1.00  0.00    -0.237 OA
ATOM     73  O   UNL A   1      45.731  20.663  25.370  1.00  0.00    -0.744 OA
ENDBRANCH  69  70
ENDBRANCH  41  64
BRANCH  53  74
ATOM     74  C   UNL A   1      46.721  27.261  33.524  1.00  0.00    -0.014 A 
ATOM     75  C   UNL A   1      46.758  26.309  34.558  1.00  0.00     0.010 A 
ATOM     76  C   UNL A   1      47.919  27.868  33.103  1.00  0.00     0.010 A 
ATOM     77  C   UNL A   1      47.965  26.008  35.192  1.00  0.00     0.020 A 
ATOM     78  C   UNL A   1      49.131  27.547  33.713  1.00  0.00     0.020 A 
ATOM     79  C   UNL A   1      49.143  26.633  34.769  1.00  0.00     0.054 A 
BRANCH  79  80
ATOM     80  S   UNL A   1      50.702  26.214  35.594  1.00  0.00     0.124 S 
ATOM     81  O   UNL A   1      50.376  24.938  36.224  1.00  0.00    -0.237 OA
ATOM     82  O   UNL A   1      51.647  26.144  34.482  1.00  0.00    -0.237 OA
ATOM     83  O   UNL A   1      50.916  27.328  36.515  1.00  0.00    -0.744 OA
ENDBRANCH  79  80
ENDBRANCH  53  74
ENDBRANCH  27  28
ENDBRANCH  20  22
ENDBRANCH  19  20
ENDBRANCH  18  19
ENDBRANCH   1  18
TORSDOF 17
ENDMDL
MODEL 3
REMARK VINA RESULT:      -9.9      4.480      9.098
REMARK SMILES C[C@@H](NC(=O)C[C@H]1CCCCO1)C(=O)OCCOC(=O)c1ccc(-c2c3nc(c(-c4ccc(S(=O)(=O)[O-])cc4)c4ccc([nH]4)c(-c4ccc(S(=O)(=O)[O-])cc4)c4nc(c(-c5ccc(S(=O)(=O)[O-])cc5)c5ccc2[nH]5)C=C4)C=C3)cc1
REMARK SMILES IDX 16 1 15 2 13 3 14 4 2 5 1 6 3 7 4 8 5 10 6 11 7 12 8 13
REMARK SMILES IDX 12 14 9 15 11 16 10 17 17 18 18 19 19 20 20 21 21 22 22 23
REMARK SMILES IDX 80 24 23 25 79 26 24 27 25 28 26 29 73 30 27 31 78 32 72 33
REMARK SMILES IDX 74 34 28 35 77 36 71 37 70 38 29 40 59 41 40 42 58 43 41 44
REMARK SMILES IDX 44 45 57 46 75 47 42 48 43 49 56 51 76 52 45 53 30 54 31 55
REMARK SMILES IDX 39 56 32 57 38 58 33 59 34 60 35 61 36 62 37 63 60 64 61 65
REMARK SMILES IDX 69 66 62 67 68 68 63 69 64 70 65 71 66 72 67 73 46 74 47 75
REMARK SMILES IDX 55 76 48 77 54 78 49 79 50 80 51 81 52 82 53 83
REMARK H PARENT 3 9 74 39 44 50
REMARK Flexibility Score: inf
ROOT
ATOM      1  C   UNL A   1      37.985  21.681  25.204  1.00  0.00     0.274 C 
ENDROOT
BRANCH   1   2
ATOM      2  O   UNL A   1      37.019  21.480  24.144  1.00  0.00    -0.461 OA
BRANCH   2   3
ATOM      3  C   UNL A   1      36.310  22.566  23.726  1.00  0.00     0.328 C 
ATOM      4  O   UNL A   1      36.662  23.305  22.814  1.00  0.00    -0.250 OA
BRANCH   3   5
ATOM      5  C   UNL A   1      35.050  22.817  24.578  1.00  0.00     0.189 C 
ATOM      6  C   UNL A   1      35.052  24.051  25.477  1.00  0.00     0.043 C 
BRANCH   5   7
ATOM      7  N   UNL A   1      33.763  22.661  23.883  1.00  0.00    -0.343 N 
ATOM      8  C   UNL A   1      32.846  21.661  23.840  1.00  0.00     0.223 C 
ATOM      9  H   UNL A   1      33.515  23.443  23.337  1.00  0.00     0.164 HD
ATOM     10  O   UNL A   1      32.067  21.657  22.880  1.00  0.00    -0.275 OA
BRANCH   8  11
ATOM     11  C   UNL A   1      32.631  20.689  24.982  1.00  0.00     0.132 C 
BRANCH  11  12
ATOM     12  C   UNL A   1      32.979  19.229  24.740  1.00  0.00     0.127 C 
ATOM     13  C   UNL A   1      34.485  18.979  24.627  1.00  0.00     0.033 C 
ATOM     14  O   UNL A   1      32.436  18.376  25.742  1.00  0.00    -0.378 OA
ATOM     15  C   UNL A   1      34.742  17.508  24.292  1.00  0.00     0.005 C 
ATOM     16  C   UNL A   1      32.531  16.998  25.372  1.00  0.00     0.160 C 
ATOM     17  C   UNL A   1      33.988  16.584  25.244  1.00  0.00     0.029 C 
ENDBRANCH  11  12
ENDBRANCH   8  11
ENDBRANCH   5   7
ENDBRANCH   3   5
ENDBRANCH   2   3
ENDBRANCH   1   2
BRANCH   1  18
ATOM     18  C   UNL A   1      38.749  20.391  25.493  1.00  0.00     0.275 C 
BRANCH  18  19
ATOM     19  O   UNL A   1      39.666  20.626  26.566  1.00  0.00    -0.458 OA
BRANCH  19  20
ATOM     20  C   UNL A   1      40.886  20.077  26.358  1.00  0.00     0.338 C 
ATOM     21  O   UNL A   1      41.136  18.961  25.938  1.00  0.00    -0.246 OA
BRANCH  20  22
ATOM     22  C   UNL A   1      41.894  21.134  26.498  1.00  0.00     0.060 A 
ATOM     23  C   UNL A   1      42.248  21.517  27.796  1.00  0.00     0.016 A 
ATOM     24  C   UNL A   1      42.439  21.767  25.379  1.00  0.00     0.016 A 
ATOM     25  C   UNL A   1      43.102  22.591  27.988  1.00  0.00     0.010 A 
ATOM     26  C   UNL A   1      43.283  22.855  25.570  1.00  0.00     0.010 A 
ATOM     27  C   UNL A   1      43.567  23.297  26.874  1.00  0.00    -0.014 A 
BRANCH  27  28
ATOM     28  C   UNL A   1      44.123  24.647  27.075  1.00  0.00     0.031 A 
ATOM     29  C   UNL A   1      43.177  25.726  27.523  1.00  0.00     0.074 A 
ATOM     30  C   UNL A   1      45.431  24.878  26.896  1.00  0.00     0.049 A 
ATOM     31  N   UNL A   1      43.399  26.999  27.703  1.00  0.00    -0.248 NA
ATOM     32  C   UNL A   1      41.789  25.312  27.797  1.00  0.00     0.031 C 
ATOM     33  C   UNL A   1      46.428  23.872  26.531  1.00  0.00     0.029 A 
ATOM     34  N   UNL A   1      46.144  26.041  27.000  1.00  0.00    -0.354 N 
ATOM     35  C   UNL A   1      42.175  27.542  28.078  1.00  0.00     0.074 A 
ATOM     36  C   UNL A   1      41.210  26.468  28.085  1.00  0.00     0.031 C 
ATOM     37  C   UNL A   1      47.631  24.465  26.440  1.00  0.00     0.029 A 
ATOM     38  C   UNL A   1      47.476  25.894  26.702  1.00  0.00     0.049 A 
ATOM     39  H   UNL A   1      45.741  26.900  27.264  1.00  0.00     0.167 HD
ATOM     40  C   UNL A   1      41.886  28.829  28.383  1.00  0.00     0.031 A 
ATOM     41  C   UNL A   1      48.448  26.822  26.631  1.00  0.00     0.031 A 
ATOM     42  C   UNL A   1      42.866  29.879  28.366  1.00  0.00     0.049 A 
ATOM     43  C   UNL A   1      48.094  28.253  26.938  1.00  0.00     0.074 A 
ATOM     44  C   UNL A   1      42.702  31.220  28.659  1.00  0.00     0.029 A 
ATOM     45  N   UNL A   1      44.204  29.697  28.039  1.00  0.00    -0.354 N 
ATOM     46  N   UNL A   1      46.930  28.761  27.276  1.00  0.00    -0.248 NA
ATOM     47  C   UNL A   1      49.184  29.232  26.865  1.00  0.00     0.031 C 
ATOM     48  C   UNL A   1      43.932  31.857  28.463  1.00  0.00     0.029 A 
ATOM     49  C   UNL A   1      44.875  30.903  28.110  1.00  0.00     0.049 A 
ATOM     50  H   UNL A   1      44.613  28.836  27.794  1.00  0.00     0.167 HD
ATOM     51  C   UNL A   1      47.157  30.115  27.494  1.00  0.00     0.074 A 
ATOM     52  C   UNL A   1      48.570  30.341  27.253  1.00  0.00     0.031 C 
ATOM     53  C   UNL A   1      46.284  31.086  27.866  1.00  0.00     0.031 A 
BRANCH  40  54
ATOM     54  C   UNL A   1      40.451  29.162  28.696  1.00  0.00    -0.014 A 
ATOM     55  C   UNL A   1      39.495  29.342  27.680  1.00  0.00     0.010 A 
ATOM     56  C   UNL A   1      40.053  29.303  30.038  1.00  0.00     0.010 A 
ATOM     57  C   UNL A   1      38.182  29.703  27.996  1.00  0.00     0.020 A 
ATOM     58  C   UNL A   1      38.734  29.634  30.361  1.00  0.00     0.020 A 
ATOM     59  C   UNL A   1      37.811  29.852  29.336  1.00  0.00     0.054 A 
BRANCH  59  60
ATOM     60  S   UNL A   1      36.100  30.314  29.724  1.00  0.00     0.124 S 
ATOM     61  O   UNL A   1      35.902  29.674  31.022  1.00  0.00    -0.237 OA
ATOM     62  O   UNL A   1      36.158  31.774  29.747  1.00  0.00    -0.237 OA
ATOM     63  O   UNL A   1      35.328  29.742  28.624  1.00  0.00    -0.744 OA
ENDBRANCH  59  60
ENDBRANCH  40  54
BRANCH  41  64
ATOM     64  C   UNL A   1      49.833  26.422  26.264  1.00  0.00    -0.014 A 
ATOM     65  C   UNL A   1      50.287  26.554  24.941  1.00  0.00     0.010 A 
ATOM     66  C   UNL A   1      50.715  25.930  27.243  1.00  0.00     0.010 A 
ATOM     67  C   UNL A   1      51.593  26.184  24.599  1.00  0.00     0.020 A 
ATOM     68  C   UNL A   1      52.029  25.584  26.912  1.00  0.00     0.020 A 
ATOM     69  C   UNL A   1      52.455  25.704  25.588  1.00  0.00     0.054 A 
BRANCH  69  70
ATOM     70  S   UNL A   1      54.160  25.281  25.132  1.00  0.00     0.124 S 
ATOM     71  O   UNL A   1      54.328  26.007  23.878  1.00  0.00    -0.237 OA
ATOM     72  O   UNL A   1      54.925  25.790  26.267  1.00  0.00    -0.237 OA
ATOM     73  O   UNL A   1      54.131  23.825  25.014  1.00  0.00    -0.744 OA
ENDBRANCH  69  70
ENDBRANCH  41  64
BRANCH  53  74
ATOM     74  C   UNL A   1      46.851  32.460  28.094  1.00  0.00    -0.014 A 
ATOM     75  C   UNL A   1      46.971  33.389  27.046  1.00  0.00     0.010 A 
ATOM     76  C   UNL A   1      47.235  32.833  29.395  1.00  0.00     0.010 A 
ATOM     77  C   UNL A   1      47.514  34.653  27.288  1.00  0.00     0.020 A 
ATOM     78  C   UNL A   1      47.749  34.105  29.646  1.00  0.00     0.020 A 
ATOM     79  C   UNL A   1      47.905  35.001  28.585  1.00  0.00     0.054 A 
BRANCH  79  80
ATOM     80  S   UNL A   1      48.591  36.653  28.880  1.00  0.00     0.124 S 
ATOM     81  O   UNL A   1      49.943  36.341  29.332  1.00  0.00    -0.237 OA
ATOM     82  O   UNL A   1      48.497  37.280  27.564  1.00  0.00    -0.237 OA
ATOM     83  O   UNL A   1      47.707  37.218  29.897  1.00  0.00    -0.744 OA
ENDBRANCH  79  80
ENDBRANCH  53  74
ENDBRANCH  27  28
ENDBRANCH  20  22
ENDBRANCH  19  20
ENDBRANCH  18  19
ENDBRANCH   1  18
TORSDOF 17
ENDMDL
