MODEL 1
REMARK VINA RESULT:     -10.7      0.000      0.000
REMARK SMILES CCC(CC)(NC(=O)Nc1cc(Cl)cc(Cl)c1)C(=O)OCCOC(=O)c1ccc(-c2c3nc(c(-c4ccc(S(=O)(=O)[O-])cc4)c4ccc([nH]4)c(-c4ccc(S(=O)(=O)[O-])cc4)c4nc(c(-c5ccc(S(=O)(=O)[O-])cc5)c5ccc2[nH]5)C=C4)C=C3)cc1
REMARK SMILES IDX 22 1 21 2 20 3 18 4 19 5 3 6 2 7 1 8 4 9 5 10 6 11 7 12 8 14
REMARK SMILES IDX 9 15 10 17 11 18 17 19 12 20 15 21 13 22 14 23 16 24 23 25
REMARK SMILES IDX 24 26 25 27 26 28 27 29 85 30 28 31 84 32 29 33 30 34 31 35
REMARK SMILES IDX 78 36 32 37 83 38 77 39 79 40 33 41 82 42 76 43 75 44 34 46
REMARK SMILES IDX 64 47 45 48 63 49 46 50 49 51 62 52 80 53 47 54 48 55 61 57
REMARK SMILES IDX 81 58 50 59 35 60 36 61 44 62 37 63 43 64 38 65 39 66 40 67
REMARK SMILES IDX 41 68 42 69 65 70 66 71 74 72 67 73 73 74 68 75 69 76 70 77
REMARK SMILES IDX 71 78 72 79 51 80 52 81 60 82 53 83 59 84 54 85 55 86 56 87
REMARK SMILES IDX 57 88 58 89
REMARK H PARENT 6 13 9 16 79 45 49 56
REMARK Flexibility Score: inf
ROOT
ATOM      1  C   UNL A   1      32.116  29.016  26.427  1.00  0.00     0.275 C 
ENDROOT
BRANCH   1   2
ATOM      2  C   UNL A   1      31.389  29.677  25.087  1.00  0.00     0.274 C 
BRANCH   2   3
ATOM      3  O   UNL A   1      31.467  28.906  23.807  1.00  0.00    -0.460 OA
BRANCH   3   4
ATOM      4  C   UNL A   1      32.621  28.264  23.295  1.00  0.00     0.332 C 
ATOM      5  O   UNL A   1      33.585  28.912  22.896  1.00  0.00    -0.249 OA
BRANCH   4   6
ATOM      6  C   UNL A   1      32.506  26.546  23.165  1.00  0.00     0.139 C 
BRANCH   6   7
ATOM      7  C   UNL A   1      31.369  25.424  23.303  1.00  0.00     0.037 C 
ATOM      8  C   UNL A   1      30.145  25.487  24.172  1.00  0.00     0.007 C 
ENDBRANCH   6   7
BRANCH   6   9
ATOM      9  C   UNL A   1      33.793  26.018  23.855  1.00  0.00     0.037 C 
ATOM     10  C   UNL A   1      33.817  25.856  25.377  1.00  0.00     0.007 C 
ENDBRANCH   6   9
BRANCH   6  11
ATOM     11  N   UNL A   1      32.505  26.591  21.750  1.00  0.00    -0.322 N 
ATOM     12  C   UNL A   1      32.926  25.494  21.094  1.00  0.00     0.320 C 
ATOM     13  H   UNL A   1      32.206  27.395  21.265  1.00  0.00     0.166 HD
ATOM     14  O   UNL A   1      32.849  25.564  19.864  1.00  0.00    -0.248 OA
ATOM     15  N   UNL A   1      33.391  24.332  21.711  1.00  0.00    -0.308 N 
ATOM     16  H   UNL A   1      33.809  23.856  20.958  1.00  0.00     0.171 HD
BRANCH  15  17
ATOM     17  C   UNL A   1      33.622  23.409  22.809  1.00  0.00     0.045 A 
ATOM     18  C   UNL A   1      32.763  22.561  23.509  1.00  0.00     0.046 A 
ATOM     19  C   UNL A   1      34.988  23.233  23.140  1.00  0.00     0.046 A 
ATOM     20  C   UNL A   1      33.233  21.588  24.422  1.00  0.00     0.044 A 
ATOM     21  C   UNL A   1      35.457  22.302  24.078  1.00  0.00     0.044 A 
ATOM     22  Cl  UNL A   1      32.116  20.492  25.152  1.00  0.00    -0.084 Cl
ATOM     23  C   UNL A   1      34.577  21.464  24.727  1.00  0.00     0.041 A 
ATOM     24  Cl  UNL A   1      37.146  22.179  24.382  1.00  0.00    -0.084 Cl
ENDBRANCH  15  17
ENDBRANCH   6  11
ENDBRANCH   4   6
ENDBRANCH   3   4
ENDBRANCH   2   3
ENDBRANCH   1   2
BRANCH   1  25
ATOM     25  O   UNL A   1      33.588  29.286  26.664  1.00  0.00    -0.458 OA
BRANCH  25  26
ATOM     26  C   UNL A   1      34.091  30.249  27.541  1.00  0.00     0.338 C 
ATOM     27  O   UNL A   1      33.459  31.213  27.921  1.00  0.00    -0.246 OA
BRANCH  26  28
ATOM     28  C   UNL A   1      35.577  29.968  27.964  1.00  0.00     0.060 A 
ATOM     29  C   UNL A   1      36.666  30.040  27.069  1.00  0.00     0.016 A 
ATOM     30  C   UNL A   1      35.932  29.575  29.256  1.00  0.00     0.016 A 
ATOM     31  C   UNL A   1      38.023  29.949  27.427  1.00  0.00     0.010 A 
ATOM     32  C   UNL A   1      37.306  29.362  29.614  1.00  0.00     0.010 A 
ATOM     33  C   UNL A   1      38.374  29.573  28.711  1.00  0.00    -0.014 A 
BRANCH  33  34
ATOM     34  C   UNL A   1      39.791  29.131  28.958  1.00  0.00     0.031 A 
ATOM     35  C   UNL A   1      40.722  30.108  29.639  1.00  0.00     0.074 A 
ATOM     36  C   UNL A   1      40.251  27.875  28.750  1.00  0.00     0.049 A 
ATOM     37  N   UNL A   1      42.017  30.046  29.821  1.00  0.00    -0.248 NA
ATOM     38  C   UNL A   1      40.094  31.311  30.207  1.00  0.00     0.031 C 
ATOM     39  C   UNL A   1      39.460  26.732  28.298  1.00  0.00     0.029 A 
ATOM     40  N   UNL A   1      41.523  27.352  28.899  1.00  0.00    -0.354 N 
ATOM     41  C   UNL A   1      42.366  31.228  30.465  1.00  0.00     0.074 A 
ATOM     42  C   UNL A   1      41.143  31.979  30.658  1.00  0.00     0.031 C 
ATOM     43  C   UNL A   1      40.266  25.658  28.177  1.00  0.00     0.029 A 
ATOM     44  C   UNL A   1      41.646  26.043  28.482  1.00  0.00     0.049 A 
ATOM     45  H   UNL A   1      42.274  27.868  29.269  1.00  0.00     0.167 HD
ATOM     46  C   UNL A   1      43.589  31.665  30.849  1.00  0.00     0.031 A 
ATOM     47  C   UNL A   1      42.738  25.260  28.315  1.00  0.00     0.031 A 
ATOM     48  C   UNL A   1      44.810  30.920  30.688  1.00  0.00     0.049 A 
ATOM     49  C   UNL A   1      44.115  25.811  28.615  1.00  0.00     0.074 A 
ATOM     50  C   UNL A   1      46.101  31.304  31.013  1.00  0.00     0.029 A 
ATOM     51  N   UNL A   1      44.895  29.639  30.169  1.00  0.00    -0.354 N 
ATOM     52  N   UNL A   1      44.447  26.974  29.122  1.00  0.00    -0.248 NA
ATOM     53  C   UNL A   1      45.268  24.945  28.308  1.00  0.00     0.031 C 
ATOM     54  C   UNL A   1      46.972  30.279  30.635  1.00  0.00     0.029 A 
ATOM     55  C   UNL A   1      46.219  29.227  30.141  1.00  0.00     0.049 A 
ATOM     56  H   UNL A   1      44.130  29.100  29.865  1.00  0.00     0.167 HD
ATOM     57  C   UNL A   1      45.839  26.967  29.219  1.00  0.00     0.074 A 
ATOM     58  C   UNL A   1      46.287  25.680  28.734  1.00  0.00     0.031 C 
ATOM     59  C   UNL A   1      46.668  27.943  29.669  1.00  0.00     0.031 A 
BRANCH  46  60
ATOM     60  C   UNL A   1      43.681  33.061  31.409  1.00  0.00    -0.014 A 
ATOM     61  C   UNL A   1      43.649  33.313  32.791  1.00  0.00     0.010 A 
ATOM     62  C   UNL A   1      43.831  34.141  30.518  1.00  0.00     0.010 A 
ATOM     63  C   UNL A   1      43.725  34.624  33.270  1.00  0.00     0.020 A 
ATOM     64  C   UNL A   1      43.940  35.449  30.994  1.00  0.00     0.020 A 
ATOM     65  C   UNL A   1      43.869  35.684  32.368  1.00  0.00     0.054 A 
BRANCH  65  66
ATOM     66  S   UNL A   1      43.989  37.373  33.017  1.00  0.00     0.124 S 
ATOM     67  O   UNL A   1      42.858  37.421  33.941  1.00  0.00    -0.237 OA
ATOM     68  O   UNL A   1      45.310  37.382  33.641  1.00  0.00    -0.237 OA
ATOM     69  O   UNL A   1      43.857  38.213  31.829  1.00  0.00    -0.744 OA
ENDBRANCH  65  66
ENDBRANCH  46  60
BRANCH  47  70
ATOM     70  C   UNL A   1      42.608  23.881  27.743  1.00  0.00    -0.014 A 
ATOM     71  C   UNL A   1      42.542  22.746  28.574  1.00  0.00     0.010 A 
ATOM     72  C   UNL A   1      42.613  23.692  26.347  1.00  0.00     0.010 A 
ATOM     73  C   UNL A   1      42.493  21.458  28.023  1.00  0.00     0.020 A 
ATOM     74  C   UNL A   1      42.531  22.410  25.792  1.00  0.00     0.020 A 
ATOM     75  C   UNL A   1      42.482  21.299  26.635  1.00  0.00     0.054 A 
BRANCH  75  76
ATOM     76  S   UNL A   1      42.359  19.625  25.940  1.00  0.00     0.124 S 
ATOM     77  O   UNL A   1      40.973  19.581  25.489  1.00  0.00    -0.237 OA
ATOM     78  O   UNL A   1      43.369  19.649  24.885  1.00  0.00    -0.237 OA
ATOM     79  O   UNL A   1      42.678  18.760  27.074  1.00  0.00    -0.744 OA
ENDBRANCH  75  76
ENDBRANCH  47  70
BRANCH  59  80
ATOM     80  C   UNL A   1      48.148  27.654  29.715  1.00  0.00    -0.014 A 
ATOM     81  C   UNL A   1      48.714  26.862  30.730  1.00  0.00     0.010 A 
ATOM     82  C   UNL A   1      48.979  28.129  28.682  1.00  0.00     0.010 A 
ATOM     83  C   UNL A   1      50.085  26.579  30.729  1.00  0.00     0.020 A 
ATOM     84  C   UNL A   1      50.344  27.825  28.661  1.00  0.00     0.020 A 
ATOM     85  C   UNL A   1      50.891  27.062  29.693  1.00  0.00     0.054 A 
BRANCH  85  86
ATOM     86  S   UNL A   1      52.658  26.647  29.692  1.00  0.00     0.124 S 
ATOM     87  O   UNL A   1      52.781  25.832  30.897  1.00  0.00    -0.237 OA
ATOM     88  O   UNL A   1      52.818  25.929  28.430  1.00  0.00    -0.237 OA
ATOM     89  O   UNL A   1      53.321  27.947  29.751  1.00  0.00    -0.744 OA
ENDBRANCH  85  86
ENDBRANCH  59  80
ENDBRANCH  33  34
ENDBRANCH  26  28
ENDBRANCH  25  26
ENDBRANCH   1  25
TORSDOF 18
ENDMDL
MODEL 2
REMARK VINA RESULT:     -10.3      3.442      7.534
REMARK SMILES CCC(CC)(NC(=O)Nc1cc(Cl)cc(Cl)c1)C(=O)OCCOC(=O)c1ccc(-c2c3nc(c(-c4ccc(S(=O)(=O)[O-])cc4)c4ccc([nH]4)c(-c4ccc(S(=O)(=O)[O-])cc4)c4nc(c(-c5ccc(S(=O)(=O)[O-])cc5)c5ccc2[nH]5)C=C4)C=C3)cc1
REMARK SMILES IDX 22 1 21 2 20 3 18 4 19 5 3 6 2 7 1 8 4 9 5 10 6 11 7 12 8 14
REMARK SMILES IDX 9 15 10 17 11 18 17 19 12 20 15 21 13 22 14 23 16 24 23 25
REMARK SMILES IDX 24 26 25 27 26 28 27 29 85 30 28 31 84 32 29 33 30 34 31 35
REMARK SMILES IDX 78 36 32 37 83 38 77 39 79 40 33 41 82 42 76 43 75 44 34 46
REMARK SMILES IDX 64 47 45 48 63 49 46 50 49 51 62 52 80 53 47 54 48 55 61 57
REMARK SMILES IDX 81 58 50 59 35 60 36 61 44 62 37 63 43 64 38 65 39 66 40 67
REMARK SMILES IDX 41 68 42 69 65 70 66 71 74 72 67 73 73 74 68 75 69 76 70 77
REMARK SMILES IDX 71 78 72 79 51 80 52 81 60 82 53 83 59 84 54 85 55 86 56 87
REMARK SMILES IDX 57 88 58 89
REMARK H PARENT 6 13 9 16 79 45 49 56
REMARK Flexibility Score: inf
ROOT
ATOM      1  C   UNL A   1      36.675  21.935  24.473  1.00  0.00     0.275 C 
ENDROOT
BRANCH   1   2
ATOM      2  C   UNL A   1      35.692  20.707  25.010  1.00  0.00     0.274 C 
BRANCH   2   3
ATOM      3  O   UNL A   1      34.253  21.032  25.257  1.00  0.00    -0.460 OA
BRANCH   3   4
ATOM      4  C   UNL A   1      33.757  21.873  26.283  1.00  0.00     0.332 C 
ATOM      5  O   UNL A   1      34.065  21.693  27.458  1.00  0.00    -0.249 OA
BRANCH   4   6
ATOM      6  C   UNL A   1      32.615  23.061  25.767  1.00  0.00     0.139 C 
BRANCH   6   7
ATOM      7  C   UNL A   1      31.683  23.329  24.489  1.00  0.00     0.037 C 
ATOM      8  C   UNL A   1      31.724  22.595  23.179  1.00  0.00     0.007 C 
ENDBRANCH   6   7
BRANCH   6   9
ATOM      9  C   UNL A   1      33.239  24.414  26.201  1.00  0.00     0.037 C 
ATOM     10  C   UNL A   1      34.316  25.062  25.325  1.00  0.00     0.007 C 
ENDBRANCH   6   9
BRANCH   6  11
ATOM     11  N   UNL A   1      31.595  22.527  26.590  1.00  0.00    -0.322 N 
ATOM     12  C   UNL A   1      30.591  23.351  26.948  1.00  0.00     0.320 C 
ATOM     13  H   UNL A   1      31.619  21.589  26.890  1.00  0.00     0.166 HD
ATOM     14  O   UNL A   1      29.699  22.821  27.615  1.00  0.00    -0.248 OA
ATOM     15  N   UNL A   1      30.505  24.697  26.588  1.00  0.00    -0.308 N 
ATOM     16  H   UNL A   1      29.798  25.021  27.191  1.00  0.00     0.171 HD
BRANCH  15  17
ATOM     17  C   UNL A   1      30.842  25.901  25.849  1.00  0.00     0.045 A 
ATOM     18  C   UNL A   1      30.577  26.293  24.537  1.00  0.00     0.046 A 
ATOM     19  C   UNL A   1      31.424  26.922  26.641  1.00  0.00     0.046 A 
ATOM     20  C   UNL A   1      30.826  27.605  24.071  1.00  0.00     0.044 A 
ATOM     21  C   UNL A   1      31.715  28.211  26.172  1.00  0.00     0.044 A 
ATOM     22  Cl  UNL A   1      30.353  28.047  22.470  1.00  0.00    -0.084 Cl
ATOM     23  C   UNL A   1      31.412  28.566  24.877  1.00  0.00     0.041 A 
ATOM     24  Cl  UNL A   1      32.414  29.365  27.240  1.00  0.00    -0.084 Cl
ENDBRANCH  15  17
ENDBRANCH   6  11
ENDBRANCH   4   6
ENDBRANCH   3   4
ENDBRANCH   2   3
ENDBRANCH   1   2
BRANCH   1  25
ATOM     25  O   UNL A   1      37.388  22.796  25.496  1.00  0.00    -0.458 OA
BRANCH  25  26
ATOM     26  C   UNL A   1      38.645  22.518  26.035  1.00  0.00     0.338 C 
ATOM     27  O   UNL A   1      39.136  21.408  26.067  1.00  0.00    -0.246 OA
BRANCH  26  28
ATOM     28  C   UNL A   1      39.349  23.792  26.625  1.00  0.00     0.060 A 
ATOM     29  C   UNL A   1      39.906  24.811  25.824  1.00  0.00     0.016 A 
ATOM     30  C   UNL A   1      39.521  23.992  27.996  1.00  0.00     0.016 A 
ATOM     31  C   UNL A   1      40.408  26.037  26.296  1.00  0.00     0.010 A 
ATOM     32  C   UNL A   1      40.139  25.188  28.498  1.00  0.00     0.010 A 
ATOM     33  C   UNL A   1      40.565  26.240  27.655  1.00  0.00    -0.014 A 
BRANCH  33  34
ATOM     34  C   UNL A   1      41.430  27.386  28.105  1.00  0.00     0.031 A 
ATOM     35  C   UNL A   1      40.749  28.560  28.772  1.00  0.00     0.074 A 
ATOM     36  C   UNL A   1      42.783  27.380  28.091  1.00  0.00     0.049 A 
ATOM     37  N   UNL A   1      41.229  29.732  29.102  1.00  0.00    -0.248 NA
ATOM     38  C   UNL A   1      39.334  28.368  29.129  1.00  0.00     0.031 C 
ATOM     39  C   UNL A   1      43.635  26.262  27.684  1.00  0.00     0.029 A 
ATOM     40  N   UNL A   1      43.688  28.368  28.437  1.00  0.00    -0.354 N 
ATOM     41  C   UNL A   1      40.161  30.439  29.645  1.00  0.00     0.074 A 
ATOM     42  C   UNL A   1      39.014  29.556  29.617  1.00  0.00     0.031 C 
ATOM     43  C   UNL A   1      44.927  26.637  27.773  1.00  0.00     0.029 A 
ATOM     44  C   UNL A   1      45.004  28.041  28.185  1.00  0.00     0.049 A 
ATOM     45  H   UNL A   1      43.416  29.229  28.828  1.00  0.00     0.167 HD
ATOM     46  C   UNL A   1      40.124  31.710  30.112  1.00  0.00     0.031 A 
ATOM     47  C   UNL A   1      46.132  28.789  28.227  1.00  0.00     0.031 A 
ATOM     48  C   UNL A   1      41.261  32.591  30.170  1.00  0.00     0.049 A 
ATOM     49  C   UNL A   1      46.055  30.250  28.615  1.00  0.00     0.074 A 
ATOM     50  C   UNL A   1      41.304  33.910  30.592  1.00  0.00     0.029 A 
ATOM     51  N   UNL A   1      42.552  32.246  29.810  1.00  0.00    -0.354 N 
ATOM     52  N   UNL A   1      45.018  30.943  29.024  1.00  0.00    -0.248 NA
ATOM     53  C   UNL A   1      47.300  31.034  28.536  1.00  0.00     0.031 C 
ATOM     54  C   UNL A   1      42.611  34.380  30.429  1.00  0.00     0.029 A 
ATOM     55  C   UNL A   1      43.396  33.334  29.975  1.00  0.00     0.049 A 
ATOM     56  H   UNL A   1      42.830  31.360  29.485  1.00  0.00     0.167 HD
ATOM     57  C   UNL A   1      45.493  32.231  29.274  1.00  0.00     0.074 A 
ATOM     58  C   UNL A   1      46.910  32.219  28.988  1.00  0.00     0.031 C 
ATOM     59  C   UNL A   1      44.810  33.323  29.701  1.00  0.00     0.031 A 
BRANCH  46  60
ATOM     60  C   UNL A   1      38.781  32.259  30.520  1.00  0.00    -0.014 A 
ATOM     61  C   UNL A   1      37.904  32.847  29.592  1.00  0.00     0.010 A 
ATOM     62  C   UNL A   1      38.387  32.154  31.867  1.00  0.00     0.010 A 
ATOM     63  C   UNL A   1      36.672  33.356  30.014  1.00  0.00     0.020 A 
ATOM     64  C   UNL A   1      37.143  32.633  32.286  1.00  0.00     0.020 A 
ATOM     65  C   UNL A   1      36.300  33.246  31.358  1.00  0.00     0.054 A 
BRANCH  65  66
ATOM     66  S   UNL A   1      34.686  33.893  31.873  1.00  0.00     0.124 S 
ATOM     67  O   UNL A   1      33.973  32.670  32.235  1.00  0.00    -0.237 OA
ATOM     68  O   UNL A   1      35.035  34.769  32.988  1.00  0.00    -0.237 OA
ATOM     69  O   UNL A   1      34.187  34.574  30.681  1.00  0.00    -0.744 OA
ENDBRANCH  65  66
ENDBRANCH  46  60
BRANCH  47  70
ATOM     70  C   UNL A   1      47.447  28.211  27.802  1.00  0.00    -0.014 A 
ATOM     71  C   UNL A   1      47.832  28.185  26.447  1.00  0.00     0.010 A 
ATOM     72  C   UNL A   1      48.301  27.624  28.754  1.00  0.00     0.010 A 
ATOM     73  C   UNL A   1      49.034  27.578  26.056  1.00  0.00     0.020 A 
ATOM     74  C   UNL A   1      49.517  27.045  28.373  1.00  0.00     0.020 A 
ATOM     75  C   UNL A   1      49.871  27.017  27.024  1.00  0.00     0.054 A 
BRANCH  75  76
ATOM     76  S   UNL A   1      51.451  26.286  26.505  1.00  0.00     0.124 S 
ATOM     77  O   UNL A   1      51.450  26.540  25.069  1.00  0.00    -0.237 OA
ATOM     78  O   UNL A   1      52.422  27.052  27.283  1.00  0.00    -0.237 OA
ATOM     79  O   UNL A   1      51.323  24.883  26.893  1.00  0.00    -0.744 OA
ENDBRANCH  75  76
ENDBRANCH  47  70
BRANCH  59  80
ATOM     80  C   UNL A   1      45.584  34.596  29.944  1.00  0.00    -0.014 A 
ATOM     81  C   UNL A   1      45.738  35.568  28.940  1.00  0.00     0.010 A 
ATOM     82  C   UNL A   1      46.109  34.852  31.225  1.00  0.00     0.010 A 
ATOM     83  C   UNL A   1      46.430  36.756  29.203  1.00  0.00     0.020 A 
ATOM     84  C   UNL A   1      46.775  36.051  31.500  1.00  0.00     0.020 A 
ATOM     85  C   UNL A   1      46.944  36.991  30.482  1.00  0.00     0.054 A 
BRANCH  85  86
ATOM     86  S   UNL A   1      47.801  38.557  30.809  1.00  0.00     0.124 S 
ATOM     87  O   UNL A   1      47.527  39.314  29.591  1.00  0.00    -0.237 OA
ATOM     88  O   UNL A   1      47.132  39.043  32.014  1.00  0.00    -0.237 OA
ATOM     89  O   UNL A   1      49.194  38.159  30.994  1.00  0.00    -0.744 OA
ENDBRANCH  85  86
ENDBRANCH  59  80
ENDBRANCH  33  34
ENDBRANCH  26  28
ENDBRANCH  25  26
ENDBRANCH   1  25
TORSDOF 18
ENDMDL
MODEL 3
REMARK VINA RESULT:     -10.3      3.505      9.446
REMARK SMILES CCC(CC)(NC(=O)Nc1cc(Cl)cc(Cl)c1)C(=O)OCCOC(=O)c1ccc(-c2c3nc(c(-c4ccc(S(=O)(=O)[O-])cc4)c4ccc([nH]4)c(-c4ccc(S(=O)(=O)[O-])cc4)c4nc(c(-c5ccc(S(=O)(=O)[O-])cc5)c5ccc2[nH]5)C=C4)C=C3)cc1
REMARK SMILES IDX 22 1 21 2 20 3 18 4 19 5 3 6 2 7 1 8 4 9 5 10 6 11 7 12 8 14
REMARK SMILES IDX 9 15 10 17 11 18 17 19 12 20 15 21 13 22 14 23 16 24 23 25
REMARK SMILES IDX 24 26 25 27 26 28 27 29 85 30 28 31 84 32 29 33 30 34 31 35
REMARK SMILES IDX 78 36 32 37 83 38 77 39 79 40 33 41 82 42 76 43 75 44 34 46
REMARK SMILES IDX 64 47 45 48 63 49 46 50 49 51 62 52 80 53 47 54 48 55 61 57
REMARK SMILES IDX 81 58 50 59 35 60 36 61 44 62 37 63 43 64 38 65 39 66 40 67
REMARK SMILES IDX 41 68 42 69 65 70 66 71 74 72 67 73 73 74 68 75 69 76 70 77
REMARK SMILES IDX 71 78 72 79 51 80 52 81 60 82 53 83 59 84 54 85 55 86 56 87
REMARK SMILES IDX 57 88 58 89
REMARK H PARENT 6 13 9 16 79 45 49 56
REMARK Flexibility Score: inf
ROOT
ATOM      1  C   UNL A   1      36.573  22.285  24.365  1.00  0.00     0.275 C 
ENDROOT
BRANCH   1   2
ATOM      2  C   UNL A   1      35.586  21.028  24.823  1.00  0.00     0.274 C 
BRANCH   2   3
ATOM      3  O   UNL A   1      34.123  21.313  24.957  1.00  0.00    -0.460 OA
BRANCH   3   4
ATOM      4  C   UNL A   1      33.494  21.912  26.076  1.00  0.00     0.332 C 
ATOM      5  O   UNL A   1      33.653  21.466  27.209  1.00  0.00    -0.249 OA
BRANCH   4   6
ATOM      6  C   UNL A   1      32.416  23.208  25.702  1.00  0.00     0.139 C 
BRANCH   6   7
ATOM      7  C   UNL A   1      31.496  23.663  24.469  1.00  0.00     0.037 C 
ATOM      8  C   UNL A   1      31.485  23.067  23.090  1.00  0.00     0.007 C 
ENDBRANCH   6   7
BRANCH   6   9
ATOM      9  C   UNL A   1      33.112  24.471  26.277  1.00  0.00     0.037 C 
ATOM     10  C   UNL A   1      34.376  25.007  25.598  1.00  0.00     0.007 C 
ENDBRANCH   6   9
BRANCH   6  11
ATOM     11  N   UNL A   1      31.371  22.642  26.471  1.00  0.00    -0.322 N 
ATOM     12  C   UNL A   1      30.430  23.477  26.950  1.00  0.00     0.320 C 
ATOM     13  H   UNL A   1      31.333  21.673  26.647  1.00  0.00     0.166 HD
ATOM     14  O   UNL A   1      29.511  22.926  27.563  1.00  0.00    -0.248 OA
ATOM     15  N   UNL A   1      30.432  24.861  26.768  1.00  0.00    -0.308 N 
ATOM     16  H   UNL A   1      29.756  25.152  27.421  1.00  0.00     0.171 HD
BRANCH  15  17
ATOM     17  C   UNL A   1      30.843  26.125  26.182  1.00  0.00     0.045 A 
ATOM     18  C   UNL A   1      31.863  27.017  26.514  1.00  0.00     0.046 A 
ATOM     19  C   UNL A   1      30.180  26.445  24.972  1.00  0.00     0.046 A 
ATOM     20  C   UNL A   1      32.220  28.106  25.683  1.00  0.00     0.044 A 
ATOM     21  C   UNL A   1      30.499  27.548  24.167  1.00  0.00     0.044 A 
ATOM     22  Cl  UNL A   1      33.577  29.089  26.101  1.00  0.00    -0.084 Cl
ATOM     23  C   UNL A   1      31.532  28.389  24.517  1.00  0.00     0.041 A 
ATOM     24  Cl  UNL A   1      29.622  27.821  22.712  1.00  0.00    -0.084 Cl
ENDBRANCH  15  17
ENDBRANCH   6  11
ENDBRANCH   4   6
ENDBRANCH   3   4
ENDBRANCH   2   3
ENDBRANCH   1   2
BRANCH   1  25
ATOM     25  O   UNL A   1      37.258  23.101  25.443  1.00  0.00    -0.458 OA
BRANCH  25  26
ATOM     26  C   UNL A   1      38.559  22.884  25.901  1.00  0.00     0.338 C 
ATOM     27  O   UNL A   1      39.175  21.854  25.723  1.00  0.00    -0.246 OA
BRANCH  26  28
ATOM     28  C   UNL A   1      39.134  24.109  26.699  1.00  0.00     0.060 A 
ATOM     29  C   UNL A   1      38.755  24.419  28.022  1.00  0.00     0.016 A 
ATOM     30  C   UNL A   1      40.034  25.018  26.140  1.00  0.00     0.016 A 
ATOM     31  C   UNL A   1      39.349  25.406  28.830  1.00  0.00     0.010 A 
ATOM     32  C   UNL A   1      40.564  26.106  26.913  1.00  0.00     0.010 A 
ATOM     33  C   UNL A   1      40.250  26.298  28.279  1.00  0.00    -0.014 A 
BRANCH  33  34
ATOM     34  C   UNL A   1      40.578  27.545  29.054  1.00  0.00     0.031 A 
ATOM     35  C   UNL A   1      41.931  27.619  29.725  1.00  0.00     0.074 A 
ATOM     36  C   UNL A   1      39.814  28.662  29.072  1.00  0.00     0.049 A 
ATOM     37  N   UNL A   1      42.397  28.494  30.580  1.00  0.00    -0.248 NA
ATOM     38  C   UNL A   1      42.890  26.563  29.364  1.00  0.00     0.031 C 
ATOM     39  C   UNL A   1      38.577  28.872  28.321  1.00  0.00     0.029 A 
ATOM     40  N   UNL A   1      39.979  29.849  29.764  1.00  0.00    -0.354 N 
ATOM     41  C   UNL A   1      43.678  28.059  30.905  1.00  0.00     0.074 A 
ATOM     42  C   UNL A   1      43.920  26.853  30.142  1.00  0.00     0.031 C 
ATOM     43  C   UNL A   1      38.083  30.091  28.616  1.00  0.00     0.029 A 
ATOM     44  C   UNL A   1      38.929  30.733  29.624  1.00  0.00     0.049 A 
ATOM     45  H   UNL A   1      40.775  30.045  30.309  1.00  0.00     0.167 HD
ATOM     46  C   UNL A   1      44.571  28.598  31.770  1.00  0.00     0.031 A 
ATOM     47  C   UNL A   1      38.651  31.894  30.263  1.00  0.00     0.031 A 
ATOM     48  C   UNL A   1      44.356  29.810  32.516  1.00  0.00     0.049 A 
ATOM     49  C   UNL A   1      39.591  32.412  31.331  1.00  0.00     0.074 A 
ATOM     50  C   UNL A   1      45.192  30.406  33.446  1.00  0.00     0.029 A 
ATOM     51  N   UNL A   1      43.235  30.616  32.415  1.00  0.00    -0.354 N 
ATOM     52  N   UNL A   1      40.752  31.934  31.713  1.00  0.00    -0.248 NA
ATOM     53  C   UNL A   1      39.175  33.621  32.064  1.00  0.00     0.031 C 
ATOM     54  C   UNL A   1      44.550  31.541  33.950  1.00  0.00     0.029 A 
ATOM     55  C   UNL A   1      43.346  31.691  33.282  1.00  0.00     0.049 A 
ATOM     56  H   UNL A   1      42.473  30.451  31.814  1.00  0.00     0.167 HD
ATOM     57  C   UNL A   1      41.213  32.798  32.706  1.00  0.00     0.074 A 
ATOM     58  C   UNL A   1      40.217  33.835  32.857  1.00  0.00     0.031 C 
ATOM     59  C   UNL A   1      42.361  32.732  33.428  1.00  0.00     0.031 A 
BRANCH  46  60
ATOM     60  C   UNL A   1      45.841  27.827  32.023  1.00  0.00    -0.014 A 
ATOM     61  C   UNL A   1      45.935  26.861  33.039  1.00  0.00     0.010 A 
ATOM     62  C   UNL A   1      46.956  28.066  31.197  1.00  0.00     0.010 A 
ATOM     63  C   UNL A   1      47.136  26.176  33.250  1.00  0.00     0.020 A 
ATOM     64  C   UNL A   1      48.146  27.360  31.384  1.00  0.00     0.020 A 
ATOM     65  C   UNL A   1      48.233  26.431  32.422  1.00  0.00     0.054 A 
BRANCH  65  66
ATOM     66  S   UNL A   1      49.771  25.511  32.702  1.00  0.00     0.124 S 
ATOM     67  O   UNL A   1      50.129  25.102  31.346  1.00  0.00    -0.237 OA
ATOM     68  O   UNL A   1      50.640  26.519  33.303  1.00  0.00    -0.237 OA
ATOM     69  O   UNL A   1      49.371  24.425  33.593  1.00  0.00    -0.744 OA
ENDBRANCH  65  66
ENDBRANCH  46  60
BRANCH  47  70
ATOM     70  C   UNL A   1      37.372  32.626  29.994  1.00  0.00    -0.014 A 
ATOM     71  C   UNL A   1      36.256  32.488  30.842  1.00  0.00     0.010 A 
ATOM     72  C   UNL A   1      37.245  33.424  28.841  1.00  0.00     0.010 A 
ATOM     73  C   UNL A   1      35.044  33.123  30.538  1.00  0.00     0.020 A 
ATOM     74  C   UNL A   1      36.047  34.087  28.551  1.00  0.00     0.020 A 
ATOM     75  C   UNL A   1      34.949  33.923  29.397  1.00  0.00     0.054 A 
BRANCH  75  76
ATOM     76  S   UNL A   1      33.388  34.785  29.051  1.00  0.00     0.124 S 
ATOM     77  O   UNL A   1      32.784  34.868  30.376  1.00  0.00    -0.237 OA
ATOM     78  O   UNL A   1      33.847  36.050  28.482  1.00  0.00    -0.237 OA
ATOM     79  O   UNL A   1      32.710  33.898  28.107  1.00  0.00    -0.744 OA
ENDBRANCH  75  76
ENDBRANCH  47  70
BRANCH  59  80
ATOM     80  C   UNL A   1      42.644  33.837  34.417  1.00  0.00    -0.014 A 
ATOM     81  C   UNL A   1      42.247  33.743  35.762  1.00  0.00     0.010 A 
ATOM     82  C   UNL A   1      43.383  34.962  34.003  1.00  0.00     0.010 A 
ATOM     83  C   UNL A   1      42.555  34.766  36.666  1.00  0.00     0.020 A 
ATOM     84  C   UNL A   1      43.719  35.973  34.910  1.00  0.00     0.020 A 
ATOM     85  C   UNL A   1      43.290  35.875  36.234  1.00  0.00     0.054 A 
BRANCH  85  86
ATOM     86  S   UNL A   1      43.712  37.169  37.435  1.00  0.00     0.124 S 
ATOM     87  O   UNL A   1      44.805  36.549  38.179  1.00  0.00    -0.237 OA
ATOM     88  O   UNL A   1      44.091  38.290  36.579  1.00  0.00    -0.237 OA
ATOM     89  O   UNL A   1      42.476  37.359  38.190  1.00  0.00    -0.744 OA
ENDBRANCH  85  86
ENDBRANCH  59  80
ENDBRANCH  33  34
ENDBRANCH  26  28
ENDBRANCH  25  26
ENDBRANCH   1  25
TORSDOF 18
ENDMDL
