MODEL 1
REMARK VINA RESULT:     -10.5      0.000      0.000
REMARK SMILES NS(=O)(=O)c1ccc(C#Cc2cc(Cl)cc3c2O[C@H](C(F)(F)F)C(C(=O)OCCOC(=O)c2ccc(-c4c5nc(c(-c6ccc(S(=O)(=O)[O-])cc6)c6ccc([nH]6)c(-c6ccc(S(=O)(=O)[O-])cc6)c6nc(c(-c7ccc(S(=O)(=O)[O-])cc7)c7ccc4[nH]7)C=C6)C=C5)cc2)=C3)cc1
REMARK SMILES IDX 28 1 27 2 25 3 26 4 24 5 11 6 12 7 17 8 13 9 16 10 18 11
REMARK SMILES IDX 14 12 15 13 93 14 19 15 10 16 9 17 8 18 5 19 6 20 95 21 7 22
REMARK SMILES IDX 94 23 2 24 3 25 4 26 1 27 20 30 21 31 22 32 23 33 29 34
REMARK SMILES IDX 30 35 31 36 32 37 33 38 34 39 92 40 35 41 91 42 36 43 37 44
REMARK SMILES IDX 38 45 85 46 39 47 90 48 84 49 86 50 40 51 89 52 83 53 82 54
REMARK SMILES IDX 41 56 71 57 52 58 70 59 53 60 56 61 69 62 87 63 54 64 55 65
REMARK SMILES IDX 68 67 88 68 57 69 42 70 43 71 51 72 44 73 50 74 45 75 46 76
REMARK SMILES IDX 47 77 48 78 49 79 72 80 73 81 81 82 74 83 80 84 75 85 76 86
REMARK SMILES IDX 77 87 78 88 79 89 58 90 59 91 67 92 60 93 66 94 61 95 62 96
REMARK SMILES IDX 63 97 64 98 65 99
REMARK H PARENT 1 28 1 29 86 55 56 66
REMARK Flexibility Score: inf
ROOT
ATOM      1  C   UNL A   1      33.503  33.927  28.455  1.00  0.00     0.275 C 
ENDROOT
BRANCH   1   2
ATOM      2  O   UNL A   1      33.645  33.725  29.880  1.00  0.00    -0.459 OA
BRANCH   2   3
ATOM      3  C   UNL A   1      34.225  34.742  30.560  1.00  0.00     0.338 C 
ATOM      4  O   UNL A   1      33.963  35.928  30.448  1.00  0.00    -0.246 OA
BRANCH   3   5
ATOM      5  C   UNL A   1      35.245  34.235  31.504  1.00  0.00     0.087 C 
ATOM      6  C   UNL A   1      37.778  32.580  34.401  1.00  0.00     0.069 A 
ATOM      7  C   UNL A   1      38.169  31.240  34.290  1.00  0.00     0.041 A 
ATOM      8  C   UNL A   1      36.975  33.179  33.422  1.00  0.00     0.143 A 
ATOM      9  C   UNL A   1      37.776  30.496  33.185  1.00  0.00     0.043 A 
ATOM     10  C   UNL A   1      36.580  32.413  32.330  1.00  0.00     0.020 A 
ATOM     11  O   UNL A   1      36.617  34.495  33.573  1.00  0.00    -0.474 OA
ATOM     12  Cl  UNL A   1      38.242  28.847  33.051  1.00  0.00    -0.084 Cl
ATOM     13  C   UNL A   1      36.990  31.077  32.199  1.00  0.00     0.032 A 
ATOM     14  C   UNL A   1      35.697  32.988  31.342  1.00  0.00     0.027 C 
ATOM     15  C   UNL A   1      35.610  35.073  32.691  1.00  0.00     0.316 C 
BRANCH   6  16
ATOM     16  C   UNL A   1      38.185  33.305  35.556  1.00  0.00    -0.058 C 
ATOM     17  C   UNL A   1      38.496  33.935  36.530  1.00  0.00    -0.062 C 
BRANCH  17  18
ATOM     18  C   UNL A   1      38.822  34.728  37.663  1.00  0.00     0.025 A 
ATOM     19  C   UNL A   1      39.556  36.207  39.885  1.00  0.00     0.082 A 
ATOM     20  C   UNL A   1      38.897  34.985  40.057  1.00  0.00     0.023 A 
ATOM     21  C   UNL A   1      39.828  36.709  38.610  1.00  0.00     0.023 A 
ATOM     22  C   UNL A   1      38.534  34.241  38.939  1.00  0.00     0.018 A 
ATOM     23  C   UNL A   1      39.456  35.961  37.493  1.00  0.00     0.018 A 
BRANCH  19  24
ATOM     24  S   UNL A   1      40.054  37.099  41.324  1.00  0.00     0.238 S 
ATOM     25  O   UNL A   1      39.403  38.387  41.325  1.00  0.00    -0.207 OA
ATOM     26  O   UNL A   1      41.476  36.943  41.525  1.00  0.00    -0.207 OA
BRANCH  24  27
ATOM     27  N   UNL A   1      39.324  36.204  42.543  1.00  0.00    -0.225 NA
ATOM     28  H   UNL A   1      38.355  36.012  42.289  1.00  0.00     0.137 HD
ATOM     29  H   UNL A   1      39.348  36.733  43.415  1.00  0.00     0.137 HD
ENDBRANCH  24  27
ENDBRANCH  19  24
ENDBRANCH  17  18
ENDBRANCH   6  16
BRANCH  15  30
ATOM     30  C   UNL A   1      34.360  35.421  33.518  1.00  0.00     0.430 C 
ATOM     31  F   UNL A   1      34.561  35.194  34.838  1.00  0.00    -0.167 F 
ATOM     32  F   UNL A   1      34.032  36.731  33.402  1.00  0.00    -0.167 F 
ATOM     33  F   UNL A   1      33.281  34.700  33.140  1.00  0.00    -0.167 F 
ENDBRANCH  15  30
ENDBRANCH   3   5
ENDBRANCH   2   3
ENDBRANCH   1   2
BRANCH   1  34
ATOM     34  C   UNL A   1      33.507  32.599  27.690  1.00  0.00     0.275 C 
BRANCH  34  35
ATOM     35  O   UNL A   1      34.322  31.616  28.350  1.00  0.00    -0.458 OA
BRANCH  35  36
ATOM     36  C   UNL A   1      34.448  30.448  27.680  1.00  0.00     0.338 C 
ATOM     37  O   UNL A   1      33.650  29.950  26.905  1.00  0.00    -0.246 OA
BRANCH  36  38
ATOM     38  C   UNL A   1      35.792  29.905  27.891  1.00  0.00     0.060 A 
ATOM     39  C   UNL A   1      36.840  30.154  27.020  1.00  0.00     0.016 A 
ATOM     40  C   UNL A   1      36.032  29.262  29.096  1.00  0.00     0.016 A 
ATOM     41  C   UNL A   1      38.125  29.732  27.381  1.00  0.00     0.010 A 
ATOM     42  C   UNL A   1      37.324  29.037  29.542  1.00  0.00     0.010 A 
ATOM     43  C   UNL A   1      38.392  29.207  28.666  1.00  0.00    -0.014 A 
BRANCH  43  44
ATOM     44  C   UNL A   1      39.761  28.802  29.089  1.00  0.00     0.031 A 
ATOM     45  C   UNL A   1      40.590  29.695  29.990  1.00  0.00     0.074 A 
ATOM     46  C   UNL A   1      40.269  27.633  28.646  1.00  0.00     0.049 A 
ATOM     47  N   UNL A   1      41.774  29.468  30.501  1.00  0.00    -0.248 NA
ATOM     48  C   UNL A   1      40.050  31.024  30.338  1.00  0.00     0.031 C 
ATOM     49  C   UNL A   1      39.605  26.733  27.701  1.00  0.00     0.029 A 
ATOM     50  N   UNL A   1      41.438  26.981  28.953  1.00  0.00    -0.354 N 
ATOM     51  C   UNL A   1      42.109  30.615  31.214  1.00  0.00     0.074 A 
ATOM     52  C   UNL A   1      41.060  31.576  30.993  1.00  0.00     0.031 C 
ATOM     53  C   UNL A   1      40.321  25.606  27.586  1.00  0.00     0.029 A 
ATOM     54  C   UNL A   1      41.532  25.727  28.391  1.00  0.00     0.049 A 
ATOM     55  H   UNL A   1      42.141  27.373  29.519  1.00  0.00     0.167 HD
ATOM     56  C   UNL A   1      43.166  30.830  32.029  1.00  0.00     0.031 A 
ATOM     57  C   UNL A   1      42.475  24.771  28.520  1.00  0.00     0.031 A 
ATOM     58  C   UNL A   1      44.180  29.842  32.284  1.00  0.00     0.049 A 
ATOM     59  C   UNL A   1      43.636  25.025  29.440  1.00  0.00     0.074 A 
ATOM     60  C   UNL A   1      45.254  29.927  33.150  1.00  0.00     0.029 A 
ATOM     61  N   UNL A   1      44.240  28.592  31.687  1.00  0.00    -0.354 N 
ATOM     62  N   UNL A   1      43.877  26.078  30.187  1.00  0.00    -0.248 NA
ATOM     63  C   UNL A   1      44.645  23.963  29.552  1.00  0.00     0.031 C 
ATOM     64  C   UNL A   1      46.012  28.766  33.011  1.00  0.00     0.029 A 
ATOM     65  C   UNL A   1      45.357  27.911  32.137  1.00  0.00     0.049 A 
ATOM     66  H   UNL A   1      43.586  28.241  31.040  1.00  0.00     0.167 HD
ATOM     67  C   UNL A   1      45.054  25.796  30.871  1.00  0.00     0.074 A 
ATOM     68  C   UNL A   1      45.459  24.465  30.473  1.00  0.00     0.031 C 
ATOM     69  C   UNL A   1      45.742  26.578  31.740  1.00  0.00     0.031 A 
BRANCH  56  70
ATOM     70  C   UNL A   1      43.269  32.148  32.761  1.00  0.00    -0.014 A 
ATOM     71  C   UNL A   1      42.597  32.327  33.984  1.00  0.00     0.010 A 
ATOM     72  C   UNL A   1      43.902  33.256  32.167  1.00  0.00     0.010 A 
ATOM     73  C   UNL A   1      42.506  33.594  34.569  1.00  0.00     0.020 A 
ATOM     74  C   UNL A   1      43.849  34.517  32.768  1.00  0.00     0.020 A 
ATOM     75  C   UNL A   1      43.120  34.684  33.947  1.00  0.00     0.054 A 
BRANCH  75  76
ATOM     76  S   UNL A   1      42.919  36.334  34.675  1.00  0.00     0.124 S 
ATOM     77  O   UNL A   1      43.432  37.201  33.618  1.00  0.00    -0.237 OA
ATOM     78  O   UNL A   1      41.478  36.403  34.907  1.00  0.00    -0.237 OA
ATOM     79  O   UNL A   1      43.734  36.277  35.887  1.00  0.00    -0.744 OA
ENDBRANCH  75  76
ENDBRANCH  56  70
BRANCH  57  80
ATOM     80  C   UNL A   1      42.298  23.471  27.809  1.00  0.00    -0.014 A 
ATOM     81  C   UNL A   1      41.481  22.462  28.357  1.00  0.00     0.010 A 
ATOM     82  C   UNL A   1      43.021  23.192  26.636  1.00  0.00     0.010 A 
ATOM     83  C   UNL A   1      41.448  21.184  27.792  1.00  0.00     0.020 A 
ATOM     84  C   UNL A   1      42.958  21.925  26.041  1.00  0.00     0.020 A 
ATOM     85  C   UNL A   1      42.200  20.921  26.646  1.00  0.00     0.054 A 
BRANCH  85  86
ATOM     86  S   UNL A   1      42.199  19.234  25.977  1.00  0.00     0.124 S 
ATOM     87  O   UNL A   1      43.075  19.372  24.817  1.00  0.00    -0.237 OA
ATOM     88  O   UNL A   1      42.741  18.453  27.086  1.00  0.00    -0.237 OA
ATOM     89  O   UNL A   1      40.792  18.986  25.671  1.00  0.00    -0.744 OA
ENDBRANCH  85  86
ENDBRANCH  57  80
BRANCH  69  90
ATOM     90  C   UNL A   1      47.016  26.035  32.337  1.00  0.00    -0.014 A 
ATOM     91  C   UNL A   1      48.226  26.163  31.628  1.00  0.00     0.010 A 
ATOM     92  C   UNL A   1      46.988  25.260  33.508  1.00  0.00     0.010 A 
ATOM     93  C   UNL A   1      49.369  25.479  32.046  1.00  0.00     0.020 A 
ATOM     94  C   UNL A   1      48.141  24.608  33.954  1.00  0.00     0.020 A 
ATOM     95  C   UNL A   1      49.314  24.696  33.202  1.00  0.00     0.054 A 
BRANCH  95  96
ATOM     96  S   UNL A   1      50.790  23.762  33.690  1.00  0.00     0.124 S 
ATOM     97  O   UNL A   1      51.869  24.606  33.184  1.00  0.00    -0.237 OA
ATOM     98  O   UNL A   1      50.663  23.706  35.144  1.00  0.00    -0.237 OA
ATOM     99  O   UNL A   1      50.629  22.480  33.008  1.00  0.00    -0.744 OA
ENDBRANCH  95  96
ENDBRANCH  69  90
ENDBRANCH  43  44
ENDBRANCH  36  38
ENDBRANCH  35  36
ENDBRANCH  34  35
ENDBRANCH   1  34
TORSDOF 19
ENDMDL
MODEL 2
REMARK VINA RESULT:     -10.5      3.684      9.257
REMARK SMILES NS(=O)(=O)c1ccc(C#Cc2cc(Cl)cc3c2O[C@H](C(F)(F)F)C(C(=O)OCCOC(=O)c2ccc(-c4c5nc(c(-c6ccc(S(=O)(=O)[O-])cc6)c6ccc([nH]6)c(-c6ccc(S(=O)(=O)[O-])cc6)c6nc(c(-c7ccc(S(=O)(=O)[O-])cc7)c7ccc4[nH]7)C=C6)C=C5)cc2)=C3)cc1
REMARK SMILES IDX 28 1 27 2 25 3 26 4 24 5 11 6 12 7 17 8 13 9 16 10 18 11
REMARK SMILES IDX 14 12 15 13 93 14 19 15 10 16 9 17 8 18 5 19 6 20 95 21 7 22
REMARK SMILES IDX 94 23 2 24 3 25 4 26 1 27 20 30 21 31 22 32 23 33 29 34
REMARK SMILES IDX 30 35 31 36 32 37 33 38 34 39 92 40 35 41 91 42 36 43 37 44
REMARK SMILES IDX 38 45 85 46 39 47 90 48 84 49 86 50 40 51 89 52 83 53 82 54
REMARK SMILES IDX 41 56 71 57 52 58 70 59 53 60 56 61 69 62 87 63 54 64 55 65
REMARK SMILES IDX 68 67 88 68 57 69 42 70 43 71 51 72 44 73 50 74 45 75 46 76
REMARK SMILES IDX 47 77 48 78 49 79 72 80 73 81 81 82 74 83 80 84 75 85 76 86
REMARK SMILES IDX 77 87 78 88 79 89 58 90 59 91 67 92 60 93 66 94 61 95 62 96
REMARK SMILES IDX 63 97 64 98 65 99
REMARK H PARENT 1 28 1 29 86 55 56 66
REMARK Flexibility Score: inf
ROOT
ATOM      1  C   UNL A   1      33.611  32.867  28.371  1.00  0.00     0.275 C 
ENDROOT
BRANCH   1   2
ATOM      2  O   UNL A   1      34.855  33.461  28.810  1.00  0.00    -0.459 OA
BRANCH   2   3
ATOM      3  C   UNL A   1      34.804  34.118  29.993  1.00  0.00     0.338 C 
ATOM      4  O   UNL A   1      34.143  35.113  30.239  1.00  0.00    -0.246 OA
BRANCH   3   5
ATOM      5  C   UNL A   1      35.663  33.461  31.002  1.00  0.00     0.087 C 
ATOM      6  C   UNL A   1      38.344  32.004  33.872  1.00  0.00     0.069 A 
ATOM      7  C   UNL A   1      38.191  32.381  35.213  1.00  0.00     0.041 A 
ATOM      8  C   UNL A   1      37.434  32.430  32.897  1.00  0.00     0.143 A 
ATOM      9  C   UNL A   1      37.112  33.171  35.588  1.00  0.00     0.043 A 
ATOM     10  C   UNL A   1      36.369  33.233  33.290  1.00  0.00     0.020 A 
ATOM     11  O   UNL A   1      37.624  32.035  31.596  1.00  0.00    -0.474 OA
ATOM     12  Cl  UNL A   1      36.928  33.648  37.229  1.00  0.00    -0.084 Cl
ATOM     13  C   UNL A   1      36.195  33.593  34.635  1.00  0.00     0.032 A 
ATOM     14  C   UNL A   1      35.456  33.740  32.293  1.00  0.00     0.027 C 
ATOM     15  C   UNL A   1      36.826  32.640  30.536  1.00  0.00     0.316 C 
BRANCH   6  16
ATOM     16  C   UNL A   1      39.470  31.207  33.523  1.00  0.00    -0.058 C 
ATOM     17  C   UNL A   1      40.415  30.515  33.259  1.00  0.00    -0.062 C 
BRANCH  17  18
ATOM     18  C   UNL A   1      41.541  29.684  33.012  1.00  0.00     0.025 A 
ATOM     19  C   UNL A   1      43.737  28.038  32.644  1.00  0.00     0.082 A 
ATOM     20  C   UNL A   1      43.923  29.340  33.120  1.00  0.00     0.023 A 
ATOM     21  C   UNL A   1      42.463  27.560  32.325  1.00  0.00     0.023 A 
ATOM     22  C   UNL A   1      42.818  30.164  33.308  1.00  0.00     0.018 A 
ATOM     23  C   UNL A   1      41.360  28.392  32.511  1.00  0.00     0.018 A 
BRANCH  19  24
ATOM     24  S   UNL A   1      45.152  27.000  32.470  1.00  0.00     0.238 S 
ATOM     25  O   UNL A   1      45.060  25.919  33.422  1.00  0.00    -0.207 OA
ATOM     26  O   UNL A   1      46.338  27.813  32.325  1.00  0.00    -0.207 OA
BRANCH  24  27
ATOM     27  N   UNL A   1      44.885  26.318  30.958  1.00  0.00    -0.225 NA
ATOM     28  H   UNL A   1      44.155  25.610  31.030  1.00  0.00     0.137 HD
ATOM     29  H   UNL A   1      45.746  25.887  30.623  1.00  0.00     0.137 HD
ENDBRANCH  24  27
ENDBRANCH  19  24
ENDBRANCH  17  18
ENDBRANCH   6  16
BRANCH  15  30
ATOM     30  C   UNL A   1      37.749  33.469  29.626  1.00  0.00     0.430 C 
ATOM     31  F   UNL A   1      37.549  34.797  29.799  1.00  0.00    -0.167 F 
ATOM     32  F   UNL A   1      39.057  33.242  29.898  1.00  0.00    -0.167 F 
ATOM     33  F   UNL A   1      37.556  33.195  28.316  1.00  0.00    -0.167 F 
ENDBRANCH  15  30
ENDBRANCH   3   5
ENDBRANCH   2   3
ENDBRANCH   1   2
BRANCH   1  34
ATOM     34  C   UNL A   1      33.844  31.564  27.600  1.00  0.00     0.275 C 
BRANCH  34  35
ATOM     35  O   UNL A   1      35.226  31.168  27.645  1.00  0.00    -0.458 OA
BRANCH  35  36
ATOM     36  C   UNL A   1      35.430  29.878  27.991  1.00  0.00     0.338 C 
ATOM     37  O   UNL A   1      34.628  28.961  27.940  1.00  0.00    -0.246 OA
BRANCH  36  38
ATOM     38  C   UNL A   1      36.847  29.673  28.304  1.00  0.00     0.060 A 
ATOM     39  C   UNL A   1      37.273  29.135  29.507  1.00  0.00     0.016 A 
ATOM     40  C   UNL A   1      37.757  29.880  27.277  1.00  0.00     0.016 A 
ATOM     41  C   UNL A   1      38.630  28.825  29.658  1.00  0.00     0.010 A 
ATOM     42  C   UNL A   1      39.046  29.379  27.353  1.00  0.00     0.010 A 
ATOM     43  C   UNL A   1      39.527  28.902  28.568  1.00  0.00    -0.014 A 
BRANCH  43  44
ATOM     44  C   UNL A   1      40.962  28.524  28.694  1.00  0.00     0.031 A 
ATOM     45  C   UNL A   1      41.435  27.136  28.314  1.00  0.00     0.074 A 
ATOM     46  C   UNL A   1      41.843  29.430  29.168  1.00  0.00     0.049 A 
ATOM     47  N   UNL A   1      42.656  26.662  28.304  1.00  0.00    -0.248 NA
ATOM     48  C   UNL A   1      40.419  26.137  27.929  1.00  0.00     0.031 C 
ATOM     49  C   UNL A   1      41.493  30.767  29.654  1.00  0.00     0.029 A 
ATOM     50  N   UNL A   1      43.210  29.385  29.291  1.00  0.00    -0.354 N 
ATOM     51  C   UNL A   1      42.545  25.328  27.924  1.00  0.00     0.074 A 
ATOM     52  C   UNL A   1      41.140  25.033  27.808  1.00  0.00     0.031 C 
ATOM     53  C   UNL A   1      42.616  31.448  29.921  1.00  0.00     0.029 A 
ATOM     54  C   UNL A   1      43.766  30.578  29.696  1.00  0.00     0.049 A 
ATOM     55  H   UNL A   1      43.741  28.577  29.106  1.00  0.00     0.167 HD
ATOM     56  C   UNL A   1      43.525  24.443  27.637  1.00  0.00     0.031 A 
ATOM     57  C   UNL A   1      45.055  30.943  29.853  1.00  0.00     0.031 A 
ATOM     58  C   UNL A   1      44.925  24.766  27.705  1.00  0.00     0.049 A 
ATOM     59  C   UNL A   1      46.130  29.947  29.518  1.00  0.00     0.074 A 
ATOM     60  C   UNL A   1      46.001  23.967  27.364  1.00  0.00     0.029 A 
ATOM     61  N   UNL A   1      45.442  25.980  28.129  1.00  0.00    -0.354 N 
ATOM     62  N   UNL A   1      46.002  28.724  29.057  1.00  0.00    -0.248 NA
ATOM     63  C   UNL A   1      47.522  30.377  29.704  1.00  0.00     0.031 C 
ATOM     64  C   UNL A   1      47.169  24.666  27.666  1.00  0.00     0.029 A 
ATOM     65  C   UNL A   1      46.824  25.939  28.096  1.00  0.00     0.049 A 
ATOM     66  H   UNL A   1      44.905  26.757  28.410  1.00  0.00     0.167 HD
ATOM     67  C   UNL A   1      47.296  28.247  28.881  1.00  0.00     0.074 A 
ATOM     68  C   UNL A   1      48.190  29.322  29.255  1.00  0.00     0.031 C 
ATOM     69  C   UNL A   1      47.703  27.024  28.460  1.00  0.00     0.031 A 
BRANCH  56  70
ATOM     70  C   UNL A   1      43.144  23.058  27.164  1.00  0.00    -0.014 A 
ATOM     71  C   UNL A   1      42.478  22.176  28.035  1.00  0.00     0.010 A 
ATOM     72  C   UNL A   1      43.577  22.579  25.914  1.00  0.00     0.010 A 
ATOM     73  C   UNL A   1      42.305  20.832  27.692  1.00  0.00     0.020 A 
ATOM     74  C   UNL A   1      43.371  21.245  25.549  1.00  0.00     0.020 A 
ATOM     75  C   UNL A   1      42.767  20.372  26.457  1.00  0.00     0.054 A 
BRANCH  75  76
ATOM     76  S   UNL A   1      42.611  18.607  26.066  1.00  0.00     0.124 S 
ATOM     77  O   UNL A   1      43.531  18.458  24.943  1.00  0.00    -0.237 OA
ATOM     78  O   UNL A   1      43.025  17.969  27.313  1.00  0.00    -0.237 OA
ATOM     79  O   UNL A   1      41.195  18.451  25.738  1.00  0.00    -0.744 OA
ENDBRANCH  75  76
ENDBRANCH  56  70
BRANCH  57  80
ATOM     80  C   UNL A   1      45.372  32.337  30.278  1.00  0.00    -0.014 A 
ATOM     81  C   UNL A   1      45.423  32.674  31.645  1.00  0.00     0.010 A 
ATOM     82  C   UNL A   1      45.525  33.360  29.324  1.00  0.00     0.010 A 
ATOM     83  C   UNL A   1      45.545  34.007  32.048  1.00  0.00     0.020 A 
ATOM     84  C   UNL A   1      45.691  34.692  29.723  1.00  0.00     0.020 A 
ATOM     85  C   UNL A   1      45.663  35.008  31.083  1.00  0.00     0.054 A 
BRANCH  85  86
ATOM     86  S   UNL A   1      45.743  36.736  31.632  1.00  0.00     0.124 S 
ATOM     87  O   UNL A   1      46.947  37.209  30.954  1.00  0.00    -0.237 OA
ATOM     88  O   UNL A   1      44.485  37.285  31.134  1.00  0.00    -0.237 OA
ATOM     89  O   UNL A   1      45.844  36.631  33.085  1.00  0.00    -0.744 OA
ENDBRANCH  85  86
ENDBRANCH  57  80
BRANCH  69  90
ATOM     90  C   UNL A   1      49.184  26.753  28.374  1.00  0.00    -0.014 A 
ATOM     91  C   UNL A   1      49.888  26.357  29.528  1.00  0.00     0.010 A 
ATOM     92  C   UNL A   1      49.902  27.049  27.203  1.00  0.00     0.010 A 
ATOM     93  C   UNL A   1      51.283  26.319  29.530  1.00  0.00     0.020 A 
ATOM     94  C   UNL A   1      51.297  26.970  27.189  1.00  0.00     0.020 A 
ATOM     95  C   UNL A   1      51.979  26.637  28.361  1.00  0.00     0.054 A 
BRANCH  95  96
ATOM     96  S   UNL A   1      53.791  26.646  28.403  1.00  0.00     0.124 S 
ATOM     97  O   UNL A   1      54.069  26.252  29.782  1.00  0.00    -0.237 OA
ATOM     98  O   UNL A   1      54.138  25.660  27.383  1.00  0.00    -0.237 OA
ATOM     99  O   UNL A   1      54.137  28.026  28.067  1.00  0.00    -0.744 OA
ENDBRANCH  95  96
ENDBRANCH  69  90
ENDBRANCH  43  44
ENDBRANCH  36  38
ENDBRANCH  35  36
ENDBRANCH  34  35
ENDBRANCH   1  34
TORSDOF 19
ENDMDL
MODEL 3
REMARK VINA RESULT:     -10.1      4.420     11.461
REMARK SMILES NS(=O)(=O)c1ccc(C#Cc2cc(Cl)cc3c2O[C@H](C(F)(F)F)C(C(=O)OCCOC(=O)c2ccc(-c4c5nc(c(-c6ccc(S(=O)(=O)[O-])cc6)c6ccc([nH]6)c(-c6ccc(S(=O)(=O)[O-])cc6)c6nc(c(-c7ccc(S(=O)(=O)[O-])cc7)c7ccc4[nH]7)C=C6)C=C5)cc2)=C3)cc1
REMARK SMILES IDX 28 1 27 2 25 3 26 4 24 5 11 6 12 7 17 8 13 9 16 10 18 11
REMARK SMILES IDX 14 12 15 13 93 14 19 15 10 16 9 17 8 18 5 19 6 20 95 21 7 22
REMARK SMILES IDX 94 23 2 24 3 25 4 26 1 27 20 30 21 31 22 32 23 33 29 34
REMARK SMILES IDX 30 35 31 36 32 37 33 38 34 39 92 40 35 41 91 42 36 43 37 44
REMARK SMILES IDX 38 45 85 46 39 47 90 48 84 49 86 50 40 51 89 52 83 53 82 54
REMARK SMILES IDX 41 56 71 57 52 58 70 59 53 60 56 61 69 62 87 63 54 64 55 65
REMARK SMILES IDX 68 67 88 68 57 69 42 70 43 71 51 72 44 73 50 74 45 75 46 76
REMARK SMILES IDX 47 77 48 78 49 79 72 80 73 81 81 82 74 83 80 84 75 85 76 86
REMARK SMILES IDX 77 87 78 88 79 89 58 90 59 91 67 92 60 93 66 94 61 95 62 96
REMARK SMILES IDX 63 97 64 98 65 99
REMARK H PARENT 1 28 1 29 86 55 56 66
REMARK Flexibility Score: inf
ROOT
ATOM      1  C   UNL A   1      41.392  21.371  26.185  1.00  0.00     0.275 C 
ENDROOT
BRANCH   1   2
ATOM      2  O   UNL A   1      42.316  22.120  25.362  1.00  0.00    -0.459 OA
BRANCH   2   3
ATOM      3  C   UNL A   1      43.596  22.156  25.802  1.00  0.00     0.338 C 
ATOM      4  O   UNL A   1      44.272  21.197  26.136  1.00  0.00    -0.246 OA
BRANCH   3   5
ATOM      5  C   UNL A   1      44.112  23.542  25.821  1.00  0.00     0.087 C 
ATOM      6  C   UNL A   1      45.878  27.320  26.208  1.00  0.00     0.069 A 
ATOM      7  C   UNL A   1      47.110  27.572  25.592  1.00  0.00     0.041 A 
ATOM      8  C   UNL A   1      45.236  26.085  26.055  1.00  0.00     0.143 A 
ATOM      9  C   UNL A   1      47.697  26.594  24.799  1.00  0.00     0.043 A 
ATOM     10  C   UNL A   1      45.846  25.114  25.269  1.00  0.00     0.020 A 
ATOM     11  O   UNL A   1      44.029  25.885  26.677  1.00  0.00    -0.474 OA
ATOM     12  Cl  UNL A   1      49.216  26.893  24.052  1.00  0.00    -0.084 Cl
ATOM     13  C   UNL A   1      47.068  25.368  24.627  1.00  0.00     0.032 A 
ATOM     14  C   UNL A   1      45.237  23.811  25.150  1.00  0.00     0.027 C 
ATOM     15  C   UNL A   1      43.451  24.547  26.715  1.00  0.00     0.316 C 
BRANCH   6  16
ATOM     16  C   UNL A   1      45.316  28.340  27.026  1.00  0.00    -0.058 C 
ATOM     17  C   UNL A   1      44.831  29.219  27.685  1.00  0.00    -0.062 C 
BRANCH  17  18
ATOM     18  C   UNL A   1      44.270  30.301  28.416  1.00  0.00     0.025 A 
ATOM     19  C   UNL A   1      43.080  32.401  29.773  1.00  0.00     0.082 A 
ATOM     20  C   UNL A   1      43.692  32.637  28.537  1.00  0.00     0.023 A 
ATOM     21  C   UNL A   1      43.082  31.128  30.349  1.00  0.00     0.023 A 
ATOM     22  C   UNL A   1      44.285  31.580  27.855  1.00  0.00     0.018 A 
ATOM     23  C   UNL A   1      43.683  30.073  29.662  1.00  0.00     0.018 A 
BRANCH  19  24
ATOM     24  S   UNL A   1      42.288  33.751  30.587  1.00  0.00     0.238 S 
ATOM     25  O   UNL A   1      41.328  34.342  29.686  1.00  0.00    -0.207 OA
ATOM     26  O   UNL A   1      43.270  34.532  31.303  1.00  0.00    -0.207 OA
BRANCH  24  27
ATOM     27  N   UNL A   1      41.396  32.955  31.766  1.00  0.00    -0.225 NA
ATOM     28  H   UNL A   1      40.462  33.361  31.818  1.00  0.00     0.137 HD
ATOM     29  H   UNL A   1      41.860  33.055  32.669  1.00  0.00     0.137 HD
ENDBRANCH  24  27
ENDBRANCH  19  24
ENDBRANCH  17  18
ENDBRANCH   6  16
BRANCH  15  30
ATOM     30  C   UNL A   1      43.431  24.050  28.171  1.00  0.00     0.430 C 
ATOM     31  F   UNL A   1      42.257  23.446  28.470  1.00  0.00    -0.167 F 
ATOM     32  F   UNL A   1      44.402  23.133  28.401  1.00  0.00    -0.167 F 
ATOM     33  F   UNL A   1      43.608  25.056  29.056  1.00  0.00    -0.167 F 
ENDBRANCH  15  30
ENDBRANCH   3   5
ENDBRANCH   2   3
ENDBRANCH   1   2
BRANCH   1  34
ATOM     34  C   UNL A   1      40.139  22.186  26.519  1.00  0.00     0.275 C 
BRANCH  34  35
ATOM     35  O   UNL A   1      40.335  23.585  26.248  1.00  0.00    -0.458 OA
BRANCH  35  36
ATOM     36  C   UNL A   1      39.264  24.365  26.513  1.00  0.00     0.338 C 
ATOM     37  O   UNL A   1      38.121  24.213  26.118  1.00  0.00    -0.246 OA
BRANCH  36  38
ATOM     38  C   UNL A   1      39.629  25.378  27.508  1.00  0.00     0.060 A 
ATOM     39  C   UNL A   1      40.371  26.502  27.186  1.00  0.00     0.016 A 
ATOM     40  C   UNL A   1      39.058  25.261  28.767  1.00  0.00     0.016 A 
ATOM     41  C   UNL A   1      40.536  27.495  28.159  1.00  0.00     0.010 A 
ATOM     42  C   UNL A   1      39.044  26.331  29.646  1.00  0.00     0.010 A 
ATOM     43  C   UNL A   1      39.839  27.443  29.388  1.00  0.00    -0.014 A 
BRANCH  43  44
ATOM     44  C   UNL A   1      39.958  28.517  30.413  1.00  0.00     0.031 A 
ATOM     45  C   UNL A   1      38.995  29.685  30.428  1.00  0.00     0.074 A 
ATOM     46  C   UNL A   1      40.950  28.448  31.326  1.00  0.00     0.049 A 
ATOM     47  N   UNL A   1      38.920  30.672  31.286  1.00  0.00    -0.248 NA
ATOM     48  C   UNL A   1      38.013  29.791  29.331  1.00  0.00     0.031 C 
ATOM     49  C   UNL A   1      41.994  27.422  31.357  1.00  0.00     0.029 A 
ATOM     50  N   UNL A   1      41.226  29.229  32.422  1.00  0.00    -0.354 N 
ATOM     51  C   UNL A   1      37.900  31.500  30.828  1.00  0.00     0.074 A 
ATOM     52  C   UNL A   1      37.449  30.965  29.568  1.00  0.00     0.031 C 
ATOM     53  C   UNL A   1      42.730  27.572  32.467  1.00  0.00     0.029 A 
ATOM     54  C   UNL A   1      42.259  28.746  33.195  1.00  0.00     0.049 A 
ATOM     55  H   UNL A   1      40.733  30.054  32.633  1.00  0.00     0.167 HD
ATOM     56  C   UNL A   1      37.345  32.577  31.429  1.00  0.00     0.031 A 
ATOM     57  C   UNL A   1      42.763  29.184  34.367  1.00  0.00     0.031 A 
ATOM     58  C   UNL A   1      37.768  33.070  32.712  1.00  0.00     0.049 A 
ATOM     59  C   UNL A   1      42.125  30.376  35.024  1.00  0.00     0.074 A 
ATOM     60  C   UNL A   1      37.226  34.107  33.447  1.00  0.00     0.029 A 
ATOM     61  N   UNL A   1      38.822  32.557  33.453  1.00  0.00    -0.354 N 
ATOM     62  N   UNL A   1      41.091  31.079  34.623  1.00  0.00    -0.248 NA
ATOM     63  C   UNL A   1      42.703  30.826  36.297  1.00  0.00     0.031 C 
ATOM     64  C   UNL A   1      38.006  34.280  34.589  1.00  0.00     0.029 A 
ATOM     65  C   UNL A   1      38.972  33.285  34.620  1.00  0.00     0.049 A 
ATOM     66  H   UNL A   1      39.381  31.790  33.188  1.00  0.00     0.167 HD
ATOM     67  C   UNL A   1      40.884  32.043  35.603  1.00  0.00     0.074 A 
ATOM     68  C   UNL A   1      41.879  31.813  36.630  1.00  0.00     0.031 C 
ATOM     69  C   UNL A   1      39.961  33.035  35.641  1.00  0.00     0.031 A 
BRANCH  56  70
ATOM     70  C   UNL A   1      36.182  33.271  30.757  1.00  0.00    -0.014 A 
ATOM     71  C   UNL A   1      36.369  33.917  29.521  1.00  0.00     0.010 A 
ATOM     72  C   UNL A   1      34.947  33.412  31.417  1.00  0.00     0.010 A 
ATOM     73  C   UNL A   1      35.369  34.737  28.988  1.00  0.00     0.020 A 
ATOM     74  C   UNL A   1      33.929  34.198  30.869  1.00  0.00     0.020 A 
ATOM     75  C   UNL A   1      34.161  34.884  29.674  1.00  0.00     0.054 A 
BRANCH  75  76
ATOM     76  S   UNL A   1      32.910  36.018  29.011  1.00  0.00     0.124 S 
ATOM     77  O   UNL A   1      32.169  35.158  28.094  1.00  0.00    -0.237 OA
ATOM     78  O   UNL A   1      32.189  36.432  30.213  1.00  0.00    -0.237 OA
ATOM     79  O   UNL A   1      33.702  37.071  28.378  1.00  0.00    -0.744 OA
ENDBRANCH  75  76
ENDBRANCH  56  70
BRANCH  57  80
ATOM     80  C   UNL A   1      43.882  28.432  35.006  1.00  0.00    -0.014 A 
ATOM     81  C   UNL A   1      45.220  28.719  34.673  1.00  0.00     0.010 A 
ATOM     82  C   UNL A   1      43.617  27.356  35.874  1.00  0.00     0.010 A 
ATOM     83  C   UNL A   1      46.261  27.907  35.132  1.00  0.00     0.020 A 
ATOM     84  C   UNL A   1      44.661  26.565  36.371  1.00  0.00     0.020 A 
ATOM     85  C   UNL A   1      45.972  26.825  35.965  1.00  0.00     0.054 A 
BRANCH  85  86
ATOM     86  S   UNL A   1      47.332  25.743  36.484  1.00  0.00     0.124 S 
ATOM     87  O   UNL A   1      48.499  26.572  36.197  1.00  0.00    -0.237 OA
ATOM     88  O   UNL A   1      47.045  25.531  37.901  1.00  0.00    -0.237 OA
ATOM     89  O   UNL A   1      47.177  24.565  35.635  1.00  0.00    -0.744 OA
ENDBRANCH  85  86
ENDBRANCH  57  80
BRANCH  69  90
ATOM     90  C   UNL A   1      39.962  33.970  36.824  1.00  0.00    -0.014 A 
ATOM     91  C   UNL A   1      39.191  33.656  37.961  1.00  0.00     0.010 A 
ATOM     92  C   UNL A   1      40.585  35.227  36.747  1.00  0.00     0.010 A 
ATOM     93  C   UNL A   1      38.996  34.602  38.968  1.00  0.00     0.020 A 
ATOM     94  C   UNL A   1      40.428  36.160  37.775  1.00  0.00     0.020 A 
ATOM     95  C   UNL A   1      39.607  35.853  38.862  1.00  0.00     0.054 A 
BRANCH  95  96
ATOM     96  S   UNL A   1      39.287  37.090  40.148  1.00  0.00     0.124 S 
ATOM     97  O   UNL A   1      40.638  37.471  40.552  1.00  0.00    -0.237 OA
ATOM     98  O   UNL A   1      38.533  38.112  39.426  1.00  0.00    -0.237 OA
ATOM     99  O   UNL A   1      38.522  36.354  41.152  1.00  0.00    -0.744 OA
ENDBRANCH  95  96
ENDBRANCH  69  90
ENDBRANCH  43  44
ENDBRANCH  36  38
ENDBRANCH  35  36
ENDBRANCH  34  35
ENDBRANCH   1  34
TORSDOF 19
ENDMDL
