MODEL 1
REMARK VINA RESULT:     -10.2      0.000      0.000
REMARK SMILES COc1cc(/C=N/NC(=O)c2cccnc2)ccc1OCC(=O)OCCOC(=O)c1ccc(-c2c3nc(c(-c4ccc(S(=O)(=O)[O-])cc4)c4ccc([nH]4)c(-c4ccc(S(=O)(=O)[O-])cc4)c4nc(c(-c5ccc(S(=O)(=O)[O-])cc5)c5ccc2[nH]5)C=C4)C=C3)cc1
REMARK SMILES IDX 25 1 24 2 22 3 23 4 21 5 20 6 19 7 3 8 4 9 5 10 18 11 17 12
REMARK SMILES IDX 2 13 1 14 6 15 7 16 8 17 9 18 10 20 11 21 12 22 16 23 13 24
REMARK SMILES IDX 15 25 14 26 26 27 27 28 28 29 29 30 30 31 31 32 89 33 32 34
REMARK SMILES IDX 88 35 33 36 34 37 35 38 82 39 36 40 87 41 81 42 83 43 37 44
REMARK SMILES IDX 86 45 80 46 79 47 38 49 68 50 49 51 67 52 50 53 53 54 66 55
REMARK SMILES IDX 84 56 51 57 52 58 65 60 85 61 54 62 39 63 40 64 48 65 41 66
REMARK SMILES IDX 47 67 42 68 43 69 44 70 45 71 46 72 69 73 70 74 78 75 71 76
REMARK SMILES IDX 77 77 72 78 73 79 74 80 75 81 76 82 55 83 56 84 64 85 57 86
REMARK SMILES IDX 63 87 58 88 59 89 60 90 61 91 62 92
REMARK H PARENT 8 19 83 48 53 59
REMARK Flexibility Score: inf
ROOT
ATOM      1  C   UNL A   1      42.000  22.099  26.128  1.00  0.00     0.274 C 
ENDROOT
BRANCH   1   2
ATOM      2  O   UNL A   1      40.626  22.541  26.193  1.00  0.00    -0.460 OA
BRANCH   2   3
ATOM      3  C   UNL A   1      39.692  21.558  26.104  1.00  0.00     0.344 C 
ATOM      4  O   UNL A   1      39.927  20.367  26.291  1.00  0.00    -0.248 OA
BRANCH   3   5
ATOM      5  C   UNL A   1      38.279  22.071  25.768  1.00  0.00     0.352 C 
BRANCH   5   6
ATOM      6  O   UNL A   1      37.257  21.335  25.138  1.00  0.00    -0.478 OA
BRANCH   6   7
ATOM      7  C   UNL A   1      36.068  21.923  24.829  1.00  0.00     0.162 A 
ATOM      8  C   UNL A   1      34.792  21.344  24.758  1.00  0.00     0.161 A 
ATOM      9  C   UNL A   1      33.689  22.123  24.338  1.00  0.00     0.060 A 
ATOM     10  C   UNL A   1      33.881  23.464  23.975  1.00  0.00    -0.002 A 
ATOM     11  C   UNL A   1      36.241  23.246  24.412  1.00  0.00     0.051 A 
ATOM     12  C   UNL A   1      35.163  24.016  23.992  1.00  0.00     0.014 A 
BRANCH   8  13
ATOM     13  O   UNL A   1      34.634  19.982  24.803  1.00  0.00    -0.493 OA
ATOM     14  C   UNL A   1      33.347  19.546  25.215  1.00  0.00     0.278 C 
ENDBRANCH   8  13
BRANCH  10  15
ATOM     15  C   UNL A   1      32.820  24.366  23.476  1.00  0.00     0.141 C 
ATOM     16  N   UNL A   1      32.849  25.659  23.567  1.00  0.00    -0.180 NA
BRANCH  16  17
ATOM     17  N   UNL A   1      31.694  26.307  23.173  1.00  0.00    -0.243 N 
ATOM     18  C   UNL A   1      30.962  27.279  23.848  1.00  0.00     0.272 C 
ATOM     19  H   UNL A   1      31.340  26.043  22.294  1.00  0.00     0.194 HD
ATOM     20  O   UNL A   1      29.817  27.564  23.501  1.00  0.00    -0.267 OA
BRANCH  18  21
ATOM     21  C   UNL A   1      31.542  27.984  25.011  1.00  0.00     0.059 A 
ATOM     22  C   UNL A   1      31.427  27.512  26.318  1.00  0.00     0.017 A 
ATOM     23  C   UNL A   1      32.228  29.175  24.805  1.00  0.00     0.124 A 
ATOM     24  C   UNL A   1      31.928  28.280  27.367  1.00  0.00     0.021 A 
ATOM     25  N   UNL A   1      32.713  29.951  25.808  1.00  0.00    -0.264 NA
ATOM     26  C   UNL A   1      32.548  29.483  27.066  1.00  0.00     0.111 A 
ENDBRANCH  18  21
ENDBRANCH  16  17
ENDBRANCH  10  15
ENDBRANCH   6   7
ENDBRANCH   5   6
ENDBRANCH   3   5
ENDBRANCH   2   3
ENDBRANCH   1   2
BRANCH   1  27
ATOM     27  C   UNL A   1      42.848  23.176  25.451  1.00  0.00     0.275 C 
BRANCH  27  28
ATOM     28  O   UNL A   1      43.245  24.139  26.443  1.00  0.00    -0.458 OA
BRANCH  28  29
ATOM     29  C   UNL A   1      42.957  25.437  26.153  1.00  0.00     0.338 C 
ATOM     30  O   UNL A   1      42.940  25.926  25.037  1.00  0.00    -0.246 OA
BRANCH  29  31
ATOM     31  C   UNL A   1      42.592  26.169  27.401  1.00  0.00     0.060 A 
ATOM     32  C   UNL A   1      41.614  25.684  28.265  1.00  0.00     0.016 A 
ATOM     33  C   UNL A   1      43.191  27.395  27.698  1.00  0.00     0.016 A 
ATOM     34  C   UNL A   1      41.138  26.467  29.318  1.00  0.00     0.010 A 
ATOM     35  C   UNL A   1      42.808  28.115  28.844  1.00  0.00     0.010 A 
ATOM     36  C   UNL A   1      41.756  27.674  29.665  1.00  0.00    -0.014 A 
BRANCH  36  37
ATOM     37  C   UNL A   1      41.327  28.439  30.884  1.00  0.00     0.031 A 
ATOM     38  C   UNL A   1      40.115  29.342  30.845  1.00  0.00     0.074 A 
ATOM     39  C   UNL A   1      42.027  28.352  32.040  1.00  0.00     0.049 A 
ATOM     40  N   UNL A   1      39.759  30.283  31.683  1.00  0.00    -0.248 NA
ATOM     41  C   UNL A   1      39.194  29.177  29.708  1.00  0.00     0.031 C 
ATOM     42  C   UNL A   1      43.188  27.487  32.278  1.00  0.00     0.029 A 
ATOM     43  N   UNL A   1      41.863  28.999  33.244  1.00  0.00    -0.354 N 
ATOM     44  C   UNL A   1      38.627  30.879  31.134  1.00  0.00     0.074 A 
ATOM     45  C   UNL A   1      38.343  30.178  29.900  1.00  0.00     0.031 C 
ATOM     46  C   UNL A   1      43.583  27.606  33.552  1.00  0.00     0.029 A 
ATOM     47  C   UNL A   1      42.807  28.659  34.188  1.00  0.00     0.049 A 
ATOM     48  H   UNL A   1      41.139  29.645  33.415  1.00  0.00     0.167 HD
ATOM     49  C   UNL A   1      37.904  31.926  31.607  1.00  0.00     0.031 A 
ATOM     50  C   UNL A   1      43.086  29.175  35.403  1.00  0.00     0.031 A 
ATOM     51  C   UNL A   1      38.161  32.586  32.864  1.00  0.00     0.049 A 
ATOM     52  C   UNL A   1      42.305  30.359  35.889  1.00  0.00     0.074 A 
ATOM     53  C   UNL A   1      37.487  33.657  33.428  1.00  0.00     0.029 A 
ATOM     54  N   UNL A   1      39.154  32.225  33.761  1.00  0.00    -0.354 N 
ATOM     55  N   UNL A   1      41.306  30.977  35.306  1.00  0.00    -0.248 NA
ATOM     56  C   UNL A   1      42.709  30.936  37.178  1.00  0.00     0.031 C 
ATOM     57  C   UNL A   1      38.101  33.969  34.647  1.00  0.00     0.029 A 
ATOM     58  C   UNL A   1      39.121  33.059  34.867  1.00  0.00     0.049 A 
ATOM     59  H   UNL A   1      39.790  31.485  33.632  1.00  0.00     0.167 HD
ATOM     60  C   UNL A   1      40.958  32.015  36.162  1.00  0.00     0.074 A 
ATOM     61  C   UNL A   1      41.837  31.926  37.311  1.00  0.00     0.031 C 
ATOM     62  C   UNL A   1      40.001  32.961  36.003  1.00  0.00     0.031 A 
BRANCH  49  63
ATOM     63  C   UNL A   1      36.802  32.474  30.735  1.00  0.00    -0.014 A 
ATOM     64  C   UNL A   1      35.469  32.046  30.862  1.00  0.00     0.010 A 
ATOM     65  C   UNL A   1      37.107  33.481  29.797  1.00  0.00     0.010 A 
ATOM     66  C   UNL A   1      34.471  32.585  30.040  1.00  0.00     0.020 A 
ATOM     67  C   UNL A   1      36.109  34.041  28.995  1.00  0.00     0.020 A 
ATOM     68  C   UNL A   1      34.799  33.576  29.109  1.00  0.00     0.054 A 
BRANCH  68  69
ATOM     69  S   UNL A   1      33.483  34.270  28.069  1.00  0.00     0.124 S 
ATOM     70  O   UNL A   1      34.243  35.108  27.144  1.00  0.00    -0.237 OA
ATOM     71  O   UNL A   1      32.877  33.078  27.481  1.00  0.00    -0.237 OA
ATOM     72  O   UNL A   1      32.637  34.993  29.014  1.00  0.00    -0.744 OA
ENDBRANCH  68  69
ENDBRANCH  49  63
BRANCH  50  73
ATOM     73  C   UNL A   1      44.219  28.623  36.200  1.00  0.00    -0.014 A 
ATOM     74  C   UNL A   1      44.015  27.558  37.094  1.00  0.00     0.010 A 
ATOM     75  C   UNL A   1      45.521  29.133  36.033  1.00  0.00     0.010 A 
ATOM     76  C   UNL A   1      45.092  27.010  37.800  1.00  0.00     0.020 A 
ATOM     77  C   UNL A   1      46.605  28.566  36.710  1.00  0.00     0.020 A 
ATOM     78  C   UNL A   1      46.381  27.511  37.596  1.00  0.00     0.054 A 
BRANCH  78  79
ATOM     79  S   UNL A   1      47.778  26.726  38.449  1.00  0.00     0.124 S 
ATOM     80  O   UNL A   1      48.280  25.812  37.428  1.00  0.00    -0.237 OA
ATOM     81  O   UNL A   1      48.638  27.865  38.759  1.00  0.00    -0.237 OA
ATOM     82  O   UNL A   1      47.157  26.093  39.610  1.00  0.00    -0.744 OA
ENDBRANCH  78  79
ENDBRANCH  50  73
BRANCH  62  83
ATOM     83  C   UNL A   1      39.830  33.955  37.119  1.00  0.00    -0.014 A 
ATOM     84  C   UNL A   1      39.027  33.665  38.236  1.00  0.00     0.010 A 
ATOM     85  C   UNL A   1      40.515  35.183  37.063  1.00  0.00     0.010 A 
ATOM     86  C   UNL A   1      38.886  34.600  39.264  1.00  0.00     0.020 A 
ATOM     87  C   UNL A   1      40.395  36.109  38.101  1.00  0.00     0.020 A 
ATOM     88  C   UNL A   1      39.570  35.817  39.189  1.00  0.00     0.054 A 
BRANCH  88  89
ATOM     89  S   UNL A   1      39.403  37.001  40.555  1.00  0.00     0.124 S 
ATOM     90  O   UNL A   1      38.541  36.273  41.483  1.00  0.00    -0.237 OA
ATOM     91  O   UNL A   1      40.784  37.184  40.992  1.00  0.00    -0.237 OA
ATOM     92  O   UNL A   1      38.794  38.171  39.925  1.00  0.00    -0.744 OA
ENDBRANCH  88  89
ENDBRANCH  62  83
ENDBRANCH  36  37
ENDBRANCH  29  31
ENDBRANCH  28  29
ENDBRANCH  27  28
ENDBRANCH   1  27
TORSDOF 20
ENDMDL
MODEL 2
REMARK VINA RESULT:     -10.1      5.992     12.215
REMARK SMILES COc1cc(/C=N/NC(=O)c2cccnc2)ccc1OCC(=O)OCCOC(=O)c1ccc(-c2c3nc(c(-c4ccc(S(=O)(=O)[O-])cc4)c4ccc([nH]4)c(-c4ccc(S(=O)(=O)[O-])cc4)c4nc(c(-c5ccc(S(=O)(=O)[O-])cc5)c5ccc2[nH]5)C=C4)C=C3)cc1
REMARK SMILES IDX 25 1 24 2 22 3 23 4 21 5 20 6 19 7 3 8 4 9 5 10 18 11 17 12
REMARK SMILES IDX 2 13 1 14 6 15 7 16 8 17 9 18 10 20 11 21 12 22 16 23 13 24
REMARK SMILES IDX 15 25 14 26 26 27 27 28 28 29 29 30 30 31 31 32 89 33 32 34
REMARK SMILES IDX 88 35 33 36 34 37 35 38 82 39 36 40 87 41 81 42 83 43 37 44
REMARK SMILES IDX 86 45 80 46 79 47 38 49 68 50 49 51 67 52 50 53 53 54 66 55
REMARK SMILES IDX 84 56 51 57 52 58 65 60 85 61 54 62 39 63 40 64 48 65 41 66
REMARK SMILES IDX 47 67 42 68 43 69 44 70 45 71 46 72 69 73 70 74 78 75 71 76
REMARK SMILES IDX 77 77 72 78 73 79 74 80 75 81 76 82 55 83 56 84 64 85 57 86
REMARK SMILES IDX 63 87 58 88 59 89 60 90 61 91 62 92
REMARK H PARENT 8 19 83 48 53 59
REMARK Flexibility Score: inf
ROOT
ATOM      1  C   UNL A   1      36.142  34.032  32.732  1.00  0.00     0.274 C 
ENDROOT
BRANCH   1   2
ATOM      2  O   UNL A   1      35.877  33.770  31.336  1.00  0.00    -0.460 OA
BRANCH   2   3
ATOM      3  C   UNL A   1      34.626  33.322  31.054  1.00  0.00     0.344 C 
ATOM      4  O   UNL A   1      34.036  32.470  31.713  1.00  0.00    -0.248 OA
BRANCH   3   5
ATOM      5  C   UNL A   1      33.983  34.001  29.831  1.00  0.00     0.352 C 
BRANCH   5   6
ATOM      6  O   UNL A   1      34.238  33.693  28.480  1.00  0.00    -0.478 OA
BRANCH   6   7
ATOM      7  C   UNL A   1      33.740  32.556  27.921  1.00  0.00     0.162 A 
ATOM      8  C   UNL A   1      34.372  31.318  27.733  1.00  0.00     0.161 A 
ATOM      9  C   UNL A   1      33.694  30.279  27.053  1.00  0.00     0.060 A 
ATOM     10  C   UNL A   1      32.402  30.499  26.554  1.00  0.00    -0.002 A 
ATOM     11  C   UNL A   1      32.473  32.766  27.368  1.00  0.00     0.051 A 
ATOM     12  C   UNL A   1      31.804  31.752  26.694  1.00  0.00     0.014 A 
BRANCH   8  13
ATOM     13  O   UNL A   1      35.723  31.181  27.928  1.00  0.00    -0.493 OA
ATOM     14  C   UNL A   1      36.174  29.839  28.041  1.00  0.00     0.278 C 
ENDBRANCH   8  13
BRANCH  10  15
ATOM     15  C   UNL A   1      31.612  29.511  25.788  1.00  0.00     0.141 C 
ATOM     16  N   UNL A   1      31.475  29.518  24.498  1.00  0.00    -0.180 NA
BRANCH  16  17
ATOM     17  N   UNL A   1      30.576  28.598  23.993  1.00  0.00    -0.243 N 
ATOM     18  C   UNL A   1      29.365  28.821  23.347  1.00  0.00     0.272 C 
ATOM     19  H   UNL A   1      30.828  27.653  24.108  1.00  0.00     0.194 HD
ATOM     20  O   UNL A   1      28.549  27.913  23.197  1.00  0.00    -0.267 OA
BRANCH  18  21
ATOM     21  C   UNL A   1      29.023  30.166  22.834  1.00  0.00     0.059 A 
ATOM     22  C   UNL A   1      28.980  31.298  23.647  1.00  0.00     0.017 A 
ATOM     23  C   UNL A   1      28.723  30.318  21.486  1.00  0.00     0.124 A 
ATOM     24  C   UNL A   1      28.566  32.512  23.104  1.00  0.00     0.021 A 
ATOM     25  N   UNL A   1      28.302  31.484  20.932  1.00  0.00    -0.264 NA
ATOM     26  C   UNL A   1      28.233  32.553  21.758  1.00  0.00     0.111 A 
ENDBRANCH  18  21
ENDBRANCH  16  17
ENDBRANCH  10  15
ENDBRANCH   6   7
ENDBRANCH   5   6
ENDBRANCH   3   5
ENDBRANCH   2   3
ENDBRANCH   1   2
BRANCH   1  27
ATOM     27  C   UNL A   1      36.435  32.714  33.449  1.00  0.00     0.275 C 
BRANCH  27  28
ATOM     28  O   UNL A   1      37.650  32.159  32.913  1.00  0.00    -0.458 OA
BRANCH  28  29
ATOM     29  C   UNL A   1      37.519  30.967  32.270  1.00  0.00     0.338 C 
ATOM     30  O   UNL A   1      36.512  30.283  32.245  1.00  0.00    -0.246 OA
BRANCH  29  31
ATOM     31  C   UNL A   1      38.777  30.645  31.534  1.00  0.00     0.060 A 
ATOM     32  C   UNL A   1      38.947  31.005  30.199  1.00  0.00     0.016 A 
ATOM     33  C   UNL A   1      39.793  29.920  32.160  1.00  0.00     0.016 A 
ATOM     34  C   UNL A   1      40.033  30.529  29.463  1.00  0.00     0.010 A 
ATOM     35  C   UNL A   1      40.955  29.566  31.451  1.00  0.00     0.010 A 
ATOM     36  C   UNL A   1      41.087  29.845  30.079  1.00  0.00    -0.014 A 
BRANCH  36  37
ATOM     37  C   UNL A   1      42.316  29.461  29.307  1.00  0.00     0.031 A 
ATOM     38  C   UNL A   1      42.441  28.090  28.683  1.00  0.00     0.074 A 
ATOM     39  C   UNL A   1      43.347  30.328  29.168  1.00  0.00     0.049 A 
ATOM     40  N   UNL A   1      43.510  27.481  28.235  1.00  0.00    -0.248 NA
ATOM     41  C   UNL A   1      41.208  27.294  28.562  1.00  0.00     0.031 C 
ATOM     42  C   UNL A   1      43.378  31.711  29.654  1.00  0.00     0.029 A 
ATOM     43  N   UNL A   1      44.578  30.175  28.570  1.00  0.00    -0.354 N 
ATOM     44  C   UNL A   1      43.098  26.204  27.860  1.00  0.00     0.074 A 
ATOM     45  C   UNL A   1      41.675  26.135  28.115  1.00  0.00     0.031 C 
ATOM     46  C   UNL A   1      44.524  32.294  29.280  1.00  0.00     0.029 A 
ATOM     47  C   UNL A   1      45.379  31.293  28.658  1.00  0.00     0.049 A 
ATOM     48  H   UNL A   1      44.861  29.345  28.122  1.00  0.00     0.167 HD
ATOM     49  C   UNL A   1      43.842  25.181  27.369  1.00  0.00     0.031 A 
ATOM     50  C   UNL A   1      46.677  31.492  28.352  1.00  0.00     0.031 A 
ATOM     51  C   UNL A   1      45.250  25.276  27.068  1.00  0.00     0.049 A 
ATOM     52  C   UNL A   1      47.493  30.339  27.852  1.00  0.00     0.074 A 
ATOM     53  C   UNL A   1      46.091  24.294  26.570  1.00  0.00     0.029 A 
ATOM     54  N   UNL A   1      46.018  26.420  27.213  1.00  0.00    -0.354 N 
ATOM     55  N   UNL A   1      47.110  29.109  27.606  1.00  0.00    -0.248 NA
ATOM     56  C   UNL A   1      48.922  30.588  27.619  1.00  0.00     0.031 C 
ATOM     57  C   UNL A   1      47.378  24.835  26.455  1.00  0.00     0.029 A 
ATOM     58  C   UNL A   1      47.325  26.167  26.828  1.00  0.00     0.049 A 
ATOM     59  H   UNL A   1      45.684  27.286  27.541  1.00  0.00     0.167 HD
ATOM     60  C   UNL A   1      48.251  28.438  27.184  1.00  0.00     0.074 A 
ATOM     61  C   UNL A   1      49.332  29.404  27.185  1.00  0.00     0.031 C 
ATOM     62  C   UNL A   1      48.391  27.136  26.836  1.00  0.00     0.031 A 
BRANCH  49  63
ATOM     63  C   UNL A   1      43.169  23.844  27.184  1.00  0.00    -0.014 A 
ATOM     64  C   UNL A   1      42.868  23.004  28.271  1.00  0.00     0.010 A 
ATOM     65  C   UNL A   1      42.786  23.444  25.888  1.00  0.00     0.010 A 
ATOM     66  C   UNL A   1      42.234  21.774  28.060  1.00  0.00     0.020 A 
ATOM     67  C   UNL A   1      42.128  22.229  25.677  1.00  0.00     0.020 A 
ATOM     68  C   UNL A   1      41.872  21.392  26.763  1.00  0.00     0.054 A 
BRANCH  68  69
ATOM     69  S   UNL A   1      41.036  19.800  26.520  1.00  0.00     0.124 S 
ATOM     70  O   UNL A   1      41.957  19.113  25.618  1.00  0.00    -0.237 OA
ATOM     71  O   UNL A   1      40.969  19.262  27.876  1.00  0.00    -0.237 OA
ATOM     72  O   UNL A   1      39.749  20.169  25.936  1.00  0.00    -0.744 OA
ENDBRANCH  68  69
ENDBRANCH  49  63
BRANCH  50  73
ATOM     73  C   UNL A   1      47.301  32.824  28.601  1.00  0.00    -0.014 A 
ATOM     74  C   UNL A   1      47.272  33.825  27.615  1.00  0.00     0.010 A 
ATOM     75  C   UNL A   1      47.889  33.112  29.848  1.00  0.00     0.010 A 
ATOM     76  C   UNL A   1      47.814  35.089  27.873  1.00  0.00     0.020 A 
ATOM     77  C   UNL A   1      48.400  34.383  30.122  1.00  0.00     0.020 A 
ATOM     78  C   UNL A   1      48.365  35.363  29.128  1.00  0.00     0.054 A 
BRANCH  78  79
ATOM     79  S   UNL A   1      48.976  37.036  29.477  1.00  0.00     0.124 S 
ATOM     80  O   UNL A   1      50.366  36.780  29.841  1.00  0.00    -0.237 OA
ATOM     81  O   UNL A   1      48.770  37.720  28.203  1.00  0.00    -0.237 OA
ATOM     82  O   UNL A   1      48.115  37.494  30.565  1.00  0.00    -0.744 OA
ENDBRANCH  78  79
ENDBRANCH  50  73
BRANCH  62  83
ATOM     83  C   UNL A   1      49.756  26.690  26.390  1.00  0.00    -0.014 A 
ATOM     84  C   UNL A   1      50.119  26.703  25.032  1.00  0.00     0.010 A 
ATOM     85  C   UNL A   1      50.700  26.286  27.351  1.00  0.00     0.010 A 
ATOM     86  C   UNL A   1      51.394  26.290  24.640  1.00  0.00     0.020 A 
ATOM     87  C   UNL A   1      51.984  25.895  26.965  1.00  0.00     0.020 A 
ATOM     88  C   UNL A   1      52.319  25.886  25.609  1.00  0.00     0.054 A 
BRANCH  88  89
ATOM     89  S   UNL A   1      53.982  25.390  25.080  1.00  0.00     0.124 S 
ATOM     90  O   UNL A   1      54.180  26.214  23.891  1.00  0.00    -0.237 OA
ATOM     91  O   UNL A   1      54.805  25.744  26.234  1.00  0.00    -0.237 OA
ATOM     92  O   UNL A   1      53.852  23.956  24.832  1.00  0.00    -0.744 OA
ENDBRANCH  88  89
ENDBRANCH  62  83
ENDBRANCH  36  37
ENDBRANCH  29  31
ENDBRANCH  28  29
ENDBRANCH  27  28
ENDBRANCH   1  27
TORSDOF 20
ENDMDL
MODEL 3
REMARK VINA RESULT:     -10.0      6.416     12.248
REMARK SMILES COc1cc(/C=N/NC(=O)c2cccnc2)ccc1OCC(=O)OCCOC(=O)c1ccc(-c2c3nc(c(-c4ccc(S(=O)(=O)[O-])cc4)c4ccc([nH]4)c(-c4ccc(S(=O)(=O)[O-])cc4)c4nc(c(-c5ccc(S(=O)(=O)[O-])cc5)c5ccc2[nH]5)C=C4)C=C3)cc1
REMARK SMILES IDX 25 1 24 2 22 3 23 4 21 5 20 6 19 7 3 8 4 9 5 10 18 11 17 12
REMARK SMILES IDX 2 13 1 14 6 15 7 16 8 17 9 18 10 20 11 21 12 22 16 23 13 24
REMARK SMILES IDX 15 25 14 26 26 27 27 28 28 29 29 30 30 31 31 32 89 33 32 34
REMARK SMILES IDX 88 35 33 36 34 37 35 38 82 39 36 40 87 41 81 42 83 43 37 44
REMARK SMILES IDX 86 45 80 46 79 47 38 49 68 50 49 51 67 52 50 53 53 54 66 55
REMARK SMILES IDX 84 56 51 57 52 58 65 60 85 61 54 62 39 63 40 64 48 65 41 66
REMARK SMILES IDX 47 67 42 68 43 69 44 70 45 71 46 72 69 73 70 74 78 75 71 76
REMARK SMILES IDX 77 77 72 78 73 79 74 80 75 81 76 82 55 83 56 84 64 85 57 86
REMARK SMILES IDX 63 87 58 88 59 89 60 90 61 91 62 92
REMARK H PARENT 8 19 83 48 53 59
REMARK Flexibility Score: inf
ROOT
ATOM      1  C   UNL A   1      34.114  30.800  27.598  1.00  0.00     0.274 C 
ENDROOT
BRANCH   1   2
ATOM      2  O   UNL A   1      33.383  32.046  27.608  1.00  0.00    -0.460 OA
BRANCH   2   3
ATOM      3  C   UNL A   1      32.159  32.010  27.019  1.00  0.00     0.344 C 
ATOM      4  O   UNL A   1      31.479  33.005  26.783  1.00  0.00    -0.248 OA
BRANCH   3   5
ATOM      5  C   UNL A   1      31.692  30.592  26.641  1.00  0.00     0.352 C 
BRANCH   5   6
ATOM      6  O   UNL A   1      31.684  30.039  25.345  1.00  0.00    -0.478 OA
BRANCH   6   7
ATOM      7  C   UNL A   1      31.683  28.688  25.167  1.00  0.00     0.162 A 
ATOM      8  C   UNL A   1      31.785  27.959  23.974  1.00  0.00     0.161 A 
ATOM      9  C   UNL A   1      31.685  26.548  24.002  1.00  0.00     0.060 A 
ATOM     10  C   UNL A   1      31.463  25.889  25.220  1.00  0.00    -0.002 A 
ATOM     11  C   UNL A   1      31.411  28.011  26.360  1.00  0.00     0.051 A 
ATOM     12  C   UNL A   1      31.304  26.627  26.394  1.00  0.00     0.014 A 
BRANCH   8  13
ATOM     13  O   UNL A   1      31.688  28.584  22.756  1.00  0.00    -0.493 OA
ATOM     14  C   UNL A   1      30.360  28.832  22.320  1.00  0.00     0.278 C 
ENDBRANCH   8  13
BRANCH  10  15
ATOM     15  C   UNL A   1      31.294  24.428  25.372  1.00  0.00     0.141 C 
ATOM     16  N   UNL A   1      31.969  23.690  26.198  1.00  0.00    -0.180 NA
BRANCH  16  17
ATOM     17  N   UNL A   1      31.764  22.329  26.080  1.00  0.00    -0.243 N 
ATOM     18  C   UNL A   1      32.523  21.384  25.398  1.00  0.00     0.272 C 
ATOM     19  H   UNL A   1      30.968  21.979  26.543  1.00  0.00     0.194 HD
ATOM     20  O   UNL A   1      32.074  20.265  25.154  1.00  0.00    -0.267 OA
BRANCH  18  21
ATOM     21  C   UNL A   1      33.889  21.711  24.935  1.00  0.00     0.059 A 
ATOM     22  C   UNL A   1      34.157  22.731  24.023  1.00  0.00     0.017 A 
ATOM     23  C   UNL A   1      34.960  20.970  25.419  1.00  0.00     0.124 A 
ATOM     24  C   UNL A   1      35.462  22.919  23.574  1.00  0.00     0.021 A 
ATOM     25  N   UNL A   1      36.240  21.120  24.988  1.00  0.00    -0.264 NA
ATOM     26  C   UNL A   1      36.457  22.091  24.073  1.00  0.00     0.111 A 
ENDBRANCH  18  21
ENDBRANCH  16  17
ENDBRANCH  10  15
ENDBRANCH   6   7
ENDBRANCH   5   6
ENDBRANCH   3   5
ENDBRANCH   2   3
ENDBRANCH   1   2
BRANCH   1  27
ATOM     27  C   UNL A   1      35.598  31.079  27.837  1.00  0.00     0.275 C 
BRANCH  27  28
ATOM     28  O   UNL A   1      36.314  29.832  27.787  1.00  0.00    -0.458 OA
BRANCH  28  29
ATOM     29  C   UNL A   1      36.893  29.439  28.954  1.00  0.00     0.338 C 
ATOM     30  O   UNL A   1      36.317  29.298  30.018  1.00  0.00    -0.246 OA
BRANCH  29  31
ATOM     31  C   UNL A   1      38.337  29.135  28.729  1.00  0.00     0.060 A 
ATOM     32  C   UNL A   1      39.142  28.647  29.755  1.00  0.00     0.016 A 
ATOM     33  C   UNL A   1      38.925  29.392  27.488  1.00  0.00     0.016 A 
ATOM     34  C   UNL A   1      40.526  28.555  29.595  1.00  0.00     0.010 A 
ATOM     35  C   UNL A   1      40.298  29.160  27.290  1.00  0.00     0.010 A 
ATOM     36  C   UNL A   1      41.131  28.758  28.350  1.00  0.00    -0.014 A 
BRANCH  36  37
ATOM     37  C   UNL A   1      42.600  28.519  28.156  1.00  0.00     0.031 A 
ATOM     38  C   UNL A   1      43.610  29.588  28.508  1.00  0.00     0.074 A 
ATOM     39  C   UNL A   1      43.052  27.350  27.646  1.00  0.00     0.049 A 
ATOM     40  N   UNL A   1      44.868  29.683  28.155  1.00  0.00    -0.248 NA
ATOM     41  C   UNL A   1      43.142  30.702  29.349  1.00  0.00     0.031 C 
ATOM     42  C   UNL A   1      42.228  26.186  27.304  1.00  0.00     0.029 A 
ATOM     43  N   UNL A   1      44.327  26.939  27.325  1.00  0.00    -0.354 N 
ATOM     44  C   UNL A   1      45.317  30.903  28.655  1.00  0.00     0.074 A 
ATOM     45  C   UNL A   1      44.201  31.502  29.354  1.00  0.00     0.031 C 
ATOM     46  C   UNL A   1      43.014  25.183  26.892  1.00  0.00     0.029 A 
ATOM     47  C   UNL A   1      44.382  25.668  26.795  1.00  0.00     0.049 A 
ATOM     48  H   UNL A   1      45.125  27.500  27.461  1.00  0.00     0.167 HD
ATOM     49  C   UNL A   1      46.541  31.475  28.526  1.00  0.00     0.031 A 
ATOM     50  C   UNL A   1      45.389  24.981  26.219  1.00  0.00     0.031 A 
ATOM     51  C   UNL A   1      47.664  30.847  27.874  1.00  0.00     0.049 A 
ATOM     52  C   UNL A   1      46.721  25.646  26.046  1.00  0.00     0.074 A 
ATOM     53  C   UNL A   1      48.942  31.348  27.689  1.00  0.00     0.029 A 
ATOM     54  N   UNL A   1      47.652  29.577  27.320  1.00  0.00    -0.354 N 
ATOM     55  N   UNL A   1      47.096  26.843  26.430  1.00  0.00    -0.248 NA
ATOM     56  C   UNL A   1      47.756  24.885  25.333  1.00  0.00     0.031 C 
ATOM     57  C   UNL A   1      49.690  30.396  26.987  1.00  0.00     0.029 A 
ATOM     58  C   UNL A   1      48.894  29.281  26.782  1.00  0.00     0.049 A 
ATOM     59  H   UNL A   1      46.875  28.972  27.311  1.00  0.00     0.167 HD
ATOM     60  C   UNL A   1      48.413  26.976  26.010  1.00  0.00     0.074 A 
ATOM     61  C   UNL A   1      48.777  25.730  25.364  1.00  0.00     0.031 C 
ATOM     62  C   UNL A   1      49.243  28.039  26.141  1.00  0.00     0.031 A 
BRANCH  49  63
ATOM     63  C   UNL A   1      46.720  32.881  29.042  1.00  0.00    -0.014 A 
ATOM     64  C   UNL A   1      46.961  33.151  30.401  1.00  0.00     0.010 A 
ATOM     65  C   UNL A   1      46.693  33.954  28.129  1.00  0.00     0.010 A 
ATOM     66  C   UNL A   1      47.132  34.470  30.840  1.00  0.00     0.020 A 
ATOM     67  C   UNL A   1      46.891  35.269  28.560  1.00  0.00     0.020 A 
ATOM     68  C   UNL A   1      47.092  35.521  29.918  1.00  0.00     0.054 A 
BRANCH  68  69
ATOM     69  S   UNL A   1      47.333  37.218  30.513  1.00  0.00     0.124 S 
ATOM     70  O   UNL A   1      45.956  37.684  30.655  1.00  0.00    -0.237 OA
ATOM     71  O   UNL A   1      48.060  37.020  31.763  1.00  0.00    -0.237 OA
ATOM     72  O   UNL A   1      48.099  37.855  29.445  1.00  0.00    -0.744 OA
ENDBRANCH  68  69
ENDBRANCH  49  63
BRANCH  50  73
ATOM     73  C   UNL A   1      45.140  23.611  25.684  1.00  0.00    -0.014 A 
ATOM     74  C   UNL A   1      44.797  23.419  24.335  1.00  0.00     0.010 A 
ATOM     75  C   UNL A   1      45.290  22.484  26.516  1.00  0.00     0.010 A 
ATOM     76  C   UNL A   1      44.615  22.128  23.827  1.00  0.00     0.020 A 
ATOM     77  C   UNL A   1      45.143  21.192  26.005  1.00  0.00     0.020 A 
ATOM     78  C   UNL A   1      44.800  21.023  24.662  1.00  0.00     0.054 A 
BRANCH  78  79
ATOM     79  S   UNL A   1      44.653  19.354  23.963  1.00  0.00     0.124 S 
ATOM     80  O   UNL A   1      43.468  18.844  24.645  1.00  0.00    -0.237 OA
ATOM     81  O   UNL A   1      44.498  19.622  22.536  1.00  0.00    -0.237 OA
ATOM     82  O   UNL A   1      45.915  18.717  24.334  1.00  0.00    -0.744 OA
ENDBRANCH  78  79
ENDBRANCH  50  73
BRANCH  62  83
ATOM     83  C   UNL A   1      50.640  27.887  25.606  1.00  0.00    -0.014 A 
ATOM     84  C   UNL A   1      50.944  28.186  24.266  1.00  0.00     0.010 A 
ATOM     85  C   UNL A   1      51.670  27.471  26.469  1.00  0.00     0.010 A 
ATOM     86  C   UNL A   1      52.249  28.044  23.791  1.00  0.00     0.020 A 
ATOM     87  C   UNL A   1      52.981  27.351  26.003  1.00  0.00     0.020 A 
ATOM     88  C   UNL A   1      53.260  27.625  24.662  1.00  0.00     0.054 A 
BRANCH  88  89
ATOM     89  S   UNL A   1      54.956  27.483  24.033  1.00  0.00     0.124 S 
ATOM     90  O   UNL A   1      55.258  26.078  24.288  1.00  0.00    -0.237 OA
ATOM     91  O   UNL A   1      54.808  27.849  22.626  1.00  0.00    -0.237 OA
ATOM     92  O   UNL A   1      55.706  28.440  24.844  1.00  0.00    -0.744 OA
ENDBRANCH  88  89
ENDBRANCH  62  83
ENDBRANCH  36  37
ENDBRANCH  29  31
ENDBRANCH  28  29
ENDBRANCH  27  28
ENDBRANCH   1  27
TORSDOF 20
ENDMDL
