MODEL 1
REMARK VINA RESULT:     -13.1      0.000      0.000
REMARK SMILES Cc1c(CC(=O)OCCOC(=O)c2ccc(-c3c4nc(c(-c5ccc(S(=O)(=O)[O-])cc5)c5ccc([nH]5)c(-c5ccc(S(=O)(=O)[O-])cc5)c5nc(c(-c6ccc(S(=O)(=O)[O-])cc6)c6ccc3[nH]6)C=C5)C=C4)cc2)cccc1-c1ccn(C(F)F)c(=O)c1
REMARK SMILES IDX 8 1 7 2 5 3 6 4 4 5 3 6 1 7 2 8 76 9 73 10 75 11 74 12 77 13
REMARK SMILES IDX 78 14 86 15 79 16 84 17 80 18 85 19 81 20 82 21 83 22 9 23
REMARK SMILES IDX 10 24 11 25 12 26 13 27 14 28 72 29 15 30 71 31 16 32 17 33
REMARK SMILES IDX 18 34 65 35 19 36 70 37 64 38 66 39 20 40 69 41 63 42 62 43
REMARK SMILES IDX 21 45 51 46 32 47 50 48 33 49 36 50 49 51 67 52 34 53 35 54
REMARK SMILES IDX 48 56 68 57 37 58 22 59 23 60 31 61 24 62 30 63 25 64 26 65
REMARK SMILES IDX 27 66 28 67 29 68 52 69 53 70 61 71 54 72 60 73 55 74 56 75
REMARK SMILES IDX 57 76 58 77 59 78 38 79 39 80 47 81 40 82 46 83 41 84 42 85
REMARK SMILES IDX 43 86 44 87 45 88
REMARK H PARENT 66 44 36 55
REMARK Flexibility Score: inf
ROOT
ATOM      1  C   UNL A   1      38.683  22.252  25.793  1.00  0.00     0.274 C 
ENDROOT
BRANCH   1   2
ATOM      2  O   UNL A   1      37.504  21.492  26.127  1.00  0.00    -0.462 OA
BRANCH   2   3
ATOM      3  C   UNL A   1      36.517  21.360  25.073  1.00  0.00     0.310 C 
ATOM      4  O   UNL A   1      36.469  20.117  24.833  1.00  0.00    -0.252 OA
BRANCH   3   5
ATOM      5  C   UNL A   1      35.410  23.009  24.188  1.00  0.00     0.158 C 
BRANCH   5   6
ATOM      6  C   UNL A   1      33.798  23.232  23.631  1.00  0.00    -0.033 A 
ATOM      7  C   UNL A   1      33.949  25.768  23.939  1.00  0.00     0.045 C 
ATOM      8  C   UNL A   1      33.165  24.504  23.677  1.00  0.00    -0.039 A 
ATOM      9  C   UNL A   1      31.781  24.570  23.388  1.00  0.00    -0.015 A 
ATOM     10  C   UNL A   1      33.123  22.183  22.967  1.00  0.00     0.004 A 
ATOM     11  C   UNL A   1      31.079  23.427  22.983  1.00  0.00     0.009 A 
ATOM     12  C   UNL A   1      31.760  22.251  22.722  1.00  0.00     0.001 A 
BRANCH   9  13
ATOM     13  C   UNL A   1      31.046  25.843  23.437  1.00  0.00    -0.011 A 
ATOM     14  C   UNL A   1      29.704  25.923  23.977  1.00  0.00     0.027 A 
ATOM     15  C   UNL A   1      31.609  26.925  22.875  1.00  0.00     0.080 A 
ATOM     16  C   UNL A   1      28.979  27.031  23.803  1.00  0.00     0.095 A 
ATOM     17  C   UNL A   1      30.839  28.192  22.756  1.00  0.00     0.255 A 
ATOM     18  N   UNL A   1      29.518  28.138  23.175  1.00  0.00    -0.258 N 
ATOM     19  O   UNL A   1      31.399  29.177  22.285  1.00  0.00    -0.269 OA
BRANCH  18  20
ATOM     20  C   UNL A   1      28.707  29.299  22.927  1.00  0.00     0.451 C 
ATOM     21  F   UNL A   1      29.301  30.421  23.402  1.00  0.00    -0.185 F 
ATOM     22  F   UNL A   1      28.486  29.468  21.602  1.00  0.00    -0.185 F 
ENDBRANCH  18  20
ENDBRANCH   9  13
ENDBRANCH   5   6
ENDBRANCH   3   5
ENDBRANCH   2   3
ENDBRANCH   1   2
BRANCH   1  23
ATOM     23  C   UNL A   1      39.786  21.888  26.796  1.00  0.00     0.275 C 
BRANCH  23  24
ATOM     24  O   UNL A   1      40.950  22.750  26.726  1.00  0.00    -0.458 OA
BRANCH  24  25
ATOM     25  C   UNL A   1      41.132  23.666  27.713  1.00  0.00     0.338 C 
ATOM     26  O   UNL A   1      41.951  23.600  28.612  1.00  0.00    -0.246 OA
BRANCH  25  27
ATOM     27  C   UNL A   1      40.263  24.839  27.487  1.00  0.00     0.060 A 
ATOM     28  C   UNL A   1      40.720  26.074  26.250  1.00  0.00     0.016 A 
ATOM     29  C   UNL A   1      39.281  25.307  28.922  1.00  0.00     0.016 A 
ATOM     30  C   UNL A   1      40.368  27.841  26.570  1.00  0.00     0.010 A 
ATOM     31  C   UNL A   1      38.955  27.047  29.241  1.00  0.00     0.010 A 
ATOM     32  C   UNL A   1      39.578  28.312  28.111  1.00  0.00    -0.014 A 
BRANCH  32  33
ATOM     33  C   UNL A   1      39.840  29.561  28.810  1.00  0.00     0.031 A 
ATOM     34  C   UNL A   1      38.835  30.633  28.773  1.00  0.00     0.074 A 
ATOM     35  C   UNL A   1      40.837  29.572  29.728  1.00  0.00     0.049 A 
ATOM     36  N   UNL A   1      39.057  31.823  29.202  1.00  0.00    -0.248 NA
ATOM     37  C   UNL A   1      37.497  30.487  28.204  1.00  0.00     0.031 C 
ATOM     38  C   UNL A   1      41.025  30.489  30.849  1.00  0.00     0.029 A 
ATOM     39  N   UNL A   1      41.993  28.803  29.779  1.00  0.00    -0.354 N 
ATOM     40  C   UNL A   1      37.840  32.445  29.327  1.00  0.00     0.074 A 
ATOM     41  C   UNL A   1      36.932  31.650  28.545  1.00  0.00     0.031 C 
ATOM     42  C   UNL A   1      42.310  30.432  31.242  1.00  0.00     0.029 A 
ATOM     43  C   UNL A   1      43.019  29.586  30.296  1.00  0.00     0.049 A 
ATOM     44  H   UNL A   1      42.072  27.863  29.499  1.00  0.00     0.167 HD
ATOM     45  C   UNL A   1      37.732  33.474  30.212  1.00  0.00     0.031 A 
ATOM     46  C   UNL A   1      44.082  29.953  29.519  1.00  0.00     0.031 A 
ATOM     47  C   UNL A   1      39.055  33.888  30.697  1.00  0.00     0.049 A 
ATOM     48  C   UNL A   1      44.050  31.450  29.212  1.00  0.00     0.074 A 
ATOM     49  C   UNL A   1      39.731  33.808  31.902  1.00  0.00     0.029 A 
ATOM     50  N   UNL A   1      40.022  34.189  29.746  1.00  0.00    -0.354 N 
ATOM     51  N   UNL A   1      43.151  32.275  29.683  1.00  0.00    -0.248 NA
ATOM     52  C   UNL A   1      44.975  32.131  28.308  1.00  0.00     0.031 C 
ATOM     53  C   UNL A   1      41.128  33.999  31.635  1.00  0.00     0.029 A 
ATOM     54  C   UNL A   1      41.291  34.256  30.284  1.00  0.00     0.049 A 
ATOM     55  H   UNL A   1      39.823  34.339  28.794  1.00  0.00     0.167 HD
ATOM     56  C   UNL A   1      43.291  33.516  29.128  1.00  0.00     0.074 A 
ATOM     57  C   UNL A   1      44.460  33.376  28.273  1.00  0.00     0.031 C 
ATOM     58  C   UNL A   1      42.412  34.538  29.385  1.00  0.00     0.031 A 
BRANCH  45  59
ATOM     59  C   UNL A   1      36.421  33.988  30.765  1.00  0.00    -0.014 A 
ATOM     60  C   UNL A   1      35.437  34.471  29.879  1.00  0.00     0.010 A 
ATOM     61  C   UNL A   1      36.127  34.113  32.140  1.00  0.00     0.010 A 
ATOM     62  C   UNL A   1      34.240  35.048  30.339  1.00  0.00     0.020 A 
ATOM     63  C   UNL A   1      34.924  34.657  32.613  1.00  0.00     0.020 A 
ATOM     64  C   UNL A   1      33.989  35.136  31.707  1.00  0.00     0.054 A 
BRANCH  64  65
ATOM     65  S   UNL A   1      32.450  35.892  32.289  1.00  0.00     0.124 S 
ATOM     66  O   UNL A   1      31.892  36.448  31.059  1.00  0.00    -0.237 OA
ATOM     67  O   UNL A   1      31.731  34.754  32.853  1.00  0.00    -0.237 OA
ATOM     68  O   UNL A   1      32.899  36.883  33.266  1.00  0.00    -0.744 OA
ENDBRANCH  64  65
ENDBRANCH  45  59
BRANCH  46  69
ATOM     69  C   UNL A   1      44.596  28.842  28.644  1.00  0.00    -0.014 A 
ATOM     70  C   UNL A   1      43.922  28.637  27.414  1.00  0.00     0.010 A 
ATOM     71  C   UNL A   1      45.876  28.282  28.787  1.00  0.00     0.010 A 
ATOM     72  C   UNL A   1      44.560  28.037  26.317  1.00  0.00     0.020 A 
ATOM     73  C   UNL A   1      46.513  27.659  27.688  1.00  0.00     0.020 A 
ATOM     74  C   UNL A   1      45.871  27.590  26.447  1.00  0.00     0.054 A 
BRANCH  74  75
ATOM     75  S   UNL A   1      46.763  27.071  24.943  1.00  0.00     0.124 S 
ATOM     76  O   UNL A   1      46.268  25.715  24.732  1.00  0.00    -0.237 OA
ATOM     77  O   UNL A   1      46.335  28.056  23.954  1.00  0.00    -0.237 OA
ATOM     78  O   UNL A   1      48.171  27.170  25.328  1.00  0.00    -0.744 OA
ENDBRANCH  74  75
ENDBRANCH  46  69
BRANCH  58  79
ATOM     79  C   UNL A   1      42.493  35.915  28.755  1.00  0.00    -0.014 A 
ATOM     80  C   UNL A   1      41.851  36.252  27.555  1.00  0.00     0.010 A 
ATOM     81  C   UNL A   1      43.331  36.907  29.321  1.00  0.00     0.010 A 
ATOM     82  C   UNL A   1      41.964  37.540  27.006  1.00  0.00     0.020 A 
ATOM     83  C   UNL A   1      43.470  38.184  28.776  1.00  0.00     0.020 A 
ATOM     84  C   UNL A   1      42.762  38.501  27.630  1.00  0.00     0.054 A 
BRANCH  84  85
ATOM     85  S   UNL A   1      42.908  40.149  26.904  1.00  0.00     0.124 S 
ATOM     86  O   UNL A   1      44.155  40.054  26.150  1.00  0.00    -0.237 OA
ATOM     87  O   UNL A   1      41.691  40.233  26.100  1.00  0.00    -0.237 OA
ATOM     88  O   UNL A   1      42.951  41.040  28.061  1.00  0.00    -0.744 OA
ENDBRANCH  84  85
ENDBRANCH  58  79
ENDBRANCH  32  33
ENDBRANCH  25  27
ENDBRANCH  24  25
ENDBRANCH  23  24
ENDBRANCH   1  23
TORSDOF 17
ENDMDL
MODEL 2
REMARK VINA RESULT:     -13.0      2.564      3.989
REMARK SMILES Cc1c(CC(=O)OCCOC(=O)c2ccc(-c3c4nc(c(-c5ccc(S(=O)(=O)[O-])cc5)c5ccc([nH]5)c(-c5ccc(S(=O)(=O)[O-])cc5)c5nc(c(-c6ccc(S(=O)(=O)[O-])cc6)c6ccc3[nH]6)C=C5)C=C4)cc2)cccc1-c1ccn(C(F)F)c(=O)c1
REMARK SMILES IDX 8 1 7 2 5 3 6 4 4 5 3 6 1 7 2 8 76 9 73 10 75 11 74 12 77 13
REMARK SMILES IDX 78 14 86 15 79 16 84 17 80 18 85 19 81 20 82 21 83 22 9 23
REMARK SMILES IDX 10 24 11 25 12 26 13 27 14 28 72 29 15 30 71 31 16 32 17 33
REMARK SMILES IDX 18 34 65 35 19 36 70 37 64 38 66 39 20 40 69 41 63 42 62 43
REMARK SMILES IDX 21 45 51 46 32 47 50 48 33 49 36 50 49 51 67 52 34 53 35 54
REMARK SMILES IDX 48 56 68 57 37 58 22 59 23 60 31 61 24 62 30 63 25 64 26 65
REMARK SMILES IDX 27 66 28 67 29 68 52 69 53 70 61 71 54 72 60 73 55 74 56 75
REMARK SMILES IDX 57 76 58 77 59 78 38 79 39 80 47 81 40 82 46 83 41 84 42 85
REMARK SMILES IDX 43 86 44 87 45 88
REMARK H PARENT 66 44 36 55
REMARK Flexibility Score: inf
ROOT
ATOM      1  C   UNL A   1      43.967  20.206  25.369  1.00  0.00     0.274 C 
ENDROOT
BRANCH   1   2
ATOM      2  O   UNL A   1      43.096  19.073  25.553  1.00  0.00    -0.462 OA
BRANCH   2   3
ATOM      3  C   UNL A   1      41.959  19.284  26.427  1.00  0.00     0.310 C 
ATOM      4  O   UNL A   1      42.359  18.913  27.570  1.00  0.00    -0.252 OA
BRANCH   3   5
ATOM      5  C   UNL A   1      40.037  20.089  25.802  1.00  0.00     0.158 C 
BRANCH   5   6
ATOM      6  C   UNL A   1      39.200  21.569  26.050  1.00  0.00    -0.033 A 
ATOM      7  C   UNL A   1      37.038  20.612  25.068  1.00  0.00     0.045 C 
ATOM      8  C   UNL A   1      37.878  21.766  25.564  1.00  0.00    -0.039 A 
ATOM      9  C   UNL A   1      37.331  23.069  25.632  1.00  0.00    -0.015 A 
ATOM     10  C   UNL A   1      39.752  22.569  26.882  1.00  0.00     0.004 A 
ATOM     11  C   UNL A   1      38.040  24.113  26.240  1.00  0.00     0.009 A 
ATOM     12  C   UNL A   1      39.222  23.850  26.910  1.00  0.00     0.001 A 
BRANCH   9  13
ATOM     13  C   UNL A   1      35.979  23.362  25.129  1.00  0.00    -0.011 A 
ATOM     14  C   UNL A   1      35.724  23.568  23.718  1.00  0.00     0.027 A 
ATOM     15  C   UNL A   1      34.992  23.536  26.022  1.00  0.00     0.080 A 
ATOM     16  C   UNL A   1      34.546  24.053  23.316  1.00  0.00     0.095 A 
ATOM     17  C   UNL A   1      33.649  23.991  25.573  1.00  0.00     0.255 A 
ATOM     18  N   UNL A   1      33.534  24.295  24.225  1.00  0.00    -0.258 N 
ATOM     19  O   UNL A   1      32.753  24.089  26.406  1.00  0.00    -0.269 OA
BRANCH  18  20
ATOM     20  C   UNL A   1      32.296  24.885  23.793  1.00  0.00     0.451 C 
ATOM     21  F   UNL A   1      32.508  25.836  22.851  1.00  0.00    -0.185 F 
ATOM     22  F   UNL A   1      31.465  23.952  23.271  1.00  0.00    -0.185 F 
ENDBRANCH  18  20
ENDBRANCH   9  13
ENDBRANCH   5   6
ENDBRANCH   3   5
ENDBRANCH   2   3
ENDBRANCH   1   2
BRANCH   1  23
ATOM     23  C   UNL A   1      43.303  21.429  26.016  1.00  0.00     0.275 C 
BRANCH  23  24
ATOM     24  O   UNL A   1      43.459  22.653  25.255  1.00  0.00    -0.458 OA
BRANCH  24  25
ATOM     25  C   UNL A   1      43.948  23.750  25.892  1.00  0.00     0.338 C 
ATOM     26  O   UNL A   1      45.121  24.059  25.989  1.00  0.00    -0.246 OA
BRANCH  25  27
ATOM     27  C   UNL A   1      42.838  24.599  26.369  1.00  0.00     0.060 A 
ATOM     28  C   UNL A   1      42.234  25.955  25.338  1.00  0.00     0.016 A 
ATOM     29  C   UNL A   1      42.707  24.691  28.163  1.00  0.00     0.016 A 
ATOM     30  C   UNL A   1      41.689  27.513  26.128  1.00  0.00     0.010 A 
ATOM     31  C   UNL A   1      42.190  26.231  28.934  1.00  0.00     0.010 A 
ATOM     32  C   UNL A   1      41.769  27.663  27.916  1.00  0.00    -0.014 A 
BRANCH  32  33
ATOM     33  C   UNL A   1      42.051  28.908  28.614  1.00  0.00     0.031 A 
ATOM     34  C   UNL A   1      40.957  29.858  28.865  1.00  0.00     0.074 A 
ATOM     35  C   UNL A   1      43.222  29.001  29.289  1.00  0.00     0.049 A 
ATOM     36  N   UNL A   1      41.145  31.049  29.306  1.00  0.00    -0.248 NA
ATOM     37  C   UNL A   1      39.548  29.579  28.597  1.00  0.00     0.031 C 
ATOM     38  C   UNL A   1      43.561  29.893  30.395  1.00  0.00     0.029 A 
ATOM     39  N   UNL A   1      44.434  28.370  29.037  1.00  0.00    -0.354 N 
ATOM     40  C   UNL A   1      39.929  31.522  29.734  1.00  0.00     0.074 A 
ATOM     41  C   UNL A   1      38.956  30.656  29.124  1.00  0.00     0.031 C 
ATOM     42  C   UNL A   1      44.901  29.970  30.491  1.00  0.00     0.029 A 
ATOM     43  C   UNL A   1      45.462  29.247  29.362  1.00  0.00     0.049 A 
ATOM     44  H   UNL A   1      44.546  27.455  28.690  1.00  0.00     0.167 HD
ATOM     45  C   UNL A   1      39.917  32.499  30.682  1.00  0.00     0.031 A 
ATOM     46  C   UNL A   1      46.279  29.761  28.394  1.00  0.00     0.031 A 
ATOM     47  C   UNL A   1      41.265  33.045  30.888  1.00  0.00     0.049 A 
ATOM     48  C   UNL A   1      46.022  31.255  28.193  1.00  0.00     0.074 A 
ATOM     49  C   UNL A   1      42.200  33.000  31.907  1.00  0.00     0.029 A 
ATOM     50  N   UNL A   1      41.955  33.490  29.768  1.00  0.00    -0.354 N 
ATOM     51  N   UNL A   1      45.171  31.953  28.899  1.00  0.00    -0.248 NA
ATOM     52  C   UNL A   1      46.643  32.069  27.151  1.00  0.00     0.031 C 
ATOM     53  C   UNL A   1      43.473  33.361  31.351  1.00  0.00     0.029 A 
ATOM     54  C   UNL A   1      43.298  33.683  30.015  1.00  0.00     0.049 A 
ATOM     55  H   UNL A   1      41.532  33.650  28.893  1.00  0.00     0.167 HD
ATOM     56  C   UNL A   1      45.052  33.221  28.404  1.00  0.00     0.074 A 
ATOM     57  C   UNL A   1      46.006  33.247  27.306  1.00  0.00     0.031 C 
ATOM     58  C   UNL A   1      44.152  34.125  28.910  1.00  0.00     0.031 A 
BRANCH  45  59
ATOM     59  C   UNL A   1      38.718  32.838  31.540  1.00  0.00    -0.014 A 
ATOM     60  C   UNL A   1      38.517  34.169  31.955  1.00  0.00     0.010 A 
ATOM     61  C   UNL A   1      37.805  31.889  32.050  1.00  0.00     0.010 A 
ATOM     62  C   UNL A   1      37.476  34.527  32.830  1.00  0.00     0.020 A 
ATOM     63  C   UNL A   1      36.744  32.236  32.898  1.00  0.00     0.020 A 
ATOM     64  C   UNL A   1      36.592  33.555  33.296  1.00  0.00     0.054 A 
BRANCH  64  65
ATOM     65  S   UNL A   1      35.262  34.025  34.432  1.00  0.00     0.124 S 
ATOM     66  O   UNL A   1      35.830  33.684  35.733  1.00  0.00    -0.237 OA
ATOM     67  O   UNL A   1      35.105  35.451  34.164  1.00  0.00    -0.237 OA
ATOM     68  O   UNL A   1      34.136  33.192  34.012  1.00  0.00    -0.744 OA
ENDBRANCH  64  65
ENDBRANCH  45  59
BRANCH  46  69
ATOM     69  C   UNL A   1      46.694  28.749  27.361  1.00  0.00    -0.014 A 
ATOM     70  C   UNL A   1      45.842  28.596  26.240  1.00  0.00     0.010 A 
ATOM     71  C   UNL A   1      48.005  28.255  27.255  1.00  0.00     0.010 A 
ATOM     72  C   UNL A   1      46.321  28.116  25.011  1.00  0.00     0.020 A 
ATOM     73  C   UNL A   1      48.485  27.753  26.023  1.00  0.00     0.020 A 
ATOM     74  C   UNL A   1      47.655  27.737  24.896  1.00  0.00     0.054 A 
BRANCH  74  75
ATOM     75  S   UNL A   1      48.316  27.384  23.233  1.00  0.00     0.124 S 
ATOM     76  O   UNL A   1      47.389  28.101  22.365  1.00  0.00    -0.237 OA
ATOM     77  O   UNL A   1      49.668  27.931  23.296  1.00  0.00    -0.237 OA
ATOM     78  O   UNL A   1      48.255  25.925  23.143  1.00  0.00    -0.744 OA
ENDBRANCH  74  75
ENDBRANCH  46  69
BRANCH  58  79
ATOM     79  C   UNL A   1      43.944  35.524  28.362  1.00  0.00    -0.014 A 
ATOM     80  C   UNL A   1      43.178  35.798  27.222  1.00  0.00     0.010 A 
ATOM     81  C   UNL A   1      44.624  36.622  28.944  1.00  0.00     0.010 A 
ATOM     82  C   UNL A   1      43.023  37.111  26.748  1.00  0.00     0.020 A 
ATOM     83  C   UNL A   1      44.496  37.929  28.472  1.00  0.00     0.020 A 
ATOM     84  C   UNL A   1      43.673  38.169  27.387  1.00  0.00     0.054 A 
BRANCH  84  85
ATOM     85  S   UNL A   1      43.474  39.851  26.757  1.00  0.00     0.124 S 
ATOM     86  O   UNL A   1      42.134  39.815  26.177  1.00  0.00    -0.237 OA
ATOM     87  O   UNL A   1      43.612  40.647  27.974  1.00  0.00    -0.237 OA
ATOM     88  O   UNL A   1      44.562  39.996  25.792  1.00  0.00    -0.744 OA
ENDBRANCH  84  85
ENDBRANCH  58  79
ENDBRANCH  32  33
ENDBRANCH  25  27
ENDBRANCH  24  25
ENDBRANCH  23  24
ENDBRANCH   1  23
TORSDOF 17
ENDMDL
MODEL 3
REMARK VINA RESULT:     -13.0      3.786      5.531
REMARK SMILES Cc1c(CC(=O)OCCOC(=O)c2ccc(-c3c4nc(c(-c5ccc(S(=O)(=O)[O-])cc5)c5ccc([nH]5)c(-c5ccc(S(=O)(=O)[O-])cc5)c5nc(c(-c6ccc(S(=O)(=O)[O-])cc6)c6ccc3[nH]6)C=C5)C=C4)cc2)cccc1-c1ccn(C(F)F)c(=O)c1
REMARK SMILES IDX 8 1 7 2 5 3 6 4 4 5 3 6 1 7 2 8 76 9 73 10 75 11 74 12 77 13
REMARK SMILES IDX 78 14 86 15 79 16 84 17 80 18 85 19 81 20 82 21 83 22 9 23
REMARK SMILES IDX 10 24 11 25 12 26 13 27 14 28 72 29 15 30 71 31 16 32 17 33
REMARK SMILES IDX 18 34 65 35 19 36 70 37 64 38 66 39 20 40 69 41 63 42 62 43
REMARK SMILES IDX 21 45 51 46 32 47 50 48 33 49 36 50 49 51 67 52 34 53 35 54
REMARK SMILES IDX 48 56 68 57 37 58 22 59 23 60 31 61 24 62 30 63 25 64 26 65
REMARK SMILES IDX 27 66 28 67 29 68 52 69 53 70 61 71 54 72 60 73 55 74 56 75
REMARK SMILES IDX 57 76 58 77 59 78 38 79 39 80 47 81 40 82 46 83 41 84 42 85
REMARK SMILES IDX 43 86 44 87 45 88
REMARK H PARENT 66 44 36 55
REMARK Flexibility Score: inf
ROOT
ATOM      1  C   UNL A   1      44.743  19.261  24.853  1.00  0.00     0.274 C 
ENDROOT
BRANCH   1   2
ATOM      2  O   UNL A   1      43.322  19.317  24.621  1.00  0.00    -0.462 OA
BRANCH   2   3
ATOM      3  C   UNL A   1      42.483  19.110  25.784  1.00  0.00     0.310 C 
ATOM      4  O   UNL A   1      42.331  17.854  25.851  1.00  0.00    -0.252 OA
BRANCH   3   5
ATOM      5  C   UNL A   1      41.723  20.690  27.072  1.00  0.00     0.158 C 
BRANCH   5   6
ATOM      6  C   UNL A   1      40.501  21.890  26.932  1.00  0.00    -0.033 A 
ATOM      7  C   UNL A   1      38.900  20.253  25.788  1.00  0.00     0.045 C 
ATOM      8  C   UNL A   1      39.298  21.647  26.214  1.00  0.00    -0.039 A 
ATOM      9  C   UNL A   1      38.432  22.740  25.975  1.00  0.00    -0.015 A 
ATOM     10  C   UNL A   1      40.599  23.095  27.664  1.00  0.00     0.004 A 
ATOM     11  C   UNL A   1      38.711  24.005  26.507  1.00  0.00     0.009 A 
ATOM     12  C   UNL A   1      39.763  24.167  27.392  1.00  0.00     0.001 A 
BRANCH   9  13
ATOM     13  C   UNL A   1      37.180  22.577  25.219  1.00  0.00    -0.011 A 
ATOM     14  C   UNL A   1      37.079  22.966  23.828  1.00  0.00     0.027 A 
ATOM     15  C   UNL A   1      36.090  22.149  25.877  1.00  0.00     0.080 A 
ATOM     16  C   UNL A   1      35.883  23.022  23.234  1.00  0.00     0.095 A 
ATOM     17  C   UNL A   1      34.768  22.123  25.197  1.00  0.00     0.255 A 
ATOM     18  N   UNL A   1      34.740  22.641  23.910  1.00  0.00    -0.258 N 
ATOM     19  O   UNL A   1      33.802  21.677  25.808  1.00  0.00    -0.269 OA
BRANCH  18  20
ATOM     20  C   UNL A   1      33.450  22.773  23.289  1.00  0.00     0.451 C 
ATOM     21  F   UNL A   1      32.735  23.776  23.853  1.00  0.00    -0.185 F 
ATOM     22  F   UNL A   1      33.569  23.032  21.965  1.00  0.00    -0.185 F 
ENDBRANCH  18  20
ENDBRANCH   9  13
ENDBRANCH   5   6
ENDBRANCH   3   5
ENDBRANCH   2   3
ENDBRANCH   1   2
BRANCH   1  23
ATOM     23  C   UNL A   1      45.274  20.699  24.918  1.00  0.00     0.275 C 
BRANCH  23  24
ATOM     24  O   UNL A   1      44.957  21.386  26.154  1.00  0.00    -0.458 OA
BRANCH  24  25
ATOM     25  C   UNL A   1      45.352  22.680  26.291  1.00  0.00     0.338 C 
ATOM     26  O   UNL A   1      46.415  23.147  25.926  1.00  0.00    -0.246 OA
BRANCH  25  27
ATOM     27  C   UNL A   1      44.254  23.492  26.852  1.00  0.00     0.060 A 
ATOM     28  C   UNL A   1      43.516  24.815  25.867  1.00  0.00     0.016 A 
ATOM     29  C   UNL A   1      44.267  23.595  28.651  1.00  0.00     0.016 A 
ATOM     30  C   UNL A   1      42.980  26.359  26.690  1.00  0.00     0.010 A 
ATOM     31  C   UNL A   1      43.758  25.123  29.453  1.00  0.00     0.010 A 
ATOM     32  C   UNL A   1      43.202  26.528  28.463  1.00  0.00    -0.014 A 
BRANCH  32  33
ATOM     33  C   UNL A   1      43.492  27.789  29.129  1.00  0.00     0.031 A 
ATOM     34  C   UNL A   1      42.400  28.536  29.770  1.00  0.00     0.074 A 
ATOM     35  C   UNL A   1      44.787  28.066  29.417  1.00  0.00     0.049 A 
ATOM     36  N   UNL A   1      42.530  29.733  30.215  1.00  0.00    -0.248 NA
ATOM     37  C   UNL A   1      41.039  28.029  29.926  1.00  0.00     0.031 C 
ATOM     38  C   UNL A   1      45.314  28.980  30.426  1.00  0.00     0.029 A 
ATOM     39  N   UNL A   1      45.941  27.653  28.762  1.00  0.00    -0.354 N 
ATOM     40  C   UNL A   1      41.453  29.986  31.027  1.00  0.00     0.074 A 
ATOM     41  C   UNL A   1      40.483  28.979  30.685  1.00  0.00     0.031 C 
ATOM     42  C   UNL A   1      46.587  29.281  30.113  1.00  0.00     0.029 A 
ATOM     43  C   UNL A   1      46.871  28.684  28.818  1.00  0.00     0.049 A 
ATOM     44  H   UNL A   1      46.078  26.777  28.334  1.00  0.00     0.167 HD
ATOM     45  C   UNL A   1      41.588  30.928  32.000  1.00  0.00     0.031 A 
ATOM     46  C   UNL A   1      47.253  29.348  27.685  1.00  0.00     0.031 A 
ATOM     47  C   UNL A   1      42.831  31.690  31.822  1.00  0.00     0.049 A 
ATOM     48  C   UNL A   1      46.719  30.780  27.679  1.00  0.00     0.074 A 
ATOM     49  C   UNL A   1      44.034  31.784  32.499  1.00  0.00     0.029 A 
ATOM     50  N   UNL A   1      43.058  32.266  30.578  1.00  0.00    -0.354 N 
ATOM     51  N   UNL A   1      46.036  31.312  28.660  1.00  0.00    -0.248 NA
ATOM     52  C   UNL A   1      46.848  31.708  26.558  1.00  0.00     0.031 C 
ATOM     53  C   UNL A   1      44.996  32.365  31.607  1.00  0.00     0.029 A 
ATOM     54  C   UNL A   1      44.364  32.679  30.416  1.00  0.00     0.049 A 
ATOM     55  H   UNL A   1      42.363  32.369  29.889  1.00  0.00     0.167 HD
ATOM     56  C   UNL A   1      45.572  32.550  28.316  1.00  0.00     0.074 A 
ATOM     57  C   UNL A   1      46.118  32.758  26.983  1.00  0.00     0.031 C 
ATOM     58  C   UNL A   1      44.749  33.279  29.136  1.00  0.00     0.031 A 
BRANCH  45  59
ATOM     59  C   UNL A   1      40.682  31.043  33.206  1.00  0.00    -0.014 A 
ATOM     60  C   UNL A   1      39.815  32.148  33.318  1.00  0.00     0.010 A 
ATOM     61  C   UNL A   1      40.697  30.158  34.305  1.00  0.00     0.010 A 
ATOM     62  C   UNL A   1      39.020  32.358  34.459  1.00  0.00     0.020 A 
ATOM     63  C   UNL A   1      39.887  30.336  35.436  1.00  0.00     0.020 A 
ATOM     64  C   UNL A   1      39.060  31.447  35.513  1.00  0.00     0.054 A 
BRANCH  64  65
ATOM     65  S   UNL A   1      38.041  31.733  36.984  1.00  0.00     0.124 S 
ATOM     66  O   UNL A   1      37.036  32.669  36.488  1.00  0.00    -0.237 OA
ATOM     67  O   UNL A   1      37.558  30.393  37.300  1.00  0.00    -0.237 OA
ATOM     68  O   UNL A   1      38.982  32.294  37.953  1.00  0.00    -0.744 OA
ENDBRANCH  64  65
ENDBRANCH  45  59
BRANCH  46  69
ATOM     69  C   UNL A   1      47.474  28.440  26.506  1.00  0.00    -0.014 A 
ATOM     70  C   UNL A   1      46.464  28.429  25.512  1.00  0.00     0.010 A 
ATOM     71  C   UNL A   1      48.735  27.927  26.158  1.00  0.00     0.010 A 
ATOM     72  C   UNL A   1      46.741  28.070  24.184  1.00  0.00     0.020 A 
ATOM     73  C   UNL A   1      49.012  27.546  24.825  1.00  0.00     0.020 A 
ATOM     74  C   UNL A   1      48.029  27.671  23.837  1.00  0.00     0.054 A 
BRANCH  74  75
ATOM     75  S   UNL A   1      48.429  27.479  22.068  1.00  0.00     0.124 S 
ATOM     76  O   UNL A   1      47.232  27.996  21.414  1.00  0.00    -0.237 OA
ATOM     77  O   UNL A   1      49.630  28.294  21.914  1.00  0.00    -0.237 OA
ATOM     78  O   UNL A   1      48.649  26.040  21.920  1.00  0.00    -0.744 OA
ENDBRANCH  74  75
ENDBRANCH  46  69
BRANCH  58  79
ATOM     79  C   UNL A   1      44.167  34.633  28.779  1.00  0.00    -0.014 A 
ATOM     80  C   UNL A   1      42.791  34.898  28.759  1.00  0.00     0.010 A 
ATOM     81  C   UNL A   1      45.016  35.679  28.341  1.00  0.00     0.010 A 
ATOM     82  C   UNL A   1      42.299  36.168  28.412  1.00  0.00     0.020 A 
ATOM     83  C   UNL A   1      44.542  36.938  27.974  1.00  0.00     0.020 A 
ATOM     84  C   UNL A   1      43.182  37.183  28.036  1.00  0.00     0.054 A 
BRANCH  84  85
ATOM     85  S   UNL A   1      42.533  38.807  27.580  1.00  0.00     0.124 S 
ATOM     86  O   UNL A   1      41.968  39.286  28.839  1.00  0.00    -0.237 OA
ATOM     87  O   UNL A   1      43.738  39.497  27.128  1.00  0.00    -0.237 OA
ATOM     88  O   UNL A   1      41.555  38.513  26.535  1.00  0.00    -0.744 OA
ENDBRANCH  84  85
ENDBRANCH  58  79
ENDBRANCH  32  33
ENDBRANCH  25  27
ENDBRANCH  24  25
ENDBRANCH  23  24
ENDBRANCH   1  23
TORSDOF 17
ENDMDL
