MODEL 1
REMARK VINA RESULT:     -11.4      0.000      0.000
REMARK SMILES C=C[C@@H]1[C@@H](O)C[C@H]2[C@]3(CC[C@]4(C)[C@@H]([C@H](C)CCC=C(C)C)CC[C@]24C)C[C@]13CCC(=O)OCCOC(=O)c1ccc(-c2c3nc(c(-c4ccc(S(=O)(=O)[O-])cc4)c4ccc([nH]4)c(-c4ccc(S(=O)(=O)[O-])cc4)c4nc(c(-c5ccc(S(=O)(=O)[O-])cc5)c5ccc2[nH]5)C=C4)C=C3)cc1
REMARK SMILES IDX 32 1 30 2 31 3 29 4 28 5 27 6 3 7 4 8 6 9 8 10 26 11 7 12
REMARK SMILES IDX 9 13 24 14 10 15 11 16 23 17 25 18 13 19 12 20 22 21 2 22
REMARK SMILES IDX 1 23 5 24 14 26 15 27 16 28 17 29 18 30 19 31 20 32 21 33
REMARK SMILES IDX 33 34 34 35 35 36 36 37 37 38 38 39 39 40 97 41 40 42 96 43
REMARK SMILES IDX 41 44 42 45 43 46 90 47 44 48 95 49 89 50 91 51 45 52 94 53
REMARK SMILES IDX 88 54 87 55 46 57 76 58 57 59 75 60 58 61 61 62 74 63 92 64
REMARK SMILES IDX 59 65 60 66 73 68 93 69 62 70 47 71 48 72 56 73 49 74 55 75
REMARK SMILES IDX 50 76 51 77 52 78 53 79 54 80 77 81 78 82 86 83 79 84 85 85
REMARK SMILES IDX 80 86 81 87 82 88 83 89 84 90 63 91 64 92 72 93 65 94 71 95
REMARK SMILES IDX 66 96 67 97 68 98 69 99 70 100
REMARK H PARENT 5 25 91 56 61 67
REMARK Flexibility Score: inf
ROOT
ATOM      1  O   UNL A   1      38.203  23.016  25.690  1.00  0.00    -0.462 OA
ENDROOT
BRANCH   1   2
ATOM      2  C   UNL A   1      37.339  22.219  25.020  1.00  0.00     0.305 C 
ATOM      3  O   UNL A   1      37.353  22.019  23.813  1.00  0.00    -0.252 OA
BRANCH   2   4
ATOM      4  C   UNL A   1      36.294  21.619  25.939  1.00  0.00     0.123 C 
BRANCH   4   5
ATOM      5  C   UNL A   1      35.072  22.499  26.196  1.00  0.00     0.020 C 
BRANCH   5   6
ATOM      6  C   UNL A   1      33.979  22.566  25.113  1.00  0.00    -0.014 C 
ATOM      7  C   UNL A   1      32.979  21.375  25.029  1.00  0.00     0.047 C 
ATOM      8  C   UNL A   1      31.564  21.827  25.426  1.00  0.00     0.122 C 
ATOM      9  C   UNL A   1      31.166  23.102  24.698  1.00  0.00     0.037 C 
ATOM     10  C   UNL A   1      33.544  24.037  24.845  1.00  0.00    -0.019 C 
ATOM     11  C   UNL A   1      34.182  23.240  23.756  1.00  0.00     0.016 C 
ATOM     12  C   UNL A   1      32.052  24.301  25.102  1.00  0.00     0.005 C 
ATOM     13  C   UNL A   1      34.414  25.234  25.147  1.00  0.00     0.008 C 
ATOM     14  C   UNL A   1      31.517  25.683  24.535  1.00  0.00    -0.023 C 
ATOM     15  C   UNL A   1      33.891  26.397  24.324  1.00  0.00     0.008 C 
ATOM     16  C   UNL A   1      32.523  26.877  24.773  1.00  0.00    -0.024 C 
ATOM     17  C   UNL A   1      30.309  26.148  25.380  1.00  0.00     0.008 C 
ATOM     18  C   UNL A   1      31.115  25.510  23.053  1.00  0.00     0.012 C 
ATOM     19  C   UNL A   1      32.405  27.163  26.311  1.00  0.00    -0.002 C 
ATOM     20  C   UNL A   1      32.167  28.131  23.939  1.00  0.00     0.012 C 
ATOM     21  C   UNL A   1      30.869  27.002  26.532  1.00  0.00     0.005 C 
BRANCH   7  22
ATOM     22  C   UNL A   1      33.027  20.593  23.715  1.00  0.00    -0.028 C 
ATOM     23  C   UNL A   1      32.395  19.437  23.475  1.00  0.00     0.004 C 
ENDBRANCH   7  22
BRANCH   8  24
ATOM     24  O   UNL A   1      31.467  22.038  26.840  1.00  0.00    -0.392 OA
ATOM     25  H   UNL A   1      30.762  22.678  27.025  1.00  0.00     0.210 HD
ENDBRANCH   8  24
BRANCH  19  26
ATOM     26  C   UNL A   1      32.993  28.426  27.048  1.00  0.00    -0.010 C 
ATOM     27  C   UNL A   1      32.057  29.632  27.213  1.00  0.00     0.008 C 
BRANCH  26  28
ATOM     28  C   UNL A   1      34.477  28.941  26.884  1.00  0.00     0.008 C 
BRANCH  28  29
ATOM     29  C   UNL A   1      35.442  29.485  27.957  1.00  0.00     0.027 C 
BRANCH  29  30
ATOM     30  C   UNL A   1      36.168  30.778  27.698  1.00  0.00    -0.028 C 
ATOM     31  C   UNL A   1      35.632  32.000  27.936  1.00  0.00    -0.080 C 
ATOM     32  C   UNL A   1      36.512  33.199  28.193  1.00  0.00     0.039 C 
ATOM     33  C   UNL A   1      34.161  32.249  28.148  1.00  0.00     0.039 C 
ENDBRANCH  29  30
ENDBRANCH  28  29
ENDBRANCH  26  28
ENDBRANCH  19  26
ENDBRANCH   5   6
ENDBRANCH   4   5
ENDBRANCH   2   4
ENDBRANCH   1   2
BRANCH   1  34
ATOM     34  C   UNL A   1      39.210  22.405  26.512  1.00  0.00     0.274 C 
BRANCH  34  35
ATOM     35  C   UNL A   1      40.305  23.430  26.790  1.00  0.00     0.275 C 
BRANCH  35  36
ATOM     36  O   UNL A   1      39.719  24.606  27.371  1.00  0.00    -0.458 OA
BRANCH  36  37
ATOM     37  C   UNL A   1      40.255  25.779  26.952  1.00  0.00     0.338 C 
ATOM     38  O   UNL A   1      40.548  26.105  25.819  1.00  0.00    -0.246 OA
BRANCH  37  39
ATOM     39  C   UNL A   1      40.232  26.706  28.092  1.00  0.00     0.060 A 
ATOM     40  C   UNL A   1      41.046  27.841  28.032  1.00  0.00     0.016 A 
ATOM     41  C   UNL A   1      39.423  26.464  29.197  1.00  0.00     0.016 A 
ATOM     42  C   UNL A   1      41.044  28.759  29.073  1.00  0.00     0.010 A 
ATOM     43  C   UNL A   1      39.431  27.378  30.250  1.00  0.00     0.010 A 
ATOM     44  C   UNL A   1      40.243  28.525  30.194  1.00  0.00    -0.014 A 
BRANCH  44  45
ATOM     45  C   UNL A   1      40.326  29.424  31.363  1.00  0.00     0.031 A 
ATOM     46  C   UNL A   1      41.453  29.230  32.334  1.00  0.00     0.074 A 
ATOM     47  C   UNL A   1      39.407  30.389  31.542  1.00  0.00     0.049 A 
ATOM     48  N   UNL A   1      41.627  29.764  33.512  1.00  0.00    -0.248 NA
ATOM     49  C   UNL A   1      42.522  28.301  31.927  1.00  0.00     0.031 C 
ATOM     50  C   UNL A   1      38.318  30.708  30.614  1.00  0.00     0.029 A 
ATOM     51  N   UNL A   1      39.235  31.274  32.574  1.00  0.00    -0.354 N 
ATOM     52  C   UNL A   1      42.810  29.220  33.998  1.00  0.00     0.074 A 
ATOM     53  C   UNL A   1      43.300  28.297  32.999  1.00  0.00     0.031 C 
ATOM     54  C   UNL A   1      37.586  31.711  31.127  1.00  0.00     0.029 A 
ATOM     55  C   UNL A   1      38.112  32.059  32.442  1.00  0.00     0.049 A 
ATOM     56  H   UNL A   1      39.854  31.343  33.336  1.00  0.00     0.167 HD
ATOM     57  C   UNL A   1      43.429  29.478  35.173  1.00  0.00     0.031 A 
ATOM     58  C   UNL A   1      37.552  32.923  33.310  1.00  0.00     0.031 A 
ATOM     59  C   UNL A   1      42.920  30.403  36.149  1.00  0.00     0.049 A 
ATOM     60  C   UNL A   1      38.211  33.117  34.652  1.00  0.00     0.074 A 
ATOM     61  C   UNL A   1      43.450  30.729  37.385  1.00  0.00     0.029 A 
ATOM     62  N   UNL A   1      41.769  31.160  35.992  1.00  0.00    -0.354 N 
ATOM     63  N   UNL A   1      39.312  32.575  35.117  1.00  0.00    -0.248 NA
ATOM     64  C   UNL A   1      37.551  34.038  35.587  1.00  0.00     0.031 C 
ATOM     65  C   UNL A   1      42.591  31.648  37.995  1.00  0.00     0.029 A 
ATOM     66  C   UNL A   1      41.563  31.944  37.113  1.00  0.00     0.049 A 
ATOM     67  H   UNL A   1      41.184  31.142  35.199  1.00  0.00     0.167 HD
ATOM     68  C   UNL A   1      39.494  33.115  36.385  1.00  0.00     0.074 A 
ATOM     69  C   UNL A   1      38.402  34.040  36.605  1.00  0.00     0.031 C 
ATOM     70  C   UNL A   1      40.474  32.870  37.290  1.00  0.00     0.031 A 
BRANCH  57  71
ATOM     71  C   UNL A   1      44.703  28.739  35.475  1.00  0.00    -0.014 A 
ATOM     72  C   UNL A   1      45.953  29.266  35.104  1.00  0.00     0.010 A 
ATOM     73  C   UNL A   1      44.658  27.531  36.195  1.00  0.00     0.010 A 
ATOM     74  C   UNL A   1      47.132  28.592  35.434  1.00  0.00     0.020 A 
ATOM     75  C   UNL A   1      45.835  26.867  36.551  1.00  0.00     0.020 A 
ATOM     76  C   UNL A   1      47.065  27.400  36.163  1.00  0.00     0.054 A 
BRANCH  76  77
ATOM     77  S   UNL A   1      48.615  26.584  36.633  1.00  0.00     0.124 S 
ATOM     78  O   UNL A   1      49.242  26.352  35.334  1.00  0.00    -0.237 OA
ATOM     79  O   UNL A   1      49.263  27.590  37.472  1.00  0.00    -0.237 OA
ATOM     80  O   UNL A   1      48.176  25.380  37.334  1.00  0.00    -0.744 OA
ENDBRANCH  76  77
ENDBRANCH  57  71
BRANCH  58  81
ATOM     81  C   UNL A   1      36.280  33.624  32.975  1.00  0.00    -0.014 A 
ATOM     82  C   UNL A   1      36.293  34.917  32.424  1.00  0.00     0.010 A 
ATOM     83  C   UNL A   1      35.040  33.017  33.250  1.00  0.00     0.010 A 
ATOM     84  C   UNL A   1      35.096  35.608  32.201  1.00  0.00     0.020 A 
ATOM     85  C   UNL A   1      33.841  33.687  32.995  1.00  0.00     0.020 A 
ATOM     86  C   UNL A   1      33.878  34.990  32.495  1.00  0.00     0.054 A 
BRANCH  86  87
ATOM     87  S   UNL A   1      32.339  35.907  32.211  1.00  0.00     0.124 S 
ATOM     88  O   UNL A   1      32.520  37.075  33.066  1.00  0.00    -0.237 OA
ATOM     89  O   UNL A   1      32.383  36.161  30.773  1.00  0.00    -0.237 OA
ATOM     90  O   UNL A   1      31.300  34.972  32.639  1.00  0.00    -0.744 OA
ENDBRANCH  86  87
ENDBRANCH  58  81
BRANCH  70  91
ATOM     91  C   UNL A   1      40.439  33.658  38.572  1.00  0.00    -0.014 A 
ATOM     92  C   UNL A   1      41.053  34.917  38.675  1.00  0.00     0.010 A 
ATOM     93  C   UNL A   1      39.727  33.146  39.674  1.00  0.00     0.010 A 
ATOM     94  C   UNL A   1      40.983  35.638  39.869  1.00  0.00     0.020 A 
ATOM     95  C   UNL A   1      39.626  33.879  40.857  1.00  0.00     0.020 A 
ATOM     96  C   UNL A   1      40.267  35.115  40.951  1.00  0.00     0.054 A 
BRANCH  96  97
ATOM     97  S   UNL A   1      40.150  36.095  42.472  1.00  0.00     0.124 S 
ATOM     98  O   UNL A   1      39.553  37.337  41.988  1.00  0.00    -0.237 OA
ATOM     99  O   UNL A   1      39.290  35.271  43.317  1.00  0.00    -0.237 OA
ATOM    100  O   UNL A   1      41.536  36.205  42.922  1.00  0.00    -0.744 OA
ENDBRANCH  96  97
ENDBRANCH  70  91
ENDBRANCH  44  45
ENDBRANCH  37  39
ENDBRANCH  36  37
ENDBRANCH  35  36
ENDBRANCH  34  35
ENDBRANCH   1  34
TORSDOF 22
ENDMDL
MODEL 2
REMARK VINA RESULT:     -10.9      0.996      7.800
REMARK SMILES C=C[C@@H]1[C@@H](O)C[C@H]2[C@]3(CC[C@]4(C)[C@@H]([C@H](C)CCC=C(C)C)CC[C@]24C)C[C@]13CCC(=O)OCCOC(=O)c1ccc(-c2c3nc(c(-c4ccc(S(=O)(=O)[O-])cc4)c4ccc([nH]4)c(-c4ccc(S(=O)(=O)[O-])cc4)c4nc(c(-c5ccc(S(=O)(=O)[O-])cc5)c5ccc2[nH]5)C=C4)C=C3)cc1
REMARK SMILES IDX 32 1 30 2 31 3 29 4 28 5 27 6 3 7 4 8 6 9 8 10 26 11 7 12
REMARK SMILES IDX 9 13 24 14 10 15 11 16 23 17 25 18 13 19 12 20 22 21 2 22
REMARK SMILES IDX 1 23 5 24 14 26 15 27 16 28 17 29 18 30 19 31 20 32 21 33
REMARK SMILES IDX 33 34 34 35 35 36 36 37 37 38 38 39 39 40 97 41 40 42 96 43
REMARK SMILES IDX 41 44 42 45 43 46 90 47 44 48 95 49 89 50 91 51 45 52 94 53
REMARK SMILES IDX 88 54 87 55 46 57 76 58 57 59 75 60 58 61 61 62 74 63 92 64
REMARK SMILES IDX 59 65 60 66 73 68 93 69 62 70 47 71 48 72 56 73 49 74 55 75
REMARK SMILES IDX 50 76 51 77 52 78 53 79 54 80 77 81 78 82 86 83 79 84 85 85
REMARK SMILES IDX 80 86 81 87 82 88 83 89 84 90 63 91 64 92 72 93 65 94 71 95
REMARK SMILES IDX 66 96 67 97 68 98 69 99 70 100
REMARK H PARENT 5 25 91 56 61 67
REMARK Flexibility Score: inf
ROOT
ATOM      1  O   UNL A   1      37.694  22.237  26.162  1.00  0.00    -0.462 OA
ENDROOT
BRANCH   1   2
ATOM      2  C   UNL A   1      36.579  21.853  25.499  1.00  0.00     0.305 C 
ATOM      3  O   UNL A   1      36.466  20.826  24.843  1.00  0.00    -0.252 OA
BRANCH   2   4
ATOM      4  C   UNL A   1      35.469  22.877  25.618  1.00  0.00     0.123 C 
BRANCH   4   5
ATOM      5  C   UNL A   1      35.204  23.698  24.358  1.00  0.00     0.020 C 
BRANCH   5   6
ATOM      6  C   UNL A   1      33.755  23.802  23.846  1.00  0.00    -0.014 C 
ATOM      7  C   UNL A   1      32.873  22.521  23.923  1.00  0.00     0.047 C 
ATOM      8  C   UNL A   1      31.735  22.707  24.941  1.00  0.00     0.122 C 
ATOM      9  C   UNL A   1      31.005  24.023  24.719  1.00  0.00     0.037 C 
ATOM     10  C   UNL A   1      33.174  25.226  24.090  1.00  0.00    -0.019 C 
ATOM     11  C   UNL A   1      33.334  24.718  22.696  1.00  0.00     0.016 C 
ATOM     12  C   UNL A   1      31.917  25.242  24.975  1.00  0.00     0.005 C 
ATOM     13  C   UNL A   1      34.029  26.460  24.261  1.00  0.00     0.008 C 
ATOM     14  C   UNL A   1      31.125  26.617  24.974  1.00  0.00    -0.023 C 
ATOM     15  C   UNL A   1      33.151  27.665  23.982  1.00  0.00     0.008 C 
ATOM     16  C   UNL A   1      32.077  27.876  25.033  1.00  0.00    -0.024 C 
ATOM     17  C   UNL A   1      30.362  26.767  26.310  1.00  0.00     0.008 C 
ATOM     18  C   UNL A   1      30.146  26.646  23.779  1.00  0.00     0.012 C 
ATOM     19  C   UNL A   1      32.602  27.878  26.511  1.00  0.00    -0.002 C 
ATOM     20  C   UNL A   1      31.341  29.195  24.695  1.00  0.00     0.012 C 
ATOM     21  C   UNL A   1      31.311  27.479  27.292  1.00  0.00     0.005 C 
BRANCH   7  22
ATOM     22  C   UNL A   1      32.403  21.986  22.568  1.00  0.00    -0.028 C 
ATOM     23  C   UNL A   1      32.127  20.706  22.291  1.00  0.00     0.004 C 
ENDBRANCH   7  22
BRANCH   8  24
ATOM     24  O   UNL A   1      32.232  22.659  26.284  1.00  0.00    -0.392 OA
ATOM     25  H   UNL A   1      32.354  21.735  26.552  1.00  0.00     0.210 HD
ENDBRANCH   8  24
BRANCH  19  26
ATOM     26  C   UNL A   1      33.381  29.064  27.197  1.00  0.00    -0.010 C 
ATOM     27  C   UNL A   1      32.695  30.438  27.195  1.00  0.00     0.008 C 
BRANCH  26  28
ATOM     28  C   UNL A   1      34.945  29.267  27.113  1.00  0.00     0.008 C 
BRANCH  28  29
ATOM     29  C   UNL A   1      35.916  29.796  28.189  1.00  0.00     0.027 C 
BRANCH  29  30
ATOM     30  C   UNL A   1      36.525  31.162  28.014  1.00  0.00    -0.028 C 
ATOM     31  C   UNL A   1      36.121  32.257  28.703  1.00  0.00    -0.080 C 
ATOM     32  C   UNL A   1      37.053  33.424  28.924  1.00  0.00     0.039 C 
ATOM     33  C   UNL A   1      34.818  32.347  29.455  1.00  0.00     0.039 C 
ENDBRANCH  29  30
ENDBRANCH  28  29
ENDBRANCH  26  28
ENDBRANCH  19  26
ENDBRANCH   5   6
ENDBRANCH   4   5
ENDBRANCH   2   4
ENDBRANCH   1   2
BRANCH   1  34
ATOM     34  C   UNL A   1      38.328  23.471  25.791  1.00  0.00     0.274 C 
BRANCH  34  35
ATOM     35  C   UNL A   1      39.320  23.861  26.882  1.00  0.00     0.275 C 
BRANCH  35  36
ATOM     36  O   UNL A   1      38.973  25.156  27.399  1.00  0.00    -0.458 OA
BRANCH  36  37
ATOM     37  C   UNL A   1      39.950  26.091  27.305  1.00  0.00     0.338 C 
ATOM     38  O   UNL A   1      40.609  26.390  26.329  1.00  0.00    -0.246 OA
BRANCH  37  39
ATOM     39  C   UNL A   1      39.948  26.858  28.558  1.00  0.00     0.060 A 
ATOM     40  C   UNL A   1      40.893  27.877  28.708  1.00  0.00     0.016 A 
ATOM     41  C   UNL A   1      39.029  26.582  29.566  1.00  0.00     0.016 A 
ATOM     42  C   UNL A   1      40.917  28.646  29.863  1.00  0.00     0.010 A 
ATOM     43  C   UNL A   1      39.061  27.344  30.734  1.00  0.00     0.010 A 
ATOM     44  C   UNL A   1      40.007  28.375  30.888  1.00  0.00    -0.014 A 
BRANCH  44  45
ATOM     45  C   UNL A   1      40.103  29.097  32.172  1.00  0.00     0.031 A 
ATOM     46  C   UNL A   1      39.117  30.193  32.450  1.00  0.00     0.074 A 
ATOM     47  C   UNL A   1      41.058  28.773  33.063  1.00  0.00     0.049 A 
ATOM     48  N   UNL A   1      39.116  31.079  33.408  1.00  0.00    -0.248 NA
ATOM     49  C   UNL A   1      37.984  30.313  31.515  1.00  0.00     0.031 C 
ATOM     50  C   UNL A   1      42.015  27.673  32.919  1.00  0.00     0.029 A 
ATOM     51  N   UNL A   1      41.387  29.346  34.263  1.00  0.00    -0.354 N 
ATOM     52  C   UNL A   1      38.001  31.875  33.181  1.00  0.00     0.074 A 
ATOM     53  C   UNL A   1      37.360  31.385  31.982  1.00  0.00     0.031 C 
ATOM     54  C   UNL A   1      42.830  27.660  33.987  1.00  0.00     0.029 A 
ATOM     55  C   UNL A   1      42.496  28.785  34.853  1.00  0.00     0.049 A 
ATOM     56  H   UNL A   1      40.880  30.088  34.665  1.00  0.00     0.167 HD
ATOM     57  C   UNL A   1      37.554  32.919  33.916  1.00  0.00     0.031 A 
ATOM     58  C   UNL A   1      43.187  29.171  35.943  1.00  0.00     0.031 A 
ATOM     59  C   UNL A   1      38.210  33.386  35.108  1.00  0.00     0.049 A 
ATOM     60  C   UNL A   1      42.722  30.397  36.687  1.00  0.00     0.074 A 
ATOM     61  C   UNL A   1      37.861  34.449  35.923  1.00  0.00     0.029 A 
ATOM     62  N   UNL A   1      39.344  32.810  35.661  1.00  0.00    -0.354 N 
ATOM     63  N   UNL A   1      41.685  31.165  36.447  1.00  0.00    -0.248 NA
ATOM     64  C   UNL A   1      43.522  30.811  37.848  1.00  0.00     0.031 C 
ATOM     65  C   UNL A   1      38.814  34.543  36.942  1.00  0.00     0.029 A 
ATOM     66  C   UNL A   1      39.717  33.500  36.799  1.00  0.00     0.049 A 
ATOM     67  H   UNL A   1      39.813  32.024  35.296  1.00  0.00     0.167 HD
ATOM     68  C   UNL A   1      41.688  32.131  37.447  1.00  0.00     0.074 A 
ATOM     69  C   UNL A   1      42.819  31.839  38.304  1.00  0.00     0.031 C 
ATOM     70  C   UNL A   1      40.838  33.169  37.641  1.00  0.00     0.031 A 
BRANCH  57  71
ATOM     71  C   UNL A   1      36.319  33.635  33.445  1.00  0.00    -0.014 A 
ATOM     72  C   UNL A   1      36.402  34.898  32.831  1.00  0.00     0.010 A 
ATOM     73  C   UNL A   1      35.062  33.013  33.560  1.00  0.00     0.010 A 
ATOM     74  C   UNL A   1      35.250  35.530  32.354  1.00  0.00     0.020 A 
ATOM     75  C   UNL A   1      33.912  33.629  33.059  1.00  0.00     0.020 A 
ATOM     76  C   UNL A   1      34.013  34.888  32.465  1.00  0.00     0.054 A 
BRANCH  76  77
ATOM     77  S   UNL A   1      32.547  35.706  31.777  1.00  0.00     0.124 S 
ATOM     78  O   UNL A   1      31.488  35.220  32.659  1.00  0.00    -0.237 OA
ATOM     79  O   UNL A   1      32.879  37.122  31.915  1.00  0.00    -0.237 OA
ATOM     80  O   UNL A   1      32.486  35.213  30.404  1.00  0.00    -0.744 OA
ENDBRANCH  76  77
ENDBRANCH  57  71
BRANCH  58  81
ATOM     81  C   UNL A   1      44.415  28.440  36.366  1.00  0.00    -0.014 A 
ATOM     82  C   UNL A   1      44.340  27.379  37.286  1.00  0.00     0.010 A 
ATOM     83  C   UNL A   1      45.678  28.833  35.885  1.00  0.00     0.010 A 
ATOM     84  C   UNL A   1      45.505  26.760  37.753  1.00  0.00     0.020 A 
ATOM     85  C   UNL A   1      46.842  28.194  36.320  1.00  0.00     0.020 A 
ATOM     86  C   UNL A   1      46.749  27.177  37.271  1.00  0.00     0.054 A 
BRANCH  86  87
ATOM     87  S   UNL A   1      48.247  26.370  37.899  1.00  0.00     0.124 S 
ATOM     88  O   UNL A   1      48.241  25.107  37.168  1.00  0.00    -0.237 OA
ATOM     89  O   UNL A   1      49.296  27.314  37.524  1.00  0.00    -0.237 OA
ATOM     90  O   UNL A   1      48.002  26.262  39.336  1.00  0.00    -0.744 OA
ENDBRANCH  86  87
ENDBRANCH  58  81
BRANCH  70  91
ATOM     91  C   UNL A   1      41.064  34.025  38.858  1.00  0.00    -0.014 A 
ATOM     92  C   UNL A   1      41.833  35.199  38.795  1.00  0.00     0.010 A 
ATOM     93  C   UNL A   1      40.443  33.672  40.071  1.00  0.00     0.010 A 
ATOM     94  C   UNL A   1      42.004  35.989  39.934  1.00  0.00     0.020 A 
ATOM     95  C   UNL A   1      40.584  34.478  41.202  1.00  0.00     0.020 A 
ATOM     96  C   UNL A   1      41.376  35.625  41.129  1.00  0.00     0.054 A 
BRANCH  96  97
ATOM     97  S   UNL A   1      41.574  36.697  42.578  1.00  0.00     0.124 S 
ATOM     98  O   UNL A   1      41.627  35.727  43.669  1.00  0.00    -0.237 OA
ATOM     99  O   UNL A   1      42.826  37.392  42.292  1.00  0.00    -0.237 OA
ATOM    100  O   UNL A   1      40.380  37.539  42.552  1.00  0.00    -0.744 OA
ENDBRANCH  96  97
ENDBRANCH  70  91
ENDBRANCH  44  45
ENDBRANCH  37  39
ENDBRANCH  36  37
ENDBRANCH  35  36
ENDBRANCH  34  35
ENDBRANCH   1  34
TORSDOF 22
ENDMDL
MODEL 3
REMARK VINA RESULT:     -10.3      6.160     11.141
REMARK SMILES C=C[C@@H]1[C@@H](O)C[C@H]2[C@]3(CC[C@]4(C)[C@@H]([C@H](C)CCC=C(C)C)CC[C@]24C)C[C@]13CCC(=O)OCCOC(=O)c1ccc(-c2c3nc(c(-c4ccc(S(=O)(=O)[O-])cc4)c4ccc([nH]4)c(-c4ccc(S(=O)(=O)[O-])cc4)c4nc(c(-c5ccc(S(=O)(=O)[O-])cc5)c5ccc2[nH]5)C=C4)C=C3)cc1
REMARK SMILES IDX 32 1 30 2 31 3 29 4 28 5 27 6 3 7 4 8 6 9 8 10 26 11 7 12
REMARK SMILES IDX 9 13 24 14 10 15 11 16 23 17 25 18 13 19 12 20 22 21 2 22
REMARK SMILES IDX 1 23 5 24 14 26 15 27 16 28 17 29 18 30 19 31 20 32 21 33
REMARK SMILES IDX 33 34 34 35 35 36 36 37 37 38 38 39 39 40 97 41 40 42 96 43
REMARK SMILES IDX 41 44 42 45 43 46 90 47 44 48 95 49 89 50 91 51 45 52 94 53
REMARK SMILES IDX 88 54 87 55 46 57 76 58 57 59 75 60 58 61 61 62 74 63 92 64
REMARK SMILES IDX 59 65 60 66 73 68 93 69 62 70 47 71 48 72 56 73 49 74 55 75
REMARK SMILES IDX 50 76 51 77 52 78 53 79 54 80 77 81 78 82 86 83 79 84 85 85
REMARK SMILES IDX 80 86 81 87 82 88 83 89 84 90 63 91 64 92 72 93 65 94 71 95
REMARK SMILES IDX 66 96 67 97 68 98 69 99 70 100
REMARK H PARENT 5 25 91 56 61 67
REMARK Flexibility Score: inf
ROOT
ATOM      1  O   UNL A   1      37.801  22.127  26.036  1.00  0.00    -0.462 OA
ENDROOT
BRANCH   1   2
ATOM      2  C   UNL A   1      37.893  23.449  25.762  1.00  0.00     0.305 C 
ATOM      3  O   UNL A   1      38.763  24.199  26.183  1.00  0.00    -0.252 OA
BRANCH   2   4
ATOM      4  C   UNL A   1      36.749  23.927  24.891  1.00  0.00     0.123 C 
BRANCH   4   5
ATOM      5  C   UNL A   1      36.184  22.885  23.928  1.00  0.00     0.020 C 
BRANCH   5   6
ATOM      6  C   UNL A   1      34.829  22.236  24.267  1.00  0.00    -0.014 C 
ATOM      7  C   UNL A   1      34.824  21.104  25.338  1.00  0.00     0.047 C 
ATOM      8  C   UNL A   1      34.077  21.558  26.602  1.00  0.00     0.122 C 
ATOM      9  C   UNL A   1      32.729  22.174  26.257  1.00  0.00     0.037 C 
ATOM     10  C   UNL A   1      33.667  23.264  24.139  1.00  0.00    -0.019 C 
ATOM     11  C   UNL A   1      33.701  22.066  23.249  1.00  0.00     0.016 C 
ATOM     12  C   UNL A   1      32.880  23.478  25.442  1.00  0.00     0.005 C 
ATOM     13  C   UNL A   1      33.741  24.508  23.286  1.00  0.00     0.008 C 
ATOM     14  C   UNL A   1      31.509  24.258  25.266  1.00  0.00    -0.023 C 
ATOM     15  C   UNL A   1      32.319  24.966  23.024  1.00  0.00     0.008 C 
ATOM     16  C   UNL A   1      31.618  25.478  24.268  1.00  0.00    -0.024 C 
ATOM     17  C   UNL A   1      31.166  24.990  26.584  1.00  0.00     0.008 C 
ATOM     18  C   UNL A   1      30.393  23.259  24.889  1.00  0.00     0.012 C 
ATOM     19  C   UNL A   1      32.427  26.551  25.079  1.00  0.00    -0.002 C 
ATOM     20  C   UNL A   1      30.234  26.022  23.840  1.00  0.00     0.012 C 
ATOM     21  C   UNL A   1      31.807  26.388  26.501  1.00  0.00     0.005 C 
BRANCH   7  22
ATOM     22  C   UNL A   1      34.376  19.736  24.818  1.00  0.00    -0.028 C 
ATOM     23  C   UNL A   1      33.277  19.079  25.207  1.00  0.00     0.004 C 
ENDBRANCH   7  22
BRANCH   8  24
ATOM     24  O   UNL A   1      34.854  22.503  27.349  1.00  0.00    -0.392 OA
ATOM     25  H   UNL A   1      34.390  22.725  28.172  1.00  0.00     0.210 HD
ENDBRANCH   8  24
BRANCH  19  26
ATOM     26  C   UNL A   1      32.601  28.061  24.664  1.00  0.00    -0.010 C 
ATOM     27  C   UNL A   1      31.962  29.111  25.584  1.00  0.00     0.008 C 
BRANCH  26  28
ATOM     28  C   UNL A   1      32.563  28.584  23.175  1.00  0.00     0.008 C 
BRANCH  28  29
ATOM     29  C   UNL A   1      31.437  29.340  22.438  1.00  0.00     0.027 C 
BRANCH  29  30
ATOM     30  C   UNL A   1      30.011  28.907  22.644  1.00  0.00    -0.028 C 
ATOM     31  C   UNL A   1      29.040  29.724  23.120  1.00  0.00    -0.080 C 
ATOM     32  C   UNL A   1      27.585  29.468  22.807  1.00  0.00     0.039 C 
ATOM     33  C   UNL A   1      29.306  31.030  23.824  1.00  0.00     0.039 C 
ENDBRANCH  29  30
ENDBRANCH  28  29
ENDBRANCH  26  28
ENDBRANCH  19  26
ENDBRANCH   5   6
ENDBRANCH   4   5
ENDBRANCH   2   4
ENDBRANCH   1   2
BRANCH   1  34
ATOM     34  C   UNL A   1      38.908  21.275  25.705  1.00  0.00     0.274 C 
BRANCH  34  35
ATOM     35  C   UNL A   1      39.912  21.306  26.854  1.00  0.00     0.275 C 
BRANCH  35  36
ATOM     36  O   UNL A   1      40.624  20.059  26.897  1.00  0.00    -0.458 OA
BRANCH  36  37
ATOM     37  C   UNL A   1      41.794  20.044  26.210  1.00  0.00     0.338 C 
ATOM     38  O   UNL A   1      42.175  19.222  25.401  1.00  0.00    -0.246 OA
BRANCH  37  39
ATOM     39  C   UNL A   1      42.463  21.329  26.451  1.00  0.00     0.060 A 
ATOM     40  C   UNL A   1      42.775  21.671  27.770  1.00  0.00     0.016 A 
ATOM     41  C   UNL A   1      42.781  22.181  25.398  1.00  0.00     0.016 A 
ATOM     42  C   UNL A   1      43.429  22.863  28.049  1.00  0.00     0.010 A 
ATOM     43  C   UNL A   1      43.424  23.386  25.677  1.00  0.00     0.010 A 
ATOM     44  C   UNL A   1      43.746  23.733  27.002  1.00  0.00    -0.014 A 
BRANCH  44  45
ATOM     45  C   UNL A   1      44.324  25.060  27.294  1.00  0.00     0.031 A 
ATOM     46  C   UNL A   1      43.403  26.160  27.731  1.00  0.00     0.074 A 
ATOM     47  C   UNL A   1      45.647  25.266  27.165  1.00  0.00     0.049 A 
ATOM     48  N   UNL A   1      43.644  27.436  27.862  1.00  0.00    -0.248 NA
ATOM     49  C   UNL A   1      42.018  25.771  28.056  1.00  0.00     0.031 C 
ATOM     50  C   UNL A   1      46.636  24.241  26.820  1.00  0.00     0.029 A 
ATOM     51  N   UNL A   1      46.387  26.412  27.299  1.00  0.00    -0.354 N 
ATOM     52  C   UNL A   1      42.441  28.006  28.260  1.00  0.00     0.074 A 
ATOM     53  C   UNL A   1      41.464  26.943  28.327  1.00  0.00     0.031 C 
ATOM     54  C   UNL A   1      47.852  24.810  26.760  1.00  0.00     0.029 A 
ATOM     55  C   UNL A   1      47.718  26.244  26.996  1.00  0.00     0.049 A 
ATOM     56  H   UNL A   1      46.004  27.273  27.584  1.00  0.00     0.167 HD
ATOM     57  C   UNL A   1      42.184  29.302  28.547  1.00  0.00     0.031 A 
ATOM     58  C   UNL A   1      48.702  27.155  26.877  1.00  0.00     0.031 A 
ATOM     59  C   UNL A   1      43.176  30.341  28.473  1.00  0.00     0.049 A 
ATOM     60  C   UNL A   1      48.364  28.606  27.107  1.00  0.00     0.074 A 
ATOM     61  C   UNL A   1      43.026  31.694  28.720  1.00  0.00     0.029 A 
ATOM     62  N   UNL A   1      44.507  30.138  28.139  1.00  0.00    -0.354 N 
ATOM     63  N   UNL A   1      47.216  29.142  27.452  1.00  0.00    -0.248 NA
ATOM     64  C   UNL A   1      49.453  29.577  26.932  1.00  0.00     0.031 C 
ATOM     65  C   UNL A   1      44.257  32.315  28.487  1.00  0.00     0.029 A 
ATOM     66  C   UNL A   1      45.188  31.341  28.160  1.00  0.00     0.049 A 
ATOM     67  H   UNL A   1      44.907  29.265  27.919  1.00  0.00     0.167 HD
ATOM     68  C   UNL A   1      47.454  30.507  27.567  1.00  0.00     0.074 A 
ATOM     69  C   UNL A   1      48.858  30.712  27.275  1.00  0.00     0.031 C 
ATOM     70  C   UNL A   1      46.593  31.505  27.883  1.00  0.00     0.031 A 
BRANCH  57  71
ATOM     71  C   UNL A   1      40.781  29.672  28.942  1.00  0.00    -0.014 A 
ATOM     72  C   UNL A   1      39.730  29.635  28.008  1.00  0.00     0.010 A 
ATOM     73  C   UNL A   1      40.495  30.001  30.280  1.00  0.00     0.010 A 
ATOM     74  C   UNL A   1      38.423  29.933  28.402  1.00  0.00     0.020 A 
ATOM     75  C   UNL A   1      39.185  30.274  30.684  1.00  0.00     0.020 A 
ATOM     76  C   UNL A   1      38.158  30.244  29.739  1.00  0.00     0.054 A 
BRANCH  76  77
ATOM     77  S   UNL A   1      36.441  30.563  30.231  1.00  0.00     0.124 S 
ATOM     78  O   UNL A   1      36.477  31.987  30.551  1.00  0.00    -0.237 OA
ATOM     79  O   UNL A   1      35.694  30.209  29.026  1.00  0.00    -0.237 OA
ATOM     80  O   UNL A   1      36.236  29.675  31.372  1.00  0.00    -0.744 OA
ENDBRANCH  76  77
ENDBRANCH  57  71
BRANCH  58  81
ATOM     81  C   UNL A   1      50.076  26.747  26.469  1.00  0.00    -0.014 A 
ATOM     82  C   UNL A   1      50.468  26.783  25.119  1.00  0.00     0.010 A 
ATOM     83  C   UNL A   1      50.991  26.272  27.427  1.00  0.00     0.010 A 
ATOM     84  C   UNL A   1      51.725  26.308  24.730  1.00  0.00     0.020 A 
ATOM     85  C   UNL A   1      52.262  25.830  27.049  1.00  0.00     0.020 A 
ATOM     86  C   UNL A   1      52.612  25.829  25.698  1.00  0.00     0.054 A 
BRANCH  86  87
ATOM     87  S   UNL A   1      54.232  25.206  25.171  1.00  0.00     0.124 S 
ATOM     88  O   UNL A   1      53.906  23.855  24.725  1.00  0.00    -0.237 OA
ATOM     89  O   UNL A   1      54.606  26.147  24.120  1.00  0.00    -0.237 OA
ATOM     90  O   UNL A   1      55.040  25.285  26.386  1.00  0.00    -0.744 OA
ENDBRANCH  86  87
ENDBRANCH  58  81
BRANCH  70  91
ATOM     91  C   UNL A   1      47.158  32.896  27.988  1.00  0.00    -0.014 A 
ATOM     92  C   UNL A   1      47.214  33.749  26.874  1.00  0.00     0.010 A 
ATOM     93  C   UNL A   1      47.587  33.371  29.241  1.00  0.00     0.010 A 
ATOM     94  C   UNL A   1      47.720  35.045  27.004  1.00  0.00     0.020 A 
ATOM     95  C   UNL A   1      48.061  34.676  29.384  1.00  0.00     0.020 A 
ATOM     96  C   UNL A   1      48.137  35.500  28.259  1.00  0.00     0.054 A 
BRANCH  96  97
ATOM     97  S   UNL A   1      48.741  37.203  28.410  1.00  0.00     0.124 S 
ATOM     98  O   UNL A   1      47.542  37.979  28.110  1.00  0.00    -0.237 OA
ATOM     99  O   UNL A   1      49.196  37.258  29.797  1.00  0.00    -0.237 OA
ATOM    100  O   UNL A   1      49.803  37.284  27.409  1.00  0.00    -0.744 OA
ENDBRANCH  96  97
ENDBRANCH  70  91
ENDBRANCH  44  45
ENDBRANCH  37  39
ENDBRANCH  36  37
ENDBRANCH  35  36
ENDBRANCH  34  35
ENDBRANCH   1  34
TORSDOF 22
ENDMDL
