MODEL 1
REMARK VINA RESULT:     -11.3      0.000      0.000
REMARK SMILES NC(=O)c1cc(-c2cc(C(=O)OCCOC(=O)c3ccc(-c4c5nc(c(-c6ccc(S(=O)(=O)[O-])cc6)c6ccc([nH]6)c(-c6ccc(S(=O)(=O)[O-])cc6)c6nc(c(-c7ccc(S(=O)(=O)[O-])cc7)c7ccc4[nH]7)C=C6)C=C5)cc3)cc([N+](=O)[O-])c2)ccc1Cl
REMARK SMILES IDX 14 1 13 2 12 3 10 4 11 5 9 6 7 7 8 8 83 9 79 10 78 11 6 12
REMARK SMILES IDX 4 13 5 14 86 15 85 16 87 17 84 18 2 19 1 20 3 23 80 24 81 25
REMARK SMILES IDX 82 26 15 27 16 28 17 29 18 30 19 31 77 32 20 33 76 34 21 35
REMARK SMILES IDX 22 36 23 37 70 38 24 39 75 40 69 41 71 42 25 43 74 44 68 45
REMARK SMILES IDX 67 46 26 48 56 49 37 50 55 51 38 52 41 53 54 54 72 55 39 56
REMARK SMILES IDX 40 57 53 59 73 60 42 61 27 62 28 63 36 64 29 65 35 66 30 67
REMARK SMILES IDX 31 68 32 69 33 70 34 71 57 72 58 73 66 74 59 75 65 76 60 77
REMARK SMILES IDX 61 78 62 79 63 80 64 81 43 82 44 83 52 84 45 85 51 86 46 87
REMARK SMILES IDX 47 88 48 89 49 90 50 91
REMARK H PARENT 1 21 1 22 71 47 41 58
REMARK Flexibility Score: inf
ROOT
ATOM      1  C   UNL A   1      40.074  23.758  27.477  1.00  0.00     0.275 C 
ENDROOT
BRANCH   1   2
ATOM      2  C   UNL A   1      39.373  22.614  26.740  1.00  0.00     0.275 C 
BRANCH   2   3
ATOM      3  O   UNL A   1      40.314  21.881  25.926  1.00  0.00    -0.458 OA
BRANCH   3   4
ATOM      4  C   UNL A   1      41.127  21.006  26.571  1.00  0.00     0.338 C 
ATOM      5  O   UNL A   1      40.815  20.221  27.443  1.00  0.00    -0.246 OA
BRANCH   4   6
ATOM      6  C   UNL A   1      42.469  21.035  25.939  1.00  0.00     0.067 A 
ATOM      7  C   UNL A   1      44.361  22.392  25.194  1.00  0.00    -0.011 A 
ATOM      8  C   UNL A   1      43.031  22.280  25.616  1.00  0.00     0.025 A 
ATOM      9  C   UNL A   1      45.079  21.215  24.947  1.00  0.00     0.094 A 
ATOM     10  C   UNL A   1      44.481  19.964  25.172  1.00  0.00     0.270 A 
ATOM     11  C   UNL A   1      43.188  19.865  25.704  1.00  0.00     0.101 A 
BRANCH   7  12
ATOM     12  C   UNL A   1      45.007  23.705  25.101  1.00  0.00    -0.017 A 
ATOM     13  C   UNL A   1      44.851  26.161  25.314  1.00  0.00     0.058 A 
ATOM     14  C   UNL A   1      44.262  24.878  25.326  1.00  0.00     0.024 A 
ATOM     15  C   UNL A   1      46.224  26.257  25.053  1.00  0.00     0.053 A 
ATOM     16  C   UNL A   1      46.968  25.096  24.800  1.00  0.00     0.022 A 
ATOM     17  Cl  UNL A   1      47.124  27.733  25.063  1.00  0.00    -0.083 Cl
ATOM     18  C   UNL A   1      46.369  23.833  24.827  1.00  0.00     0.010 A 
BRANCH  13  19
ATOM     19  C   UNL A   1      43.934  27.295  25.636  1.00  0.00     0.250 C 
ATOM     20  N   UNL A   1      43.089  27.765  24.680  1.00  0.00    -0.366 N 
ATOM     21  H   UNL A   1      42.481  28.511  24.884  1.00  0.00     0.159 HD
ATOM     22  H   UNL A   1      43.084  27.357  23.784  1.00  0.00     0.159 HD
ATOM     23  O   UNL A   1      43.923  27.794  26.758  1.00  0.00    -0.269 OA
ENDBRANCH  13  19
ENDBRANCH   7  12
BRANCH  10  24
ATOM     24  N   UNL A   1      45.223  18.741  24.850  1.00  0.00     0.062 N 
ATOM     25  O   UNL A   1      45.928  18.747  23.829  1.00  0.00    -0.258 OA
ATOM     26  O   UNL A   1      45.127  17.784  25.630  1.00  0.00    -0.258 OA
ENDBRANCH  10  24
ENDBRANCH   4   6
ENDBRANCH   3   4
ENDBRANCH   2   3
ENDBRANCH   1   2
BRANCH   1  27
ATOM     27  O   UNL A   1      39.338  24.983  27.300  1.00  0.00    -0.458 OA
BRANCH  27  28
ATOM     28  C   UNL A   1      40.083  26.100  27.130  1.00  0.00     0.338 C 
ATOM     29  O   UNL A   1      40.673  26.454  26.125  1.00  0.00    -0.246 OA
BRANCH  28  30
ATOM     30  C   UNL A   1      39.972  26.928  28.341  1.00  0.00     0.060 A 
ATOM     31  C   UNL A   1      40.795  28.043  28.428  1.00  0.00     0.016 A 
ATOM     32  C   UNL A   1      39.158  26.578  29.412  1.00  0.00     0.016 A 
ATOM     33  C   UNL A   1      40.895  28.760  29.615  1.00  0.00     0.010 A 
ATOM     34  C   UNL A   1      39.165  27.378  30.566  1.00  0.00     0.010 A 
ATOM     35  C   UNL A   1      40.055  28.461  30.696  1.00  0.00    -0.014 A 
BRANCH  35  36
ATOM     36  C   UNL A   1      40.111  29.307  31.927  1.00  0.00     0.031 A 
ATOM     37  C   UNL A   1      41.170  29.087  32.980  1.00  0.00     0.074 A 
ATOM     38  C   UNL A   1      39.218  30.308  32.094  1.00  0.00     0.049 A 
ATOM     39  N   UNL A   1      41.359  29.740  34.101  1.00  0.00    -0.248 NA
ATOM     40  C   UNL A   1      42.140  28.005  32.752  1.00  0.00     0.031 C 
ATOM     41  C   UNL A   1      38.142  30.653  31.158  1.00  0.00     0.029 A 
ATOM     42  N   UNL A   1      39.070  31.225  33.108  1.00  0.00    -0.354 N 
ATOM     43  C   UNL A   1      42.476  29.165  34.695  1.00  0.00     0.074 A 
ATOM     44  C   UNL A   1      42.881  28.064  33.851  1.00  0.00     0.031 C 
ATOM     45  C   UNL A   1      37.470  31.714  31.625  1.00  0.00     0.029 A 
ATOM     46  C   UNL A   1      38.003  32.076  32.933  1.00  0.00     0.049 A 
ATOM     47  H   UNL A   1      39.671  31.268  33.888  1.00  0.00     0.167 HD
ATOM     48  C   UNL A   1      43.132  29.539  35.819  1.00  0.00     0.031 A 
ATOM     49  C   UNL A   1      37.468  33.010  33.745  1.00  0.00     0.031 A 
ATOM     50  C   UNL A   1      42.713  30.599  36.694  1.00  0.00     0.049 A 
ATOM     51  C   UNL A   1      38.083  33.251  35.092  1.00  0.00     0.074 A 
ATOM     52  C   UNL A   1      43.327  31.056  37.848  1.00  0.00     0.029 A 
ATOM     53  N   UNL A   1      41.553  31.339  36.539  1.00  0.00    -0.354 N 
ATOM     54  N   UNL A   1      39.182  32.744  35.595  1.00  0.00    -0.248 NA
ATOM     55  C   UNL A   1      37.377  34.176  35.990  1.00  0.00     0.031 C 
ATOM     56  C   UNL A   1      42.499  32.024  38.429  1.00  0.00     0.029 A 
ATOM     57  C   UNL A   1      41.396  32.204  37.608  1.00  0.00     0.049 A 
ATOM     58  H   UNL A   1      40.931  31.262  35.780  1.00  0.00     0.167 HD
ATOM     59  C   UNL A   1      39.302  33.291  36.867  1.00  0.00     0.074 A 
ATOM     60  C   UNL A   1      38.175  34.184  37.048  1.00  0.00     0.031 C 
ATOM     61  C   UNL A   1      40.262  33.071  37.798  1.00  0.00     0.031 A 
BRANCH  48  62
ATOM     62  C   UNL A   1      44.384  28.785  36.170  1.00  0.00    -0.014 A 
ATOM     63  C   UNL A   1      45.637  29.228  35.710  1.00  0.00     0.010 A 
ATOM     64  C   UNL A   1      44.317  27.655  37.004  1.00  0.00     0.010 A 
ATOM     65  C   UNL A   1      46.800  28.532  36.049  1.00  0.00     0.020 A 
ATOM     66  C   UNL A   1      45.481  26.967  37.359  1.00  0.00     0.020 A 
ATOM     67  C   UNL A   1      46.714  27.402  36.867  1.00  0.00     0.054 A 
BRANCH  67  68
ATOM     68  S   UNL A   1      48.243  26.531  37.308  1.00  0.00     0.124 S 
ATOM     69  O   UNL A   1      48.105  26.394  38.756  1.00  0.00    -0.237 OA
ATOM     70  O   UNL A   1      48.134  25.289  36.547  1.00  0.00    -0.237 OA
ATOM     71  O   UNL A   1      49.299  27.438  36.866  1.00  0.00    -0.744 OA
ENDBRANCH  67  68
ENDBRANCH  48  62
BRANCH  49  72
ATOM     72  C   UNL A   1      36.224  33.719  33.334  1.00  0.00    -0.014 A 
ATOM     73  C   UNL A   1      36.273  34.996  32.753  1.00  0.00     0.010 A 
ATOM     74  C   UNL A   1      34.972  33.099  33.517  1.00  0.00     0.010 A 
ATOM     75  C   UNL A   1      35.094  35.640  32.360  1.00  0.00     0.020 A 
ATOM     76  C   UNL A   1      33.797  33.725  33.100  1.00  0.00     0.020 A 
ATOM     77  C   UNL A   1      33.864  34.997  32.532  1.00  0.00     0.054 A 
BRANCH  77  78
ATOM     78  S   UNL A   1      32.351  35.818  31.958  1.00  0.00     0.124 S 
ATOM     79  O   UNL A   1      31.317  35.097  32.692  1.00  0.00    -0.237 OA
ATOM     80  O   UNL A   1      32.568  37.204  32.365  1.00  0.00    -0.237 OA
ATOM     81  O   UNL A   1      32.370  35.593  30.514  1.00  0.00    -0.744 OA
ENDBRANCH  77  78
ENDBRANCH  49  72
BRANCH  61  82
ATOM     82  C   UNL A   1      40.139  33.805  39.104  1.00  0.00    -0.014 A 
ATOM     83  C   UNL A   1      40.773  35.045  39.294  1.00  0.00     0.010 A 
ATOM     84  C   UNL A   1      39.346  33.274  40.136  1.00  0.00     0.010 A 
ATOM     85  C   UNL A   1      40.632  35.733  40.502  1.00  0.00     0.020 A 
ATOM     86  C   UNL A   1      39.181  33.970  41.335  1.00  0.00     0.020 A 
ATOM     87  C   UNL A   1      39.835  35.191  41.516  1.00  0.00     0.054 A 
BRANCH  87  88
ATOM     88  S   UNL A   1      39.624  36.125  43.056  1.00  0.00     0.124 S 
ATOM     89  O   UNL A   1      39.517  37.497  42.567  1.00  0.00    -0.237 OA
ATOM     90  O   UNL A   1      38.396  35.558  43.611  1.00  0.00    -0.237 OA
ATOM     91  O   UNL A   1      40.837  35.825  43.811  1.00  0.00    -0.744 OA
ENDBRANCH  87  88
ENDBRANCH  61  82
ENDBRANCH  35  36
ENDBRANCH  28  30
ENDBRANCH  27  28
ENDBRANCH   1  27
TORSDOF 17
ENDMDL
MODEL 2
REMARK VINA RESULT:     -11.1      5.871     15.234
REMARK SMILES NC(=O)c1cc(-c2cc(C(=O)OCCOC(=O)c3ccc(-c4c5nc(c(-c6ccc(S(=O)(=O)[O-])cc6)c6ccc([nH]6)c(-c6ccc(S(=O)(=O)[O-])cc6)c6nc(c(-c7ccc(S(=O)(=O)[O-])cc7)c7ccc4[nH]7)C=C6)C=C5)cc3)cc([N+](=O)[O-])c2)ccc1Cl
REMARK SMILES IDX 14 1 13 2 12 3 10 4 11 5 9 6 7 7 8 8 83 9 79 10 78 11 6 12
REMARK SMILES IDX 4 13 5 14 86 15 85 16 87 17 84 18 2 19 1 20 3 23 80 24 81 25
REMARK SMILES IDX 82 26 15 27 16 28 17 29 18 30 19 31 77 32 20 33 76 34 21 35
REMARK SMILES IDX 22 36 23 37 70 38 24 39 75 40 69 41 71 42 25 43 74 44 68 45
REMARK SMILES IDX 67 46 26 48 56 49 37 50 55 51 38 52 41 53 54 54 72 55 39 56
REMARK SMILES IDX 40 57 53 59 73 60 42 61 27 62 28 63 36 64 29 65 35 66 30 67
REMARK SMILES IDX 31 68 32 69 33 70 34 71 57 72 58 73 66 74 59 75 65 76 60 77
REMARK SMILES IDX 61 78 62 79 63 80 64 81 43 82 44 83 52 84 45 85 51 86 46 87
REMARK SMILES IDX 47 88 48 89 49 90 50 91
REMARK H PARENT 1 21 1 22 71 47 41 58
REMARK Flexibility Score: inf
ROOT
ATOM      1  C   UNL A   1      35.335  30.311  28.448  1.00  0.00     0.275 C 
ENDROOT
BRANCH   1   2
ATOM      2  C   UNL A   1      35.522  31.630  27.694  1.00  0.00     0.275 C 
BRANCH   2   3
ATOM      3  O   UNL A   1      35.535  32.744  28.611  1.00  0.00    -0.458 OA
BRANCH   3   4
ATOM      4  C   UNL A   1      34.390  33.467  28.711  1.00  0.00     0.338 C 
ATOM      5  O   UNL A   1      33.522  33.585  27.872  1.00  0.00    -0.246 OA
BRANCH   4   6
ATOM      6  C   UNL A   1      34.269  33.995  30.093  1.00  0.00     0.067 A 
ATOM      7  C   UNL A   1      35.014  33.861  32.417  1.00  0.00    -0.011 A 
ATOM      8  C   UNL A   1      34.930  33.318  31.129  1.00  0.00     0.025 A 
ATOM      9  C   UNL A   1      34.287  35.025  32.694  1.00  0.00     0.094 A 
ATOM     10  C   UNL A   1      33.540  35.647  31.680  1.00  0.00     0.270 A 
ATOM     11  C   UNL A   1      33.556  35.160  30.367  1.00  0.00     0.101 A 
BRANCH   7  12
ATOM     12  C   UNL A   1      35.910  33.273  33.418  1.00  0.00    -0.017 A 
ATOM     13  C   UNL A   1      37.506  31.496  34.048  1.00  0.00     0.058 A 
ATOM     14  C   UNL A   1      36.582  32.067  33.145  1.00  0.00     0.024 A 
ATOM     15  C   UNL A   1      37.741  32.155  35.260  1.00  0.00     0.053 A 
ATOM     16  C   UNL A   1      37.054  33.342  35.553  1.00  0.00     0.022 A 
ATOM     17  Cl  UNL A   1      38.882  31.640  36.453  1.00  0.00    -0.083 Cl
ATOM     18  C   UNL A   1      36.151  33.898  34.642  1.00  0.00     0.010 A 
BRANCH  13  19
ATOM     19  C   UNL A   1      38.182  30.249  33.576  1.00  0.00     0.250 C 
ATOM     20  N   UNL A   1      37.462  29.101  33.461  1.00  0.00    -0.366 N 
ATOM     21  H   UNL A   1      37.899  28.275  33.152  1.00  0.00     0.159 HD
ATOM     22  H   UNL A   1      36.504  29.095  33.687  1.00  0.00     0.159 HD
ATOM     23  O   UNL A   1      39.372  30.256  33.276  1.00  0.00    -0.269 OA
ENDBRANCH  13  19
ENDBRANCH   7  12
BRANCH  10  24
ATOM     24  N   UNL A   1      32.735  36.830  32.001  1.00  0.00     0.062 N 
ATOM     25  O   UNL A   1      32.042  36.794  33.029  1.00  0.00    -0.258 OA
ATOM     26  O   UNL A   1      32.815  37.806  31.243  1.00  0.00    -0.258 OA
ENDBRANCH  10  24
ENDBRANCH   4   6
ENDBRANCH   3   4
ENDBRANCH   2   3
ENDBRANCH   1   2
BRANCH   1  27
ATOM     27  O   UNL A   1      36.468  29.452  28.225  1.00  0.00    -0.458 OA
BRANCH  27  28
ATOM     28  C   UNL A   1      37.255  29.221  29.302  1.00  0.00     0.338 C 
ATOM     29  O   UNL A   1      36.910  29.102  30.464  1.00  0.00    -0.246 OA
BRANCH  28  30
ATOM     30  C   UNL A   1      38.633  28.997  28.838  1.00  0.00     0.060 A 
ATOM     31  C   UNL A   1      39.579  28.648  29.793  1.00  0.00     0.016 A 
ATOM     32  C   UNL A   1      39.022  29.214  27.521  1.00  0.00     0.016 A 
ATOM     33  C   UNL A   1      40.931  28.614  29.473  1.00  0.00     0.010 A 
ATOM     34  C   UNL A   1      40.372  29.054  27.171  1.00  0.00     0.010 A 
ATOM     35  C   UNL A   1      41.350  28.783  28.147  1.00  0.00    -0.014 A 
BRANCH  35  36
ATOM     36  C   UNL A   1      42.799  28.644  27.810  1.00  0.00     0.031 A 
ATOM     37  C   UNL A   1      43.754  29.801  27.975  1.00  0.00     0.074 A 
ATOM     38  C   UNL A   1      43.277  27.456  27.375  1.00  0.00     0.049 A 
ATOM     39  N   UNL A   1      45.043  29.840  27.734  1.00  0.00    -0.248 NA
ATOM     40  C   UNL A   1      43.205  31.070  28.473  1.00  0.00     0.031 C 
ATOM     41  C   UNL A   1      42.479  26.241  27.176  1.00  0.00     0.029 A 
ATOM     42  N   UNL A   1      44.548  27.069  27.023  1.00  0.00    -0.354 N 
ATOM     43  C   UNL A   1      45.456  31.123  28.072  1.00  0.00     0.074 A 
ATOM     44  C   UNL A   1      44.274  31.856  28.466  1.00  0.00     0.031 C 
ATOM     45  C   UNL A   1      43.280  25.246  26.768  1.00  0.00     0.029 A 
ATOM     46  C   UNL A   1      44.630  25.766  26.590  1.00  0.00     0.049 A 
ATOM     47  H   UNL A   1      45.328  27.669  27.076  1.00  0.00     0.167 HD
ATOM     48  C   UNL A   1      46.708  31.639  28.093  1.00  0.00     0.031 A 
ATOM     49  C   UNL A   1      45.653  25.069  26.057  1.00  0.00     0.031 A 
ATOM     50  C   UNL A   1      47.886  30.940  27.657  1.00  0.00     0.049 A 
ATOM     51  C   UNL A   1      46.985  25.738  25.880  1.00  0.00     0.074 A 
ATOM     52  C   UNL A   1      49.198  31.381  27.657  1.00  0.00     0.029 A 
ATOM     53  N   UNL A   1      47.891  29.671  27.104  1.00  0.00    -0.354 N 
ATOM     54  N   UNL A   1      47.364  26.928  26.276  1.00  0.00    -0.248 NA
ATOM     55  C   UNL A   1      48.021  24.979  25.165  1.00  0.00     0.031 C 
ATOM     56  C   UNL A   1      49.986  30.405  27.036  1.00  0.00     0.029 A 
ATOM     57  C   UNL A   1      49.172  29.337  26.698  1.00  0.00     0.049 A 
ATOM     58  H   UNL A   1      47.101  29.091  27.012  1.00  0.00     0.167 HD
ATOM     59  C   UNL A   1      48.685  27.059  25.865  1.00  0.00     0.074 A 
ATOM     60  C   UNL A   1      49.045  25.820  25.206  1.00  0.00     0.031 C 
ATOM     61  C   UNL A   1      49.521  28.115  26.020  1.00  0.00     0.031 A 
BRANCH  48  62
ATOM     62  C   UNL A   1      46.868  33.043  28.604  1.00  0.00    -0.014 A 
ATOM     63  C   UNL A   1      47.113  33.282  29.969  1.00  0.00     0.010 A 
ATOM     64  C   UNL A   1      46.821  34.129  27.714  1.00  0.00     0.010 A 
ATOM     65  C   UNL A   1      47.274  34.586  30.440  1.00  0.00     0.020 A 
ATOM     66  C   UNL A   1      46.998  35.436  28.179  1.00  0.00     0.020 A 
ATOM     67  C   UNL A   1      47.210  35.657  29.542  1.00  0.00     0.054 A 
BRANCH  67  68
ATOM     68  S   UNL A   1      47.444  37.340  30.179  1.00  0.00     0.124 S 
ATOM     69  O   UNL A   1      47.631  37.097  31.607  1.00  0.00    -0.237 OA
ATOM     70  O   UNL A   1      48.630  37.792  29.458  1.00  0.00    -0.237 OA
ATOM     71  O   UNL A   1      46.202  38.022  29.821  1.00  0.00    -0.744 OA
ENDBRANCH  67  68
ENDBRANCH  48  62
BRANCH  49  72
ATOM     72  C   UNL A   1      45.424  23.680  25.568  1.00  0.00    -0.014 A 
ATOM     73  C   UNL A   1      45.682  22.569  26.386  1.00  0.00     0.010 A 
ATOM     74  C   UNL A   1      44.927  23.470  24.266  1.00  0.00     0.010 A 
ATOM     75  C   UNL A   1      45.446  21.273  25.913  1.00  0.00     0.020 A 
ATOM     76  C   UNL A   1      44.663  22.181  23.801  1.00  0.00     0.020 A 
ATOM     77  C   UNL A   1      44.934  21.088  24.625  1.00  0.00     0.054 A 
BRANCH  77  78
ATOM     78  S   UNL A   1      44.572  19.405  24.052  1.00  0.00     0.124 S 
ATOM     79  O   UNL A   1      45.735  18.666  24.531  1.00  0.00    -0.237 OA
ATOM     80  O   UNL A   1      43.309  19.106  24.723  1.00  0.00    -0.237 OA
ATOM     81  O   UNL A   1      44.476  19.553  22.601  1.00  0.00    -0.744 OA
ENDBRANCH  77  78
ENDBRANCH  49  72
BRANCH  61  82
ATOM     82  C   UNL A   1      50.912  27.981  25.467  1.00  0.00    -0.014 A 
ATOM     83  C   UNL A   1      51.211  28.413  24.163  1.00  0.00     0.010 A 
ATOM     84  C   UNL A   1      51.941  27.462  26.272  1.00  0.00     0.010 A 
ATOM     85  C   UNL A   1      52.513  28.309  23.666  1.00  0.00     0.020 A 
ATOM     86  C   UNL A   1      53.249  27.381  25.788  1.00  0.00     0.020 A 
ATOM     87  C   UNL A   1      53.525  27.794  24.483  1.00  0.00     0.054 A 
BRANCH  87  88
ATOM     88  S   UNL A   1      55.217  27.717  23.836  1.00  0.00     0.124 S 
ATOM     89  O   UNL A   1      55.972  27.287  25.009  1.00  0.00    -0.237 OA
ATOM     90  O   UNL A   1      55.107  26.731  22.763  1.00  0.00    -0.237 OA
ATOM     91  O   UNL A   1      55.480  29.083  23.392  1.00  0.00    -0.744 OA
ENDBRANCH  87  88
ENDBRANCH  61  82
ENDBRANCH  35  36
ENDBRANCH  28  30
ENDBRANCH  27  28
ENDBRANCH   1  27
TORSDOF 17
ENDMDL
MODEL 3
REMARK VINA RESULT:     -11.0      4.214      5.911
REMARK SMILES NC(=O)c1cc(-c2cc(C(=O)OCCOC(=O)c3ccc(-c4c5nc(c(-c6ccc(S(=O)(=O)[O-])cc6)c6ccc([nH]6)c(-c6ccc(S(=O)(=O)[O-])cc6)c6nc(c(-c7ccc(S(=O)(=O)[O-])cc7)c7ccc4[nH]7)C=C6)C=C5)cc3)cc([N+](=O)[O-])c2)ccc1Cl
REMARK SMILES IDX 14 1 13 2 12 3 10 4 11 5 9 6 7 7 8 8 83 9 79 10 78 11 6 12
REMARK SMILES IDX 4 13 5 14 86 15 85 16 87 17 84 18 2 19 1 20 3 23 80 24 81 25
REMARK SMILES IDX 82 26 15 27 16 28 17 29 18 30 19 31 77 32 20 33 76 34 21 35
REMARK SMILES IDX 22 36 23 37 70 38 24 39 75 40 69 41 71 42 25 43 74 44 68 45
REMARK SMILES IDX 67 46 26 48 56 49 37 50 55 51 38 52 41 53 54 54 72 55 39 56
REMARK SMILES IDX 40 57 53 59 73 60 42 61 27 62 28 63 36 64 29 65 35 66 30 67
REMARK SMILES IDX 31 68 32 69 33 70 34 71 57 72 58 73 66 74 59 75 65 76 60 77
REMARK SMILES IDX 61 78 62 79 63 80 64 81 43 82 44 83 52 84 45 85 51 86 46 87
REMARK SMILES IDX 47 88 48 89 49 90 50 91
REMARK H PARENT 1 21 1 22 71 47 41 58
REMARK Flexibility Score: inf
ROOT
ATOM      1  C   UNL A   1      38.226  24.333  26.225  1.00  0.00     0.275 C 
ENDROOT
BRANCH   1   2
ATOM      2  C   UNL A   1      38.294  22.812  26.066  1.00  0.00     0.275 C 
BRANCH   2   3
ATOM      3  O   UNL A   1      37.490  22.381  24.946  1.00  0.00    -0.458 OA
BRANCH   3   4
ATOM      4  C   UNL A   1      37.215  21.054  24.868  1.00  0.00     0.338 C 
ATOM      5  O   UNL A   1      38.004  20.136  24.935  1.00  0.00    -0.246 OA
BRANCH   4   6
ATOM      6  C   UNL A   1      35.743  20.866  24.837  1.00  0.00     0.067 A 
ATOM      7  C   UNL A   1      33.545  21.896  24.549  1.00  0.00    -0.011 A 
ATOM      8  C   UNL A   1      34.923  22.003  24.769  1.00  0.00     0.025 A 
ATOM      9  C   UNL A   1      32.970  20.619  24.553  1.00  0.00     0.094 A 
ATOM     10  C   UNL A   1      33.779  19.483  24.724  1.00  0.00     0.270 A 
ATOM     11  C   UNL A   1      35.171  19.595  24.830  1.00  0.00     0.101 A 
BRANCH   7  12
ATOM     12  C   UNL A   1      32.744  23.084  24.233  1.00  0.00    -0.017 A 
ATOM     13  C   UNL A   1      32.312  25.013  22.752  1.00  0.00     0.058 A 
ATOM     14  C   UNL A   1      33.088  23.898  23.137  1.00  0.00     0.024 A 
ATOM     15  C   UNL A   1      31.170  25.316  23.503  1.00  0.00     0.053 A 
ATOM     16  C   UNL A   1      30.836  24.527  24.614  1.00  0.00     0.022 A 
ATOM     17  Cl  UNL A   1      30.069  26.599  23.141  1.00  0.00    -0.083 Cl
ATOM     18  C   UNL A   1      31.611  23.421  24.973  1.00  0.00     0.010 A 
BRANCH  13  19
ATOM     19  C   UNL A   1      32.778  25.731  21.528  1.00  0.00     0.250 C 
ATOM     20  N   UNL A   1      32.044  25.654  20.386  1.00  0.00    -0.366 N 
ATOM     21  H   UNL A   1      32.344  26.124  19.575  1.00  0.00     0.159 HD
ATOM     22  H   UNL A   1      31.211  25.129  20.371  1.00  0.00     0.159 HD
ATOM     23  O   UNL A   1      33.806  26.402  21.547  1.00  0.00    -0.269 OA
ENDBRANCH  13  19
ENDBRANCH   7  12
BRANCH  10  24
ATOM     24  N   UNL A   1      33.156  18.157  24.789  1.00  0.00     0.062 N 
ATOM     25  O   UNL A   1      33.882  17.193  25.074  1.00  0.00    -0.258 OA
ATOM     26  O   UNL A   1      31.936  18.081  24.585  1.00  0.00    -0.258 OA
ENDBRANCH  10  24
ENDBRANCH   4   6
ENDBRANCH   3   4
ENDBRANCH   2   3
ENDBRANCH   1   2
BRANCH   1  27
ATOM     27  O   UNL A   1      39.008  24.745  27.362  1.00  0.00    -0.458 OA
BRANCH  27  28
ATOM     28  C   UNL A   1      39.820  25.810  27.166  1.00  0.00     0.338 C 
ATOM     29  O   UNL A   1      40.423  26.108  26.151  1.00  0.00    -0.246 OA
BRANCH  28  30
ATOM     30  C   UNL A   1      39.770  26.665  28.361  1.00  0.00     0.060 A 
ATOM     31  C   UNL A   1      40.680  27.712  28.435  1.00  0.00     0.016 A 
ATOM     32  C   UNL A   1      38.925  26.402  29.433  1.00  0.00     0.016 A 
ATOM     33  C   UNL A   1      40.831  28.439  29.609  1.00  0.00     0.010 A 
ATOM     34  C   UNL A   1      38.990  27.219  30.573  1.00  0.00     0.010 A 
ATOM     35  C   UNL A   1      39.965  28.228  30.691  1.00  0.00    -0.014 A 
BRANCH  35  36
ATOM     36  C   UNL A   1      40.083  29.089  31.906  1.00  0.00     0.031 A 
ATOM     37  C   UNL A   1      41.164  28.850  32.931  1.00  0.00     0.074 A 
ATOM     38  C   UNL A   1      39.226  30.119  32.085  1.00  0.00     0.049 A 
ATOM     39  N   UNL A   1      41.406  29.512  34.037  1.00  0.00    -0.248 NA
ATOM     40  C   UNL A   1      42.094  27.735  32.692  1.00  0.00     0.031 C 
ATOM     41  C   UNL A   1      38.134  30.485  31.176  1.00  0.00     0.029 A 
ATOM     42  N   UNL A   1      39.136  31.053  33.090  1.00  0.00    -0.354 N 
ATOM     43  C   UNL A   1      42.522  28.911  34.607  1.00  0.00     0.074 A 
ATOM     44  C   UNL A   1      42.869  27.787  33.767  1.00  0.00     0.031 C 
ATOM     45  C   UNL A   1      37.508  31.572  31.647  1.00  0.00     0.029 A 
ATOM     46  C   UNL A   1      38.091  31.935  32.933  1.00  0.00     0.049 A 
ATOM     47  H   UNL A   1      39.761  31.088  33.851  1.00  0.00     0.167 HD
ATOM     48  C   UNL A   1      43.223  29.279  35.706  1.00  0.00     0.031 A 
ATOM     49  C   UNL A   1      37.609  32.896  33.748  1.00  0.00     0.031 A 
ATOM     50  C   UNL A   1      42.862  30.363  36.578  1.00  0.00     0.049 A 
ATOM     51  C   UNL A   1      38.270  33.136  35.073  1.00  0.00     0.074 A 
ATOM     52  C   UNL A   1      43.523  30.817  37.706  1.00  0.00     0.029 A 
ATOM     53  N   UNL A   1      41.721  31.137  36.445  1.00  0.00    -0.354 N 
ATOM     54  N   UNL A   1      39.367  32.601  35.551  1.00  0.00    -0.248 NA
ATOM     55  C   UNL A   1      37.619  34.094  35.977  1.00  0.00     0.031 C 
ATOM     56  C   UNL A   1      42.742  31.817  38.297  1.00  0.00     0.029 A 
ATOM     57  C   UNL A   1      41.622  32.020  37.506  1.00  0.00     0.049 A 
ATOM     58  H   UNL A   1      41.075  31.068  35.706  1.00  0.00     0.167 HD
ATOM     59  C   UNL A   1      39.542  33.162  36.810  1.00  0.00     0.074 A 
ATOM     60  C   UNL A   1      38.448  34.092  37.012  1.00  0.00     0.031 C 
ATOM     61  C   UNL A   1      40.521  32.925  37.717  1.00  0.00     0.031 A 
BRANCH  48  62
ATOM     62  C   UNL A   1      44.460  28.491  36.032  1.00  0.00    -0.014 A 
ATOM     63  C   UNL A   1      44.380  27.333  36.827  1.00  0.00     0.010 A 
ATOM     64  C   UNL A   1      45.704  28.877  35.502  1.00  0.00     0.010 A 
ATOM     65  C   UNL A   1      45.529  26.595  37.118  1.00  0.00     0.020 A 
ATOM     66  C   UNL A   1      46.853  28.131  35.777  1.00  0.00     0.020 A 
ATOM     67  C   UNL A   1      46.760  27.002  36.594  1.00  0.00     0.054 A 
BRANCH  67  68
ATOM     68  S   UNL A   1      48.234  26.011  36.971  1.00  0.00     0.124 S 
ATOM     69  O   UNL A   1      49.280  27.029  37.005  1.00  0.00    -0.237 OA
ATOM     70  O   UNL A   1      47.896  25.414  38.260  1.00  0.00    -0.237 OA
ATOM     71  O   UNL A   1      48.315  25.072  35.855  1.00  0.00    -0.744 OA
ENDBRANCH  67  68
ENDBRANCH  48  62
BRANCH  49  72
ATOM     72  C   UNL A   1      36.375  33.638  33.362  1.00  0.00    -0.014 A 
ATOM     73  C   UNL A   1      36.444  34.827  32.620  1.00  0.00     0.010 A 
ATOM     74  C   UNL A   1      35.112  33.136  33.736  1.00  0.00     0.010 A 
ATOM     75  C   UNL A   1      35.273  35.502  32.256  1.00  0.00     0.020 A 
ATOM     76  C   UNL A   1      33.941  33.790  33.349  1.00  0.00     0.020 A 
ATOM     77  C   UNL A   1      34.029  34.976  32.619  1.00  0.00     0.054 A 
BRANCH  77  78
ATOM     78  S   UNL A   1      32.520  35.828  32.082  1.00  0.00     0.124 S 
ATOM     79  O   UNL A   1      32.663  37.130  32.724  1.00  0.00    -0.237 OA
ATOM     80  O   UNL A   1      32.652  35.820  30.627  1.00  0.00    -0.237 OA
ATOM     81  O   UNL A   1      31.448  34.983  32.606  1.00  0.00    -0.744 OA
ENDBRANCH  77  78
ENDBRANCH  49  72
BRANCH  61  82
ATOM     82  C   UNL A   1      40.459  33.680  39.015  1.00  0.00    -0.014 A 
ATOM     83  C   UNL A   1      39.844  33.115  40.146  1.00  0.00     0.010 A 
ATOM     84  C   UNL A   1      41.062  34.946  39.120  1.00  0.00     0.010 A 
ATOM     85  C   UNL A   1      39.814  33.813  41.356  1.00  0.00     0.020 A 
ATOM     86  C   UNL A   1      41.057  35.635  40.334  1.00  0.00     0.020 A 
ATOM     87  C   UNL A   1      40.422  35.070  41.443  1.00  0.00     0.054 A 
BRANCH  87  88
ATOM     88  S   UNL A   1      40.416  35.935  43.036  1.00  0.00     0.124 S 
ATOM     89  O   UNL A   1      39.355  36.920  42.843  1.00  0.00    -0.237 OA
ATOM     90  O   UNL A   1      40.116  34.864  43.984  1.00  0.00    -0.237 OA
ATOM     91  O   UNL A   1      41.766  36.485  43.136  1.00  0.00    -0.744 OA
ENDBRANCH  87  88
ENDBRANCH  61  82
ENDBRANCH  35  36
ENDBRANCH  28  30
ENDBRANCH  27  28
ENDBRANCH   1  27
TORSDOF 17
ENDMDL
