MODEL 1
REMARK VINA RESULT:      -9.4      0.000      0.000
REMARK SMILES COC(=O)c1ccc([C@H]([NH3+])CC(=O)OCCOC(=O)c2ccc(-c3c4nc(c(-c5ccc(S(=O)(=O)[O-])cc5)c5ccc([nH]5)c(-c5ccc(S(=O)(=O)[O-])cc5)c5nc(c(-c6ccc(S(=O)(=O)[O-])cc6)c6ccc3[nH]6)C=C5)C=C4)cc2)cc1
REMARK SMILES IDX 15 1 14 2 12 3 13 4 11 5 9 6 8 7 5 8 6 9 81 10 7 11 80 12
REMARK SMILES IDX 3 13 4 14 2 15 1 16 10 17 16 21 17 22 18 23 19 24 20 25
REMARK SMILES IDX 21 26 79 27 22 28 78 29 23 30 24 31 25 32 72 33 26 34 77 35
REMARK SMILES IDX 71 36 73 37 27 38 76 39 70 40 69 41 28 43 58 44 39 45 57 46
REMARK SMILES IDX 40 47 43 48 56 49 74 50 41 51 42 52 55 54 75 55 44 56 29 57
REMARK SMILES IDX 30 58 38 59 31 60 37 61 32 62 33 63 34 64 35 65 36 66 59 67
REMARK SMILES IDX 60 68 68 69 61 70 67 71 62 72 63 73 64 74 65 75 66 76 45 77
REMARK SMILES IDX 46 78 54 79 47 80 53 81 48 82 49 83 50 84 51 85 52 86
REMARK H PARENT 10 18 10 19 10 20 73 42 43 53
REMARK Flexibility Score: inf
ROOT
ATOM      1  C   UNL A   1      36.094  21.568  24.799  1.00  0.00     0.274 C 
ENDROOT
BRANCH   1   2
ATOM      2  O   UNL A   1      35.832  22.214  23.542  1.00  0.00    -0.462 OA
BRANCH   2   3
ATOM      3  C   UNL A   1      34.736  23.009  23.472  1.00  0.00     0.312 C 
ATOM      4  O   UNL A   1      34.646  24.008  22.768  1.00  0.00    -0.252 OA
BRANCH   3   5
ATOM      5  C   UNL A   1      33.639  22.587  24.424  1.00  0.00     0.192 C 
BRANCH   5   6
ATOM      6  C   UNL A   1      32.493  21.807  23.756  1.00  0.00     0.223 C 
BRANCH   6   7
ATOM      7  C   UNL A   1      32.595  20.291  23.984  1.00  0.00     0.010 A 
ATOM      8  C   UNL A   1      32.867  17.506  24.459  1.00  0.00     0.060 A 
ATOM      9  C   UNL A   1      32.902  18.410  25.523  1.00  0.00     0.016 A 
ATOM     10  C   UNL A   1      32.626  17.983  23.168  1.00  0.00     0.016 A 
ATOM     11  C   UNL A   1      32.759  19.784  25.288  1.00  0.00     0.011 A 
ATOM     12  C   UNL A   1      32.486  19.356  22.939  1.00  0.00     0.011 A 
BRANCH   8  13
ATOM     13  C   UNL A   1      33.106  16.066  24.728  1.00  0.00     0.337 C 
ATOM     14  O   UNL A   1      32.322  15.339  25.317  1.00  0.00    -0.246 OA
BRANCH  13  15
ATOM     15  O   UNL A   1      34.346  15.720  24.295  1.00  0.00    -0.465 OA
ATOM     16  C   UNL A   1      35.354  15.752  25.305  1.00  0.00     0.282 C 
ENDBRANCH  13  15
ENDBRANCH   8  13
ENDBRANCH   6   7
BRANCH   6  17
ATOM     17  N   UNL A   1      32.467  22.152  22.326  1.00  0.00    -0.351 N 
ATOM     18  H   UNL A   1      32.825  21.368  21.781  1.00  0.00     0.345 HD
ATOM     19  H   UNL A   1      33.051  22.974  22.166  1.00  0.00     0.345 HD
ATOM     20  H   UNL A   1      31.510  22.356  22.042  1.00  0.00     0.345 HD
ENDBRANCH   6  17
ENDBRANCH   5   6
ENDBRANCH   3   5
ENDBRANCH   2   3
ENDBRANCH   1   2
BRANCH   1  21
ATOM     21  C   UNL A   1      37.593  21.480  25.096  1.00  0.00     0.275 C 
BRANCH  21  22
ATOM     22  O   UNL A   1      38.022  22.551  25.955  1.00  0.00    -0.458 OA
BRANCH  22  23
ATOM     23  C   UNL A   1      39.305  22.475  26.376  1.00  0.00     0.338 C 
ATOM     24  O   UNL A   1      40.053  21.515  26.311  1.00  0.00    -0.246 OA
BRANCH  23  25
ATOM     25  C   UNL A   1      39.738  23.789  26.870  1.00  0.00     0.060 A 
ATOM     26  C   UNL A   1      39.776  24.862  25.976  1.00  0.00     0.016 A 
ATOM     27  C   UNL A   1      40.194  23.936  28.181  1.00  0.00     0.016 A 
ATOM     28  C   UNL A   1      40.288  26.091  26.386  1.00  0.00     0.010 A 
ATOM     29  C   UNL A   1      40.699  25.173  28.593  1.00  0.00     0.010 A 
ATOM     30  C   UNL A   1      40.766  26.252  27.694  1.00  0.00    -0.014 A 
BRANCH  30  31
ATOM     31  C   UNL A   1      41.382  27.534  28.114  1.00  0.00     0.031 A 
ATOM     32  C   UNL A   1      42.871  27.714  28.019  1.00  0.00     0.074 A 
ATOM     33  C   UNL A   1      40.608  28.531  28.581  1.00  0.00     0.049 A 
ATOM     34  N   UNL A   1      43.609  28.720  28.415  1.00  0.00    -0.248 NA
ATOM     35  C   UNL A   1      43.632  26.617  27.399  1.00  0.00     0.031 C 
ATOM     36  C   UNL A   1      39.148  28.493  28.684  1.00  0.00     0.029 A 
ATOM     37  N   UNL A   1      40.945  29.771  29.063  1.00  0.00    -0.354 N 
ATOM     38  C   UNL A   1      44.919  28.371  28.111  1.00  0.00     0.074 A 
ATOM     39  C   UNL A   1      44.878  27.053  27.515  1.00  0.00     0.031 C 
ATOM     40  C   UNL A   1      38.715  29.656  29.196  1.00  0.00     0.029 A 
ATOM     41  C   UNL A   1      39.866  30.502  29.500  1.00  0.00     0.049 A 
ATOM     42  H   UNL A   1      41.870  30.105  29.093  1.00  0.00     0.167 HD
ATOM     43  C   UNL A   1      46.053  29.085  28.310  1.00  0.00     0.031 A 
ATOM     44  C   UNL A   1      39.812  31.707  30.101  1.00  0.00     0.031 A 
ATOM     45  C   UNL A   1      46.091  30.395  28.907  1.00  0.00     0.049 A 
ATOM     46  C   UNL A   1      41.091  32.454  30.367  1.00  0.00     0.074 A 
ATOM     47  C   UNL A   1      47.190  31.201  29.147  1.00  0.00     0.029 A 
ATOM     48  N   UNL A   1      44.979  31.090  29.359  1.00  0.00    -0.354 N 
ATOM     49  N   UNL A   1      42.323  32.110  30.077  1.00  0.00    -0.248 NA
ATOM     50  C   UNL A   1      40.972  33.755  31.043  1.00  0.00     0.031 C 
ATOM     51  C   UNL A   1      46.747  32.366  29.784  1.00  0.00     0.029 A 
ATOM     52  C   UNL A   1      45.368  32.307  29.893  1.00  0.00     0.049 A 
ATOM     53  H   UNL A   1      44.051  30.765  29.308  1.00  0.00     0.167 HD
ATOM     54  C   UNL A   1      43.123  33.160  30.511  1.00  0.00     0.074 A 
ATOM     55  C   UNL A   1      42.235  34.158  31.074  1.00  0.00     0.031 C 
ATOM     56  C   UNL A   1      44.472  33.289  30.449  1.00  0.00     0.031 A 
BRANCH  43  57
ATOM     57  C   UNL A   1      47.356  28.448  27.905  1.00  0.00    -0.014 A 
ATOM     58  C   UNL A   1      48.052  27.593  28.778  1.00  0.00     0.010 A 
ATOM     59  C   UNL A   1      47.873  28.681  26.617  1.00  0.00     0.010 A 
ATOM     60  C   UNL A   1      49.262  27.013  28.385  1.00  0.00     0.020 A 
ATOM     61  C   UNL A   1      49.070  28.083  26.211  1.00  0.00     0.020 A 
ATOM     62  C   UNL A   1      49.766  27.266  27.106  1.00  0.00     0.054 A 
BRANCH  62  63
ATOM     63  S   UNL A   1      51.330  26.490  26.613  1.00  0.00     0.124 S 
ATOM     64  O   UNL A   1      52.172  27.654  26.345  1.00  0.00    -0.237 OA
ATOM     65  O   UNL A   1      51.692  25.715  27.797  1.00  0.00    -0.237 OA
ATOM     66  O   UNL A   1      50.970  25.699  25.440  1.00  0.00    -0.744 OA
ENDBRANCH  62  63
ENDBRANCH  43  57
BRANCH  44  67
ATOM     67  C   UNL A   1      38.500  32.273  30.514  1.00  0.00    -0.014 A 
ATOM     68  C   UNL A   1      37.972  32.003  31.788  1.00  0.00     0.010 A 
ATOM     69  C   UNL A   1      37.773  33.092  29.631  1.00  0.00     0.010 A 
ATOM     70  C   UNL A   1      36.733  32.529  32.167  1.00  0.00     0.020 A 
ATOM     71  C   UNL A   1      36.546  33.641  30.015  1.00  0.00     0.020 A 
ATOM     72  C   UNL A   1      36.029  33.346  31.277  1.00  0.00     0.054 A 
BRANCH  72  73
ATOM     73  S   UNL A   1      34.447  34.060  31.808  1.00  0.00     0.124 S 
ATOM     74  O   UNL A   1      33.905  33.002  32.655  1.00  0.00    -0.237 OA
ATOM     75  O   UNL A   1      34.863  35.276  32.501  1.00  0.00    -0.237 OA
ATOM     76  O   UNL A   1      33.736  34.282  30.550  1.00  0.00    -0.744 OA
ENDBRANCH  72  73
ENDBRANCH  44  67
BRANCH  56  77
ATOM     77  C   UNL A   1      45.068  34.569  30.969  1.00  0.00    -0.014 A 
ATOM     78  C   UNL A   1      45.240  35.685  30.133  1.00  0.00     0.010 A 
ATOM     79  C   UNL A   1      45.413  34.671  32.329  1.00  0.00     0.010 A 
ATOM     80  C   UNL A   1      45.772  36.873  30.642  1.00  0.00     0.020 A 
ATOM     81  C   UNL A   1      45.922  35.863  32.848  1.00  0.00     0.020 A 
ATOM     82  C   UNL A   1      46.112  36.954  31.996  1.00  0.00     0.054 A 
BRANCH  82  83
ATOM     83  S   UNL A   1      46.760  38.520  32.645  1.00  0.00     0.124 S 
ATOM     84  O   UNL A   1      47.766  38.060  33.599  1.00  0.00    -0.237 OA
ATOM     85  O   UNL A   1      47.282  39.175  31.448  1.00  0.00    -0.237 OA
ATOM     86  O   UNL A   1      45.587  39.160  33.236  1.00  0.00    -0.744 OA
ENDBRANCH  82  83
ENDBRANCH  56  77
ENDBRANCH  30  31
ENDBRANCH  23  25
ENDBRANCH  22  23
ENDBRANCH  21  22
ENDBRANCH   1  21
TORSDOF 19
ENDMDL
MODEL 2
REMARK VINA RESULT:      -9.3      3.604     10.702
REMARK SMILES COC(=O)c1ccc([C@H]([NH3+])CC(=O)OCCOC(=O)c2ccc(-c3c4nc(c(-c5ccc(S(=O)(=O)[O-])cc5)c5ccc([nH]5)c(-c5ccc(S(=O)(=O)[O-])cc5)c5nc(c(-c6ccc(S(=O)(=O)[O-])cc6)c6ccc3[nH]6)C=C5)C=C4)cc2)cc1
REMARK SMILES IDX 15 1 14 2 12 3 13 4 11 5 9 6 8 7 5 8 6 9 81 10 7 11 80 12
REMARK SMILES IDX 3 13 4 14 2 15 1 16 10 17 16 21 17 22 18 23 19 24 20 25
REMARK SMILES IDX 21 26 79 27 22 28 78 29 23 30 24 31 25 32 72 33 26 34 77 35
REMARK SMILES IDX 71 36 73 37 27 38 76 39 70 40 69 41 28 43 58 44 39 45 57 46
REMARK SMILES IDX 40 47 43 48 56 49 74 50 41 51 42 52 55 54 75 55 44 56 29 57
REMARK SMILES IDX 30 58 38 59 31 60 37 61 32 62 33 63 34 64 35 65 36 66 59 67
REMARK SMILES IDX 60 68 68 69 61 70 67 71 62 72 63 73 64 74 65 75 66 76 45 77
REMARK SMILES IDX 46 78 54 79 47 80 53 81 48 82 49 83 50 84 51 85 52 86
REMARK H PARENT 10 18 10 19 10 20 73 42 43 53
REMARK Flexibility Score: inf
ROOT
ATOM      1  C   UNL A   1      41.669  21.336  27.026  1.00  0.00     0.274 C 
ENDROOT
BRANCH   1   2
ATOM      2  O   UNL A   1      42.343  21.279  25.757  1.00  0.00    -0.462 OA
BRANCH   2   3
ATOM      3  C   UNL A   1      42.981  22.403  25.346  1.00  0.00     0.312 C 
ATOM      4  O   UNL A   1      43.332  22.619  24.191  1.00  0.00    -0.252 OA
BRANCH   3   5
ATOM      5  C   UNL A   1      43.300  23.350  26.481  1.00  0.00     0.192 C 
BRANCH   5   6
ATOM      6  C   UNL A   1      44.781  23.356  26.897  1.00  0.00     0.223 C 
BRANCH   6   7
ATOM      7  C   UNL A   1      45.553  24.557  26.329  1.00  0.00     0.010 A 
ATOM      8  C   UNL A   1      46.938  26.755  25.187  1.00  0.00     0.060 A 
ATOM      9  C   UNL A   1      45.564  26.606  24.986  1.00  0.00     0.016 A 
ATOM     10  C   UNL A   1      47.607  25.850  26.014  1.00  0.00     0.016 A 
ATOM     11  C   UNL A   1      44.880  25.525  25.557  1.00  0.00     0.011 A 
ATOM     12  C   UNL A   1      46.920  24.771  26.580  1.00  0.00     0.011 A 
BRANCH   8  13
ATOM     13  C   UNL A   1      47.652  27.861  24.500  1.00  0.00     0.337 C 
ATOM     14  O   UNL A   1      48.767  28.251  24.807  1.00  0.00    -0.246 OA
BRANCH  13  15
ATOM     15  O   UNL A   1      46.846  28.407  23.554  1.00  0.00    -0.465 OA
ATOM     16  C   UNL A   1      47.377  28.362  22.230  1.00  0.00     0.282 C 
ENDBRANCH  13  15
ENDBRANCH   8  13
ENDBRANCH   6   7
BRANCH   6  17
ATOM     17  N   UNL A   1      45.381  22.073  26.500  1.00  0.00    -0.351 N 
ATOM     18  H   UNL A   1      45.074  21.832  25.557  1.00  0.00     0.345 HD
ATOM     19  H   UNL A   1      45.086  21.345  27.151  1.00  0.00     0.345 HD
ATOM     20  H   UNL A   1      46.397  22.152  26.517  1.00  0.00     0.345 HD
ENDBRANCH   6  17
ENDBRANCH   5   6
ENDBRANCH   3   5
ENDBRANCH   2   3
ENDBRANCH   1   2
BRANCH   1  21
ATOM     21  C   UNL A   1      40.147  21.287  26.869  1.00  0.00     0.275 C 
BRANCH  21  22
ATOM     22  O   UNL A   1      39.699  22.159  25.817  1.00  0.00    -0.458 OA
BRANCH  22  23
ATOM     23  C   UNL A   1      38.646  22.947  26.129  1.00  0.00     0.338 C 
ATOM     24  O   UNL A   1      37.461  22.682  26.020  1.00  0.00    -0.246 OA
BRANCH  23  25
ATOM     25  C   UNL A   1      39.129  24.198  26.730  1.00  0.00     0.060 A 
ATOM     26  C   UNL A   1      39.989  25.011  25.985  1.00  0.00     0.016 A 
ATOM     27  C   UNL A   1      38.813  24.516  28.051  1.00  0.00     0.016 A 
ATOM     28  C   UNL A   1      40.552  26.143  26.568  1.00  0.00     0.010 A 
ATOM     29  C   UNL A   1      39.372  25.659  28.631  1.00  0.00     0.010 A 
ATOM     30  C   UNL A   1      40.258  26.469  27.899  1.00  0.00    -0.014 A 
BRANCH  30  31
ATOM     31  C   UNL A   1      40.914  27.630  28.548  1.00  0.00     0.031 A 
ATOM     32  C   UNL A   1      40.108  28.857  28.874  1.00  0.00     0.074 A 
ATOM     33  C   UNL A   1      42.226  27.586  28.842  1.00  0.00     0.049 A 
ATOM     34  N   UNL A   1      40.509  30.005  29.357  1.00  0.00    -0.248 NA
ATOM     35  C   UNL A   1      38.660  28.784  28.618  1.00  0.00     0.031 C 
ATOM     36  C   UNL A   1      43.106  26.439  28.611  1.00  0.00     0.029 A 
ATOM     37  N   UNL A   1      43.051  28.535  29.392  1.00  0.00    -0.354 N 
ATOM     38  C   UNL A   1      39.370  30.796  29.448  1.00  0.00     0.074 A 
ATOM     39  C   UNL A   1      38.265  30.005  28.951  1.00  0.00     0.031 C 
ATOM     40  C   UNL A   1      44.347  26.752  29.018  1.00  0.00     0.029 A 
ATOM     41  C   UNL A   1      44.361  28.132  29.494  1.00  0.00     0.049 A 
ATOM     42  H   UNL A   1      42.734  29.419  29.685  1.00  0.00     0.167 HD
ATOM     43  C   UNL A   1      39.256  32.067  29.905  1.00  0.00     0.031 A 
ATOM     44  C   UNL A   1      45.454  28.808  29.900  1.00  0.00     0.031 A 
ATOM     45  C   UNL A   1      40.358  32.853  30.395  1.00  0.00     0.049 A 
ATOM     46  C   UNL A   1      45.311  30.238  30.345  1.00  0.00     0.074 A 
ATOM     47  C   UNL A   1      40.343  34.147  30.884  1.00  0.00     0.029 A 
ATOM     48  N   UNL A   1      41.673  32.417  30.458  1.00  0.00    -0.354 N 
ATOM     49  N   UNL A   1      44.228  30.974  30.421  1.00  0.00    -0.248 NA
ATOM     50  C   UNL A   1      46.541  30.930  30.759  1.00  0.00     0.031 C 
ATOM     51  C   UNL A   1      41.657  34.510  31.202  1.00  0.00     0.029 A 
ATOM     52  C   UNL A   1      42.481  33.424  30.961  1.00  0.00     0.049 A 
ATOM     53  H   UNL A   1      41.986  31.524  30.186  1.00  0.00     0.167 HD
ATOM     54  C   UNL A   1      44.641  32.206  30.915  1.00  0.00     0.074 A 
ATOM     55  C   UNL A   1      46.071  32.113  31.130  1.00  0.00     0.031 C 
ATOM     56  C   UNL A   1      43.903  33.315  31.169  1.00  0.00     0.031 A 
BRANCH  43  57
ATOM     57  C   UNL A   1      37.890  32.700  29.865  1.00  0.00    -0.014 A 
ATOM     58  C   UNL A   1      37.073  32.743  31.008  1.00  0.00     0.010 A 
ATOM     59  C   UNL A   1      37.433  33.290  28.673  1.00  0.00     0.010 A 
ATOM     60  C   UNL A   1      35.807  33.332  30.951  1.00  0.00     0.020 A 
ATOM     61  C   UNL A   1      36.177  33.903  28.618  1.00  0.00     0.020 A 
ATOM     62  C   UNL A   1      35.364  33.903  29.754  1.00  0.00     0.054 A 
BRANCH  62  63
ATOM     63  S   UNL A   1      33.723  34.675  29.708  1.00  0.00     0.124 S 
ATOM     64  O   UNL A   1      33.002  33.795  28.792  1.00  0.00    -0.237 OA
ATOM     65  O   UNL A   1      33.297  34.611  31.104  1.00  0.00    -0.237 OA
ATOM     66  O   UNL A   1      33.986  36.020  29.202  1.00  0.00    -0.744 OA
ENDBRANCH  62  63
ENDBRANCH  43  57
BRANCH  44  67
ATOM     67  C   UNL A   1      46.785  28.144  29.884  1.00  0.00    -0.014 A 
ATOM     68  C   UNL A   1      47.644  28.288  28.781  1.00  0.00     0.010 A 
ATOM     69  C   UNL A   1      47.202  27.366  30.980  1.00  0.00     0.010 A 
ATOM     70  C   UNL A   1      48.890  27.654  28.766  1.00  0.00     0.020 A 
ATOM     71  C   UNL A   1      48.457  26.752  30.980  1.00  0.00     0.020 A 
ATOM     72  C   UNL A   1      49.289  26.890  29.868  1.00  0.00     0.054 A 
BRANCH  72  73
ATOM     73  S   UNL A   1      50.930  26.118  29.850  1.00  0.00     0.124 S 
ATOM     74  O   UNL A   1      51.041  25.672  28.465  1.00  0.00    -0.237 OA
ATOM     75  O   UNL A   1      51.806  27.221  30.232  1.00  0.00    -0.237 OA
ATOM     76  O   UNL A   1      50.815  25.052  30.844  1.00  0.00    -0.744 OA
ENDBRANCH  72  73
ENDBRANCH  44  67
BRANCH  56  77
ATOM     77  C   UNL A   1      44.620  34.506  31.744  1.00  0.00    -0.014 A 
ATOM     78  C   UNL A   1      44.871  34.611  33.123  1.00  0.00     0.010 A 
ATOM     79  C   UNL A   1      45.097  35.510  30.881  1.00  0.00     0.010 A 
ATOM     80  C   UNL A   1      45.562  35.714  33.632  1.00  0.00     0.020 A 
ATOM     81  C   UNL A   1      45.809  36.602  31.383  1.00  0.00     0.020 A 
ATOM     82  C   UNL A   1      46.026  36.704  32.760  1.00  0.00     0.054 A 
BRANCH  82  83
ATOM     83  S   UNL A   1      46.959  38.103  33.438  1.00  0.00     0.124 S 
ATOM     84  O   UNL A   1      46.849  39.090  32.367  1.00  0.00    -0.237 OA
ATOM     85  O   UNL A   1      46.224  38.419  34.661  1.00  0.00    -0.237 OA
ATOM     86  O   UNL A   1      48.298  37.557  33.648  1.00  0.00    -0.744 OA
ENDBRANCH  82  83
ENDBRANCH  56  77
ENDBRANCH  30  31
ENDBRANCH  23  25
ENDBRANCH  22  23
ENDBRANCH  21  22
ENDBRANCH   1  21
TORSDOF 19
ENDMDL
MODEL 3
REMARK VINA RESULT:      -9.3      6.405     10.497
REMARK SMILES COC(=O)c1ccc([C@H]([NH3+])CC(=O)OCCOC(=O)c2ccc(-c3c4nc(c(-c5ccc(S(=O)(=O)[O-])cc5)c5ccc([nH]5)c(-c5ccc(S(=O)(=O)[O-])cc5)c5nc(c(-c6ccc(S(=O)(=O)[O-])cc6)c6ccc3[nH]6)C=C5)C=C4)cc2)cc1
REMARK SMILES IDX 15 1 14 2 12 3 13 4 11 5 9 6 8 7 5 8 6 9 81 10 7 11 80 12
REMARK SMILES IDX 3 13 4 14 2 15 1 16 10 17 16 21 17 22 18 23 19 24 20 25
REMARK SMILES IDX 21 26 79 27 22 28 78 29 23 30 24 31 25 32 72 33 26 34 77 35
REMARK SMILES IDX 71 36 73 37 27 38 76 39 70 40 69 41 28 43 58 44 39 45 57 46
REMARK SMILES IDX 40 47 43 48 56 49 74 50 41 51 42 52 55 54 75 55 44 56 29 57
REMARK SMILES IDX 30 58 38 59 31 60 37 61 32 62 33 63 34 64 35 65 36 66 59 67
REMARK SMILES IDX 60 68 68 69 61 70 67 71 62 72 63 73 64 74 65 75 66 76 45 77
REMARK SMILES IDX 46 78 54 79 47 80 53 81 48 82 49 83 50 84 51 85 52 86
REMARK H PARENT 10 18 10 19 10 20 73 42 43 53
REMARK Flexibility Score: inf
ROOT
ATOM      1  C   UNL A   1      33.009  34.899  28.645  1.00  0.00     0.274 C 
ENDROOT
BRANCH   1   2
ATOM      2  O   UNL A   1      32.355  36.023  29.259  1.00  0.00    -0.462 OA
BRANCH   2   3
ATOM      3  C   UNL A   1      32.840  36.443  30.453  1.00  0.00     0.312 C 
ATOM      4  O   UNL A   1      33.176  37.596  30.700  1.00  0.00    -0.252 OA
BRANCH   3   5
ATOM      5  C   UNL A   1      33.007  35.319  31.451  1.00  0.00     0.192 C 
BRANCH   5   6
ATOM      6  C   UNL A   1      34.201  35.498  32.406  1.00  0.00     0.223 C 
BRANCH   6   7
ATOM      7  C   UNL A   1      34.942  34.181  32.683  1.00  0.00     0.010 A 
ATOM      8  C   UNL A   1      36.396  31.800  33.204  1.00  0.00     0.060 A 
ATOM      9  C   UNL A   1      36.521  32.903  34.052  1.00  0.00     0.016 A 
ATOM     10  C   UNL A   1      35.494  31.860  32.139  1.00  0.00     0.016 A 
ATOM     11  C   UNL A   1      35.796  34.074  33.799  1.00  0.00     0.011 A 
ATOM     12  C   UNL A   1      34.775  33.032  31.889  1.00  0.00     0.011 A 
BRANCH   8  13
ATOM     13  C   UNL A   1      37.240  30.603  33.448  1.00  0.00     0.337 C 
ATOM     14  O   UNL A   1      38.107  30.539  34.304  1.00  0.00    -0.246 OA
BRANCH  13  15
ATOM     15  O   UNL A   1      36.951  29.645  32.529  1.00  0.00    -0.465 OA
ATOM     16  C   UNL A   1      37.864  28.548  32.514  1.00  0.00     0.282 C 
ENDBRANCH  13  15
ENDBRANCH   8  13
ENDBRANCH   6   7
BRANCH   6  17
ATOM     17  N   UNL A   1      33.717  36.133  33.641  1.00  0.00    -0.351 N 
ATOM     18  H   UNL A   1      32.773  35.805  33.844  1.00  0.00     0.345 HD
ATOM     19  H   UNL A   1      33.707  37.146  33.519  1.00  0.00     0.345 HD
ATOM     20  H   UNL A   1      34.336  35.890  34.413  1.00  0.00     0.345 HD
ENDBRANCH   6  17
ENDBRANCH   5   6
ENDBRANCH   3   5
ENDBRANCH   2   3
ENDBRANCH   1   2
BRANCH   1  21
ATOM     21  C   UNL A   1      34.497  35.164  28.403  1.00  0.00     0.275 C 
BRANCH  21  22
ATOM     22  O   UNL A   1      35.054  34.222  27.470  1.00  0.00    -0.458 OA
BRANCH  22  23
ATOM     23  C   UNL A   1      34.922  32.921  27.816  1.00  0.00     0.338 C 
ATOM     24  O   UNL A   1      33.958  32.198  27.633  1.00  0.00    -0.246 OA
BRANCH  23  25
ATOM     25  C   UNL A   1      36.183  32.436  28.393  1.00  0.00     0.060 A 
ATOM     26  C   UNL A   1      36.296  31.080  28.712  1.00  0.00     0.016 A 
ATOM     27  C   UNL A   1      37.208  33.330  28.704  1.00  0.00     0.016 A 
ATOM     28  C   UNL A   1      37.435  30.612  29.363  1.00  0.00     0.010 A 
ATOM     29  C   UNL A   1      38.354  32.857  29.349  1.00  0.00     0.010 A 
ATOM     30  C   UNL A   1      38.467  31.499  29.698  1.00  0.00    -0.014 A 
BRANCH  30  31
ATOM     31  C   UNL A   1      39.648  31.021  30.458  1.00  0.00     0.031 A 
ATOM     32  C   UNL A   1      40.389  29.798  29.995  1.00  0.00     0.074 A 
ATOM     33  C   UNL A   1      40.051  31.680  31.560  1.00  0.00     0.049 A 
ATOM     34  N   UNL A   1      41.386  29.171  30.565  1.00  0.00    -0.248 NA
ATOM     35  C   UNL A   1      39.949  29.199  28.724  1.00  0.00     0.031 C 
ATOM     36  C   UNL A   1      39.440  32.901  32.087  1.00  0.00     0.029 A 
ATOM     37  N   UNL A   1      41.070  31.409  32.439  1.00  0.00    -0.354 N 
ATOM     38  C   UNL A   1      41.681  28.096  29.735  1.00  0.00     0.074 A 
ATOM     39  C   UNL A   1      40.746  28.144  28.632  1.00  0.00     0.031 C 
ATOM     40  C   UNL A   1      40.096  33.274  33.198  1.00  0.00     0.029 A 
ATOM     41  C   UNL A   1      41.143  32.297  33.486  1.00  0.00     0.049 A 
ATOM     42  H   UNL A   1      41.690  30.653  32.329  1.00  0.00     0.167 HD
ATOM     43  C   UNL A   1      42.645  27.154  29.880  1.00  0.00     0.031 A 
ATOM     44  C   UNL A   1      41.944  32.307  34.569  1.00  0.00     0.031 A 
ATOM     45  C   UNL A   1      43.572  27.107  30.981  1.00  0.00     0.049 A 
ATOM     46  C   UNL A   1      42.966  31.216  34.738  1.00  0.00     0.074 A 
ATOM     47  C   UNL A   1      44.587  26.196  31.213  1.00  0.00     0.029 A 
ATOM     48  N   UNL A   1      43.596  28.009  32.033  1.00  0.00    -0.354 N 
ATOM     49  N   UNL A   1      43.231  30.204  33.947  1.00  0.00    -0.248 NA
ATOM     50  C   UNL A   1      43.799  31.269  35.949  1.00  0.00     0.031 C 
ATOM     51  C   UNL A   1      45.197  26.522  32.430  1.00  0.00     0.029 A 
ATOM     52  C   UNL A   1      44.596  27.666  32.928  1.00  0.00     0.049 A 
ATOM     53  H   UNL A   1      42.990  28.780  32.131  1.00  0.00     0.167 HD
ATOM     54  C   UNL A   1      44.276  29.514  34.550  1.00  0.00     0.074 A 
ATOM     55  C   UNL A   1      44.603  30.230  35.767  1.00  0.00     0.031 C 
ATOM     56  C   UNL A   1      44.909  28.390  34.134  1.00  0.00     0.031 A 
BRANCH  43  57
ATOM     57  C   UNL A   1      42.725  26.076  28.833  1.00  0.00    -0.014 A 
ATOM     58  C   UNL A   1      42.092  24.833  29.016  1.00  0.00     0.010 A 
ATOM     59  C   UNL A   1      43.415  26.322  27.632  1.00  0.00     0.010 A 
ATOM     60  C   UNL A   1      42.180  23.843  28.033  1.00  0.00     0.020 A 
ATOM     61  C   UNL A   1      43.485  25.343  26.636  1.00  0.00     0.020 A 
ATOM     62  C   UNL A   1      42.882  24.102  26.851  1.00  0.00     0.054 A 
BRANCH  62  63
ATOM     63  S   UNL A   1      42.969  22.806  25.585  1.00  0.00     0.124 S 
ATOM     64  O   UNL A   1      41.575  22.379  25.496  1.00  0.00    -0.237 OA
ATOM     65  O   UNL A   1      43.479  23.526  24.422  1.00  0.00    -0.237 OA
ATOM     66  O   UNL A   1      43.886  21.823  26.158  1.00  0.00    -0.744 OA
ENDBRANCH  62  63
ENDBRANCH  43  57
BRANCH  44  67
ATOM     67  C   UNL A   1      41.796  33.378  35.592  1.00  0.00    -0.014 A 
ATOM     68  C   UNL A   1      40.906  33.223  36.667  1.00  0.00     0.010 A 
ATOM     69  C   UNL A   1      42.554  34.559  35.494  1.00  0.00     0.010 A 
ATOM     70  C   UNL A   1      40.763  34.236  37.620  1.00  0.00     0.020 A 
ATOM     71  C   UNL A   1      42.433  35.564  36.458  1.00  0.00     0.020 A 
ATOM     72  C   UNL A   1      41.530  35.401  37.510  1.00  0.00     0.054 A 
BRANCH  72  73
ATOM     73  S   UNL A   1      41.367  36.681  38.784  1.00  0.00     0.124 S 
ATOM     74  O   UNL A   1      40.036  37.214  38.511  1.00  0.00    -0.237 OA
ATOM     75  O   UNL A   1      41.502  35.918  40.021  1.00  0.00    -0.237 OA
ATOM     76  O   UNL A   1      42.476  37.590  38.497  1.00  0.00    -0.744 OA
ENDBRANCH  72  73
ENDBRANCH  44  67
BRANCH  56  77
ATOM     77  C   UNL A   1      46.046  27.883  34.980  1.00  0.00    -0.014 A 
ATOM     78  C   UNL A   1      47.346  28.396  34.837  1.00  0.00     0.010 A 
ATOM     79  C   UNL A   1      45.795  26.916  35.971  1.00  0.00     0.010 A 
ATOM     80  C   UNL A   1      48.382  27.930  35.652  1.00  0.00     0.020 A 
ATOM     81  C   UNL A   1      46.822  26.465  36.803  1.00  0.00     0.020 A 
ATOM     82  C   UNL A   1      48.114  26.966  36.628  1.00  0.00     0.054 A 
BRANCH  82  83
ATOM     83  S   UNL A   1      49.465  26.408  37.703  1.00  0.00     0.124 S 
ATOM     84  O   UNL A   1      50.356  27.565  37.696  1.00  0.00    -0.237 OA
ATOM     85  O   UNL A   1      48.783  26.149  38.970  1.00  0.00    -0.237 OA
ATOM     86  O   UNL A   1      49.978  25.220  37.026  1.00  0.00    -0.744 OA
ENDBRANCH  82  83
ENDBRANCH  56  77
ENDBRANCH  30  31
ENDBRANCH  23  25
ENDBRANCH  22  23
ENDBRANCH  21  22
ENDBRANCH   1  21
TORSDOF 19
ENDMDL
