MODEL 1
REMARK VINA RESULT:      -8.8      0.000      0.000
REMARK SMILES COc1ccccc1-c1nnc(SCCC(=O)OCCOC(=O)c2ccc(-c3c4nc(c(-c5ccc(S(=O)(=O)[O-])cc5)c5ccc([nH]5)c(-c5ccc(S(=O)(=O)[O-])cc5)c5nc(c(-c6ccc(S(=O)(=O)[O-])cc6)c6ccc3[nH]6)C=C5)C=C4)cc2)o1
REMARK SMILES IDX 19 1 18 2 16 3 17 4 15 5 14 6 13 7 12 8 9 9 10 10 84 11
REMARK SMILES IDX 11 12 8 13 3 14 4 15 5 16 7 17 6 18 2 19 1 20 20 21 21 22
REMARK SMILES IDX 22 23 23 24 24 25 25 26 83 27 26 28 82 29 27 30 28 31 29 32
REMARK SMILES IDX 76 33 30 34 81 35 75 36 77 37 31 38 80 39 74 40 73 41 32 43
REMARK SMILES IDX 62 44 43 45 61 46 44 47 47 48 60 49 78 50 45 51 46 52 59 54
REMARK SMILES IDX 79 55 48 56 33 57 34 58 42 59 35 60 41 61 36 62 37 63 38 64
REMARK SMILES IDX 39 65 40 66 63 67 64 68 72 69 65 70 71 71 66 72 67 73 68 74
REMARK SMILES IDX 69 75 70 76 49 77 50 78 58 79 51 80 57 81 52 82 53 83 54 84
REMARK SMILES IDX 55 85 56 86
REMARK H PARENT 77 42 47 53
REMARK Flexibility Score: inf
ROOT
ATOM      1  C   UNL A   1      34.510  33.735  30.536  1.00  0.00     0.274 C 
ENDROOT
BRANCH   1   2
ATOM      2  O   UNL A   1      34.350  32.738  31.552  1.00  0.00    -0.462 OA
BRANCH   2   3
ATOM      3  C   UNL A   1      35.158  32.792  32.627  1.00  0.00     0.306 C 
ATOM      4  O   UNL A   1      34.793  33.065  33.761  1.00  0.00    -0.252 OA
BRANCH   3   5
ATOM      5  C   UNL A   1      36.569  32.401  32.263  1.00  0.00     0.134 C 
BRANCH   5   6
ATOM      6  C   UNL A   1      37.265  31.455  33.247  1.00  0.00     0.091 C 
BRANCH   6   7
ATOM      7  S   UNL A   1      38.703  32.144  34.118  1.00  0.00    -0.065 SA
BRANCH   7   8
ATOM      8  C   UNL A   1      39.634  30.817  34.754  1.00  0.00     0.276 A 
ATOM      9  C   UNL A   1      40.986  29.182  35.074  1.00  0.00     0.252 A 
ATOM     10  N   UNL A   1      40.312  29.328  36.193  1.00  0.00    -0.107 NA
ATOM     11  O   UNL A   1      40.581  30.070  34.096  1.00  0.00    -0.411 OA
ATOM     12  N   UNL A   1      39.444  30.380  35.985  1.00  0.00    -0.101 NA
BRANCH   9  13
ATOM     13  C   UNL A   1      42.119  28.325  34.755  1.00  0.00     0.081 A 
ATOM     14  C   UNL A   1      42.120  26.920  34.867  1.00  0.00     0.131 A 
ATOM     15  C   UNL A   1      43.324  26.219  34.645  1.00  0.00     0.047 A 
ATOM     16  C   UNL A   1      44.504  26.870  34.287  1.00  0.00     0.004 A 
ATOM     17  C   UNL A   1      43.313  28.963  34.341  1.00  0.00     0.018 A 
ATOM     18  C   UNL A   1      44.493  28.245  34.109  1.00  0.00     0.001 A 
BRANCH  14  19
ATOM     19  O   UNL A   1      41.092  26.053  35.101  1.00  0.00    -0.496 OA
ATOM     20  C   UNL A   1      41.221  24.863  35.859  1.00  0.00     0.278 C 
ENDBRANCH  14  19
ENDBRANCH   9  13
ENDBRANCH   7   8
ENDBRANCH   6   7
ENDBRANCH   5   6
ENDBRANCH   3   5
ENDBRANCH   2   3
ENDBRANCH   1   2
BRANCH   1  21
ATOM     21  C   UNL A   1      34.392  33.031  29.184  1.00  0.00     0.275 C 
BRANCH  21  22
ATOM     22  O   UNL A   1      34.442  31.622  29.357  1.00  0.00    -0.458 OA
BRANCH  22  23
ATOM     23  C   UNL A   1      34.771  30.924  28.244  1.00  0.00     0.338 C 
ATOM     24  O   UNL A   1      34.271  30.948  27.146  1.00  0.00    -0.246 OA
BRANCH  23  25
ATOM     25  C   UNL A   1      36.082  30.380  28.589  1.00  0.00     0.060 A 
ATOM     26  C   UNL A   1      36.234  29.731  29.819  1.00  0.00     0.016 A 
ATOM     27  C   UNL A   1      37.080  30.388  27.615  1.00  0.00     0.016 A 
ATOM     28  C   UNL A   1      37.443  29.116  30.101  1.00  0.00     0.010 A 
ATOM     29  C   UNL A   1      38.269  29.747  27.882  1.00  0.00     0.010 A 
ATOM     30  C   UNL A   1      38.462  29.156  29.141  1.00  0.00    -0.014 A 
BRANCH  30  31
ATOM     31  C   UNL A   1      39.831  28.766  29.487  1.00  0.00     0.031 A 
ATOM     32  C   UNL A   1      40.680  29.810  30.146  1.00  0.00     0.074 A 
ATOM     33  C   UNL A   1      40.287  27.557  29.130  1.00  0.00     0.049 A 
ATOM     34  N   UNL A   1      41.960  29.801  30.387  1.00  0.00    -0.248 NA
ATOM     35  C   UNL A   1      39.997  31.056  30.552  1.00  0.00     0.031 C 
ATOM     36  C   UNL A   1      39.492  26.507  28.487  1.00  0.00     0.029 A 
ATOM     37  N   UNL A   1      41.536  27.020  29.239  1.00  0.00    -0.354 N 
ATOM     38  C   UNL A   1      42.239  31.043  30.944  1.00  0.00     0.074 A 
ATOM     39  C   UNL A   1      41.011  31.799  30.966  1.00  0.00     0.031 C 
ATOM     40  C   UNL A   1      40.284  25.446  28.256  1.00  0.00     0.029 A 
ATOM     41  C   UNL A   1      41.638  25.764  28.693  1.00  0.00     0.049 A 
ATOM     42  H   UNL A   1      42.290  27.487  29.666  1.00  0.00     0.167 HD
ATOM     43  C   UNL A   1      43.426  31.499  31.402  1.00  0.00     0.031 A 
ATOM     44  C   UNL A   1      42.723  24.983  28.553  1.00  0.00     0.031 A 
ATOM     45  C   UNL A   1      44.622  30.706  31.356  1.00  0.00     0.049 A 
ATOM     46  C   UNL A   1      44.036  25.517  29.061  1.00  0.00     0.074 A 
ATOM     47  C   UNL A   1      45.888  31.023  31.805  1.00  0.00     0.029 A 
ATOM     48  N   UNL A   1      44.687  29.422  30.826  1.00  0.00    -0.354 N 
ATOM     49  N   UNL A   1      44.292  26.683  29.611  1.00  0.00    -0.248 NA
ATOM     50  C   UNL A   1      45.199  24.634  28.941  1.00  0.00     0.031 C 
ATOM     51  C   UNL A   1      46.729  29.946  31.505  1.00  0.00     0.029 A 
ATOM     52  C   UNL A   1      45.974  28.936  30.924  1.00  0.00     0.049 A 
ATOM     53  H   UNL A   1      43.926  28.933  30.439  1.00  0.00     0.167 HD
ATOM     54  C   UNL A   1      45.644  26.666  29.926  1.00  0.00     0.074 A 
ATOM     55  C   UNL A   1      46.144  25.365  29.520  1.00  0.00     0.031 C 
ATOM     56  C   UNL A   1      46.411  27.629  30.498  1.00  0.00     0.031 A 
BRANCH  43  57
ATOM     57  C   UNL A   1      43.470  32.897  31.957  1.00  0.00    -0.014 A 
ATOM     58  C   UNL A   1      43.416  33.132  33.344  1.00  0.00     0.010 A 
ATOM     59  C   UNL A   1      43.570  33.994  31.084  1.00  0.00     0.010 A 
ATOM     60  C   UNL A   1      43.423  34.438  33.844  1.00  0.00     0.020 A 
ATOM     61  C   UNL A   1      43.606  35.301  31.581  1.00  0.00     0.020 A 
ATOM     62  C   UNL A   1      43.518  35.515  32.958  1.00  0.00     0.054 A 
BRANCH  62  63
ATOM     63  S   UNL A   1      43.558  37.197  33.638  1.00  0.00     0.124 S 
ATOM     64  O   UNL A   1      43.742  38.004  32.434  1.00  0.00    -0.237 OA
ATOM     65  O   UNL A   1      42.250  37.314  34.277  1.00  0.00    -0.237 OA
ATOM     66  O   UNL A   1      44.696  37.174  34.552  1.00  0.00    -0.744 OA
ENDBRANCH  62  63
ENDBRANCH  43  57
BRANCH  44  67
ATOM     67  C   UNL A   1      42.602  23.640  27.925  1.00  0.00    -0.014 A 
ATOM     68  C   UNL A   1      42.213  22.528  28.693  1.00  0.00     0.010 A 
ATOM     69  C   UNL A   1      42.835  23.469  26.548  1.00  0.00     0.010 A 
ATOM     70  C   UNL A   1      42.079  21.269  28.101  1.00  0.00     0.020 A 
ATOM     71  C   UNL A   1      42.676  22.216  25.947  1.00  0.00     0.020 A 
ATOM     72  C   UNL A   1      42.310  21.120  26.730  1.00  0.00     0.054 A 
BRANCH  72  73
ATOM     73  S   UNL A   1      42.087  19.484  25.978  1.00  0.00     0.124 S 
ATOM     74  O   UNL A   1      42.561  18.598  27.036  1.00  0.00    -0.237 OA
ATOM     75  O   UNL A   1      40.649  19.450  25.719  1.00  0.00    -0.237 OA
ATOM     76  O   UNL A   1      42.927  19.541  24.783  1.00  0.00    -0.744 OA
ENDBRANCH  72  73
ENDBRANCH  44  67
BRANCH  56  77
ATOM     77  C   UNL A   1      47.853  27.286  30.738  1.00  0.00    -0.014 A 
ATOM     78  C   UNL A   1      48.268  26.708  31.949  1.00  0.00     0.010 A 
ATOM     79  C   UNL A   1      48.788  27.488  29.707  1.00  0.00     0.010 A 
ATOM     80  C   UNL A   1      49.608  26.370  32.139  1.00  0.00     0.020 A 
ATOM     81  C   UNL A   1      50.122  27.122  29.882  1.00  0.00     0.020 A 
ATOM     82  C   UNL A   1      50.525  26.578  31.104  1.00  0.00     0.054 A 
BRANCH  82  83
ATOM     83  S   UNL A   1      52.250  26.088  31.360  1.00  0.00     0.124 S 
ATOM     84  O   UNL A   1      52.105  24.731  31.880  1.00  0.00    -0.237 OA
ATOM     85  O   UNL A   1      52.814  26.189  30.016  1.00  0.00    -0.237 OA
ATOM     86  O   UNL A   1      52.751  27.072  32.316  1.00  0.00    -0.744 OA
ENDBRANCH  82  83
ENDBRANCH  56  77
ENDBRANCH  30  31
ENDBRANCH  23  25
ENDBRANCH  22  23
ENDBRANCH  21  22
ENDBRANCH   1  21
TORSDOF 19
ENDMDL
MODEL 2
REMARK VINA RESULT:      -8.8      4.101     11.291
REMARK SMILES COc1ccccc1-c1nnc(SCCC(=O)OCCOC(=O)c2ccc(-c3c4nc(c(-c5ccc(S(=O)(=O)[O-])cc5)c5ccc([nH]5)c(-c5ccc(S(=O)(=O)[O-])cc5)c5nc(c(-c6ccc(S(=O)(=O)[O-])cc6)c6ccc3[nH]6)C=C5)C=C4)cc2)o1
REMARK SMILES IDX 19 1 18 2 16 3 17 4 15 5 14 6 13 7 12 8 9 9 10 10 84 11
REMARK SMILES IDX 11 12 8 13 3 14 4 15 5 16 7 17 6 18 2 19 1 20 20 21 21 22
REMARK SMILES IDX 22 23 23 24 24 25 25 26 83 27 26 28 82 29 27 30 28 31 29 32
REMARK SMILES IDX 76 33 30 34 81 35 75 36 77 37 31 38 80 39 74 40 73 41 32 43
REMARK SMILES IDX 62 44 43 45 61 46 44 47 47 48 60 49 78 50 45 51 46 52 59 54
REMARK SMILES IDX 79 55 48 56 33 57 34 58 42 59 35 60 41 61 36 62 37 63 38 64
REMARK SMILES IDX 39 65 40 66 63 67 64 68 72 69 65 70 71 71 66 72 67 73 68 74
REMARK SMILES IDX 69 75 70 76 49 77 50 78 58 79 51 80 57 81 52 82 53 83 54 84
REMARK SMILES IDX 55 85 56 86
REMARK H PARENT 77 42 47 53
REMARK Flexibility Score: inf
ROOT
ATOM      1  C   UNL A   1      36.838  22.502  24.004  1.00  0.00     0.274 C 
ENDROOT
BRANCH   1   2
ATOM      2  O   UNL A   1      35.455  22.132  24.006  1.00  0.00    -0.462 OA
BRANCH   2   3
ATOM      3  C   UNL A   1      34.560  23.018  23.530  1.00  0.00     0.306 C 
ATOM      4  O   UNL A   1      34.792  23.841  22.656  1.00  0.00    -0.252 OA
BRANCH   3   5
ATOM      5  C   UNL A   1      33.208  22.818  24.167  1.00  0.00     0.134 C 
BRANCH   5   6
ATOM      6  C   UNL A   1      33.173  21.837  25.345  1.00  0.00     0.091 C 
BRANCH   6   7
ATOM      7  S   UNL A   1      32.834  22.572  26.971  1.00  0.00    -0.065 SA
BRANCH   7   8
ATOM      8  C   UNL A   1      31.898  24.019  26.724  1.00  0.00     0.276 A 
ATOM      9  C   UNL A   1      31.197  26.026  26.430  1.00  0.00     0.252 A 
ATOM     10  N   UNL A   1      30.127  25.265  26.474  1.00  0.00    -0.107 NA
ATOM     11  O   UNL A   1      32.362  25.308  26.623  1.00  0.00    -0.411 OA
ATOM     12  N   UNL A   1      30.579  23.975  26.663  1.00  0.00    -0.101 NA
BRANCH   9  13
ATOM     13  C   UNL A   1      31.342  27.442  26.122  1.00  0.00     0.081 A 
ATOM     14  C   UNL A   1      31.191  28.004  24.838  1.00  0.00     0.131 A 
ATOM     15  C   UNL A   1      31.482  29.372  24.654  1.00  0.00     0.047 A 
ATOM     16  C   UNL A   1      31.882  30.192  25.709  1.00  0.00     0.004 A 
ATOM     17  C   UNL A   1      31.700  28.301  27.190  1.00  0.00     0.018 A 
ATOM     18  C   UNL A   1      31.967  29.660  26.987  1.00  0.00     0.001 A 
BRANCH  14  19
ATOM     19  O   UNL A   1      30.724  27.449  23.682  1.00  0.00    -0.496 OA
ATOM     20  C   UNL A   1      31.503  26.629  22.829  1.00  0.00     0.278 C 
ENDBRANCH  14  19
ENDBRANCH   9  13
ENDBRANCH   7   8
ENDBRANCH   6   7
ENDBRANCH   5   6
ENDBRANCH   3   5
ENDBRANCH   2   3
ENDBRANCH   1   2
BRANCH   1  21
ATOM     21  C   UNL A   1      37.437  22.039  25.333  1.00  0.00     0.275 C 
BRANCH  21  22
ATOM     22  O   UNL A   1      38.012  23.140  26.023  1.00  0.00    -0.458 OA
BRANCH  22  23
ATOM     23  C   UNL A   1      39.290  22.950  26.431  1.00  0.00     0.338 C 
ATOM     24  O   UNL A   1      40.053  22.051  26.174  1.00  0.00    -0.246 OA
BRANCH  23  25
ATOM     25  C   UNL A   1      39.641  24.254  26.986  1.00  0.00     0.060 A 
ATOM     26  C   UNL A   1      40.258  25.193  26.151  1.00  0.00     0.016 A 
ATOM     27  C   UNL A   1      39.203  24.568  28.273  1.00  0.00     0.016 A 
ATOM     28  C   UNL A   1      40.489  26.468  26.640  1.00  0.00     0.010 A 
ATOM     29  C   UNL A   1      39.403  25.845  28.746  1.00  0.00     0.010 A 
ATOM     30  C   UNL A   1      40.087  26.774  27.946  1.00  0.00    -0.014 A 
BRANCH  30  31
ATOM     31  C   UNL A   1      40.544  28.003  28.600  1.00  0.00     0.031 A 
ATOM     32  C   UNL A   1      41.929  27.983  29.173  1.00  0.00     0.074 A 
ATOM     33  C   UNL A   1      39.700  29.035  28.737  1.00  0.00     0.049 A 
ATOM     34  N   UNL A   1      42.510  28.848  29.954  1.00  0.00    -0.248 NA
ATOM     35  C   UNL A   1      42.758  26.802  28.854  1.00  0.00     0.031 C 
ATOM     36  C   UNL A   1      38.341  29.098  28.193  1.00  0.00     0.029 A 
ATOM     37  N   UNL A   1      39.857  30.218  29.398  1.00  0.00    -0.354 N 
ATOM     38  C   UNL A   1      43.757  28.304  30.241  1.00  0.00     0.074 A 
ATOM     39  C   UNL A   1      43.835  27.019  29.592  1.00  0.00     0.031 C 
ATOM     40  C   UNL A   1      37.786  30.268  28.548  1.00  0.00     0.029 A 
ATOM     41  C   UNL A   1      38.733  31.007  29.376  1.00  0.00     0.049 A 
ATOM     42  H   UNL A   1      40.693  30.481  29.846  1.00  0.00     0.167 HD
ATOM     43  C   UNL A   1      44.748  28.848  30.981  1.00  0.00     0.031 A 
ATOM     44  C   UNL A   1      38.507  32.185  29.984  1.00  0.00     0.031 A 
ATOM     45  C   UNL A   1      44.620  30.133  31.610  1.00  0.00     0.049 A 
ATOM     46  C   UNL A   1      39.623  32.765  30.812  1.00  0.00     0.074 A 
ATOM     47  C   UNL A   1      45.546  30.823  32.366  1.00  0.00     0.029 A 
ATOM     48  N   UNL A   1      43.479  30.924  31.542  1.00  0.00    -0.354 N 
ATOM     49  N   UNL A   1      40.811  32.261  31.060  1.00  0.00    -0.248 NA
ATOM     50  C   UNL A   1      39.376  34.070  31.430  1.00  0.00     0.031 C 
ATOM     51  C   UNL A   1      44.948  32.013  32.793  1.00  0.00     0.029 A 
ATOM     52  C   UNL A   1      43.671  32.090  32.254  1.00  0.00     0.049 A 
ATOM     53  H   UNL A   1      42.656  30.687  31.057  1.00  0.00     0.167 HD
ATOM     54  C   UNL A   1      41.465  33.198  31.847  1.00  0.00     0.074 A 
ATOM     55  C   UNL A   1      40.544  34.308  32.015  1.00  0.00     0.031 C 
ATOM     56  C   UNL A   1      42.711  33.159  32.385  1.00  0.00     0.031 A 
BRANCH  43  57
ATOM     57  C   UNL A   1      46.012  28.049  31.152  1.00  0.00    -0.014 A 
ATOM     58  C   UNL A   1      47.016  28.055  30.165  1.00  0.00     0.010 A 
ATOM     59  C   UNL A   1      46.204  27.282  32.314  1.00  0.00     0.010 A 
ATOM     60  C   UNL A   1      48.170  27.281  30.321  1.00  0.00     0.020 A 
ATOM     61  C   UNL A   1      47.369  26.528  32.488  1.00  0.00     0.020 A 
ATOM     62  C   UNL A   1      48.339  26.521  31.483  1.00  0.00     0.054 A 
BRANCH  62  63
ATOM     63  S   UNL A   1      49.861  25.552  31.672  1.00  0.00     0.124 S 
ATOM     64  O   UNL A   1      50.108  25.108  30.302  1.00  0.00    -0.237 OA
ATOM     65  O   UNL A   1      50.805  26.537  32.192  1.00  0.00    -0.237 OA
ATOM     66  O   UNL A   1      49.484  24.497  32.610  1.00  0.00    -0.744 OA
ENDBRANCH  62  63
ENDBRANCH  43  57
BRANCH  44  67
ATOM     67  C   UNL A   1      37.200  32.872  29.820  1.00  0.00    -0.014 A 
ATOM     68  C   UNL A   1      36.200  32.744  30.801  1.00  0.00     0.010 A 
ATOM     69  C   UNL A   1      36.956  33.692  28.702  1.00  0.00     0.010 A 
ATOM     70  C   UNL A   1      34.977  33.406  30.657  1.00  0.00     0.020 A 
ATOM     71  C   UNL A   1      35.743  34.377  28.569  1.00  0.00     0.020 A 
ATOM     72  C   UNL A   1      34.756  34.220  29.543  1.00  0.00     0.054 A 
BRANCH  72  73
ATOM     73  S   UNL A   1      33.177  35.102  29.403  1.00  0.00     0.124 S 
ATOM     74  O   UNL A   1      32.647  34.991  30.759  1.00  0.00    -0.237 OA
ATOM     75  O   UNL A   1      33.598  36.440  28.995  1.00  0.00    -0.237 OA
ATOM     76  O   UNL A   1      32.452  34.346  28.383  1.00  0.00    -0.744 OA
ENDBRANCH  72  73
ENDBRANCH  44  67
BRANCH  56  77
ATOM     77  C   UNL A   1      43.142  34.363  33.172  1.00  0.00    -0.014 A 
ATOM     78  C   UNL A   1      43.719  35.475  32.536  1.00  0.00     0.010 A 
ATOM     79  C   UNL A   1      42.904  34.399  34.557  1.00  0.00     0.010 A 
ATOM     80  C   UNL A   1      44.084  36.594  33.283  1.00  0.00     0.020 A 
ATOM     81  C   UNL A   1      43.240  35.530  35.302  1.00  0.00     0.020 A 
ATOM     82  C   UNL A   1      43.842  36.615  34.660  1.00  0.00     0.054 A 
BRANCH  82  83
ATOM     83  S   UNL A   1      44.284  38.100  35.599  1.00  0.00     0.124 S 
ATOM     84  O   UNL A   1      43.716  39.160  34.773  1.00  0.00    -0.237 OA
ATOM     85  O   UNL A   1      43.621  37.877  36.881  1.00  0.00    -0.237 OA
ATOM     86  O   UNL A   1      45.744  38.058  35.643  1.00  0.00    -0.744 OA
ENDBRANCH  82  83
ENDBRANCH  56  77
ENDBRANCH  30  31
ENDBRANCH  23  25
ENDBRANCH  22  23
ENDBRANCH  21  22
ENDBRANCH   1  21
TORSDOF 19
ENDMDL
MODEL 3
REMARK VINA RESULT:      -8.6      3.950     11.633
REMARK SMILES COc1ccccc1-c1nnc(SCCC(=O)OCCOC(=O)c2ccc(-c3c4nc(c(-c5ccc(S(=O)(=O)[O-])cc5)c5ccc([nH]5)c(-c5ccc(S(=O)(=O)[O-])cc5)c5nc(c(-c6ccc(S(=O)(=O)[O-])cc6)c6ccc3[nH]6)C=C5)C=C4)cc2)o1
REMARK SMILES IDX 19 1 18 2 16 3 17 4 15 5 14 6 13 7 12 8 9 9 10 10 84 11
REMARK SMILES IDX 11 12 8 13 3 14 4 15 5 16 7 17 6 18 2 19 1 20 20 21 21 22
REMARK SMILES IDX 22 23 23 24 24 25 25 26 83 27 26 28 82 29 27 30 28 31 29 32
REMARK SMILES IDX 76 33 30 34 81 35 75 36 77 37 31 38 80 39 74 40 73 41 32 43
REMARK SMILES IDX 62 44 43 45 61 46 44 47 47 48 60 49 78 50 45 51 46 52 59 54
REMARK SMILES IDX 79 55 48 56 33 57 34 58 42 59 35 60 41 61 36 62 37 63 38 64
REMARK SMILES IDX 39 65 40 66 63 67 64 68 72 69 65 70 71 71 66 72 67 73 68 74
REMARK SMILES IDX 69 75 70 76 49 77 50 78 58 79 51 80 57 81 52 82 53 83 54 84
REMARK SMILES IDX 55 85 56 86
REMARK H PARENT 77 42 47 53
REMARK Flexibility Score: inf
ROOT
ATOM      1  C   UNL A   1      40.017  21.985  26.289  1.00  0.00     0.274 C 
ENDROOT
BRANCH   1   2
ATOM      2  O   UNL A   1      40.876  20.849  26.141  1.00  0.00    -0.462 OA
BRANCH   2   3
ATOM      3  C   UNL A   1      41.271  20.202  27.253  1.00  0.00     0.306 C 
ATOM      4  O   UNL A   1      40.680  20.230  28.323  1.00  0.00    -0.252 OA
BRANCH   3   5
ATOM      5  C   UNL A   1      42.506  19.378  26.990  1.00  0.00     0.134 C 
BRANCH   5   6
ATOM      6  C   UNL A   1      42.851  19.159  25.513  1.00  0.00     0.091 C 
BRANCH   6   7
ATOM      7  S   UNL A   1      44.375  19.959  24.933  1.00  0.00    -0.065 SA
BRANCH   7   8
ATOM      8  C   UNL A   1      44.211  21.675  25.180  1.00  0.00     0.276 A 
ATOM      9  C   UNL A   1      44.145  23.674  25.957  1.00  0.00     0.252 A 
ATOM     10  N   UNL A   1      43.775  23.755  24.699  1.00  0.00    -0.107 NA
ATOM     11  O   UNL A   1      44.401  22.373  26.347  1.00  0.00    -0.411 OA
ATOM     12  N   UNL A   1      43.818  22.469  24.201  1.00  0.00    -0.101 NA
BRANCH   9  13
ATOM     13  C   UNL A   1      44.413  24.718  26.936  1.00  0.00     0.081 A 
ATOM     14  C   UNL A   1      45.233  25.841  26.708  1.00  0.00     0.131 A 
ATOM     15  C   UNL A   1      45.510  26.713  27.783  1.00  0.00     0.047 A 
ATOM     16  C   UNL A   1      44.971  26.515  29.054  1.00  0.00     0.004 A 
ATOM     17  C   UNL A   1      43.835  24.562  28.219  1.00  0.00     0.018 A 
ATOM     18  C   UNL A   1      44.110  25.449  29.266  1.00  0.00     0.001 A 
BRANCH  14  19
ATOM     19  O   UNL A   1      45.790  26.307  25.553  1.00  0.00    -0.496 OA
ATOM     20  C   UNL A   1      45.667  27.644  25.099  1.00  0.00     0.278 C 
ENDBRANCH  14  19
ENDBRANCH   9  13
ENDBRANCH   7   8
ENDBRANCH   6   7
ENDBRANCH   5   6
ENDBRANCH   3   5
ENDBRANCH   2   3
ENDBRANCH   1   2
BRANCH   1  21
ATOM     21  C   UNL A   1      40.892  23.166  26.712  1.00  0.00     0.275 C 
BRANCH  21  22
ATOM     22  O   UNL A   1      40.110  24.349  26.804  1.00  0.00    -0.458 OA
BRANCH  22  23
ATOM     23  C   UNL A   1      40.692  25.456  26.284  1.00  0.00     0.338 C 
ATOM     24  O   UNL A   1      40.924  25.734  25.133  1.00  0.00    -0.246 OA
BRANCH  23  25
ATOM     25  C   UNL A   1      40.671  26.383  27.413  1.00  0.00     0.060 A 
ATOM     26  C   UNL A   1      39.807  26.116  28.481  1.00  0.00     0.016 A 
ATOM     27  C   UNL A   1      41.623  27.401  27.454  1.00  0.00     0.016 A 
ATOM     28  C   UNL A   1      39.865  26.928  29.602  1.00  0.00     0.010 A 
ATOM     29  C   UNL A   1      41.703  28.186  28.582  1.00  0.00     0.010 A 
ATOM     30  C   UNL A   1      40.793  27.976  29.630  1.00  0.00    -0.014 A 
BRANCH  30  31
ATOM     31  C   UNL A   1      40.713  29.018  30.657  1.00  0.00     0.031 A 
ATOM     32  C   UNL A   1      41.643  28.882  31.825  1.00  0.00     0.074 A 
ATOM     33  C   UNL A   1      39.777  29.973  30.562  1.00  0.00     0.049 A 
ATOM     34  N   UNL A   1      41.658  29.543  32.947  1.00  0.00    -0.248 NA
ATOM     35  C   UNL A   1      42.672  27.826  31.730  1.00  0.00     0.031 C 
ATOM     36  C   UNL A   1      38.851  30.143  29.440  1.00  0.00     0.029 A 
ATOM     37  N   UNL A   1      39.439  30.965  31.435  1.00  0.00    -0.354 N 
ATOM     38  C   UNL A   1      42.675  28.966  33.700  1.00  0.00     0.074 A 
ATOM     39  C   UNL A   1      43.224  27.876  32.931  1.00  0.00     0.031 C 
ATOM     40  C   UNL A   1      38.043  31.185  29.699  1.00  0.00     0.029 A 
ATOM     41  C   UNL A   1      38.370  31.717  31.017  1.00  0.00     0.049 A 
ATOM     42  H   UNL A   1      39.915  31.125  32.282  1.00  0.00     0.167 HD
ATOM     43  C   UNL A   1      43.108  29.331  34.926  1.00  0.00     0.031 A 
ATOM     44  C   UNL A   1      37.726  32.710  31.656  1.00  0.00     0.031 A 
ATOM     45  C   UNL A   1      42.525  30.424  35.652  1.00  0.00     0.049 A 
ATOM     46  C   UNL A   1      38.220  33.091  33.026  1.00  0.00     0.074 A 
ATOM     47  C   UNL A   1      42.875  30.926  36.890  1.00  0.00     0.029 A 
ATOM     48  N   UNL A   1      41.462  31.191  35.187  1.00  0.00    -0.354 N 
ATOM     49  N   UNL A   1      39.200  32.561  33.725  1.00  0.00    -0.248 NA
ATOM     50  C   UNL A   1      37.537  34.205  33.689  1.00  0.00     0.031 C 
ATOM     51  C   UNL A   1      41.993  31.969  37.192  1.00  0.00     0.029 A 
ATOM     52  C   UNL A   1      41.132  32.154  36.118  1.00  0.00     0.049 A 
ATOM     53  H   UNL A   1      41.012  31.064  34.321  1.00  0.00     0.167 HD
ATOM     54  C   UNL A   1      39.266  33.292  34.902  1.00  0.00     0.074 A 
ATOM     55  C   UNL A   1      38.238  34.313  34.810  1.00  0.00     0.031 C 
ATOM     56  C   UNL A   1      40.094  33.144  35.968  1.00  0.00     0.031 A 
BRANCH  43  57
ATOM     57  C   UNL A   1      44.230  28.535  35.537  1.00  0.00    -0.014 A 
ATOM     58  C   UNL A   1      45.576  28.863  35.289  1.00  0.00     0.010 A 
ATOM     59  C   UNL A   1      43.938  27.443  36.373  1.00  0.00     0.010 A 
ATOM     60  C   UNL A   1      46.607  28.094  35.835  1.00  0.00     0.020 A 
ATOM     61  C   UNL A   1      44.967  26.687  36.946  1.00  0.00     0.020 A 
ATOM     62  C   UNL A   1      46.296  27.009  36.660  1.00  0.00     0.054 A 
BRANCH  62  63
ATOM     63  S   UNL A   1      47.655  26.048  37.381  1.00  0.00     0.124 S 
ATOM     64  O   UNL A   1      47.231  25.923  38.773  1.00  0.00    -0.237 OA
ATOM     65  O   UNL A   1      47.622  24.814  36.602  1.00  0.00    -0.237 OA
ATOM     66  O   UNL A   1      48.828  26.890  37.161  1.00  0.00    -0.744 OA
ENDBRANCH  62  63
ENDBRANCH  43  57
BRANCH  44  67
ATOM     67  C   UNL A   1      36.579  33.396  31.006  1.00  0.00    -0.014 A 
ATOM     68  C   UNL A   1      35.440  33.742  31.755  1.00  0.00     0.010 A 
ATOM     69  C   UNL A   1      36.629  33.745  29.644  1.00  0.00     0.010 A 
ATOM     70  C   UNL A   1      34.367  34.405  31.150  1.00  0.00     0.020 A 
ATOM     71  C   UNL A   1      35.570  34.432  29.042  1.00  0.00     0.020 A 
ATOM     72  C   UNL A   1      34.439  34.748  29.797  1.00  0.00     0.054 A 
BRANCH  72  73
ATOM     73  S   UNL A   1      33.053  35.646  29.047  1.00  0.00     0.124 S 
ATOM     74  O   UNL A   1      33.738  36.723  28.338  1.00  0.00    -0.237 OA
ATOM     75  O   UNL A   1      32.434  34.626  28.205  1.00  0.00    -0.237 OA
ATOM     76  O   UNL A   1      32.254  36.063  30.198  1.00  0.00    -0.744 OA
ENDBRANCH  72  73
ENDBRANCH  44  67
BRANCH  56  77
ATOM     77  C   UNL A   1      39.931  34.130  37.089  1.00  0.00    -0.014 A 
ATOM     78  C   UNL A   1      40.523  35.402  37.026  1.00  0.00     0.010 A 
ATOM     79  C   UNL A   1      39.121  33.793  38.187  1.00  0.00     0.010 A 
ATOM     80  C   UNL A   1      40.334  36.312  38.065  1.00  0.00     0.020 A 
ATOM     81  C   UNL A   1      38.904  34.713  39.213  1.00  0.00     0.020 A 
ATOM     82  C   UNL A   1      39.525  35.962  39.151  1.00  0.00     0.054 A 
BRANCH  82  83
ATOM     83  S   UNL A   1      39.259  37.180  40.465  1.00  0.00     0.124 S 
ATOM     84  O   UNL A   1      38.458  36.422  41.422  1.00  0.00    -0.237 OA
ATOM     85  O   UNL A   1      40.620  37.493  40.892  1.00  0.00    -0.237 OA
ATOM     86  O   UNL A   1      38.557  38.270  39.790  1.00  0.00    -0.744 OA
ENDBRANCH  82  83
ENDBRANCH  56  77
ENDBRANCH  30  31
ENDBRANCH  23  25
ENDBRANCH  22  23
ENDBRANCH  21  22
ENDBRANCH   1  21
TORSDOF 19
ENDMDL
