MODEL 1
REMARK VINA RESULT:     -11.1      0.000      0.000
REMARK SMILES Nc1nc2ccccc2nc1N1CCC(C(=O)OCCOC(=O)c2ccc(-c3c4nc(c(-c5ccc(S(=O)(=O)[O-])cc5)c5ccc([nH]5)c(-c5ccc(S(=O)(=O)[O-])cc5)c5nc(c(-c6ccc(S(=O)(=O)[O-])cc6)c6ccc3[nH]6)C=C5)C=C4)cc2)CC1
REMARK SMILES IDX 20 1 19 2 18 3 16 4 17 5 15 6 12 7 13 8 85 9 14 10 84 11
REMARK SMILES IDX 11 12 2 13 3 14 4 15 10 16 5 17 9 18 6 19 8 20 7 21 1 22
REMARK SMILES IDX 21 25 22 26 23 27 24 28 25 29 83 30 26 31 82 32 27 33 28 34
REMARK SMILES IDX 29 35 76 36 30 37 81 38 75 39 77 40 31 41 80 42 74 43 73 44
REMARK SMILES IDX 32 46 62 47 43 48 61 49 44 50 47 51 60 52 78 53 45 54 46 55
REMARK SMILES IDX 59 57 79 58 48 59 33 60 34 61 42 62 35 63 41 64 36 65 37 66
REMARK SMILES IDX 38 67 39 68 40 69 63 70 64 71 72 72 65 73 71 74 66 75 67 76
REMARK SMILES IDX 68 77 69 78 70 79 49 80 50 81 58 82 51 83 57 84 52 85 53 86
REMARK SMILES IDX 54 87 55 88 56 89
REMARK H PARENT 1 23 1 24 77 45 47 56
REMARK Flexibility Score: inf
ROOT
ATOM      1  C   UNL A   1      33.344  29.586  25.965  1.00  0.00     0.275 C 
ENDROOT
BRANCH   1   2
ATOM      2  C   UNL A   1      31.892  29.157  25.741  1.00  0.00     0.274 C 
BRANCH   2   3
ATOM      3  O   UNL A   1      31.738  27.739  25.932  1.00  0.00    -0.462 OA
BRANCH   3   4
ATOM      4  C   UNL A   1      30.971  27.098  25.017  1.00  0.00     0.309 C 
ATOM      5  O   UNL A   1      30.188  27.648  24.251  1.00  0.00    -0.252 OA
BRANCH   4   6
ATOM      6  C   UNL A   1      31.168  25.599  25.017  1.00  0.00     0.103 C 
ATOM      7  N   UNL A   1      32.414  23.044  25.136  1.00  0.00    -0.353 N 
ATOM      8  C   UNL A   1      31.886  23.501  23.856  1.00  0.00     0.119 C 
ATOM      9  C   UNL A   1      31.878  23.628  26.366  1.00  0.00     0.119 C 
ATOM     10  C   UNL A   1      31.854  25.023  23.777  1.00  0.00     0.037 C 
ATOM     11  C   UNL A   1      31.896  25.153  26.281  1.00  0.00     0.037 C 
BRANCH   7  12
ATOM     12  C   UNL A   1      33.730  22.590  25.186  1.00  0.00     0.172 A 
ATOM     13  C   UNL A   1      34.038  21.245  24.845  1.00  0.00     0.167 A 
ATOM     14  N   UNL A   1      35.290  20.754  24.890  1.00  0.00    -0.226 NA
ATOM     15  C   UNL A   1      36.251  21.613  25.264  1.00  0.00     0.091 A 
ATOM     16  N   UNL A   1      34.711  23.452  25.533  1.00  0.00    -0.225 NA
ATOM     17  C   UNL A   1      37.562  21.161  25.334  1.00  0.00     0.031 A 
ATOM     18  C   UNL A   1      35.963  22.962  25.588  1.00  0.00     0.091 A 
ATOM     19  C   UNL A   1      38.599  22.003  25.731  1.00  0.00     0.002 A 
ATOM     20  C   UNL A   1      37.008  23.791  25.982  1.00  0.00     0.031 A 
ATOM     21  C   UNL A   1      38.321  23.323  26.061  1.00  0.00     0.002 A 
BRANCH  13  22
ATOM     22  N   UNL A   1      33.047  20.348  24.457  1.00  0.00    -0.381 N 
ATOM     23  H   UNL A   1      33.264  19.394  24.338  1.00  0.00     0.158 HD
ATOM     24  H   UNL A   1      32.128  20.666  24.301  1.00  0.00     0.158 HD
ENDBRANCH  13  22
ENDBRANCH   7  12
ENDBRANCH   4   6
ENDBRANCH   3   4
ENDBRANCH   2   3
ENDBRANCH   1   2
BRANCH   1  25
ATOM     25  O   UNL A   1      33.746  29.411  27.335  1.00  0.00    -0.458 OA
BRANCH  25  26
ATOM     26  C   UNL A   1      34.431  30.444  27.882  1.00  0.00     0.338 C 
ATOM     27  O   UNL A   1      33.999  31.538  28.190  1.00  0.00    -0.246 OA
BRANCH  26  28
ATOM     28  C   UNL A   1      35.806  30.008  28.168  1.00  0.00     0.060 A 
ATOM     29  C   UNL A   1      36.798  30.103  27.195  1.00  0.00     0.016 A 
ATOM     30  C   UNL A   1      36.110  29.546  29.452  1.00  0.00     0.016 A 
ATOM     31  C   UNL A   1      38.099  29.702  27.509  1.00  0.00     0.010 A 
ATOM     32  C   UNL A   1      37.411  29.159  29.768  1.00  0.00     0.010 A 
ATOM     33  C   UNL A   1      38.414  29.225  28.795  1.00  0.00    -0.014 A 
BRANCH  33  34
ATOM     34  C   UNL A   1      39.806  28.845  29.134  1.00  0.00     0.031 A 
ATOM     35  C   UNL A   1      40.703  29.796  29.875  1.00  0.00     0.074 A 
ATOM     36  C   UNL A   1      40.258  27.633  28.757  1.00  0.00     0.049 A 
ATOM     37  N   UNL A   1      41.911  29.587  30.331  1.00  0.00    -0.248 NA
ATOM     38  C   UNL A   1      40.194  31.154  30.128  1.00  0.00     0.031 C 
ATOM     39  C   UNL A   1      39.488  26.660  27.980  1.00  0.00     0.029 A 
ATOM     40  N   UNL A   1      41.458  27.008  28.983  1.00  0.00    -0.354 N 
ATOM     41  C   UNL A   1      42.299  30.776  30.937  1.00  0.00     0.074 A 
ATOM     42  C   UNL A   1      41.223  31.722  30.744  1.00  0.00     0.031 C 
ATOM     43  C   UNL A   1      40.219  25.546  27.828  1.00  0.00     0.029 A 
ATOM     44  C   UNL A   1      41.520  25.734  28.467  1.00  0.00     0.049 A 
ATOM     45  H   UNL A   1      42.204  27.430  29.467  1.00  0.00     0.167 HD
ATOM     46  C   UNL A   1      43.440  31.037  31.614  1.00  0.00     0.031 A 
ATOM     47  C   UNL A   1      42.505  24.814  28.509  1.00  0.00     0.031 A 
ATOM     48  C   UNL A   1      44.496  30.075  31.806  1.00  0.00     0.049 A 
ATOM     49  C   UNL A   1      43.761  25.127  29.274  1.00  0.00     0.074 A 
ATOM     50  C   UNL A   1      45.660  30.224  32.541  1.00  0.00     0.029 A 
ATOM     51  N   UNL A   1      44.526  28.799  31.267  1.00  0.00    -0.354 N 
ATOM     52  N   UNL A   1      44.066  26.219  29.935  1.00  0.00    -0.248 NA
ATOM     53  C   UNL A   1      44.797  24.086  29.322  1.00  0.00     0.031 C 
ATOM     54  C   UNL A   1      46.429  29.072  32.378  1.00  0.00     0.029 A 
ATOM     55  C   UNL A   1      45.706  28.165  31.618  1.00  0.00     0.049 A 
ATOM     56  H   UNL A   1      43.813  28.401  30.716  1.00  0.00     0.167 HD
ATOM     57  C   UNL A   1      45.319  25.991  30.489  1.00  0.00     0.074 A 
ATOM     58  C   UNL A   1      45.706  24.648  30.110  1.00  0.00     0.031 C 
ATOM     59  C   UNL A   1      46.082  26.825  31.238  1.00  0.00     0.031 A 
BRANCH  46  60
ATOM     60  C   UNL A   1      43.623  32.394  32.247  1.00  0.00    -0.014 A 
ATOM     61  C   UNL A   1      43.324  32.576  33.610  1.00  0.00     0.010 A 
ATOM     62  C   UNL A   1      43.903  33.521  31.453  1.00  0.00     0.010 A 
ATOM     63  C   UNL A   1      43.238  33.860  34.154  1.00  0.00     0.020 A 
ATOM     64  C   UNL A   1      43.848  34.806  32.001  1.00  0.00     0.020 A 
ATOM     65  C   UNL A   1      43.482  34.969  33.338  1.00  0.00     0.054 A 
BRANCH  65  66
ATOM     66  S   UNL A   1      43.269  36.630  34.037  1.00  0.00     0.124 S 
ATOM     67  O   UNL A   1      43.524  37.486  32.882  1.00  0.00    -0.237 OA
ATOM     68  O   UNL A   1      41.888  36.602  34.510  1.00  0.00    -0.237 OA
ATOM     69  O   UNL A   1      44.278  36.690  35.093  1.00  0.00    -0.744 OA
ENDBRANCH  65  66
ENDBRANCH  46  60
BRANCH  47  70
ATOM     70  C   UNL A   1      42.299  23.499  27.835  1.00  0.00    -0.014 A 
ATOM     71  C   UNL A   1      41.796  22.404  28.562  1.00  0.00     0.010 A 
ATOM     72  C   UNL A   1      42.686  23.307  26.498  1.00  0.00     0.010 A 
ATOM     73  C   UNL A   1      41.740  21.131  27.988  1.00  0.00     0.020 A 
ATOM     74  C   UNL A   1      42.596  22.042  25.906  1.00  0.00     0.020 A 
ATOM     75  C   UNL A   1      42.154  20.957  26.666  1.00  0.00     0.054 A 
BRANCH  75  76
ATOM     76  S   UNL A   1      42.122  19.286  25.960  1.00  0.00     0.124 S 
ATOM     77  O   UNL A   1      40.706  19.122  25.643  1.00  0.00    -0.237 OA
ATOM     78  O   UNL A   1      43.015  19.409  24.811  1.00  0.00    -0.237 OA
ATOM     79  O   UNL A   1      42.621  18.446  27.045  1.00  0.00    -0.744 OA
ENDBRANCH  75  76
ENDBRANCH  47  70
BRANCH  59  80
ATOM     80  C   UNL A   1      47.430  26.338  31.710  1.00  0.00    -0.014 A 
ATOM     81  C   UNL A   1      48.548  26.452  30.863  1.00  0.00     0.010 A 
ATOM     82  C   UNL A   1      47.554  25.627  32.917  1.00  0.00     0.010 A 
ATOM     83  C   UNL A   1      49.752  25.821  31.188  1.00  0.00     0.020 A 
ATOM     84  C   UNL A   1      48.768  25.025  33.262  1.00  0.00     0.020 A 
ATOM     85  C   UNL A   1      49.850  25.101  32.381  1.00  0.00     0.054 A 
BRANCH  85  86
ATOM     86  S   UNL A   1      51.402  24.242  32.758  1.00  0.00     0.124 S 
ATOM     87  O   UNL A   1      51.165  22.915  32.196  1.00  0.00    -0.237 OA
ATOM     88  O   UNL A   1      52.395  25.054  32.058  1.00  0.00    -0.237 OA
ATOM     89  O   UNL A   1      51.480  24.298  34.216  1.00  0.00    -0.744 OA
ENDBRANCH  85  86
ENDBRANCH  59  80
ENDBRANCH  33  34
ENDBRANCH  26  28
ENDBRANCH  25  26
ENDBRANCH   1  25
TORSDOF 16
ENDMDL
MODEL 2
REMARK VINA RESULT:     -11.0      3.478      6.297
REMARK SMILES Nc1nc2ccccc2nc1N1CCC(C(=O)OCCOC(=O)c2ccc(-c3c4nc(c(-c5ccc(S(=O)(=O)[O-])cc5)c5ccc([nH]5)c(-c5ccc(S(=O)(=O)[O-])cc5)c5nc(c(-c6ccc(S(=O)(=O)[O-])cc6)c6ccc3[nH]6)C=C5)C=C4)cc2)CC1
REMARK SMILES IDX 20 1 19 2 18 3 16 4 17 5 15 6 12 7 13 8 85 9 14 10 84 11
REMARK SMILES IDX 11 12 2 13 3 14 4 15 10 16 5 17 9 18 6 19 8 20 7 21 1 22
REMARK SMILES IDX 21 25 22 26 23 27 24 28 25 29 83 30 26 31 82 32 27 33 28 34
REMARK SMILES IDX 29 35 76 36 30 37 81 38 75 39 77 40 31 41 80 42 74 43 73 44
REMARK SMILES IDX 32 46 62 47 43 48 61 49 44 50 47 51 60 52 78 53 45 54 46 55
REMARK SMILES IDX 59 57 79 58 48 59 33 60 34 61 42 62 35 63 41 64 36 65 37 66
REMARK SMILES IDX 38 67 39 68 40 69 63 70 64 71 72 72 65 73 71 74 66 75 67 76
REMARK SMILES IDX 68 77 69 78 70 79 49 80 50 81 58 82 51 83 57 84 52 85 53 86
REMARK SMILES IDX 54 87 55 88 56 89
REMARK H PARENT 1 23 1 24 77 45 47 56
REMARK Flexibility Score: inf
ROOT
ATOM      1  C   UNL A   1      34.458  32.721  28.082  1.00  0.00     0.275 C 
ENDROOT
BRANCH   1   2
ATOM      2  C   UNL A   1      34.066  33.775  29.120  1.00  0.00     0.274 C 
BRANCH   2   3
ATOM      3  O   UNL A   1      34.361  33.321  30.454  1.00  0.00    -0.462 OA
BRANCH   3   4
ATOM      4  C   UNL A   1      34.128  34.212  31.448  1.00  0.00     0.309 C 
ATOM      5  O   UNL A   1      33.125  34.912  31.540  1.00  0.00    -0.252 OA
BRANCH   4   6
ATOM      6  C   UNL A   1      35.241  34.273  32.469  1.00  0.00     0.103 C 
ATOM      7  N   UNL A   1      37.580  33.615  33.948  1.00  0.00    -0.353 N 
ATOM      8  C   UNL A   1      36.284  33.472  34.599  1.00  0.00     0.119 C 
ATOM      9  C   UNL A   1      37.697  34.521  32.807  1.00  0.00     0.119 C 
ATOM     10  C   UNL A   1      35.173  33.227  33.583  1.00  0.00     0.037 C 
ATOM     11  C   UNL A   1      36.602  34.229  31.782  1.00  0.00     0.037 C 
BRANCH   7  12
ATOM     12  C   UNL A   1      38.458  32.533  33.976  1.00  0.00     0.172 A 
ATOM     13  C   UNL A   1      39.694  32.630  34.670  1.00  0.00     0.167 A 
ATOM     14  N   UNL A   1      40.582  31.620  34.715  1.00  0.00    -0.226 NA
ATOM     15  C   UNL A   1      40.231  30.493  34.076  1.00  0.00     0.091 A 
ATOM     16  N   UNL A   1      38.105  31.382  33.361  1.00  0.00    -0.225 NA
ATOM     17  C   UNL A   1      41.110  29.418  34.083  1.00  0.00     0.031 A 
ATOM     18  C   UNL A   1      38.994  30.373  33.396  1.00  0.00     0.091 A 
ATOM     19  C   UNL A   1      40.806  28.228  33.423  1.00  0.00     0.002 A 
ATOM     20  C   UNL A   1      38.703  29.180  32.742  1.00  0.00     0.031 A 
ATOM     21  C   UNL A   1      39.600  28.110  32.746  1.00  0.00     0.002 A 
BRANCH  13  22
ATOM     22  N   UNL A   1      40.066  33.795  35.335  1.00  0.00    -0.381 N 
ATOM     23  H   UNL A   1      39.596  34.066  36.156  1.00  0.00     0.158 HD
ATOM     24  H   UNL A   1      40.801  34.349  34.984  1.00  0.00     0.158 HD
ENDBRANCH  13  22
ENDBRANCH   7  12
ENDBRANCH   4   6
ENDBRANCH   3   4
ENDBRANCH   2   3
ENDBRANCH   1   2
BRANCH   1  25
ATOM     25  O   UNL A   1      34.149  31.389  28.534  1.00  0.00    -0.458 OA
BRANCH  25  26
ATOM     26  C   UNL A   1      34.591  30.385  27.739  1.00  0.00     0.338 C 
ATOM     27  O   UNL A   1      34.016  29.882  26.793  1.00  0.00    -0.246 OA
BRANCH  26  28
ATOM     28  C   UNL A   1      35.969  30.044  28.122  1.00  0.00     0.060 A 
ATOM     29  C   UNL A   1      36.267  29.647  29.423  1.00  0.00     0.016 A 
ATOM     30  C   UNL A   1      36.965  30.073  27.142  1.00  0.00     0.016 A 
ATOM     31  C   UNL A   1      37.583  29.307  29.745  1.00  0.00     0.010 A 
ATOM     32  C   UNL A   1      38.274  29.721  27.461  1.00  0.00     0.010 A 
ATOM     33  C   UNL A   1      38.596  29.344  28.770  1.00  0.00    -0.014 A 
BRANCH  33  34
ATOM     34  C   UNL A   1      39.980  28.937  29.108  1.00  0.00     0.031 A 
ATOM     35  C   UNL A   1      40.896  29.868  29.851  1.00  0.00     0.074 A 
ATOM     36  C   UNL A   1      40.407  27.717  28.729  1.00  0.00     0.049 A 
ATOM     37  N   UNL A   1      42.099  29.634  30.307  1.00  0.00    -0.248 NA
ATOM     38  C   UNL A   1      40.414  31.235  30.107  1.00  0.00     0.031 C 
ATOM     39  C   UNL A   1      39.618  26.760  27.950  1.00  0.00     0.029 A 
ATOM     40  N   UNL A   1      41.595  27.067  28.953  1.00  0.00    -0.354 N 
ATOM     41  C   UNL A   1      42.511  30.813  30.915  1.00  0.00     0.074 A 
ATOM     42  C   UNL A   1      41.455  31.781  30.724  1.00  0.00     0.031 C 
ATOM     43  C   UNL A   1      40.327  25.632  27.796  1.00  0.00     0.029 A 
ATOM     44  C   UNL A   1      41.631  25.793  28.435  1.00  0.00     0.049 A 
ATOM     45  H   UNL A   1      42.349  27.473  29.438  1.00  0.00     0.167 HD
ATOM     46  C   UNL A   1      43.657  31.050  31.593  1.00  0.00     0.031 A 
ATOM     47  C   UNL A   1      42.597  24.853  28.476  1.00  0.00     0.031 A 
ATOM     48  C   UNL A   1      44.694  30.066  31.783  1.00  0.00     0.049 A 
ATOM     49  C   UNL A   1      43.860  25.140  29.241  1.00  0.00     0.074 A 
ATOM     50  C   UNL A   1      45.860  30.191  32.518  1.00  0.00     0.029 A 
ATOM     51  N   UNL A   1      44.697  28.791  31.242  1.00  0.00    -0.354 N 
ATOM     52  N   UNL A   1      44.186  26.224  29.904  1.00  0.00    -0.248 NA
ATOM     53  C   UNL A   1      44.874  24.078  29.288  1.00  0.00     0.031 C 
ATOM     54  C   UNL A   1      46.605  29.023  32.353  1.00  0.00     0.029 A 
ATOM     55  C   UNL A   1      45.864  28.134  31.591  1.00  0.00     0.049 A 
ATOM     56  H   UNL A   1      43.977  28.409  30.689  1.00  0.00     0.167 HD
ATOM     57  C   UNL A   1      45.435  25.970  30.458  1.00  0.00     0.074 A 
ATOM     58  C   UNL A   1      45.794  24.620  30.076  1.00  0.00     0.031 C 
ATOM     59  C   UNL A   1      46.214  26.786  31.209  1.00  0.00     0.031 A 
BRANCH  46  60
ATOM     60  C   UNL A   1      43.867  32.402  32.228  1.00  0.00    -0.014 A 
ATOM     61  C   UNL A   1      43.492  32.610  33.569  1.00  0.00     0.010 A 
ATOM     62  C   UNL A   1      44.253  33.506  31.447  1.00  0.00     0.010 A 
ATOM     63  C   UNL A   1      43.436  33.902  34.099  1.00  0.00     0.020 A 
ATOM     64  C   UNL A   1      44.227  34.798  31.983  1.00  0.00     0.020 A 
ATOM     65  C   UNL A   1      43.786  34.990  33.294  1.00  0.00     0.054 A 
BRANCH  65  66
ATOM     66  S   UNL A   1      43.613  36.665  33.968  1.00  0.00     0.124 S 
ATOM     67  O   UNL A   1      44.000  37.497  32.833  1.00  0.00    -0.237 OA
ATOM     68  O   UNL A   1      42.201  36.716  34.337  1.00  0.00    -0.237 OA
ATOM     69  O   UNL A   1      44.542  36.679  35.096  1.00  0.00    -0.744 OA
ENDBRANCH  65  66
ENDBRANCH  46  60
BRANCH  47  70
ATOM     70  C   UNL A   1      42.365  23.544  27.799  1.00  0.00    -0.014 A 
ATOM     71  C   UNL A   1      41.727  22.496  28.489  1.00  0.00     0.010 A 
ATOM     72  C   UNL A   1      42.857  23.306  26.504  1.00  0.00     0.010 A 
ATOM     73  C   UNL A   1      41.637  21.221  27.925  1.00  0.00     0.020 A 
ATOM     74  C   UNL A   1      42.736  22.039  25.920  1.00  0.00     0.020 A 
ATOM     75  C   UNL A   1      42.155  20.998  26.647  1.00  0.00     0.054 A 
BRANCH  75  76
ATOM     76  S   UNL A   1      42.076  19.322  25.958  1.00  0.00     0.124 S 
ATOM     77  O   UNL A   1      42.929  19.443  24.780  1.00  0.00    -0.237 OA
ATOM     78  O   UNL A   1      42.613  18.506  27.043  1.00  0.00    -0.237 OA
ATOM     79  O   UNL A   1      40.654  19.131  25.683  1.00  0.00    -0.744 OA
ENDBRANCH  75  76
ENDBRANCH  47  70
BRANCH  59  80
ATOM     80  C   UNL A   1      47.551  26.272  31.680  1.00  0.00    -0.014 A 
ATOM     81  C   UNL A   1      48.659  26.310  30.812  1.00  0.00     0.010 A 
ATOM     82  C   UNL A   1      47.672  25.608  32.913  1.00  0.00     0.010 A 
ATOM     83  C   UNL A   1      49.845  25.651  31.144  1.00  0.00     0.020 A 
ATOM     84  C   UNL A   1      48.869  24.977  33.265  1.00  0.00     0.020 A 
ATOM     85  C   UNL A   1      49.938  24.977  32.364  1.00  0.00     0.054 A 
BRANCH  85  86
ATOM     86  S   UNL A   1      51.465  24.080  32.753  1.00  0.00     0.124 S 
ATOM     87  O   UNL A   1      51.138  22.719  32.338  1.00  0.00    -0.237 OA
ATOM     88  O   UNL A   1      52.458  24.768  31.931  1.00  0.00    -0.237 OA
ATOM     89  O   UNL A   1      51.620  24.273  34.193  1.00  0.00    -0.744 OA
ENDBRANCH  85  86
ENDBRANCH  59  80
ENDBRANCH  33  34
ENDBRANCH  26  28
ENDBRANCH  25  26
ENDBRANCH   1  25
TORSDOF 16
ENDMDL
MODEL 3
REMARK VINA RESULT:     -11.0      1.197      8.333
REMARK SMILES Nc1nc2ccccc2nc1N1CCC(C(=O)OCCOC(=O)c2ccc(-c3c4nc(c(-c5ccc(S(=O)(=O)[O-])cc5)c5ccc([nH]5)c(-c5ccc(S(=O)(=O)[O-])cc5)c5nc(c(-c6ccc(S(=O)(=O)[O-])cc6)c6ccc3[nH]6)C=C5)C=C4)cc2)CC1
REMARK SMILES IDX 20 1 19 2 18 3 16 4 17 5 15 6 12 7 13 8 85 9 14 10 84 11
REMARK SMILES IDX 11 12 2 13 3 14 4 15 10 16 5 17 9 18 6 19 8 20 7 21 1 22
REMARK SMILES IDX 21 25 22 26 23 27 24 28 25 29 83 30 26 31 82 32 27 33 28 34
REMARK SMILES IDX 29 35 76 36 30 37 81 38 75 39 77 40 31 41 80 42 74 43 73 44
REMARK SMILES IDX 32 46 62 47 43 48 61 49 44 50 47 51 60 52 78 53 45 54 46 55
REMARK SMILES IDX 59 57 79 58 48 59 33 60 34 61 42 62 35 63 41 64 36 65 37 66
REMARK SMILES IDX 38 67 39 68 40 69 63 70 64 71 72 72 65 73 71 74 66 75 67 76
REMARK SMILES IDX 68 77 69 78 70 79 49 80 50 81 58 82 51 83 57 84 52 85 53 86
REMARK SMILES IDX 54 87 55 88 56 89
REMARK H PARENT 1 23 1 24 77 45 47 56
REMARK Flexibility Score: inf
ROOT
ATOM      1  C   UNL A   1      32.438  29.821  27.220  1.00  0.00     0.275 C 
ENDROOT
BRANCH   1   2
ATOM      2  C   UNL A   1      32.498  30.045  25.706  1.00  0.00     0.274 C 
BRANCH   2   3
ATOM      3  O   UNL A   1      33.559  29.276  25.112  1.00  0.00    -0.462 OA
BRANCH   3   4
ATOM      4  C   UNL A   1      33.282  28.710  23.913  1.00  0.00     0.309 C 
ATOM      5  O   UNL A   1      33.277  29.307  22.842  1.00  0.00    -0.252 OA
BRANCH   4   6
ATOM      6  C   UNL A   1      32.970  27.234  24.005  1.00  0.00     0.103 C 
ATOM      7  N   UNL A   1      33.282  24.433  24.389  1.00  0.00    -0.353 N 
ATOM      8  C   UNL A   1      33.062  24.928  23.036  1.00  0.00     0.119 C 
ATOM      9  C   UNL A   1      32.853  25.258  25.518  1.00  0.00     0.119 C 
ATOM     10  C   UNL A   1      33.543  26.367  22.883  1.00  0.00     0.037 C 
ATOM     11  C   UNL A   1      33.384  26.682  25.365  1.00  0.00     0.037 C 
BRANCH   7  12
ATOM     12  C   UNL A   1      34.363  23.582  24.615  1.00  0.00     0.172 A 
ATOM     13  C   UNL A   1      34.248  22.191  24.346  1.00  0.00     0.167 A 
ATOM     14  N   UNL A   1      35.257  21.326  24.560  1.00  0.00    -0.226 NA
ATOM     15  C   UNL A   1      36.398  21.851  25.033  1.00  0.00     0.091 A 
ATOM     16  N   UNL A   1      35.527  24.102  25.064  1.00  0.00    -0.225 NA
ATOM     17  C   UNL A   1      37.472  21.006  25.279  1.00  0.00     0.031 A 
ATOM     18  C   UNL A   1      36.535  23.238  25.288  1.00  0.00     0.091 A 
ATOM     19  C   UNL A   1      38.677  21.492  25.785  1.00  0.00     0.002 A 
ATOM     20  C   UNL A   1      37.742  23.710  25.792  1.00  0.00     0.031 A 
ATOM     21  C   UNL A   1      38.811  22.849  26.047  1.00  0.00     0.002 A 
BRANCH  13  22
ATOM     22  N   UNL A   1      33.069  21.639  23.856  1.00  0.00    -0.381 N 
ATOM     23  H   UNL A   1      32.993  20.664  23.737  1.00  0.00     0.158 HD
ATOM     24  H   UNL A   1      32.309  22.222  23.629  1.00  0.00     0.158 HD
ENDBRANCH  13  22
ENDBRANCH   7  12
ENDBRANCH   4   6
ENDBRANCH   3   4
ENDBRANCH   2   3
ENDBRANCH   1   2
BRANCH   1  25
ATOM     25  O   UNL A   1      33.733  29.504  27.762  1.00  0.00    -0.458 OA
BRANCH  25  26
ATOM     26  C   UNL A   1      34.517  30.566  28.064  1.00  0.00     0.338 C 
ATOM     27  O   UNL A   1      34.173  31.724  28.204  1.00  0.00    -0.246 OA
BRANCH  26  28
ATOM     28  C   UNL A   1      35.885  30.092  28.323  1.00  0.00     0.060 A 
ATOM     29  C   UNL A   1      36.860  30.162  27.330  1.00  0.00     0.016 A 
ATOM     30  C   UNL A   1      36.202  29.621  29.600  1.00  0.00     0.016 A 
ATOM     31  C   UNL A   1      38.154  29.725  27.618  1.00  0.00     0.010 A 
ATOM     32  C   UNL A   1      37.497  29.198  29.889  1.00  0.00     0.010 A 
ATOM     33  C   UNL A   1      38.482  29.238  28.896  1.00  0.00    -0.014 A 
BRANCH  33  34
ATOM     34  C   UNL A   1      39.870  28.820  29.208  1.00  0.00     0.031 A 
ATOM     35  C   UNL A   1      40.372  27.461  28.810  1.00  0.00     0.074 A 
ATOM     36  C   UNL A   1      40.674  29.680  29.864  1.00  0.00     0.049 A 
ATOM     37  N   UNL A   1      41.582  26.976  28.921  1.00  0.00    -0.248 NA
ATOM     38  C   UNL A   1      39.400  26.521  28.226  1.00  0.00     0.031 C 
ATOM     39  C   UNL A   1      40.265  31.000  30.349  1.00  0.00     0.029 A 
ATOM     40  N   UNL A   1      41.994  29.585  30.224  1.00  0.00    -0.354 N 
ATOM     41  C   UNL A   1      41.521  25.686  28.409  1.00  0.00     0.074 A 
ATOM     42  C   UNL A   1      40.146  25.440  28.037  1.00  0.00     0.031 C 
ATOM     43  C   UNL A   1      41.323  31.606  30.908  1.00  0.00     0.029 A 
ATOM     44  C   UNL A   1      42.476  30.711  30.850  1.00  0.00     0.049 A 
ATOM     45  H   UNL A   1      42.544  28.787  30.051  1.00  0.00     0.167 HD
ATOM     46  C   UNL A   1      42.532  24.802  28.243  1.00  0.00     0.031 A 
ATOM     47  C   UNL A   1      43.708  30.999  31.318  1.00  0.00     0.031 A 
ATOM     48  C   UNL A   1      43.900  25.071  28.609  1.00  0.00     0.049 A 
ATOM     49  C   UNL A   1      44.815  30.002  31.115  1.00  0.00     0.074 A 
ATOM     50  C   UNL A   1      45.007  24.265  28.412  1.00  0.00     0.029 A 
ATOM     51  N   UNL A   1      44.349  26.219  29.243  1.00  0.00    -0.354 N 
ATOM     52  N   UNL A   1      44.763  28.829  30.529  1.00  0.00    -0.248 NA
ATOM     53  C   UNL A   1      46.149  30.368  31.611  1.00  0.00     0.031 C 
ATOM     54  C   UNL A   1      46.109  24.887  29.000  1.00  0.00     0.029 A 
ATOM     55  C   UNL A   1      45.709  26.124  29.482  1.00  0.00     0.049 A 
ATOM     56  H   UNL A   1      43.784  26.988  29.488  1.00  0.00     0.167 HD
ATOM     57  C   UNL A   1      46.057  28.324  30.573  1.00  0.00     0.074 A 
ATOM     58  C   UNL A   1      46.876  29.329  31.217  1.00  0.00     0.031 C 
ATOM     59  C   UNL A   1      46.519  27.132  30.124  1.00  0.00     0.031 A 
BRANCH  46  60
ATOM     60  C   UNL A   1      42.241  23.467  27.604  1.00  0.00    -0.014 A 
ATOM     61  C   UNL A   1      41.807  22.391  28.400  1.00  0.00     0.010 A 
ATOM     62  C   UNL A   1      42.581  23.229  26.260  1.00  0.00     0.010 A 
ATOM     63  C   UNL A   1      41.778  21.092  27.885  1.00  0.00     0.020 A 
ATOM     64  C   UNL A   1      42.525  21.935  25.732  1.00  0.00     0.020 A 
ATOM     65  C   UNL A   1      42.157  20.871  26.558  1.00  0.00     0.054 A 
BRANCH  65  66
ATOM     66  S   UNL A   1      42.208  19.167  25.937  1.00  0.00     0.124 S 
ATOM     67  O   UNL A   1      43.092  19.285  24.781  1.00  0.00    -0.237 OA
ATOM     68  O   UNL A   1      42.750  18.429  27.075  1.00  0.00    -0.237 OA
ATOM     69  O   UNL A   1      40.810  18.874  25.625  1.00  0.00    -0.744 OA
ENDBRANCH  65  66
ENDBRANCH  46  60
BRANCH  47  70
ATOM     70  C   UNL A   1      43.942  32.315  31.980  1.00  0.00    -0.014 A 
ATOM     71  C   UNL A   1      44.375  33.420  31.223  1.00  0.00     0.010 A 
ATOM     72  C   UNL A   1      43.826  32.450  33.374  1.00  0.00     0.010 A 
ATOM     73  C   UNL A   1      44.743  34.614  31.849  1.00  0.00     0.020 A 
ATOM     74  C   UNL A   1      44.158  33.656  34.002  1.00  0.00     0.020 A 
ATOM     75  C   UNL A   1      44.645  34.719  33.237  1.00  0.00     0.054 A 
BRANCH  75  76
ATOM     76  S   UNL A   1      45.180  36.260  34.031  1.00  0.00     0.124 S 
ATOM     77  O   UNL A   1      46.602  36.289  33.698  1.00  0.00    -0.237 OA
ATOM     78  O   UNL A   1      44.357  37.264  33.366  1.00  0.00    -0.237 OA
ATOM     79  O   UNL A   1      44.875  36.042  35.443  1.00  0.00    -0.744 OA
ENDBRANCH  75  76
ENDBRANCH  47  70
BRANCH  59  80
ATOM     80  C   UNL A   1      47.982  26.812  30.308  1.00  0.00    -0.014 A 
ATOM     81  C   UNL A   1      48.419  26.208  31.502  1.00  0.00     0.010 A 
ATOM     82  C   UNL A   1      48.936  27.253  29.375  1.00  0.00     0.010 A 
ATOM     83  C   UNL A   1      49.782  26.097  31.784  1.00  0.00     0.020 A 
ATOM     84  C   UNL A   1      50.302  27.111  29.637  1.00  0.00     0.020 A 
ATOM     85  C   UNL A   1      50.716  26.561  30.854  1.00  0.00     0.054 A 
BRANCH  85  86
ATOM     86  S   UNL A   1      52.480  26.461  31.262  1.00  0.00     0.124 S 
ATOM     87  O   UNL A   1      53.105  26.515  29.944  1.00  0.00    -0.237 OA
ATOM     88  O   UNL A   1      52.682  27.637  32.104  1.00  0.00    -0.237 OA
ATOM     89  O   UNL A   1      52.599  25.180  31.956  1.00  0.00    -0.744 OA
ENDBRANCH  85  86
ENDBRANCH  59  80
ENDBRANCH  33  34
ENDBRANCH  26  28
ENDBRANCH  25  26
ENDBRANCH   1  25
TORSDOF 16
ENDMDL
