MODEL 1
REMARK VINA RESULT:     -10.0      0.000      0.000
REMARK SMILES CC(C)[C@@H]1CN(C(=O)Cc2ccsc2)C[C@H]1C(=O)OCCOC(=O)c1ccc(-c2c3nc(c(-c4ccc(S(=O)(=O)[O-])cc4)c4ccc([nH]4)c(-c4ccc(S(=O)(=O)[O-])cc4)c4nc(c(-c5ccc(S(=O)(=O)[O-])cc5)c5ccc2[nH]5)C=C4)C=C3)cc1
REMARK SMILES IDX 20 1 19 2 17 3 18 4 16 5 4 6 5 7 6 8 15 9 2 10 1 11 3 12
REMARK SMILES IDX 7 13 8 14 9 15 10 16 11 17 14 18 12 19 13 20 21 21 22 22
REMARK SMILES IDX 23 23 24 24 25 25 26 26 84 27 27 28 83 29 28 30 29 31 30 32
REMARK SMILES IDX 77 33 31 34 82 35 76 36 78 37 32 38 81 39 75 40 74 41 33 43
REMARK SMILES IDX 63 44 44 45 62 46 45 47 48 48 61 49 79 50 46 51 47 52 60 54
REMARK SMILES IDX 80 55 49 56 34 57 35 58 43 59 36 60 42 61 37 62 38 63 39 64
REMARK SMILES IDX 40 65 41 66 64 67 65 68 73 69 66 70 72 71 67 72 68 73 69 74
REMARK SMILES IDX 70 75 71 76 50 77 51 78 59 79 52 80 58 81 53 82 54 83 55 84
REMARK SMILES IDX 56 85 57 86
REMARK H PARENT 78 42 48 53
REMARK Flexibility Score: inf
ROOT
ATOM      1  C   UNL A   1      32.882  29.238  25.343  1.00  0.00     0.274 C 
ENDROOT
BRANCH   1   2
ATOM      2  O   UNL A   1      33.150  28.809  23.993  1.00  0.00    -0.462 OA
BRANCH   2   3
ATOM      3  C   UNL A   1      32.123  28.191  23.355  1.00  0.00     0.311 C 
ATOM      4  O   UNL A   1      31.324  28.752  22.615  1.00  0.00    -0.252 OA
BRANCH   3   5
ATOM      5  C   UNL A   1      31.990  26.728  23.707  1.00  0.00     0.124 C 
ATOM      6  C   UNL A   1      30.741  25.972  23.206  1.00  0.00     0.027 C 
ATOM      7  C   UNL A   1      31.261  24.535  23.084  1.00  0.00     0.124 C 
ATOM      8  N   UNL A   1      32.668  24.680  22.741  1.00  0.00    -0.341 N 
ATOM      9  C   UNL A   1      33.154  26.010  23.041  1.00  0.00     0.135 C 
BRANCH   6  10
ATOM     10  C   UNL A   1      29.498  26.182  24.113  1.00  0.00    -0.012 C 
ATOM     11  C   UNL A   1      29.918  26.362  25.574  1.00  0.00     0.008 C 
ATOM     12  C   UNL A   1      28.579  27.339  23.710  1.00  0.00     0.008 C 
ENDBRANCH   6  10
BRANCH   8  13
ATOM     13  C   UNL A   1      33.537  23.711  22.289  1.00  0.00     0.227 C 
ATOM     14  O   UNL A   1      33.585  23.392  21.099  1.00  0.00    -0.275 OA
BRANCH  13  15
ATOM     15  C   UNL A   1      34.439  23.035  23.305  1.00  0.00     0.136 C 
BRANCH  15  16
ATOM     16  C   UNL A   1      33.849  21.812  23.956  1.00  0.00    -0.028 A 
ATOM     17  C   UNL A   1      32.625  21.209  23.508  1.00  0.00     0.016 A 
ATOM     18  C   UNL A   1      34.371  21.101  25.023  1.00  0.00     0.069 A 
ATOM     19  C   UNL A   1      32.267  20.106  24.250  1.00  0.00     0.065 A 
ATOM     20  S   UNL A   1      33.392  19.779  25.490  1.00  0.00    -0.152 S 
ENDBRANCH  15  16
ENDBRANCH  13  15
ENDBRANCH   8  13
ENDBRANCH   3   5
ENDBRANCH   2   3
ENDBRANCH   1   2
BRANCH   1  21
ATOM     21  C   UNL A   1      34.088  29.020  26.253  1.00  0.00     0.275 C 
BRANCH  21  22
ATOM     22  O   UNL A   1      33.781  29.403  27.604  1.00  0.00    -0.458 OA
BRANCH  22  23
ATOM     23  C   UNL A   1      34.538  30.406  28.101  1.00  0.00     0.338 C 
ATOM     24  O   UNL A   1      34.183  31.537  28.383  1.00  0.00    -0.246 OA
BRANCH  23  25
ATOM     25  C   UNL A   1      35.911  29.927  28.303  1.00  0.00     0.060 A 
ATOM     26  C   UNL A   1      36.303  29.472  29.564  1.00  0.00     0.016 A 
ATOM     27  C   UNL A   1      36.834  30.040  27.266  1.00  0.00     0.016 A 
ATOM     28  C   UNL A   1      37.637  29.157  29.805  1.00  0.00     0.010 A 
ATOM     29  C   UNL A   1      38.165  29.685  27.499  1.00  0.00     0.010 A 
ATOM     30  C   UNL A   1      38.577  29.261  28.773  1.00  0.00    -0.014 A 
BRANCH  30  31
ATOM     31  C   UNL A   1      40.006  28.955  29.025  1.00  0.00     0.031 A 
ATOM     32  C   UNL A   1      40.909  30.016  29.584  1.00  0.00     0.074 A 
ATOM     33  C   UNL A   1      40.488  27.731  28.740  1.00  0.00     0.049 A 
ATOM     34  N   UNL A   1      42.209  30.001  29.728  1.00  0.00    -0.248 NA
ATOM     35  C   UNL A   1      40.267  31.260  30.035  1.00  0.00     0.031 C 
ATOM     36  C   UNL A   1      39.696  26.602  28.249  1.00  0.00     0.029 A 
ATOM     37  N   UNL A   1      41.765  27.237  28.815  1.00  0.00    -0.354 N 
ATOM     38  C   UNL A   1      42.545  31.240  30.257  1.00  0.00     0.074 A 
ATOM     39  C   UNL A   1      41.314  31.986  30.403  1.00  0.00     0.031 C 
ATOM     40  C   UNL A   1      40.506  25.545  28.072  1.00  0.00     0.029 A 
ATOM     41  C   UNL A   1      41.876  25.940  28.377  1.00  0.00     0.049 A 
ATOM     42  H   UNL A   1      42.528  27.762  29.150  1.00  0.00     0.167 HD
ATOM     43  C   UNL A   1      43.771  31.714  30.583  1.00  0.00     0.031 A 
ATOM     44  C   UNL A   1      42.966  25.169  28.203  1.00  0.00     0.031 A 
ATOM     45  C   UNL A   1      44.991  30.965  30.433  1.00  0.00     0.049 A 
ATOM     46  C   UNL A   1      44.322  25.737  28.507  1.00  0.00     0.074 A 
ATOM     47  C   UNL A   1      46.287  31.357  30.723  1.00  0.00     0.029 A 
ATOM     48  N   UNL A   1      45.065  29.666  29.953  1.00  0.00    -0.354 N 
ATOM     49  N   UNL A   1      44.631  26.928  28.965  1.00  0.00    -0.248 NA
ATOM     50  C   UNL A   1      45.478  24.865  28.258  1.00  0.00     0.031 C 
ATOM     51  C   UNL A   1      47.147  30.307  30.386  1.00  0.00     0.029 A 
ATOM     52  C   UNL A   1      46.384  29.245  29.926  1.00  0.00     0.049 A 
ATOM     53  H   UNL A   1      44.293  29.123  29.674  1.00  0.00     0.167 HD
ATOM     54  C   UNL A   1      46.015  26.943  29.072  1.00  0.00     0.074 A 
ATOM     55  C   UNL A   1      46.484  25.641  28.642  1.00  0.00     0.031 C 
ATOM     56  C   UNL A   1      46.827  27.947  29.488  1.00  0.00     0.031 A 
BRANCH  43  57
ATOM     57  C   UNL A   1      43.850  33.128  31.090  1.00  0.00    -0.014 A 
ATOM     58  C   UNL A   1      43.833  33.410  32.467  1.00  0.00     0.010 A 
ATOM     59  C   UNL A   1      43.955  34.189  30.174  1.00  0.00     0.010 A 
ATOM     60  C   UNL A   1      43.873  34.733  32.918  1.00  0.00     0.020 A 
ATOM     61  C   UNL A   1      44.016  35.512  30.620  1.00  0.00     0.020 A 
ATOM     62  C   UNL A   1      43.954  35.777  31.990  1.00  0.00     0.054 A 
BRANCH  62  63
ATOM     63  S   UNL A   1      44.002  37.486  32.595  1.00  0.00     0.124 S 
ATOM     64  O   UNL A   1      42.938  37.479  33.597  1.00  0.00    -0.237 OA
ATOM     65  O   UNL A   1      45.359  37.606  33.121  1.00  0.00    -0.237 OA
ATOM     66  O   UNL A   1      43.728  38.282  31.401  1.00  0.00    -0.744 OA
ENDBRANCH  62  63
ENDBRANCH  43  57
BRANCH  44  67
ATOM     67  C   UNL A   1      42.811  23.786  27.680  1.00  0.00    -0.014 A 
ATOM     68  C   UNL A   1      42.603  22.711  28.561  1.00  0.00     0.010 A 
ATOM     69  C   UNL A   1      42.829  23.544  26.294  1.00  0.00     0.010 A 
ATOM     70  C   UNL A   1      42.417  21.417  28.065  1.00  0.00     0.020 A 
ATOM     71  C   UNL A   1      42.621  22.257  25.794  1.00  0.00     0.020 A 
ATOM     72  C   UNL A   1      42.424  21.200  26.683  1.00  0.00     0.054 A 
BRANCH  72  73
ATOM     73  S   UNL A   1      42.105  19.527  26.054  1.00  0.00     0.124 S 
ATOM     74  O   UNL A   1      40.660  19.552  25.849  1.00  0.00    -0.237 OA
ATOM     75  O   UNL A   1      42.916  19.481  24.840  1.00  0.00    -0.237 OA
ATOM     76  O   UNL A   1      42.571  18.664  27.137  1.00  0.00    -0.744 OA
ENDBRANCH  72  73
ENDBRANCH  44  67
BRANCH  56  77
ATOM     77  C   UNL A   1      48.303  27.664  29.520  1.00  0.00    -0.014 A 
ATOM     78  C   UNL A   1      48.883  26.975  30.599  1.00  0.00     0.010 A 
ATOM     79  C   UNL A   1      49.107  28.048  28.433  1.00  0.00     0.010 A 
ATOM     80  C   UNL A   1      50.252  26.696  30.600  1.00  0.00     0.020 A 
ATOM     81  C   UNL A   1      50.472  27.754  28.423  1.00  0.00     0.020 A 
ATOM     82  C   UNL A   1      51.039  27.090  29.514  1.00  0.00     0.054 A 
BRANCH  82  83
ATOM     83  S   UNL A   1      52.806  26.677  29.512  1.00  0.00     0.124 S 
ATOM     84  O   UNL A   1      52.942  25.936  28.261  1.00  0.00    -0.237 OA
ATOM     85  O   UNL A   1      53.445  27.990  29.538  1.00  0.00    -0.237 OA
ATOM     86  O   UNL A   1      52.975  25.885  30.728  1.00  0.00    -0.744 OA
ENDBRANCH  82  83
ENDBRANCH  56  77
ENDBRANCH  30  31
ENDBRANCH  23  25
ENDBRANCH  22  23
ENDBRANCH  21  22
ENDBRANCH   1  21
TORSDOF 18
ENDMDL
MODEL 2
REMARK VINA RESULT:      -9.9      5.276     10.899
REMARK SMILES CC(C)[C@@H]1CN(C(=O)Cc2ccsc2)C[C@H]1C(=O)OCCOC(=O)c1ccc(-c2c3nc(c(-c4ccc(S(=O)(=O)[O-])cc4)c4ccc([nH]4)c(-c4ccc(S(=O)(=O)[O-])cc4)c4nc(c(-c5ccc(S(=O)(=O)[O-])cc5)c5ccc2[nH]5)C=C4)C=C3)cc1
REMARK SMILES IDX 20 1 19 2 17 3 18 4 16 5 4 6 5 7 6 8 15 9 2 10 1 11 3 12
REMARK SMILES IDX 7 13 8 14 9 15 10 16 11 17 14 18 12 19 13 20 21 21 22 22
REMARK SMILES IDX 23 23 24 24 25 25 26 26 84 27 27 28 83 29 28 30 29 31 30 32
REMARK SMILES IDX 77 33 31 34 82 35 76 36 78 37 32 38 81 39 75 40 74 41 33 43
REMARK SMILES IDX 63 44 44 45 62 46 45 47 48 48 61 49 79 50 46 51 47 52 60 54
REMARK SMILES IDX 80 55 49 56 34 57 35 58 43 59 36 60 42 61 37 62 38 63 39 64
REMARK SMILES IDX 40 65 41 66 64 67 65 68 73 69 66 70 72 71 67 72 68 73 69 74
REMARK SMILES IDX 70 75 71 76 50 77 51 78 59 79 52 80 58 81 53 82 54 83 55 84
REMARK SMILES IDX 56 85 57 86
REMARK H PARENT 78 42 48 53
REMARK Flexibility Score: inf
ROOT
ATOM      1  C   UNL A   1      43.797  23.946  26.620  1.00  0.00     0.274 C 
ENDROOT
BRANCH   1   2
ATOM      2  O   UNL A   1      43.687  22.510  26.678  1.00  0.00    -0.462 OA
BRANCH   2   3
ATOM      3  C   UNL A   1      42.546  22.029  27.237  1.00  0.00     0.311 C 
ATOM      4  O   UNL A   1      42.269  22.103  28.428  1.00  0.00    -0.252 OA
BRANCH   3   5
ATOM      5  C   UNL A   1      41.658  21.300  26.257  1.00  0.00     0.124 C 
ATOM      6  C   UNL A   1      41.195  19.873  26.620  1.00  0.00     0.027 C 
ATOM      7  C   UNL A   1      39.856  19.770  25.880  1.00  0.00     0.124 C 
ATOM      8  N   UNL A   1      39.331  21.127  25.877  1.00  0.00    -0.341 N 
ATOM      9  C   UNL A   1      40.367  22.099  26.159  1.00  0.00     0.135 C 
BRANCH   6  10
ATOM     10  C   UNL A   1      42.253  18.786  26.288  1.00  0.00    -0.012 C 
ATOM     11  C   UNL A   1      43.310  19.337  25.326  1.00  0.00     0.008 C 
ATOM     12  C   UNL A   1      42.954  18.161  27.497  1.00  0.00     0.008 C 
ENDBRANCH   6  10
BRANCH   8  13
ATOM     13  C   UNL A   1      38.059  21.546  25.553  1.00  0.00     0.227 C 
ATOM     14  O   UNL A   1      37.143  20.742  25.364  1.00  0.00    -0.275 OA
BRANCH  13  15
ATOM     15  C   UNL A   1      37.813  23.038  25.426  1.00  0.00     0.136 C 
BRANCH  15  16
ATOM     16  C   UNL A   1      36.473  23.410  24.849  1.00  0.00    -0.028 A 
ATOM     17  C   UNL A   1      35.426  24.001  25.635  1.00  0.00     0.016 A 
ATOM     18  C   UNL A   1      36.060  23.263  23.536  1.00  0.00     0.069 A 
ATOM     19  C   UNL A   1      34.285  24.252  24.908  1.00  0.00     0.065 A 
ATOM     20  S   UNL A   1      34.452  23.784  23.276  1.00  0.00    -0.152 S 
ENDBRANCH  15  16
ENDBRANCH  13  15
ENDBRANCH   8  13
ENDBRANCH   3   5
ENDBRANCH   2   3
ENDBRANCH   1   2
BRANCH   1  21
ATOM     21  C   UNL A   1      43.117  24.513  25.376  1.00  0.00     0.275 C 
BRANCH  21  22
ATOM     22  O   UNL A   1      41.951  25.273  25.736  1.00  0.00    -0.458 OA
BRANCH  22  23
ATOM     23  C   UNL A   1      42.091  26.614  25.649  1.00  0.00     0.338 C 
ATOM     24  O   UNL A   1      42.286  27.279  24.646  1.00  0.00    -0.246 OA
BRANCH  23  25
ATOM     25  C   UNL A   1      41.937  27.207  26.983  1.00  0.00     0.060 A 
ATOM     26  C   UNL A   1      41.113  26.583  27.922  1.00  0.00     0.016 A 
ATOM     27  C   UNL A   1      42.522  28.442  27.255  1.00  0.00     0.016 A 
ATOM     28  C   UNL A   1      40.841  27.212  29.134  1.00  0.00     0.010 A 
ATOM     29  C   UNL A   1      42.281  29.053  28.487  1.00  0.00     0.010 A 
ATOM     30  C   UNL A   1      41.424  28.451  29.425  1.00  0.00    -0.014 A 
BRANCH  30  31
ATOM     31  C   UNL A   1      41.121  29.143  30.700  1.00  0.00     0.031 A 
ATOM     32  C   UNL A   1      39.978  30.115  30.769  1.00  0.00     0.074 A 
ATOM     33  C   UNL A   1      41.878  28.906  31.787  1.00  0.00     0.049 A 
ATOM     34  N   UNL A   1      39.648  30.933  31.734  1.00  0.00    -0.248 NA
ATOM     35  C   UNL A   1      39.094  30.179  29.594  1.00  0.00     0.031 C 
ATOM     36  C   UNL A   1      42.978  27.941  31.859  1.00  0.00     0.029 A 
ATOM     37  N   UNL A   1      41.843  29.468  33.038  1.00  0.00    -0.354 N 
ATOM     38  C   UNL A   1      38.538  31.631  31.275  1.00  0.00     0.074 A 
ATOM     39  C   UNL A   1      38.254  31.145  29.941  1.00  0.00     0.031 C 
ATOM     40  C   UNL A   1      43.508  27.975  33.093  1.00  0.00     0.029 A 
ATOM     41  C   UNL A   1      42.828  29.003  33.874  1.00  0.00     0.049 A 
ATOM     42  H   UNL A   1      41.175  30.139  33.309  1.00  0.00     0.167 HD
ATOM     43  C   UNL A   1      37.826  32.595  31.906  1.00  0.00     0.031 A 
ATOM     44  C   UNL A   1      43.172  29.390  35.117  1.00  0.00     0.031 A 
ATOM     45  C   UNL A   1      38.117  33.073  33.232  1.00  0.00     0.049 A 
ATOM     46  C   UNL A   1      42.412  30.507  35.773  1.00  0.00     0.074 A 
ATOM     47  C   UNL A   1      37.464  34.055  33.958  1.00  0.00     0.029 A 
ATOM     48  N   UNL A   1      39.145  32.601  34.033  1.00  0.00    -0.354 N 
ATOM     49  N   UNL A   1      41.392  31.190  35.309  1.00  0.00    -0.248 NA
ATOM     50  C   UNL A   1      42.857  30.916  37.111  1.00  0.00     0.031 C 
ATOM     51  C   UNL A   1      38.120  34.199  35.186  1.00  0.00     0.029 A 
ATOM     52  C   UNL A   1      39.156  33.279  35.240  1.00  0.00     0.049 A 
ATOM     53  H   UNL A   1      39.775  31.888  33.780  1.00  0.00     0.167 HD
ATOM     54  C   UNL A   1      41.064  32.101  36.305  1.00  0.00     0.074 A 
ATOM     55  C   UNL A   1      41.987  31.875  37.400  1.00  0.00     0.031 C 
ATOM     56  C   UNL A   1      40.087  33.041  36.313  1.00  0.00     0.031 A 
BRANCH  43  57
ATOM     57  C   UNL A   1      36.693  33.225  31.144  1.00  0.00    -0.014 A 
ATOM     58  C   UNL A   1      36.863  33.669  29.821  1.00  0.00     0.010 A 
ATOM     59  C   UNL A   1      35.436  33.363  31.758  1.00  0.00     0.010 A 
ATOM     60  C   UNL A   1      35.806  34.283  29.141  1.00  0.00     0.020 A 
ATOM     61  C   UNL A   1      34.371  33.958  31.075  1.00  0.00     0.020 A 
ATOM     62  C   UNL A   1      34.569  34.433  29.777  1.00  0.00     0.054 A 
BRANCH  62  63
ATOM     63  S   UNL A   1      33.213  35.235  28.878  1.00  0.00     0.124 S 
ATOM     64  O   UNL A   1      33.904  36.337  28.213  1.00  0.00    -0.237 OA
ATOM     65  O   UNL A   1      32.734  34.173  27.998  1.00  0.00    -0.237 OA
ATOM     66  O   UNL A   1      32.285  35.629  29.935  1.00  0.00    -0.744 OA
ENDBRANCH  62  63
ENDBRANCH  43  57
BRANCH  44  67
ATOM     67  C   UNL A   1      44.315  28.732  35.801  1.00  0.00    -0.014 A 
ATOM     68  C   UNL A   1      45.617  29.244  35.664  1.00  0.00     0.010 A 
ATOM     69  C   UNL A   1      44.101  27.612  36.627  1.00  0.00     0.010 A 
ATOM     70  C   UNL A   1      46.685  28.647  36.340  1.00  0.00     0.020 A 
ATOM     71  C   UNL A   1      45.162  27.028  37.321  1.00  0.00     0.020 A 
ATOM     72  C   UNL A   1      46.450  27.545  37.168  1.00  0.00     0.054 A 
BRANCH  72  73
ATOM     73  S   UNL A   1      47.835  26.831  38.098  1.00  0.00     0.124 S 
ATOM     74  O   UNL A   1      47.687  25.407  37.818  1.00  0.00    -0.237 OA
ATOM     75  O   UNL A   1      48.996  27.478  37.491  1.00  0.00    -0.237 OA
ATOM     76  O   UNL A   1      47.560  27.233  39.476  1.00  0.00    -0.744 OA
ENDBRANCH  72  73
ENDBRANCH  44  67
BRANCH  56  77
ATOM     77  C   UNL A   1      39.953  33.878  37.554  1.00  0.00    -0.014 A 
ATOM     78  C   UNL A   1      40.690  35.065  37.708  1.00  0.00     0.010 A 
ATOM     79  C   UNL A   1      39.041  33.495  38.553  1.00  0.00     0.010 A 
ATOM     80  C   UNL A   1      40.533  35.845  38.857  1.00  0.00     0.020 A 
ATOM     81  C   UNL A   1      38.869  34.283  39.694  1.00  0.00     0.020 A 
ATOM     82  C   UNL A   1      39.626  35.448  39.844  1.00  0.00     0.054 A 
BRANCH  82  83
ATOM     83  S   UNL A   1      39.401  36.499  41.306  1.00  0.00     0.124 S 
ATOM     84  O   UNL A   1      40.752  36.540  41.860  1.00  0.00    -0.237 OA
ATOM     85  O   UNL A   1      38.920  37.753  40.732  1.00  0.00    -0.237 OA
ATOM     86  O   UNL A   1      38.420  35.770  42.106  1.00  0.00    -0.744 OA
ENDBRANCH  82  83
ENDBRANCH  56  77
ENDBRANCH  30  31
ENDBRANCH  23  25
ENDBRANCH  22  23
ENDBRANCH  21  22
ENDBRANCH   1  21
TORSDOF 18
ENDMDL
MODEL 3
REMARK VINA RESULT:      -9.8      3.775      8.951
REMARK SMILES CC(C)[C@@H]1CN(C(=O)Cc2ccsc2)C[C@H]1C(=O)OCCOC(=O)c1ccc(-c2c3nc(c(-c4ccc(S(=O)(=O)[O-])cc4)c4ccc([nH]4)c(-c4ccc(S(=O)(=O)[O-])cc4)c4nc(c(-c5ccc(S(=O)(=O)[O-])cc5)c5ccc2[nH]5)C=C4)C=C3)cc1
REMARK SMILES IDX 20 1 19 2 17 3 18 4 16 5 4 6 5 7 6 8 15 9 2 10 1 11 3 12
REMARK SMILES IDX 7 13 8 14 9 15 10 16 11 17 14 18 12 19 13 20 21 21 22 22
REMARK SMILES IDX 23 23 24 24 25 25 26 26 84 27 27 28 83 29 28 30 29 31 30 32
REMARK SMILES IDX 77 33 31 34 82 35 76 36 78 37 32 38 81 39 75 40 74 41 33 43
REMARK SMILES IDX 63 44 44 45 62 46 45 47 48 48 61 49 79 50 46 51 47 52 60 54
REMARK SMILES IDX 80 55 49 56 34 57 35 58 43 59 36 60 42 61 37 62 38 63 39 64
REMARK SMILES IDX 40 65 41 66 64 67 65 68 73 69 66 70 72 71 67 72 68 73 69 74
REMARK SMILES IDX 70 75 71 76 50 77 51 78 59 79 52 80 58 81 53 82 54 83 55 84
REMARK SMILES IDX 56 85 57 86
REMARK H PARENT 78 42 48 53
REMARK Flexibility Score: inf
ROOT
ATOM      1  C   UNL A   1      32.523  28.461  27.422  1.00  0.00     0.274 C 
ENDROOT
BRANCH   1   2
ATOM      2  O   UNL A   1      32.739  27.543  26.332  1.00  0.00    -0.462 OA
BRANCH   2   3
ATOM      3  C   UNL A   1      31.747  26.641  26.116  1.00  0.00     0.311 C 
ATOM      4  O   UNL A   1      30.664  26.645  26.688  1.00  0.00    -0.252 OA
BRANCH   3   5
ATOM      5  C   UNL A   1      32.128  25.551  25.143  1.00  0.00     0.124 C 
ATOM      6  C   UNL A   1      33.290  25.825  24.164  1.00  0.00     0.027 C 
ATOM      7  C   UNL A   1      33.840  24.415  23.915  1.00  0.00     0.124 C 
ATOM      8  N   UNL A   1      33.597  23.699  25.157  1.00  0.00    -0.341 N 
ATOM      9  C   UNL A   1      32.609  24.371  25.974  1.00  0.00     0.135 C 
BRANCH   6  10
ATOM     10  C   UNL A   1      32.854  26.628  22.910  1.00  0.00    -0.012 C 
ATOM     11  C   UNL A   1      33.695  27.898  22.761  1.00  0.00     0.008 C 
ATOM     12  C   UNL A   1      32.882  25.851  21.591  1.00  0.00     0.008 C 
ENDBRANCH   6  10
BRANCH   8  13
ATOM     13  C   UNL A   1      34.106  22.479  25.549  1.00  0.00     0.227 C 
ATOM     14  O   UNL A   1      35.310  22.226  25.468  1.00  0.00    -0.275 OA
BRANCH  13  15
ATOM     15  C   UNL A   1      33.135  21.443  26.082  1.00  0.00     0.136 C 
BRANCH  15  16
ATOM     16  C   UNL A   1      32.886  20.279  25.160  1.00  0.00    -0.028 A 
ATOM     17  C   UNL A   1      32.523  20.447  23.780  1.00  0.00     0.016 A 
ATOM     18  C   UNL A   1      32.973  18.933  25.472  1.00  0.00     0.069 A 
ATOM     19  C   UNL A   1      32.335  19.251  23.125  1.00  0.00     0.065 A 
ATOM     20  S   UNL A   1      32.591  17.913  24.153  1.00  0.00    -0.152 S 
ENDBRANCH  15  16
ENDBRANCH  13  15
ENDBRANCH   8  13
ENDBRANCH   3   5
ENDBRANCH   2   3
ENDBRANCH   1   2
BRANCH   1  21
ATOM     21  C   UNL A   1      32.526  29.911  26.946  1.00  0.00     0.275 C 
BRANCH  21  22
ATOM     22  O   UNL A   1      33.871  30.382  26.757  1.00  0.00    -0.458 OA
BRANCH  22  23
ATOM     23  C   UNL A   1      34.287  31.304  27.654  1.00  0.00     0.338 C 
ATOM     24  O   UNL A   1      33.713  32.323  27.994  1.00  0.00    -0.246 OA
BRANCH  23  25
ATOM     25  C   UNL A   1      35.573  30.883  28.224  1.00  0.00     0.060 A 
ATOM     26  C   UNL A   1      35.641  29.708  28.976  1.00  0.00     0.016 A 
ATOM     27  C   UNL A   1      36.680  31.719  28.106  1.00  0.00     0.016 A 
ATOM     28  C   UNL A   1      36.817  29.378  29.644  1.00  0.00     0.010 A 
ATOM     29  C   UNL A   1      37.871  31.366  28.744  1.00  0.00     0.010 A 
ATOM     30  C   UNL A   1      37.940  30.205  29.532  1.00  0.00    -0.014 A 
BRANCH  30  31
ATOM     31  C   UNL A   1      39.189  29.879  30.261  1.00  0.00     0.031 A 
ATOM     32  C   UNL A   1      40.071  28.767  29.772  1.00  0.00     0.074 A 
ATOM     33  C   UNL A   1      39.519  30.574  31.365  1.00  0.00     0.049 A 
ATOM     34  N   UNL A   1      41.112  28.225  30.349  1.00  0.00    -0.248 NA
ATOM     35  C   UNL A   1      39.734  28.183  28.464  1.00  0.00     0.031 C 
ATOM     36  C   UNL A   1      38.773  31.713  31.904  1.00  0.00     0.029 A 
ATOM     37  N   UNL A   1      40.565  30.416  32.238  1.00  0.00    -0.354 N 
ATOM     38  C   UNL A   1      41.537  27.218  29.492  1.00  0.00     0.074 A 
ATOM     39  C   UNL A   1      40.638  27.219  28.358  1.00  0.00     0.031 C 
ATOM     40  C   UNL A   1      39.390  32.154  33.013  1.00  0.00     0.029 A 
ATOM     41  C   UNL A   1      40.534  31.293  33.294  1.00  0.00     0.049 A 
ATOM     42  H   UNL A   1      41.270  29.739  32.118  1.00  0.00     0.167 HD
ATOM     43  C   UNL A   1      42.580  26.366  29.643  1.00  0.00     0.031 A 
ATOM     44  C   UNL A   1      41.315  31.371  34.388  1.00  0.00     0.031 A 
ATOM     45  C   UNL A   1      43.468  26.372  30.775  1.00  0.00     0.049 A 
ATOM     46  C   UNL A   1      42.423  30.373  34.568  1.00  0.00     0.074 A 
ATOM     47  C   UNL A   1      44.548  25.544  31.030  1.00  0.00     0.029 A 
ATOM     48  N   UNL A   1      43.382  27.255  31.841  1.00  0.00    -0.354 N 
ATOM     49  N   UNL A   1      42.787  29.396  33.771  1.00  0.00    -0.248 NA
ATOM     50  C   UNL A   1      43.217  30.478  35.800  1.00  0.00     0.031 C 
ATOM     51  C   UNL A   1      45.093  25.904  32.267  1.00  0.00     0.029 A 
ATOM     52  C   UNL A   1      44.379  26.984  32.763  1.00  0.00     0.049 A 
ATOM     53  H   UNL A   1      42.711  27.970  31.929  1.00  0.00     0.167 HD
ATOM     54  C   UNL A   1      43.861  28.778  34.399  1.00  0.00     0.074 A 
ATOM     55  C   UNL A   1      44.095  29.498  35.636  1.00  0.00     0.031 C 
ATOM     56  C   UNL A   1      44.588  27.709  33.989  1.00  0.00     0.031 A 
BRANCH  43  57
ATOM     57  C   UNL A   1      42.779  25.327  28.574  1.00  0.00    -0.014 A 
ATOM     58  C   UNL A   1      42.473  23.975  28.806  1.00  0.00     0.010 A 
ATOM     59  C   UNL A   1      43.270  25.714  27.314  1.00  0.00     0.010 A 
ATOM     60  C   UNL A   1      42.697  23.019  27.810  1.00  0.00     0.020 A 
ATOM     61  C   UNL A   1      43.477  24.764  26.309  1.00  0.00     0.020 A 
ATOM     62  C   UNL A   1      43.208  23.419  26.571  1.00  0.00     0.054 A 
BRANCH  62  63
ATOM     63  S   UNL A   1      43.495  22.163  25.294  1.00  0.00     0.124 S 
ATOM     64  O   UNL A   1      44.732  21.539  25.760  1.00  0.00    -0.237 OA
ATOM     65  O   UNL A   1      42.300  21.329  25.385  1.00  0.00    -0.237 OA
ATOM     66  O   UNL A   1      43.615  22.942  24.064  1.00  0.00    -0.744 OA
ENDBRANCH  62  63
ENDBRANCH  43  57
BRANCH  44  67
ATOM     67  C   UNL A   1      41.046  32.414  35.411  1.00  0.00    -0.014 A 
ATOM     68  C   UNL A   1      41.685  33.664  35.339  1.00  0.00     0.010 A 
ATOM     69  C   UNL A   1      40.115  32.177  36.440  1.00  0.00     0.010 A 
ATOM     70  C   UNL A   1      41.400  34.658  36.280  1.00  0.00     0.020 A 
ATOM     71  C   UNL A   1      39.810  33.176  37.367  1.00  0.00     0.020 A 
ATOM     72  C   UNL A   1      40.461  34.408  37.286  1.00  0.00     0.054 A 
BRANCH  72  73
ATOM     73  S   UNL A   1      40.046  35.736  38.451  1.00  0.00     0.124 S 
ATOM     74  O   UNL A   1      41.309  35.927  39.156  1.00  0.00    -0.237 OA
ATOM     75  O   UNL A   1      39.644  36.826  37.565  1.00  0.00    -0.237 OA
ATOM     76  O   UNL A   1      38.963  35.162  39.247  1.00  0.00    -0.744 OA
ENDBRANCH  72  73
ENDBRANCH  44  67
BRANCH  56  77
ATOM     77  C   UNL A   1      45.720  27.272  34.876  1.00  0.00    -0.014 A 
ATOM     78  C   UNL A   1      46.984  27.881  34.789  1.00  0.00     0.010 A 
ATOM     79  C   UNL A   1      45.499  26.274  35.842  1.00  0.00     0.010 A 
ATOM     80  C   UNL A   1      48.017  27.481  35.641  1.00  0.00     0.020 A 
ATOM     81  C   UNL A   1      46.525  25.885  36.706  1.00  0.00     0.020 A 
ATOM     82  C   UNL A   1      47.782  26.483  36.591  1.00  0.00     0.054 A 
BRANCH  82  83
ATOM     83  S   UNL A   1      49.123  26.011  37.719  1.00  0.00     0.124 S 
ATOM     84  O   UNL A   1      48.476  25.000  38.551  1.00  0.00    -0.237 OA
ATOM     85  O   UNL A   1      50.150  25.510  36.808  1.00  0.00    -0.237 OA
ATOM     86  O   UNL A   1      49.457  27.260  38.399  1.00  0.00    -0.744 OA
ENDBRANCH  82  83
ENDBRANCH  56  77
ENDBRANCH  30  31
ENDBRANCH  23  25
ENDBRANCH  22  23
ENDBRANCH  21  22
ENDBRANCH   1  21
TORSDOF 18
ENDMDL
