MODEL 1
REMARK VINA RESULT:     -10.8      0.000      0.000
REMARK SMILES Cn1cncc1COc1c(F)cc(C(=O)OCCOC(=O)c2ccc(-c3c4nc(c(-c5ccc(S(=O)(=O)[O-])cc5)c5ccc([nH]5)c(-c5ccc(S(=O)(=O)[O-])cc5)c5nc(c(-c6ccc(S(=O)(=O)[O-])cc6)c6ccc3[nH]6)C=C5)C=C4)cc2)cc1F
REMARK SMILES IDX 17 1 16 2 14 3 15 4 13 5 9 6 10 7 83 8 11 9 12 10 82 11
REMARK SMILES IDX 84 12 8 13 7 14 6 15 1 16 2 17 3 18 4 19 5 20 18 21 19 22
REMARK SMILES IDX 20 23 21 24 22 25 23 26 81 27 24 28 80 29 25 30 26 31 27 32
REMARK SMILES IDX 74 33 28 34 79 35 73 36 75 37 29 38 78 39 72 40 71 41 30 43
REMARK SMILES IDX 60 44 41 45 59 46 42 47 45 48 58 49 76 50 43 51 44 52 57 54
REMARK SMILES IDX 77 55 46 56 31 57 32 58 40 59 33 60 39 61 34 62 35 63 36 64
REMARK SMILES IDX 37 65 38 66 61 67 62 68 70 69 63 70 69 71 64 72 65 73 66 74
REMARK SMILES IDX 67 75 68 76 47 77 48 78 56 79 49 80 55 81 50 82 51 83 52 84
REMARK SMILES IDX 53 85 54 86
REMARK H PARENT 75 42 45 53
REMARK Flexibility Score: inf
ROOT
ATOM      1  C   UNL A   1      39.047  21.601  26.084  1.00  0.00     0.275 C 
ENDROOT
BRANCH   1   2
ATOM      2  O   UNL A   1      37.798  22.266  25.820  1.00  0.00    -0.458 OA
BRANCH   2   3
ATOM      3  C   UNL A   1      36.844  21.547  25.182  1.00  0.00     0.338 C 
ATOM      4  O   UNL A   1      36.854  20.349  24.973  1.00  0.00    -0.246 OA
BRANCH   3   5
ATOM      5  C   UNL A   1      35.691  22.419  24.836  1.00  0.00     0.066 A 
ATOM      6  C   UNL A   1      33.424  23.967  24.288  1.00  0.00     0.191 A 
ATOM      7  C   UNL A   1      34.552  24.541  24.872  1.00  0.00     0.169 A 
ATOM      8  C   UNL A   1      33.433  22.609  23.992  1.00  0.00     0.169 A 
ATOM      9  F   UNL A   1      34.571  25.843  25.183  1.00  0.00    -0.203 F 
ATOM     10  C   UNL A   1      35.688  23.784  25.136  1.00  0.00     0.059 A 
ATOM     11  C   UNL A   1      34.563  21.837  24.239  1.00  0.00     0.059 A 
ATOM     12  F   UNL A   1      32.349  22.027  23.460  1.00  0.00    -0.203 F 
BRANCH   6  13
ATOM     13  O   UNL A   1      32.302  24.722  24.073  1.00  0.00    -0.481 OA
BRANCH  13  14
ATOM     14  C   UNL A   1      32.233  25.200  22.722  1.00  0.00     0.285 C 
BRANCH  14  15
ATOM     15  C   UNL A   1      32.332  26.683  22.760  1.00  0.00     0.075 A 
ATOM     16  C   UNL A   1      29.915  27.207  23.269  1.00  0.00     0.151 C 
ATOM     17  N   UNL A   1      31.285  27.547  22.974  1.00  0.00    -0.335 N 
ATOM     18  C   UNL A   1      31.764  28.820  22.846  1.00  0.00     0.199 A 
ATOM     19  N   UNL A   1      33.054  28.830  22.607  1.00  0.00    -0.245 NA
ATOM     20  C   UNL A   1      33.415  27.511  22.536  1.00  0.00     0.138 A 
ENDBRANCH  14  15
ENDBRANCH  13  14
ENDBRANCH   6  13
ENDBRANCH   3   5
ENDBRANCH   2   3
ENDBRANCH   1   2
BRANCH   1  21
ATOM     21  C   UNL A   1      40.011  22.537  26.817  1.00  0.00     0.275 C 
BRANCH  21  22
ATOM     22  O   UNL A   1      39.668  23.915  26.579  1.00  0.00    -0.458 OA
BRANCH  22  23
ATOM     23  C   UNL A   1      40.712  24.777  26.554  1.00  0.00     0.338 C 
ATOM     24  O   UNL A   1      41.646  24.785  25.770  1.00  0.00    -0.246 OA
BRANCH  23  25
ATOM     25  C   UNL A   1      40.492  25.835  27.549  1.00  0.00     0.060 A 
ATOM     26  C   UNL A   1      41.305  26.963  27.475  1.00  0.00     0.016 A 
ATOM     27  C   UNL A   1      39.587  25.687  28.598  1.00  0.00     0.016 A 
ATOM     28  C   UNL A   1      41.256  27.935  28.469  1.00  0.00     0.010 A 
ATOM     29  C   UNL A   1      39.499  26.692  29.572  1.00  0.00     0.010 A 
ATOM     30  C   UNL A   1      40.345  27.817  29.527  1.00  0.00    -0.014 A 
BRANCH  30  31
ATOM     31  C   UNL A   1      40.319  28.854  30.595  1.00  0.00     0.031 A 
ATOM     32  C   UNL A   1      41.322  28.811  31.718  1.00  0.00     0.074 A 
ATOM     33  C   UNL A   1      39.417  29.856  30.545  1.00  0.00     0.049 A 
ATOM     34  N   UNL A   1      41.381  29.543  32.800  1.00  0.00    -0.248 NA
ATOM     35  C   UNL A   1      42.393  27.806  31.613  1.00  0.00     0.031 C 
ATOM     36  C   UNL A   1      38.425  30.053  29.486  1.00  0.00     0.029 A 
ATOM     37  N   UNL A   1      39.197  30.908  31.402  1.00  0.00    -0.354 N 
ATOM     38  C   UNL A   1      42.461  29.057  33.529  1.00  0.00     0.074 A 
ATOM     39  C   UNL A   1      43.027  27.965  32.767  1.00  0.00     0.031 C 
ATOM     40  C   UNL A   1      37.729  31.172  29.736  1.00  0.00     0.029 A 
ATOM     41  C   UNL A   1      38.166  31.730  31.011  1.00  0.00     0.049 A 
ATOM     42  H   UNL A   1      39.726  31.057  32.218  1.00  0.00     0.167 HD
ATOM     43  C   UNL A   1      42.935  29.480  34.726  1.00  0.00     0.031 A 
ATOM     44  C   UNL A   1      37.607  32.793  31.623  1.00  0.00     0.031 A 
ATOM     45  C   UNL A   1      42.391  30.590  35.465  1.00  0.00     0.049 A 
ATOM     46  C   UNL A   1      38.125  33.221  32.968  1.00  0.00     0.074 A 
ATOM     47  C   UNL A   1      42.805  31.097  36.685  1.00  0.00     0.029 A 
ATOM     48  N   UNL A   1      41.325  31.372  35.049  1.00  0.00    -0.354 N 
ATOM     49  N   UNL A   1      39.115  32.717  33.665  1.00  0.00    -0.248 NA
ATOM     50  C   UNL A   1      37.443  34.350  33.614  1.00  0.00     0.031 C 
ATOM     51  C   UNL A   1      41.963  32.162  37.025  1.00  0.00     0.029 A 
ATOM     52  C   UNL A   1      41.058  32.349  35.993  1.00  0.00     0.049 A 
ATOM     53  H   UNL A   1      40.831  31.252  34.206  1.00  0.00     0.167 HD
ATOM     54  C   UNL A   1      39.182  33.476  34.827  1.00  0.00     0.074 A 
ATOM     55  C   UNL A   1      38.147  34.485  34.731  1.00  0.00     0.031 C 
ATOM     56  C   UNL A   1      40.024  33.347  35.882  1.00  0.00     0.031 A 
BRANCH  43  57
ATOM     57  C   UNL A   1      44.074  28.706  35.340  1.00  0.00    -0.014 A 
ATOM     58  C   UNL A   1      45.414  29.064  35.114  1.00  0.00     0.010 A 
ATOM     59  C   UNL A   1      43.789  27.620  36.186  1.00  0.00     0.010 A 
ATOM     60  C   UNL A   1      46.450  28.324  35.692  1.00  0.00     0.020 A 
ATOM     61  C   UNL A   1      44.821  26.893  36.788  1.00  0.00     0.020 A 
ATOM     62  C   UNL A   1      46.147  27.240  36.521  1.00  0.00     0.054 A 
BRANCH  62  63
ATOM     63  S   UNL A   1      47.508  26.303  37.271  1.00  0.00     0.124 S 
ATOM     64  O   UNL A   1      47.087  24.923  37.039  1.00  0.00    -0.237 OA
ATOM     65  O   UNL A   1      48.666  26.744  36.500  1.00  0.00    -0.237 OA
ATOM     66  O   UNL A   1      47.495  26.731  38.668  1.00  0.00    -0.744 OA
ENDBRANCH  62  63
ENDBRANCH  43  57
BRANCH  44  67
ATOM     67  C   UNL A   1      36.459  33.495  30.986  1.00  0.00    -0.014 A 
ATOM     68  C   UNL A   1      35.302  33.795  31.723  1.00  0.00     0.010 A 
ATOM     69  C   UNL A   1      36.531  33.890  29.636  1.00  0.00     0.010 A 
ATOM     70  C   UNL A   1      34.235  34.473  31.123  1.00  0.00     0.020 A 
ATOM     71  C   UNL A   1      35.481  34.593  29.041  1.00  0.00     0.020 A 
ATOM     72  C   UNL A   1      34.335  34.872  29.786  1.00  0.00     0.054 A 
BRANCH  72  73
ATOM     73  S   UNL A   1      32.972  35.813  29.045  1.00  0.00     0.124 S 
ATOM     74  O   UNL A   1      32.364  34.824  28.163  1.00  0.00    -0.237 OA
ATOM     75  O   UNL A   1      32.178  36.195  30.211  1.00  0.00    -0.237 OA
ATOM     76  O   UNL A   1      33.648  36.922  28.375  1.00  0.00    -0.744 OA
ENDBRANCH  72  73
ENDBRANCH  44  67
BRANCH  56  77
ATOM     77  C   UNL A   1      39.884  34.338  37.003  1.00  0.00    -0.014 A 
ATOM     78  C   UNL A   1      40.536  35.583  36.960  1.00  0.00     0.010 A 
ATOM     79  C   UNL A   1      39.040  34.041  38.090  1.00  0.00     0.010 A 
ATOM     80  C   UNL A   1      40.366  36.505  37.996  1.00  0.00     0.020 A 
ATOM     81  C   UNL A   1      38.850  34.971  39.116  1.00  0.00     0.020 A 
ATOM     82  C   UNL A   1      39.524  36.192  39.068  1.00  0.00     0.054 A 
BRANCH  82  83
ATOM     83  S   UNL A   1      39.278  37.425  40.376  1.00  0.00     0.124 S 
ATOM     84  O   UNL A   1      40.609  38.013  40.493  1.00  0.00    -0.237 OA
ATOM     85  O   UNL A   1      38.253  38.298  39.808  1.00  0.00    -0.237 OA
ATOM     86  O   UNL A   1      38.844  36.631  41.523  1.00  0.00    -0.744 OA
ENDBRANCH  82  83
ENDBRANCH  56  77
ENDBRANCH  30  31
ENDBRANCH  23  25
ENDBRANCH  22  23
ENDBRANCH  21  22
ENDBRANCH   1  21
TORSDOF 17
ENDMDL
MODEL 2
REMARK VINA RESULT:     -10.7      2.121      2.835
REMARK SMILES Cn1cncc1COc1c(F)cc(C(=O)OCCOC(=O)c2ccc(-c3c4nc(c(-c5ccc(S(=O)(=O)[O-])cc5)c5ccc([nH]5)c(-c5ccc(S(=O)(=O)[O-])cc5)c5nc(c(-c6ccc(S(=O)(=O)[O-])cc6)c6ccc3[nH]6)C=C5)C=C4)cc2)cc1F
REMARK SMILES IDX 17 1 16 2 14 3 15 4 13 5 9 6 10 7 83 8 11 9 12 10 82 11
REMARK SMILES IDX 84 12 8 13 7 14 6 15 1 16 2 17 3 18 4 19 5 20 18 21 19 22
REMARK SMILES IDX 20 23 21 24 22 25 23 26 81 27 24 28 80 29 25 30 26 31 27 32
REMARK SMILES IDX 74 33 28 34 79 35 73 36 75 37 29 38 78 39 72 40 71 41 30 43
REMARK SMILES IDX 60 44 41 45 59 46 42 47 45 48 58 49 76 50 43 51 44 52 57 54
REMARK SMILES IDX 77 55 46 56 31 57 32 58 40 59 33 60 39 61 34 62 35 63 36 64
REMARK SMILES IDX 37 65 38 66 61 67 62 68 70 69 63 70 69 71 64 72 65 73 66 74
REMARK SMILES IDX 67 75 68 76 47 77 48 78 56 79 49 80 55 81 50 82 51 83 52 84
REMARK SMILES IDX 53 85 54 86
REMARK H PARENT 75 42 45 53
REMARK Flexibility Score: inf
ROOT
ATOM      1  C   UNL A   1      43.047  21.366  26.358  1.00  0.00     0.275 C 
ENDROOT
BRANCH   1   2
ATOM      2  O   UNL A   1      41.783  20.855  25.898  1.00  0.00    -0.458 OA
BRANCH   2   3
ATOM      3  C   UNL A   1      40.764  20.845  26.791  1.00  0.00     0.338 C 
ATOM      4  O   UNL A   1      40.756  20.303  27.880  1.00  0.00    -0.246 OA
BRANCH   3   5
ATOM      5  C   UNL A   1      39.645  21.692  26.300  1.00  0.00     0.066 A 
ATOM      6  C   UNL A   1      37.430  23.175  25.445  1.00  0.00     0.191 A 
ATOM      7  C   UNL A   1      38.371  23.735  26.307  1.00  0.00     0.169 A 
ATOM      8  C   UNL A   1      37.598  21.861  25.024  1.00  0.00     0.169 A 
ATOM      9  F   UNL A   1      38.231  24.993  26.744  1.00  0.00    -0.203 F 
ATOM     10  C   UNL A   1      39.481  23.012  26.727  1.00  0.00     0.059 A 
ATOM     11  C   UNL A   1      38.708  21.124  25.424  1.00  0.00     0.059 A 
ATOM     12  F   UNL A   1      36.691  21.289  24.220  1.00  0.00    -0.203 F 
BRANCH   6  13
ATOM     13  O   UNL A   1      36.323  23.891  25.076  1.00  0.00    -0.481 OA
BRANCH  13  14
ATOM     14  C   UNL A   1      35.301  23.846  26.081  1.00  0.00     0.285 C 
BRANCH  14  15
ATOM     15  C   UNL A   1      34.170  23.044  25.542  1.00  0.00     0.075 A 
ATOM     16  C   UNL A   1      33.270  22.150  27.724  1.00  0.00     0.151 C 
ATOM     17  N   UNL A   1      33.306  22.280  26.289  1.00  0.00    -0.335 N 
ATOM     18  C   UNL A   1      32.471  21.632  25.424  1.00  0.00     0.199 A 
ATOM     19  N   UNL A   1      32.713  21.962  24.177  1.00  0.00    -0.245 NA
ATOM     20  C   UNL A   1      33.775  22.826  24.237  1.00  0.00     0.138 A 
ENDBRANCH  14  15
ENDBRANCH  13  14
ENDBRANCH   6  13
ENDBRANCH   3   5
ENDBRANCH   2   3
ENDBRANCH   1   2
BRANCH   1  21
ATOM     21  C   UNL A   1      43.287  22.776  25.817  1.00  0.00     0.275 C 
BRANCH  21  22
ATOM     22  O   UNL A   1      42.728  23.767  26.701  1.00  0.00    -0.458 OA
BRANCH  22  23
ATOM     23  C   UNL A   1      42.651  25.019  26.194  1.00  0.00     0.338 C 
ATOM     24  O   UNL A   1      42.792  25.357  25.031  1.00  0.00    -0.246 OA
BRANCH  23  25
ATOM     25  C   UNL A   1      42.215  25.945  27.250  1.00  0.00     0.060 A 
ATOM     26  C   UNL A   1      42.831  27.192  27.302  1.00  0.00     0.016 A 
ATOM     27  C   UNL A   1      41.303  25.568  28.233  1.00  0.00     0.016 A 
ATOM     28  C   UNL A   1      42.578  28.060  28.359  1.00  0.00     0.010 A 
ATOM     29  C   UNL A   1      41.007  26.463  29.270  1.00  0.00     0.010 A 
ATOM     30  C   UNL A   1      41.655  27.712  29.354  1.00  0.00    -0.014 A 
BRANCH  30  31
ATOM     31  C   UNL A   1      41.410  28.641  30.491  1.00  0.00     0.031 A 
ATOM     32  C   UNL A   1      42.311  28.616  31.697  1.00  0.00     0.074 A 
ATOM     33  C   UNL A   1      40.399  29.532  30.432  1.00  0.00     0.049 A 
ATOM     34  N   UNL A   1      42.188  29.252  32.833  1.00  0.00    -0.248 NA
ATOM     35  C   UNL A   1      43.503  27.754  31.618  1.00  0.00     0.031 C 
ATOM     36  C   UNL A   1      39.485  29.705  29.301  1.00  0.00     0.029 A 
ATOM     37  N   UNL A   1      39.979  30.473  31.342  1.00  0.00    -0.354 N 
ATOM     38  C   UNL A   1      43.253  28.833  33.623  1.00  0.00     0.074 A 
ATOM     39  C   UNL A   1      44.012  27.884  32.836  1.00  0.00     0.031 C 
ATOM     40  C   UNL A   1      38.638  30.711  29.569  1.00  0.00     0.029 A 
ATOM     41  C   UNL A   1      38.892  31.202  30.919  1.00  0.00     0.049 A 
ATOM     42  H   UNL A   1      40.415  30.611  32.214  1.00  0.00     0.167 HD
ATOM     43  C   UNL A   1      43.567  29.201  34.888  1.00  0.00     0.031 A 
ATOM     44  C   UNL A   1      38.157  32.135  31.554  1.00  0.00     0.031 A 
ATOM     45  C   UNL A   1      42.830  30.172  35.655  1.00  0.00     0.049 A 
ATOM     46  C   UNL A   1      38.502  32.501  32.971  1.00  0.00     0.074 A 
ATOM     47  C   UNL A   1      43.073  30.615  36.943  1.00  0.00     0.029 A 
ATOM     48  N   UNL A   1      41.715  30.860  35.200  1.00  0.00    -0.354 N 
ATOM     49  N   UNL A   1      39.482  32.056  33.718  1.00  0.00    -0.248 NA
ATOM     50  C   UNL A   1      37.633  33.484  33.634  1.00  0.00     0.031 C 
ATOM     51  C   UNL A   1      42.080  31.542  37.282  1.00  0.00     0.029 A 
ATOM     52  C   UNL A   1      41.251  31.713  36.186  1.00  0.00     0.049 A 
ATOM     53  H   UNL A   1      41.314  30.757  34.307  1.00  0.00     0.167 HD
ATOM     54  C   UNL A   1      39.356  32.713  34.936  1.00  0.00     0.074 A 
ATOM     55  C   UNL A   1      38.217  33.600  34.819  1.00  0.00     0.031 C 
ATOM     56  C   UNL A   1      40.115  32.590  36.053  1.00  0.00     0.031 A 
BRANCH  43  57
ATOM     57  C   UNL A   1      44.736  28.514  35.546  1.00  0.00    -0.014 A 
ATOM     58  C   UNL A   1      44.564  27.373  36.349  1.00  0.00     0.010 A 
ATOM     59  C   UNL A   1      46.035  29.006  35.325  1.00  0.00     0.010 A 
ATOM     60  C   UNL A   1      45.668  26.760  36.950  1.00  0.00     0.020 A 
ATOM     61  C   UNL A   1      47.144  28.381  35.903  1.00  0.00     0.020 A 
ATOM     62  C   UNL A   1      46.950  27.271  36.728  1.00  0.00     0.054 A 
BRANCH  62  63
ATOM     63  S   UNL A   1      48.367  26.451  37.508  1.00  0.00     0.124 S 
ATOM     64  O   UNL A   1      48.039  25.039  37.320  1.00  0.00    -0.237 OA
ATOM     65  O   UNL A   1      49.497  26.942  36.725  1.00  0.00    -0.237 OA
ATOM     66  O   UNL A   1      48.322  26.920  38.891  1.00  0.00    -0.744 OA
ENDBRANCH  62  63
ENDBRANCH  43  57
BRANCH  44  67
ATOM     67  C   UNL A   1      36.990  32.753  30.866  1.00  0.00    -0.014 A 
ATOM     68  C   UNL A   1      35.677  32.392  31.213  1.00  0.00     0.010 A 
ATOM     69  C   UNL A   1      37.189  33.729  29.871  1.00  0.00     0.010 A 
ATOM     70  C   UNL A   1      34.585  32.992  30.576  1.00  0.00     0.020 A 
ATOM     71  C   UNL A   1      36.102  34.352  29.254  1.00  0.00     0.020 A 
ATOM     72  C   UNL A   1      34.806  33.972  29.604  1.00  0.00     0.054 A 
BRANCH  72  73
ATOM     73  S   UNL A   1      33.378  34.790  28.840  1.00  0.00     0.124 S 
ATOM     74  O   UNL A   1      32.976  33.819  27.829  1.00  0.00    -0.237 OA
ATOM     75  O   UNL A   1      32.461  34.948  29.967  1.00  0.00    -0.237 OA
ATOM     76  O   UNL A   1      33.936  36.039  28.325  1.00  0.00    -0.744 OA
ENDBRANCH  72  73
ENDBRANCH  44  67
BRANCH  56  77
ATOM     77  C   UNL A   1      39.759  33.457  37.229  1.00  0.00    -0.014 A 
ATOM     78  C   UNL A   1      38.911  32.989  38.248  1.00  0.00     0.010 A 
ATOM     79  C   UNL A   1      40.330  34.738  37.344  1.00  0.00     0.010 A 
ATOM     80  C   UNL A   1      38.620  33.797  39.350  1.00  0.00     0.020 A 
ATOM     81  C   UNL A   1      40.059  35.539  38.457  1.00  0.00     0.020 A 
ATOM     82  C   UNL A   1      39.196  35.068  39.447  1.00  0.00     0.054 A 
BRANCH  82  83
ATOM     83  S   UNL A   1      38.845  36.078  40.912  1.00  0.00     0.124 S 
ATOM     84  O   UNL A   1      38.510  37.369  40.317  1.00  0.00    -0.237 OA
ATOM     85  O   UNL A   1      37.732  35.366  41.535  1.00  0.00    -0.237 OA
ATOM     86  O   UNL A   1      40.096  36.044  41.665  1.00  0.00    -0.744 OA
ENDBRANCH  82  83
ENDBRANCH  56  77
ENDBRANCH  30  31
ENDBRANCH  23  25
ENDBRANCH  22  23
ENDBRANCH  21  22
ENDBRANCH   1  21
TORSDOF 17
ENDMDL
MODEL 3
REMARK VINA RESULT:     -10.7      5.852      8.094
REMARK SMILES Cn1cncc1COc1c(F)cc(C(=O)OCCOC(=O)c2ccc(-c3c4nc(c(-c5ccc(S(=O)(=O)[O-])cc5)c5ccc([nH]5)c(-c5ccc(S(=O)(=O)[O-])cc5)c5nc(c(-c6ccc(S(=O)(=O)[O-])cc6)c6ccc3[nH]6)C=C5)C=C4)cc2)cc1F
REMARK SMILES IDX 17 1 16 2 14 3 15 4 13 5 9 6 10 7 83 8 11 9 12 10 82 11
REMARK SMILES IDX 84 12 8 13 7 14 6 15 1 16 2 17 3 18 4 19 5 20 18 21 19 22
REMARK SMILES IDX 20 23 21 24 22 25 23 26 81 27 24 28 80 29 25 30 26 31 27 32
REMARK SMILES IDX 74 33 28 34 79 35 73 36 75 37 29 38 78 39 72 40 71 41 30 43
REMARK SMILES IDX 60 44 41 45 59 46 42 47 45 48 58 49 76 50 43 51 44 52 57 54
REMARK SMILES IDX 77 55 46 56 31 57 32 58 40 59 33 60 39 61 34 62 35 63 36 64
REMARK SMILES IDX 37 65 38 66 61 67 62 68 70 69 63 70 69 71 64 72 65 73 66 74
REMARK SMILES IDX 67 75 68 76 47 77 48 78 56 79 49 80 55 81 50 82 51 83 52 84
REMARK SMILES IDX 53 85 54 86
REMARK H PARENT 75 42 45 53
REMARK Flexibility Score: inf
ROOT
ATOM      1  C   UNL A   1      41.721  19.168  26.523  1.00  0.00     0.275 C 
ENDROOT
BRANCH   1   2
ATOM      2  O   UNL A   1      42.440  19.157  25.276  1.00  0.00    -0.458 OA
BRANCH   2   3
ATOM      3  C   UNL A   1      43.788  19.274  25.345  1.00  0.00     0.338 C 
ATOM      4  O   UNL A   1      44.590  18.371  25.478  1.00  0.00    -0.246 OA
BRANCH   3   5
ATOM      5  C   UNL A   1      44.190  20.690  25.136  1.00  0.00     0.066 A 
ATOM      6  C   UNL A   1      44.967  23.321  24.577  1.00  0.00     0.191 A 
ATOM      7  C   UNL A   1      43.708  23.050  25.111  1.00  0.00     0.169 A 
ATOM      8  C   UNL A   1      45.830  22.264  24.311  1.00  0.00     0.169 A 
ATOM      9  F   UNL A   1      42.847  24.043  25.365  1.00  0.00    -0.203 F 
ATOM     10  C   UNL A   1      43.318  21.748  25.404  1.00  0.00     0.059 A 
ATOM     11  C   UNL A   1      45.462  20.956  24.608  1.00  0.00     0.059 A 
ATOM     12  F   UNL A   1      47.034  22.496  23.768  1.00  0.00    -0.203 F 
BRANCH   6  13
ATOM     13  O   UNL A   1      45.316  24.605  24.258  1.00  0.00    -0.481 OA
BRANCH  13  14
ATOM     14  C   UNL A   1      46.260  25.147  25.193  1.00  0.00     0.285 C 
BRANCH  14  15
ATOM     15  C   UNL A   1      46.642  26.503  24.716  1.00  0.00     0.075 A 
ATOM     16  C   UNL A   1      48.978  25.977  23.917  1.00  0.00     0.151 C 
ATOM     17  N   UNL A   1      47.861  26.849  24.184  1.00  0.00    -0.335 N 
ATOM     18  C   UNL A   1      47.847  28.195  23.955  1.00  0.00     0.199 A 
ATOM     19  N   UNL A   1      46.688  28.728  24.264  1.00  0.00    -0.245 NA
ATOM     20  C   UNL A   1      45.938  27.691  24.752  1.00  0.00     0.138 A 
ENDBRANCH  14  15
ENDBRANCH  13  14
ENDBRANCH   6  13
ENDBRANCH   3   5
ENDBRANCH   2   3
ENDBRANCH   1   2
BRANCH   1  21
ATOM     21  C   UNL A   1      40.368  19.863  26.358  1.00  0.00     0.275 C 
BRANCH  21  22
ATOM     22  O   UNL A   1      40.310  21.067  27.147  1.00  0.00    -0.458 OA
BRANCH  22  23
ATOM     23  C   UNL A   1      39.672  22.110  26.568  1.00  0.00     0.338 C 
ATOM     24  O   UNL A   1      38.761  22.064  25.759  1.00  0.00    -0.246 OA
BRANCH  23  25
ATOM     25  C   UNL A   1      40.143  23.364  27.172  1.00  0.00     0.060 A 
ATOM     26  C   UNL A   1      39.677  24.555  26.622  1.00  0.00     0.016 A 
ATOM     27  C   UNL A   1      41.101  23.383  28.183  1.00  0.00     0.016 A 
ATOM     28  C   UNL A   1      40.192  25.776  27.044  1.00  0.00     0.010 A 
ATOM     29  C   UNL A   1      41.582  24.616  28.646  1.00  0.00     0.010 A 
ATOM     30  C   UNL A   1      41.146  25.824  28.068  1.00  0.00    -0.014 A 
BRANCH  30  31
ATOM     31  C   UNL A   1      41.705  27.137  28.495  1.00  0.00     0.031 A 
ATOM     32  C   UNL A   1      43.193  27.371  28.468  1.00  0.00     0.074 A 
ATOM     33  C   UNL A   1      40.880  28.134  28.875  1.00  0.00     0.049 A 
ATOM     34  N   UNL A   1      43.876  28.392  28.916  1.00  0.00    -0.248 NA
ATOM     35  C   UNL A   1      44.021  26.312  27.866  1.00  0.00     0.031 C 
ATOM     36  C   UNL A   1      39.418  28.064  28.894  1.00  0.00     0.029 A 
ATOM     37  N   UNL A   1      41.155  29.409  29.307  1.00  0.00    -0.354 N 
ATOM     38  C   UNL A   1      45.214  28.081  28.699  1.00  0.00     0.074 A 
ATOM     39  C   UNL A   1      45.246  26.773  28.080  1.00  0.00     0.031 C 
ATOM     40  C   UNL A   1      38.925  29.251  29.281  1.00  0.00     0.029 A 
ATOM     41  C   UNL A   1      40.031  30.140  29.615  1.00  0.00     0.049 A 
ATOM     42  H   UNL A   1      42.069  29.765  29.390  1.00  0.00     0.167 HD
ATOM     43  C   UNL A   1      46.313  28.816  28.992  1.00  0.00     0.031 A 
ATOM     44  C   UNL A   1      39.901  31.374  30.142  1.00  0.00     0.031 A 
ATOM     45  C   UNL A   1      46.275  30.132  29.574  1.00  0.00     0.049 A 
ATOM     46  C   UNL A   1      41.135  32.156  30.493  1.00  0.00     0.074 A 
ATOM     47  C   UNL A   1      47.336  30.958  29.903  1.00  0.00     0.029 A 
ATOM     48  N   UNL A   1      45.117  30.820  29.902  1.00  0.00    -0.354 N 
ATOM     49  N   UNL A   1      42.393  31.823  30.327  1.00  0.00    -0.248 NA
ATOM     50  C   UNL A   1      40.935  33.472  31.115  1.00  0.00     0.031 C 
ATOM     51  C   UNL A   1      46.820  32.130  30.469  1.00  0.00     0.029 A 
ATOM     52  C   UNL A   1      45.437  32.054  30.443  1.00  0.00     0.049 A 
ATOM     53  H   UNL A   1      44.203  30.481  29.769  1.00  0.00     0.167 HD
ATOM     54  C   UNL A   1      43.133  32.894  30.812  1.00  0.00     0.074 A 
ATOM     55  C   UNL A   1      42.184  33.893  31.261  1.00  0.00     0.031 C 
ATOM     56  C   UNL A   1      44.480  33.037  30.884  1.00  0.00     0.031 A 
BRANCH  43  57
ATOM     57  C   UNL A   1      47.660  28.192  28.731  1.00  0.00    -0.014 A 
ATOM     58  C   UNL A   1      48.328  28.364  27.506  1.00  0.00     0.010 A 
ATOM     59  C   UNL A   1      48.281  27.446  29.749  1.00  0.00     0.010 A 
ATOM     60  C   UNL A   1      49.575  27.769  27.291  1.00  0.00     0.020 A 
ATOM     61  C   UNL A   1      49.539  26.870  29.548  1.00  0.00     0.020 A 
ATOM     62  C   UNL A   1      50.170  27.021  28.312  1.00  0.00     0.054 A 
BRANCH  62  63
ATOM     63  S   UNL A   1      51.794  26.269  28.014  1.00  0.00     0.124 S 
ATOM     64  O   UNL A   1      52.469  27.308  27.241  1.00  0.00    -0.237 OA
ATOM     65  O   UNL A   1      52.306  26.060  29.365  1.00  0.00    -0.237 OA
ATOM     66  O   UNL A   1      51.481  25.048  27.274  1.00  0.00    -0.744 OA
ENDBRANCH  62  63
ENDBRANCH  43  57
BRANCH  44  67
ATOM     67  C   UNL A   1      38.543  31.923  30.413  1.00  0.00    -0.014 A 
ATOM     68  C   UNL A   1      37.864  31.607  31.601  1.00  0.00     0.010 A 
ATOM     69  C   UNL A   1      37.933  32.792  29.487  1.00  0.00     0.010 A 
ATOM     70  C   UNL A   1      36.597  32.143  31.857  1.00  0.00     0.020 A 
ATOM     71  C   UNL A   1      36.682  33.353  29.753  1.00  0.00     0.020 A 
ATOM     72  C   UNL A   1      36.018  33.017  30.932  1.00  0.00     0.054 A 
BRANCH  72  73
ATOM     73  S   UNL A   1      34.407  33.760  31.315  1.00  0.00     0.124 S 
ATOM     74  O   UNL A   1      33.778  33.818  30.000  1.00  0.00    -0.237 OA
ATOM     75  O   UNL A   1      33.828  32.800  32.252  1.00  0.00    -0.237 OA
ATOM     76  O   UNL A   1      34.757  35.052  31.901  1.00  0.00    -0.744 OA
ENDBRANCH  72  73
ENDBRANCH  44  67
BRANCH  56  77
ATOM     77  C   UNL A   1      45.010  34.330  31.438  1.00  0.00    -0.014 A 
ATOM     78  C   UNL A   1      45.230  35.442  30.607  1.00  0.00     0.010 A 
ATOM     79  C   UNL A   1      45.234  34.451  32.822  1.00  0.00     0.010 A 
ATOM     80  C   UNL A   1      45.690  36.646  31.146  1.00  0.00     0.020 A 
ATOM     81  C   UNL A   1      45.672  35.661  33.368  1.00  0.00     0.020 A 
ATOM     82  C   UNL A   1      45.908  36.747  32.524  1.00  0.00     0.054 A 
BRANCH  82  83
ATOM     83  S   UNL A   1      46.456  38.335  33.209  1.00  0.00     0.124 S 
ATOM     84  O   UNL A   1      45.191  39.040  33.392  1.00  0.00    -0.237 OA
ATOM     85  O   UNL A   1      47.138  37.938  34.438  1.00  0.00    -0.237 OA
ATOM     86  O   UNL A   1      47.328  38.878  32.169  1.00  0.00    -0.744 OA
ENDBRANCH  82  83
ENDBRANCH  56  77
ENDBRANCH  30  31
ENDBRANCH  23  25
ENDBRANCH  22  23
ENDBRANCH  21  22
ENDBRANCH   1  21
TORSDOF 17
ENDMDL
