MODEL 1
REMARK VINA RESULT:     -11.4      0.000      0.000
REMARK SMILES Cc1ccnc(C(=O)c2[nH]c3cc(F)ccc3c2CC(=O)OCCOC(=O)c2ccc(-c3c4nc(c(-c5ccc(S(=O)(=O)[O-])cc5)c5ccc([nH]5)c(-c5ccc(S(=O)(=O)[O-])cc5)c5nc(c(-c6ccc(S(=O)(=O)[O-])cc6)c6ccc3[nH]6)C=C5)C=C4)cc2)c1
REMARK SMILES IDX 23 1 22 2 20 3 21 4 19 5 18 6 9 7 10 8 11 9 17 11 12 12
REMARK SMILES IDX 16 13 13 14 15 15 14 16 7 17 8 18 6 19 1 20 2 21 3 22 88 23
REMARK SMILES IDX 4 24 5 25 24 26 25 27 26 28 27 29 28 30 29 31 87 32 30 33
REMARK SMILES IDX 86 34 31 35 32 36 33 37 80 38 34 39 85 40 79 41 81 42 35 43
REMARK SMILES IDX 84 44 78 45 77 46 36 48 66 49 47 50 65 51 48 52 51 53 64 54
REMARK SMILES IDX 82 55 49 56 50 57 63 59 83 60 52 61 37 62 38 63 46 64 39 65
REMARK SMILES IDX 45 66 40 67 41 68 42 69 43 70 44 71 67 72 68 73 76 74 69 75
REMARK SMILES IDX 75 76 70 77 71 78 72 79 73 80 74 81 53 82 54 83 62 84 55 85
REMARK SMILES IDX 61 86 56 87 57 88 58 89 59 90 60 91
REMARK H PARENT 10 10 81 47 51 58
REMARK Flexibility Score: inf
ROOT
ATOM      1  C   UNL A   1      33.776  27.165  25.585  1.00  0.00     0.274 C 
ENDROOT
BRANCH   1   2
ATOM      2  O   UNL A   1      32.627  26.501  26.158  1.00  0.00    -0.462 OA
BRANCH   2   3
ATOM      3  C   UNL A   1      32.662  25.146  26.164  1.00  0.00     0.310 C 
ATOM      4  O   UNL A   1      31.849  24.444  26.763  1.00  0.00    -0.252 OA
BRANCH   3   5
ATOM      5  C   UNL A   1      33.696  24.520  25.254  1.00  0.00     0.161 C 
BRANCH   5   6
ATOM      6  C   UNL A   1      33.269  23.806  24.009  1.00  0.00     0.000 A 
ATOM      7  C   UNL A   1      32.864  24.353  22.791  1.00  0.00     0.093 A 
ATOM      8  N   UNL A   1      32.488  23.308  21.982  1.00  0.00    -0.351 N 
ATOM      9  C   UNL A   1      32.508  22.124  22.665  1.00  0.00     0.049 A 
ATOM     10  H   UNL A   1      32.236  23.400  21.034  1.00  0.00     0.167 HD
ATOM     11  C   UNL A   1      33.057  22.386  23.918  1.00  0.00     0.004 A 
ATOM     12  C   UNL A   1      32.089  20.852  22.263  1.00  0.00     0.066 A 
ATOM     13  C   UNL A   1      33.238  21.302  24.807  1.00  0.00     0.013 A 
ATOM     14  C   UNL A   1      32.263  19.812  23.171  1.00  0.00     0.125 A 
ATOM     15  C   UNL A   1      32.837  20.018  24.418  1.00  0.00     0.040 A 
ATOM     16  F   UNL A   1      31.864  18.579  22.829  1.00  0.00    -0.207 F 
BRANCH   7  17
ATOM     17  C   UNL A   1      32.833  25.705  22.247  1.00  0.00     0.227 C 
ATOM     18  O   UNL A   1      33.461  25.960  21.220  1.00  0.00    -0.285 OA
BRANCH  17  19
ATOM     19  C   UNL A   1      31.814  26.702  22.759  1.00  0.00     0.113 A 
ATOM     20  C   UNL A   1      28.175  26.867  23.842  1.00  0.00     0.044 C 
ATOM     21  C   UNL A   1      29.570  27.251  23.443  1.00  0.00    -0.047 A 
ATOM     22  C   UNL A   1      29.867  28.591  23.196  1.00  0.00     0.023 A 
ATOM     23  C   UNL A   1      30.570  26.290  23.241  1.00  0.00     0.036 A 
ATOM     24  C   UNL A   1      31.135  28.918  22.753  1.00  0.00     0.112 A 
ATOM     25  N   UNL A   1      32.105  28.011  22.523  1.00  0.00    -0.253 NA
ENDBRANCH  17  19
ENDBRANCH   7  17
ENDBRANCH   5   6
ENDBRANCH   3   5
ENDBRANCH   2   3
ENDBRANCH   1   2
BRANCH   1  26
ATOM     26  C   UNL A   1      33.922  28.608  26.095  1.00  0.00     0.275 C 
BRANCH  26  27
ATOM     27  O   UNL A   1      34.200  28.685  27.512  1.00  0.00    -0.458 OA
BRANCH  27  28
ATOM     28  C   UNL A   1      34.685  29.882  27.892  1.00  0.00     0.338 C 
ATOM     29  O   UNL A   1      34.049  30.929  27.967  1.00  0.00    -0.246 OA
BRANCH  28  30
ATOM     30  C   UNL A   1      36.065  29.850  28.365  1.00  0.00     0.060 A 
ATOM     31  C   UNL A   1      37.061  30.036  27.408  1.00  0.00     0.016 A 
ATOM     32  C   UNL A   1      36.377  29.360  29.634  1.00  0.00     0.016 A 
ATOM     33  C   UNL A   1      38.364  29.649  27.683  1.00  0.00     0.010 A 
ATOM     34  C   UNL A   1      37.708  29.049  29.937  1.00  0.00     0.010 A 
ATOM     35  C   UNL A   1      38.705  29.162  28.953  1.00  0.00    -0.014 A 
BRANCH  35  36
ATOM     36  C   UNL A   1      40.127  28.841  29.217  1.00  0.00     0.031 A 
ATOM     37  C   UNL A   1      40.713  27.505  28.855  1.00  0.00     0.074 A 
ATOM     38  C   UNL A   1      40.917  29.820  29.699  1.00  0.00     0.049 A 
ATOM     39  N   UNL A   1      41.961  27.114  28.917  1.00  0.00    -0.248 NA
ATOM     40  C   UNL A   1      39.789  26.481  28.346  1.00  0.00     0.031 C 
ATOM     41  C   UNL A   1      40.461  31.169  30.054  1.00  0.00     0.029 A 
ATOM     42  N   UNL A   1      42.263  29.850  29.939  1.00  0.00    -0.354 N 
ATOM     43  C   UNL A   1      41.978  25.809  28.439  1.00  0.00     0.074 A 
ATOM     44  C   UNL A   1      40.610  25.463  28.116  1.00  0.00     0.031 C 
ATOM     45  C   UNL A   1      41.518  31.904  30.427  1.00  0.00     0.029 A 
ATOM     46  C   UNL A   1      42.710  31.067  30.391  1.00  0.00     0.049 A 
ATOM     47  H   UNL A   1      42.854  29.074  29.801  1.00  0.00     0.167 HD
ATOM     48  C   UNL A   1      43.039  24.980  28.281  1.00  0.00     0.031 A 
ATOM     49  C   UNL A   1      43.941  31.463  30.759  1.00  0.00     0.031 A 
ATOM     50  C   UNL A   1      44.390  25.311  28.651  1.00  0.00     0.049 A 
ATOM     51  C   UNL A   1      45.075  30.488  30.673  1.00  0.00     0.074 A 
ATOM     52  C   UNL A   1      45.527  24.524  28.560  1.00  0.00     0.029 A 
ATOM     53  N   UNL A   1      44.787  26.520  29.201  1.00  0.00    -0.354 N 
ATOM     54  N   UNL A   1      45.068  29.259  30.215  1.00  0.00    -0.248 NA
ATOM     55  C   UNL A   1      46.379  30.951  31.163  1.00  0.00     0.031 C 
ATOM     56  C   UNL A   1      46.602  25.245  29.094  1.00  0.00     0.029 A 
ATOM     57  C   UNL A   1      46.144  26.493  29.479  1.00  0.00     0.049 A 
ATOM     58  H   UNL A   1      44.191  27.286  29.368  1.00  0.00     0.167 HD
ATOM     59  C   UNL A   1      46.370  28.800  30.362  1.00  0.00     0.074 A 
ATOM     60  C   UNL A   1      47.141  29.892  30.924  1.00  0.00     0.031 C 
ATOM     61  C   UNL A   1      46.883  27.580  30.063  1.00  0.00     0.031 A 
BRANCH  48  62
ATOM     62  C   UNL A   1      42.776  23.619  27.698  1.00  0.00    -0.014 A 
ATOM     63  C   UNL A   1      42.948  23.384  26.323  1.00  0.00     0.010 A 
ATOM     64  C   UNL A   1      42.420  22.550  28.539  1.00  0.00     0.010 A 
ATOM     65  C   UNL A   1      42.749  22.105  25.794  1.00  0.00     0.020 A 
ATOM     66  C   UNL A   1      42.234  21.266  28.016  1.00  0.00     0.020 A 
ATOM     67  C   UNL A   1      42.390  21.055  26.645  1.00  0.00     0.054 A 
BRANCH  67  68
ATOM     68  S   UNL A   1      42.168  19.399  25.937  1.00  0.00     0.124 S 
ATOM     69  O   UNL A   1      42.598  18.543  27.039  1.00  0.00    -0.237 OA
ATOM     70  O   UNL A   1      40.738  19.366  25.638  1.00  0.00    -0.237 OA
ATOM     71  O   UNL A   1      43.046  19.401  24.769  1.00  0.00    -0.744 OA
ENDBRANCH  67  68
ENDBRANCH  48  62
BRANCH  49  72
ATOM     72  C   UNL A   1      44.143  32.836  31.290  1.00  0.00    -0.014 A 
ATOM     73  C   UNL A   1      44.482  33.898  30.437  1.00  0.00     0.010 A 
ATOM     74  C   UNL A   1      43.975  33.083  32.665  1.00  0.00     0.010 A 
ATOM     75  C   UNL A   1      44.665  35.184  30.953  1.00  0.00     0.020 A 
ATOM     76  C   UNL A   1      44.130  34.370  33.179  1.00  0.00     0.020 A 
ATOM     77  C   UNL A   1      44.490  35.411  32.321  1.00  0.00     0.054 A 
BRANCH  77  78
ATOM     78  S   UNL A   1      44.680  37.091  32.977  1.00  0.00     0.124 S 
ATOM     79  O   UNL A   1      46.031  37.049  33.528  1.00  0.00    -0.237 OA
ATOM     80  O   UNL A   1      44.506  37.924  31.788  1.00  0.00    -0.237 OA
ATOM     81  O   UNL A   1      43.602  37.192  33.958  1.00  0.00    -0.744 OA
ENDBRANCH  77  78
ENDBRANCH  49  72
BRANCH  61  82
ATOM     82  C   UNL A   1      48.345  27.383  30.347  1.00  0.00    -0.014 A 
ATOM     83  C   UNL A   1      49.309  27.635  29.355  1.00  0.00     0.010 A 
ATOM     84  C   UNL A   1      48.756  26.923  31.610  1.00  0.00     0.010 A 
ATOM     85  C   UNL A   1      50.659  27.380  29.605  1.00  0.00     0.020 A 
ATOM     86  C   UNL A   1      50.108  26.687  31.870  1.00  0.00     0.020 A 
ATOM     87  C   UNL A   1      51.047  26.895  30.858  1.00  0.00     0.054 A 
BRANCH  87  88
ATOM     88  S   UNL A   1      52.804  26.562  31.168  1.00  0.00     0.124 S 
ATOM     89  O   UNL A   1      52.738  25.398  32.048  1.00  0.00    -0.237 OA
ATOM     90  O   UNL A   1      53.331  26.310  29.830  1.00  0.00    -0.237 OA
ATOM     91  O   UNL A   1      53.278  27.793  31.796  1.00  0.00    -0.744 OA
ENDBRANCH  87  88
ENDBRANCH  61  82
ENDBRANCH  35  36
ENDBRANCH  28  30
ENDBRANCH  27  28
ENDBRANCH  26  27
ENDBRANCH   1  26
TORSDOF 17
ENDMDL
MODEL 2
REMARK VINA RESULT:     -11.2      0.739      8.123
REMARK SMILES Cc1ccnc(C(=O)c2[nH]c3cc(F)ccc3c2CC(=O)OCCOC(=O)c2ccc(-c3c4nc(c(-c5ccc(S(=O)(=O)[O-])cc5)c5ccc([nH]5)c(-c5ccc(S(=O)(=O)[O-])cc5)c5nc(c(-c6ccc(S(=O)(=O)[O-])cc6)c6ccc3[nH]6)C=C5)C=C4)cc2)c1
REMARK SMILES IDX 23 1 22 2 20 3 21 4 19 5 18 6 9 7 10 8 11 9 17 11 12 12
REMARK SMILES IDX 16 13 13 14 15 15 14 16 7 17 8 18 6 19 1 20 2 21 3 22 88 23
REMARK SMILES IDX 4 24 5 25 24 26 25 27 26 28 27 29 28 30 29 31 87 32 30 33
REMARK SMILES IDX 86 34 31 35 32 36 33 37 80 38 34 39 85 40 79 41 81 42 35 43
REMARK SMILES IDX 84 44 78 45 77 46 36 48 66 49 47 50 65 51 48 52 51 53 64 54
REMARK SMILES IDX 82 55 49 56 50 57 63 59 83 60 52 61 37 62 38 63 46 64 39 65
REMARK SMILES IDX 45 66 40 67 41 68 42 69 43 70 44 71 67 72 68 73 76 74 69 75
REMARK SMILES IDX 75 76 70 77 71 78 72 79 73 80 74 81 53 82 54 83 62 84 55 85
REMARK SMILES IDX 61 86 56 87 57 88 58 89 59 90 60 91
REMARK H PARENT 10 10 81 47 51 58
REMARK Flexibility Score: inf
ROOT
ATOM      1  C   UNL A   1      32.392  27.320  26.177  1.00  0.00     0.274 C 
ENDROOT
BRANCH   1   2
ATOM      2  O   UNL A   1      33.465  26.681  25.447  1.00  0.00    -0.462 OA
BRANCH   2   3
ATOM      3  C   UNL A   1      33.629  25.355  25.668  1.00  0.00     0.310 C 
ATOM      4  O   UNL A   1      33.093  24.746  26.593  1.00  0.00    -0.252 OA
BRANCH   3   5
ATOM      5  C   UNL A   1      34.412  24.611  24.609  1.00  0.00     0.161 C 
BRANCH   5   6
ATOM      6  C   UNL A   1      33.696  23.788  23.583  1.00  0.00     0.000 A 
ATOM      7  C   UNL A   1      33.031  24.219  22.435  1.00  0.00     0.093 A 
ATOM      8  N   UNL A   1      32.459  23.111  21.858  1.00  0.00    -0.351 N 
ATOM      9  C   UNL A   1      32.614  22.006  22.649  1.00  0.00     0.049 A 
ATOM     10  H   UNL A   1      31.997  23.111  20.988  1.00  0.00     0.167 HD
ATOM     11  C   UNL A   1      33.443  22.377  23.706  1.00  0.00     0.004 A 
ATOM     12  C   UNL A   1      32.091  20.718  22.501  1.00  0.00     0.066 A 
ATOM     13  C   UNL A   1      33.805  21.387  24.649  1.00  0.00     0.013 A 
ATOM     14  C   UNL A   1      32.451  19.775  23.459  1.00  0.00     0.125 A 
ATOM     15  C   UNL A   1      33.302  20.088  24.511  1.00  0.00     0.040 A 
ATOM     16  F   UNL A   1      31.961  18.532  23.360  1.00  0.00    -0.207 F 
BRANCH   7  17
ATOM     17  C   UNL A   1      32.900  25.505  21.762  1.00  0.00     0.227 C 
ATOM     18  O   UNL A   1      33.200  25.599  20.571  1.00  0.00    -0.285 OA
BRANCH  17  19
ATOM     19  C   UNL A   1      32.130  26.629  22.423  1.00  0.00     0.113 A 
ATOM     20  C   UNL A   1      28.599  27.501  23.524  1.00  0.00     0.044 C 
ATOM     21  C   UNL A   1      30.058  27.593  23.188  1.00  0.00    -0.047 A 
ATOM     22  C   UNL A   1      30.675  28.844  23.151  1.00  0.00     0.023 A 
ATOM     23  C   UNL A   1      30.807  26.461  22.837  1.00  0.00     0.036 A 
ATOM     24  C   UNL A   1      32.000  28.918  22.762  1.00  0.00     0.112 A 
ATOM     25  N   UNL A   1      32.733  27.849  22.393  1.00  0.00    -0.253 NA
ENDBRANCH  17  19
ENDBRANCH   7  17
ENDBRANCH   5   6
ENDBRANCH   3   5
ENDBRANCH   2   3
ENDBRANCH   1   2
BRANCH   1  26
ATOM     26  C   UNL A   1      32.919  28.308  27.229  1.00  0.00     0.275 C 
BRANCH  26  27
ATOM     27  O   UNL A   1      34.272  28.750  26.968  1.00  0.00    -0.458 OA
BRANCH  27  28
ATOM     28  C   UNL A   1      34.612  29.852  27.661  1.00  0.00     0.338 C 
ATOM     29  O   UNL A   1      33.857  30.764  27.987  1.00  0.00    -0.246 OA
BRANCH  28  30
ATOM     30  C   UNL A   1      35.986  29.854  28.152  1.00  0.00     0.060 A 
ATOM     31  C   UNL A   1      36.989  30.076  27.210  1.00  0.00     0.016 A 
ATOM     32  C   UNL A   1      36.295  29.363  29.421  1.00  0.00     0.016 A 
ATOM     33  C   UNL A   1      38.298  29.724  27.499  1.00  0.00     0.010 A 
ATOM     34  C   UNL A   1      37.630  29.086  29.740  1.00  0.00     0.010 A 
ATOM     35  C   UNL A   1      38.636  29.235  28.770  1.00  0.00    -0.014 A 
BRANCH  35  36
ATOM     36  C   UNL A   1      40.063  28.951  29.050  1.00  0.00     0.031 A 
ATOM     37  C   UNL A   1      40.930  29.927  29.794  1.00  0.00     0.074 A 
ATOM     38  C   UNL A   1      40.544  27.739  28.708  1.00  0.00     0.049 A 
ATOM     39  N   UNL A   1      42.161  29.775  30.214  1.00  0.00    -0.248 NA
ATOM     40  C   UNL A   1      40.342  31.233  30.123  1.00  0.00     0.031 C 
ATOM     41  C   UNL A   1      39.781  26.698  28.011  1.00  0.00     0.029 A 
ATOM     42  N   UNL A   1      41.766  27.165  28.928  1.00  0.00    -0.354 N 
ATOM     43  C   UNL A   1      42.489  30.954  30.873  1.00  0.00     0.074 A 
ATOM     44  C   UNL A   1      41.337  31.825  30.773  1.00  0.00     0.031 C 
ATOM     45  C   UNL A   1      40.540  25.599  27.899  1.00  0.00     0.029 A 
ATOM     46  C   UNL A   1      41.855  25.877  28.463  1.00  0.00     0.049 A 
ATOM     47  H   UNL A   1      42.509  27.630  29.377  1.00  0.00     0.167 HD
ATOM     48  C   UNL A   1      43.644  31.276  31.504  1.00  0.00     0.031 A 
ATOM     49  C   UNL A   1      42.888  25.016  28.468  1.00  0.00     0.031 A 
ATOM     50  C   UNL A   1      44.805  30.427  31.557  1.00  0.00     0.049 A 
ATOM     51  C   UNL A   1      44.187  25.442  29.080  1.00  0.00     0.074 A 
ATOM     52  C   UNL A   1      46.033  30.679  32.146  1.00  0.00     0.029 A 
ATOM     53  N   UNL A   1      44.890  29.166  30.986  1.00  0.00    -0.354 N 
ATOM     54  N   UNL A   1      44.474  26.562  29.700  1.00  0.00    -0.248 NA
ATOM     55  C   UNL A   1      45.302  24.492  28.985  1.00  0.00     0.031 C 
ATOM     56  C   UNL A   1      46.874  29.588  31.893  1.00  0.00     0.029 A 
ATOM     57  C   UNL A   1      46.157  28.640  31.183  1.00  0.00     0.049 A 
ATOM     58  H   UNL A   1      44.158  28.712  30.510  1.00  0.00     0.167 HD
ATOM     59  C   UNL A   1      45.808  26.451  30.070  1.00  0.00     0.074 A 
ATOM     60  C   UNL A   1      46.259  25.145  29.630  1.00  0.00     0.031 C 
ATOM     61  C   UNL A   1      46.592  27.352  30.713  1.00  0.00     0.031 A 
BRANCH  48  62
ATOM     62  C   UNL A   1      43.718  32.620  32.176  1.00  0.00    -0.014 A 
ATOM     63  C   UNL A   1      43.368  32.763  33.530  1.00  0.00     0.010 A 
ATOM     64  C   UNL A   1      44.203  33.734  31.470  1.00  0.00     0.010 A 
ATOM     65  C   UNL A   1      43.484  34.005  34.162  1.00  0.00     0.020 A 
ATOM     66  C   UNL A   1      44.333  34.975  32.102  1.00  0.00     0.020 A 
ATOM     67  C   UNL A   1      43.963  35.104  33.442  1.00  0.00     0.054 A 
BRANCH  67  68
ATOM     68  S   UNL A   1      44.133  36.696  34.295  1.00  0.00     0.124 S 
ATOM     69  O   UNL A   1      45.239  37.309  33.565  1.00  0.00    -0.237 OA
ATOM     70  O   UNL A   1      42.825  37.314  34.087  1.00  0.00    -0.237 OA
ATOM     71  O   UNL A   1      44.428  36.320  35.676  1.00  0.00    -0.744 OA
ENDBRANCH  67  68
ENDBRANCH  48  62
BRANCH  49  72
ATOM     72  C   UNL A   1      42.740  23.686  27.822  1.00  0.00    -0.014 A 
ATOM     73  C   UNL A   1      43.126  23.485  26.487  1.00  0.00     0.010 A 
ATOM     74  C   UNL A   1      42.221  22.606  28.560  1.00  0.00     0.010 A 
ATOM     75  C   UNL A   1      42.982  22.226  25.896  1.00  0.00     0.020 A 
ATOM     76  C   UNL A   1      42.101  21.343  27.981  1.00  0.00     0.020 A 
ATOM     77  C   UNL A   1      42.468  21.165  26.646  1.00  0.00     0.054 A 
BRANCH  77  78
ATOM     78  S   UNL A   1      42.331  19.522  25.888  1.00  0.00     0.124 S 
ATOM     79  O   UNL A   1      42.672  18.646  27.005  1.00  0.00    -0.237 OA
ATOM     80  O   UNL A   1      40.936  19.482  25.455  1.00  0.00    -0.237 OA
ATOM     81  O   UNL A   1      43.308  19.571  24.804  1.00  0.00    -0.744 OA
ENDBRANCH  77  78
ENDBRANCH  49  72
BRANCH  61  82
ATOM     82  C   UNL A   1      48.014  26.938  30.967  1.00  0.00    -0.014 A 
ATOM     83  C   UNL A   1      48.345  26.164  32.093  1.00  0.00     0.010 A 
ATOM     84  C   UNL A   1      49.028  27.344  30.083  1.00  0.00     0.010 A 
ATOM     85  C   UNL A   1      49.679  25.845  32.359  1.00  0.00     0.020 A 
ATOM     86  C   UNL A   1      50.360  27.009  30.336  1.00  0.00     0.020 A 
ATOM     87  C   UNL A   1      50.679  26.282  31.485  1.00  0.00     0.054 A 
BRANCH  87  88
ATOM     88  S   UNL A   1      52.407  25.866  31.846  1.00  0.00     0.124 S 
ATOM     89  O   UNL A   1      52.724  26.803  32.920  1.00  0.00    -0.237 OA
ATOM     90  O   UNL A   1      52.332  24.461  32.237  1.00  0.00    -0.237 OA
ATOM     91  O   UNL A   1      53.089  26.116  30.578  1.00  0.00    -0.744 OA
ENDBRANCH  87  88
ENDBRANCH  61  82
ENDBRANCH  35  36
ENDBRANCH  28  30
ENDBRANCH  27  28
ENDBRANCH  26  27
ENDBRANCH   1  26
TORSDOF 17
ENDMDL
MODEL 3
REMARK VINA RESULT:     -11.2      3.401      9.160
REMARK SMILES Cc1ccnc(C(=O)c2[nH]c3cc(F)ccc3c2CC(=O)OCCOC(=O)c2ccc(-c3c4nc(c(-c5ccc(S(=O)(=O)[O-])cc5)c5ccc([nH]5)c(-c5ccc(S(=O)(=O)[O-])cc5)c5nc(c(-c6ccc(S(=O)(=O)[O-])cc6)c6ccc3[nH]6)C=C5)C=C4)cc2)c1
REMARK SMILES IDX 23 1 22 2 20 3 21 4 19 5 18 6 9 7 10 8 11 9 17 11 12 12
REMARK SMILES IDX 16 13 13 14 15 15 14 16 7 17 8 18 6 19 1 20 2 21 3 22 88 23
REMARK SMILES IDX 4 24 5 25 24 26 25 27 26 28 27 29 28 30 29 31 87 32 30 33
REMARK SMILES IDX 86 34 31 35 32 36 33 37 80 38 34 39 85 40 79 41 81 42 35 43
REMARK SMILES IDX 84 44 78 45 77 46 36 48 66 49 47 50 65 51 48 52 51 53 64 54
REMARK SMILES IDX 82 55 49 56 50 57 63 59 83 60 52 61 37 62 38 63 46 64 39 65
REMARK SMILES IDX 45 66 40 67 41 68 42 69 43 70 44 71 67 72 68 73 76 74 69 75
REMARK SMILES IDX 75 76 70 77 71 78 72 79 73 80 74 81 53 82 54 83 62 84 55 85
REMARK SMILES IDX 61 86 56 87 57 88 58 89 59 90 60 91
REMARK H PARENT 10 10 81 47 51 58
REMARK Flexibility Score: inf
ROOT
ATOM      1  C   UNL A   1      35.326  23.625  24.315  1.00  0.00     0.274 C 
ENDROOT
BRANCH   1   2
ATOM      2  O   UNL A   1      34.443  24.404  25.155  1.00  0.00    -0.462 OA
BRANCH   2   3
ATOM      3  C   UNL A   1      33.452  25.073  24.518  1.00  0.00     0.310 C 
ATOM      4  O   UNL A   1      32.290  24.675  24.456  1.00  0.00    -0.252 OA
BRANCH   3   5
ATOM      5  C   UNL A   1      33.825  26.443  23.994  1.00  0.00     0.161 C 
BRANCH   5   6
ATOM      6  C   UNL A   1      33.067  27.653  24.446  1.00  0.00     0.000 A 
ATOM      7  C   UNL A   1      32.009  28.302  23.810  1.00  0.00     0.093 A 
ATOM      8  N   UNL A   1      31.701  29.410  24.563  1.00  0.00    -0.351 N 
ATOM      9  C   UNL A   1      32.596  29.576  25.584  1.00  0.00     0.049 A 
ATOM     10  H   UNL A   1      30.937  30.006  24.390  1.00  0.00     0.167 HD
ATOM     11  C   UNL A   1      33.426  28.458  25.584  1.00  0.00     0.004 A 
ATOM     12  C   UNL A   1      32.723  30.624  26.501  1.00  0.00     0.066 A 
ATOM     13  C   UNL A   1      34.415  28.360  26.589  1.00  0.00     0.013 A 
ATOM     14  C   UNL A   1      33.721  30.505  27.464  1.00  0.00     0.125 A 
ATOM     15  C   UNL A   1      34.549  29.393  27.526  1.00  0.00     0.040 A 
ATOM     16  F   UNL A   1      33.882  31.493  28.354  1.00  0.00    -0.207 F 
BRANCH   7  17
ATOM     17  C   UNL A   1      31.201  28.009  22.633  1.00  0.00     0.227 C 
ATOM     18  O   UNL A   1      31.490  27.046  21.924  1.00  0.00    -0.285 OA
BRANCH  17  19
ATOM     19  C   UNL A   1      29.860  28.688  22.450  1.00  0.00     0.113 A 
ATOM     20  C   UNL A   1      28.395  32.021  21.359  1.00  0.00     0.044 C 
ATOM     21  C   UNL A   1      28.544  30.634  21.911  1.00  0.00    -0.047 A 
ATOM     22  C   UNL A   1      27.480  30.054  22.602  1.00  0.00     0.023 A 
ATOM     23  C   UNL A   1      29.751  29.927  21.815  1.00  0.00     0.036 A 
ATOM     24  C   UNL A   1      27.661  28.808  23.173  1.00  0.00     0.112 A 
ATOM     25  N   UNL A   1      28.819  28.121  23.120  1.00  0.00    -0.253 NA
ENDBRANCH  17  19
ENDBRANCH   7  17
ENDBRANCH   5   6
ENDBRANCH   3   5
ENDBRANCH   2   3
ENDBRANCH   1   2
BRANCH   1  26
ATOM     26  C   UNL A   1      36.475  22.993  25.117  1.00  0.00     0.275 C 
BRANCH  26  27
ATOM     27  O   UNL A   1      37.175  23.942  25.953  1.00  0.00    -0.458 OA
BRANCH  27  28
ATOM     28  C   UNL A   1      38.447  23.584  26.211  1.00  0.00     0.338 C 
ATOM     29  O   UNL A   1      39.008  22.568  25.811  1.00  0.00    -0.246 OA
BRANCH  28  30
ATOM     30  C   UNL A   1      39.220  24.588  26.933  1.00  0.00     0.060 A 
ATOM     31  C   UNL A   1      38.888  24.795  28.271  1.00  0.00     0.016 A 
ATOM     32  C   UNL A   1      40.030  25.498  26.250  1.00  0.00     0.016 A 
ATOM     33  C   UNL A   1      39.289  25.958  28.910  1.00  0.00     0.010 A 
ATOM     34  C   UNL A   1      40.504  26.630  26.924  1.00  0.00     0.010 A 
ATOM     35  C   UNL A   1      40.110  26.883  28.248  1.00  0.00    -0.014 A 
BRANCH  35  36
ATOM     36  C   UNL A   1      40.575  28.069  29.007  1.00  0.00     0.031 A 
ATOM     37  C   UNL A   1      39.698  29.273  29.201  1.00  0.00     0.074 A 
ATOM     38  C   UNL A   1      41.777  27.998  29.612  1.00  0.00     0.049 A 
ATOM     39  N   UNL A   1      39.917  30.337  29.932  1.00  0.00    -0.248 NA
ATOM     40  C   UNL A   1      38.406  29.284  28.500  1.00  0.00     0.031 C 
ATOM     41  C   UNL A   1      42.699  26.862  29.521  1.00  0.00     0.029 A 
ATOM     42  N   UNL A   1      42.412  28.876  30.448  1.00  0.00    -0.354 N 
ATOM     43  C   UNL A   1      38.787  31.134  29.797  1.00  0.00     0.074 A 
ATOM     44  C   UNL A   1      37.894  30.446  28.890  1.00  0.00     0.031 C 
ATOM     45  C   UNL A   1      43.762  27.096  30.303  1.00  0.00     0.029 A 
ATOM     46  C   UNL A   1      43.622  28.417  30.904  1.00  0.00     0.049 A 
ATOM     47  H   UNL A   1      42.038  29.752  30.697  1.00  0.00     0.167 HD
ATOM     48  C   UNL A   1      38.521  32.329  30.379  1.00  0.00     0.031 A 
ATOM     49  C   UNL A   1      44.534  29.000  31.702  1.00  0.00     0.031 A 
ATOM     50  C   UNL A   1      39.434  33.035  31.241  1.00  0.00     0.049 A 
ATOM     51  C   UNL A   1      44.255  30.368  32.245  1.00  0.00     0.074 A 
ATOM     52  C   UNL A   1      39.266  34.266  31.852  1.00  0.00     0.029 A 
ATOM     53  N   UNL A   1      40.694  32.581  31.599  1.00  0.00    -0.354 N 
ATOM     54  N   UNL A   1      43.178  31.103  32.106  1.00  0.00    -0.248 NA
ATOM     55  C   UNL A   1      45.320  30.988  33.043  1.00  0.00     0.031 C 
ATOM     56  C   UNL A   1      40.443  34.575  32.546  1.00  0.00     0.029 A 
ATOM     57  C   UNL A   1      41.326  33.518  32.400  1.00  0.00     0.049 A 
ATOM     58  H   UNL A   1      41.082  31.719  31.325  1.00  0.00     0.167 HD
ATOM     59  C   UNL A   1      43.435  32.277  32.802  1.00  0.00     0.074 A 
ATOM     60  C   UNL A   1      44.757  32.139  33.383  1.00  0.00     0.031 C 
ATOM     61  C   UNL A   1      42.650  33.373  32.943  1.00  0.00     0.031 A 
BRANCH  48  62
ATOM     62  C   UNL A   1      37.189  32.963  30.087  1.00  0.00    -0.014 A 
ATOM     63  C   UNL A   1      36.132  32.864  31.008  1.00  0.00     0.010 A 
ATOM     64  C   UNL A   1      37.012  33.720  28.915  1.00  0.00     0.010 A 
ATOM     65  C   UNL A   1      34.911  33.496  30.753  1.00  0.00     0.020 A 
ATOM     66  C   UNL A   1      35.796  34.364  28.663  1.00  0.00     0.020 A 
ATOM     67  C   UNL A   1      34.751  34.240  29.579  1.00  0.00     0.054 A 
BRANCH  67  68
ATOM     68  S   UNL A   1      33.166  35.075  29.289  1.00  0.00     0.124 S 
ATOM     69  O   UNL A   1      32.545  35.003  30.608  1.00  0.00    -0.237 OA
ATOM     70  O   UNL A   1      33.580  36.410  28.862  1.00  0.00    -0.237 OA
ATOM     71  O   UNL A   1      32.531  34.263  28.254  1.00  0.00    -0.744 OA
ENDBRANCH  67  68
ENDBRANCH  48  62
BRANCH  49  72
ATOM     72  C   UNL A   1      45.815  28.304  31.986  1.00  0.00    -0.014 A 
ATOM     73  C   UNL A   1      46.954  28.539  31.199  1.00  0.00     0.010 A 
ATOM     74  C   UNL A   1      45.898  27.409  33.068  1.00  0.00     0.010 A 
ATOM     75  C   UNL A   1      48.152  27.877  31.481  1.00  0.00     0.020 A 
ATOM     76  C   UNL A   1      47.099  26.767  33.369  1.00  0.00     0.020 A 
ATOM     77  C   UNL A   1      48.216  26.994  32.563  1.00  0.00     0.054 A 
BRANCH  77  78
ATOM     78  S   UNL A   1      49.788  26.177  32.955  1.00  0.00     0.124 S 
ATOM     79  O   UNL A   1      49.889  26.394  34.394  1.00  0.00    -0.237 OA
ATOM     80  O   UNL A   1      49.548  24.798  32.537  1.00  0.00    -0.237 OA
ATOM     81  O   UNL A   1      50.756  26.905  32.138  1.00  0.00    -0.744 OA
ENDBRANCH  77  78
ENDBRANCH  49  72
BRANCH  61  82
ATOM     82  C   UNL A   1      43.218  34.500  33.759  1.00  0.00    -0.014 A 
ATOM     83  C   UNL A   1      42.991  34.567  35.145  1.00  0.00     0.010 A 
ATOM     84  C   UNL A   1      43.968  35.509  33.132  1.00  0.00     0.010 A 
ATOM     85  C   UNL A   1      43.461  35.656  35.883  1.00  0.00     0.020 A 
ATOM     86  C   UNL A   1      44.458  36.588  33.870  1.00  0.00     0.020 A 
ATOM     87  C   UNL A   1      44.181  36.666  35.237  1.00  0.00     0.054 A 
BRANCH  87  88
ATOM     88  S   UNL A   1      44.782  38.077  36.206  1.00  0.00     0.124 S 
ATOM     89  O   UNL A   1      44.307  37.746  37.546  1.00  0.00    -0.237 OA
ATOM     90  O   UNL A   1      46.229  38.012  36.017  1.00  0.00    -0.237 OA
ATOM     91  O   UNL A   1      44.130  39.223  35.577  1.00  0.00    -0.744 OA
ENDBRANCH  87  88
ENDBRANCH  61  82
ENDBRANCH  35  36
ENDBRANCH  28  30
ENDBRANCH  27  28
ENDBRANCH  26  27
ENDBRANCH   1  26
TORSDOF 17
ENDMDL
