MODEL 1
REMARK VINA RESULT:     -11.0      0.000      0.000
REMARK SMILES COc1cc(C)cc2c1O[C@H](C(F)(F)F)C(C(=O)OCCOC(=O)c1ccc(-c3c4nc(c(-c5ccc(S(=O)(=O)[O-])cc5)c5ccc([nH]5)c(-c5ccc(S(=O)(=O)[O-])cc5)c5nc(c(-c6ccc(S(=O)(=O)[O-])cc6)c6ccc3[nH]6)C=C5)C=C4)cc1)=C2
REMARK SMILES IDX 21 1 20 2 19 3 17 4 18 5 16 6 3 7 4 8 9 9 5 10 8 11 10 12
REMARK SMILES IDX 6 13 7 14 85 15 11 16 2 17 1 18 12 19 13 20 14 21 15 22
REMARK SMILES IDX 22 23 23 24 24 25 25 26 26 27 84 28 27 29 83 30 28 31 29 32
REMARK SMILES IDX 30 33 77 34 31 35 82 36 76 37 78 38 32 39 81 40 75 41 74 42
REMARK SMILES IDX 33 44 63 45 44 46 62 47 45 48 48 49 61 50 79 51 46 52 47 53
REMARK SMILES IDX 60 55 80 56 49 57 34 58 35 59 43 60 36 61 42 62 37 63 38 64
REMARK SMILES IDX 39 65 40 66 41 67 64 68 65 69 73 70 66 71 72 72 67 73 68 74
REMARK SMILES IDX 69 75 70 76 71 77 50 78 51 79 59 80 52 81 58 82 53 83 54 84
REMARK SMILES IDX 55 85 56 86 57 87
REMARK H PARENT 78 43 48 54
REMARK Flexibility Score: inf
ROOT
ATOM      1  C   UNL A   1      32.421  28.892  27.214  1.00  0.00     0.275 C 
ENDROOT
BRANCH   1   2
ATOM      2  C   UNL A   1      32.021  29.072  25.748  1.00  0.00     0.275 C 
BRANCH   2   3
ATOM      3  O   UNL A   1      31.496  27.851  25.182  1.00  0.00    -0.459 OA
BRANCH   3   4
ATOM      4  C   UNL A   1      32.297  27.235  24.281  1.00  0.00     0.338 C 
ATOM      5  O   UNL A   1      32.642  27.678  23.196  1.00  0.00    -0.246 OA
BRANCH   4   6
ATOM      6  C   UNL A   1      32.754  25.928  24.792  1.00  0.00     0.087 C 
ATOM      7  C   UNL A   1      34.191  22.137  25.837  1.00  0.00     0.161 A 
ATOM      8  C   UNL A   1      35.577  21.937  25.928  1.00  0.00     0.054 A 
ATOM      9  C   UNL A   1      33.680  23.404  25.528  1.00  0.00     0.169 A 
ATOM     10  C   UNL A   1      36.466  23.005  25.765  1.00  0.00    -0.047 A 
ATOM     11  C   UNL A   1      34.567  24.460  25.345  1.00  0.00     0.021 A 
ATOM     12  O   UNL A   1      32.320  23.555  25.449  1.00  0.00    -0.471 OA
ATOM     13  C   UNL A   1      37.953  22.822  25.859  1.00  0.00     0.044 C 
ATOM     14  C   UNL A   1      35.948  24.270  25.483  1.00  0.00     0.015 A 
ATOM     15  C   UNL A   1      34.068  25.761  24.963  1.00  0.00     0.027 C 
ATOM     16  C   UNL A   1      31.766  24.810  24.956  1.00  0.00     0.316 C 
BRANCH   7  17
ATOM     17  O   UNL A   1      33.295  21.104  25.959  1.00  0.00    -0.493 OA
ATOM     18  C   UNL A   1      33.361  20.176  24.881  1.00  0.00     0.278 C 
ENDBRANCH   7  17
BRANCH  16  19
ATOM     19  C   UNL A   1      31.015  24.536  23.644  1.00  0.00     0.430 C 
ATOM     20  F   UNL A   1      29.943  25.353  23.504  1.00  0.00    -0.167 F 
ATOM     21  F   UNL A   1      31.804  24.759  22.564  1.00  0.00    -0.167 F 
ATOM     22  F   UNL A   1      30.570  23.262  23.560  1.00  0.00    -0.167 F 
ENDBRANCH  16  19
ENDBRANCH   4   6
ENDBRANCH   3   4
ENDBRANCH   2   3
ENDBRANCH   1   2
BRANCH   1  23
ATOM     23  O   UNL A   1      33.851  28.950  27.363  1.00  0.00    -0.458 OA
BRANCH  23  24
ATOM     24  C   UNL A   1      34.339  30.143  27.773  1.00  0.00     0.338 C 
ATOM     25  O   UNL A   1      33.736  31.197  27.870  1.00  0.00    -0.246 OA
BRANCH  24  26
ATOM     26  C   UNL A   1      35.729  29.974  28.217  1.00  0.00     0.060 A 
ATOM     27  C   UNL A   1      36.047  29.429  29.453  1.00  0.00     0.016 A 
ATOM     28  C   UNL A   1      36.734  30.226  27.291  1.00  0.00     0.016 A 
ATOM     29  C   UNL A   1      37.389  29.154  29.747  1.00  0.00     0.010 A 
ATOM     30  C   UNL A   1      38.036  29.797  27.519  1.00  0.00     0.010 A 
ATOM     31  C   UNL A   1      38.398  29.291  28.768  1.00  0.00    -0.014 A 
BRANCH  31  32
ATOM     32  C   UNL A   1      39.819  28.920  29.045  1.00  0.00     0.031 A 
ATOM     33  C   UNL A   1      40.739  29.856  29.800  1.00  0.00     0.074 A 
ATOM     34  C   UNL A   1      40.301  27.745  28.586  1.00  0.00     0.049 A 
ATOM     35  N   UNL A   1      41.987  29.669  30.155  1.00  0.00    -0.248 NA
ATOM     36  C   UNL A   1      40.219  31.185  30.168  1.00  0.00     0.031 C 
ATOM     37  C   UNL A   1      39.556  26.796  27.753  1.00  0.00     0.029 A 
ATOM     38  N   UNL A   1      41.516  27.130  28.774  1.00  0.00    -0.354 N 
ATOM     39  C   UNL A   1      42.393  30.852  30.764  1.00  0.00     0.074 A 
ATOM     40  C   UNL A   1      41.296  31.782  30.656  1.00  0.00     0.031 C 
ATOM     41  C   UNL A   1      40.289  25.687  27.585  1.00  0.00     0.029 A 
ATOM     42  C   UNL A   1      41.578  25.858  28.250  1.00  0.00     0.049 A 
ATOM     43  H   UNL A   1      42.271  27.560  29.239  1.00  0.00     0.167 HD
ATOM     44  C   UNL A   1      43.553  31.126  31.408  1.00  0.00     0.031 A 
ATOM     45  C   UNL A   1      42.544  24.919  28.316  1.00  0.00     0.031 A 
ATOM     46  C   UNL A   1      44.617  30.174  31.574  1.00  0.00     0.049 A 
ATOM     47  C   UNL A   1      43.799  25.217  29.087  1.00  0.00     0.074 A 
ATOM     48  C   UNL A   1      45.794  30.323  32.284  1.00  0.00     0.029 A 
ATOM     49  N   UNL A   1      44.627  28.892  31.043  1.00  0.00    -0.354 N 
ATOM     50  N   UNL A   1      44.124  26.312  29.732  1.00  0.00    -0.248 NA
ATOM     51  C   UNL A   1      44.813  24.155  29.155  1.00  0.00     0.031 C 
ATOM     52  C   UNL A   1      46.542  29.154  32.136  1.00  0.00     0.029 A 
ATOM     53  C   UNL A   1      45.800  28.249  31.394  1.00  0.00     0.049 A 
ATOM     54  H   UNL A   1      43.907  28.500  30.499  1.00  0.00     0.167 HD
ATOM     55  C   UNL A   1      45.372  26.068  30.293  1.00  0.00     0.074 A 
ATOM     56  C   UNL A   1      45.735  24.712  29.932  1.00  0.00     0.031 C 
ATOM     57  C   UNL A   1      46.148  26.897  31.033  1.00  0.00     0.031 A 
BRANCH  44  58
ATOM     58  C   UNL A   1      43.722  32.486  32.043  1.00  0.00    -0.014 A 
ATOM     59  C   UNL A   1      43.298  32.705  33.368  1.00  0.00     0.010 A 
ATOM     60  C   UNL A   1      44.187  33.580  31.290  1.00  0.00     0.010 A 
ATOM     61  C   UNL A   1      43.306  33.993  33.913  1.00  0.00     0.020 A 
ATOM     62  C   UNL A   1      44.229  34.862  31.843  1.00  0.00     0.020 A 
ATOM     63  C   UNL A   1      43.762  35.065  33.143  1.00  0.00     0.054 A 
BRANCH  63  64
ATOM     64  S   UNL A   1      43.731  36.735  33.851  1.00  0.00     0.124 S 
ATOM     65  O   UNL A   1      44.042  37.566  32.694  1.00  0.00    -0.237 OA
ATOM     66  O   UNL A   1      42.365  36.841  34.358  1.00  0.00    -0.237 OA
ATOM     67  O   UNL A   1      44.765  36.687  34.884  1.00  0.00    -0.744 OA
ENDBRANCH  63  64
ENDBRANCH  44  58
BRANCH  45  68
ATOM     68  C   UNL A   1      42.301  23.585  27.696  1.00  0.00    -0.014 A 
ATOM     69  C   UNL A   1      41.766  22.528  28.456  1.00  0.00     0.010 A 
ATOM     70  C   UNL A   1      42.708  23.334  26.373  1.00  0.00     0.010 A 
ATOM     71  C   UNL A   1      41.704  21.234  27.929  1.00  0.00     0.020 A 
ATOM     72  C   UNL A   1      42.616  22.047  25.831  1.00  0.00     0.020 A 
ATOM     73  C   UNL A   1      42.146  20.999  26.626  1.00  0.00     0.054 A 
BRANCH  73  74
ATOM     74  S   UNL A   1      42.127  19.299  25.992  1.00  0.00     0.124 S 
ATOM     75  O   UNL A   1      40.711  19.110  25.686  1.00  0.00    -0.237 OA
ATOM     76  O   UNL A   1      43.015  19.379  24.835  1.00  0.00    -0.237 OA
ATOM     77  O   UNL A   1      42.635  18.510  27.111  1.00  0.00    -0.744 OA
ENDBRANCH  73  74
ENDBRANCH  45  68
BRANCH  57  78
ATOM     78  C   UNL A   1      47.483  26.391  31.513  1.00  0.00    -0.014 A 
ATOM     79  C   UNL A   1      48.589  26.407  30.643  1.00  0.00     0.010 A 
ATOM     80  C   UNL A   1      47.599  25.752  32.759  1.00  0.00     0.010 A 
ATOM     81  C   UNL A   1      49.772  25.752  30.988  1.00  0.00     0.020 A 
ATOM     82  C   UNL A   1      48.792  25.121  33.122  1.00  0.00     0.020 A 
ATOM     83  C   UNL A   1      49.860  25.100  32.221  1.00  0.00     0.054 A 
BRANCH  83  84
ATOM     84  S   UNL A   1      51.384  24.205  32.629  1.00  0.00     0.124 S 
ATOM     85  O   UNL A   1      52.381  24.920  31.837  1.00  0.00    -0.237 OA
ATOM     86  O   UNL A   1      51.483  24.382  34.075  1.00  0.00    -0.237 OA
ATOM     87  O   UNL A   1      51.105  22.838  32.195  1.00  0.00    -0.744 OA
ENDBRANCH  83  84
ENDBRANCH  57  78
ENDBRANCH  31  32
ENDBRANCH  24  26
ENDBRANCH  23  24
ENDBRANCH   1  23
TORSDOF 16
ENDMDL
MODEL 2
REMARK VINA RESULT:     -10.8      4.057      6.512
REMARK SMILES COc1cc(C)cc2c1O[C@H](C(F)(F)F)C(C(=O)OCCOC(=O)c1ccc(-c3c4nc(c(-c5ccc(S(=O)(=O)[O-])cc5)c5ccc([nH]5)c(-c5ccc(S(=O)(=O)[O-])cc5)c5nc(c(-c6ccc(S(=O)(=O)[O-])cc6)c6ccc3[nH]6)C=C5)C=C4)cc1)=C2
REMARK SMILES IDX 21 1 20 2 19 3 17 4 18 5 16 6 3 7 4 8 9 9 5 10 8 11 10 12
REMARK SMILES IDX 6 13 7 14 85 15 11 16 2 17 1 18 12 19 13 20 14 21 15 22
REMARK SMILES IDX 22 23 23 24 24 25 25 26 26 27 84 28 27 29 83 30 28 31 29 32
REMARK SMILES IDX 30 33 77 34 31 35 82 36 76 37 78 38 32 39 81 40 75 41 74 42
REMARK SMILES IDX 33 44 63 45 44 46 62 47 45 48 48 49 61 50 79 51 46 52 47 53
REMARK SMILES IDX 60 55 80 56 49 57 34 58 35 59 43 60 36 61 42 62 37 63 38 64
REMARK SMILES IDX 39 65 40 66 41 67 64 68 65 69 73 70 66 71 72 72 67 73 68 74
REMARK SMILES IDX 69 75 70 76 71 77 50 78 51 79 59 80 52 81 58 82 53 83 54 84
REMARK SMILES IDX 55 85 56 86 57 87
REMARK H PARENT 78 43 48 54
REMARK Flexibility Score: inf
ROOT
ATOM      1  C   UNL A   1      33.399  32.862  28.003  1.00  0.00     0.275 C 
ENDROOT
BRANCH   1   2
ATOM      2  C   UNL A   1      33.638  34.367  27.867  1.00  0.00     0.275 C 
BRANCH   2   3
ATOM      3  O   UNL A   1      34.435  34.884  28.956  1.00  0.00    -0.459 OA
BRANCH   3   4
ATOM      4  C   UNL A   1      33.878  34.780  30.185  1.00  0.00     0.338 C 
ATOM      5  O   UNL A   1      32.700  34.947  30.463  1.00  0.00    -0.246 OA
BRANCH   4   6
ATOM      6  C   UNL A   1      34.888  34.395  31.190  1.00  0.00     0.087 C 
ATOM      7  C   UNL A   1      37.436  33.087  34.243  1.00  0.00     0.161 A 
ATOM      8  C   UNL A   1      37.820  31.737  34.278  1.00  0.00     0.054 A 
ATOM      9  C   UNL A   1      36.617  33.562  33.212  1.00  0.00     0.169 A 
ATOM     10  C   UNL A   1      37.436  30.859  33.258  1.00  0.00    -0.047 A 
ATOM     11  C   UNL A   1      36.219  32.681  32.211  1.00  0.00     0.021 A 
ATOM     12  O   UNL A   1      36.265  34.887  33.217  1.00  0.00    -0.471 OA
ATOM     13  C   UNL A   1      37.833  29.412  33.266  1.00  0.00     0.044 C 
ATOM     14  C   UNL A   1      36.641  31.346  32.219  1.00  0.00     0.015 A 
ATOM     15  C   UNL A   1      35.322  33.132  31.171  1.00  0.00     0.027 C 
ATOM     16  C   UNL A   1      35.275  35.369  32.264  1.00  0.00     0.316 C 
BRANCH   7  17
ATOM     17  O   UNL A   1      37.768  33.965  35.246  1.00  0.00    -0.493 OA
ATOM     18  C   UNL A   1      39.008  34.627  35.021  1.00  0.00     0.278 C 
ENDBRANCH   7  17
BRANCH  16  19
ATOM     19  C   UNL A   1      34.041  35.858  33.040  1.00  0.00     0.430 C 
ATOM     20  F   UNL A   1      33.117  34.875  33.175  1.00  0.00    -0.167 F 
ATOM     21  F   UNL A   1      34.367  36.245  34.299  1.00  0.00    -0.167 F 
ATOM     22  F   UNL A   1      33.435  36.907  32.441  1.00  0.00    -0.167 F 
ENDBRANCH  16  19
ENDBRANCH   4   6
ENDBRANCH   3   4
ENDBRANCH   2   3
ENDBRANCH   1   2
BRANCH   1  23
ATOM     23  O   UNL A   1      34.610  32.128  27.748  1.00  0.00    -0.458 OA
BRANCH  23  24
ATOM     24  C   UNL A   1      34.487  30.782  27.793  1.00  0.00     0.338 C 
ATOM     25  O   UNL A   1      33.486  30.121  27.581  1.00  0.00    -0.246 OA
BRANCH  24  26
ATOM     26  C   UNL A   1      35.806  30.179  28.027  1.00  0.00     0.060 A 
ATOM     27  C   UNL A   1      36.895  30.447  27.210  1.00  0.00     0.016 A 
ATOM     28  C   UNL A   1      35.981  29.453  29.199  1.00  0.00     0.016 A 
ATOM     29  C   UNL A   1      38.156  29.963  27.581  1.00  0.00     0.010 A 
ATOM     30  C   UNL A   1      37.253  29.123  29.649  1.00  0.00     0.010 A 
ATOM     31  C   UNL A   1      38.363  29.333  28.828  1.00  0.00    -0.014 A 
BRANCH  31  32
ATOM     32  C   UNL A   1      39.719  28.890  29.271  1.00  0.00     0.031 A 
ATOM     33  C   UNL A   1      40.550  29.737  30.211  1.00  0.00     0.074 A 
ATOM     34  C   UNL A   1      40.227  27.731  28.799  1.00  0.00     0.049 A 
ATOM     35  N   UNL A   1      41.730  29.479  30.721  1.00  0.00    -0.248 NA
ATOM     36  C   UNL A   1      40.022  31.057  30.599  1.00  0.00     0.031 C 
ATOM     37  C   UNL A   1      39.580  26.869  27.806  1.00  0.00     0.029 A 
ATOM     38  N   UNL A   1      41.386  27.059  29.109  1.00  0.00    -0.354 N 
ATOM     39  C   UNL A   1      42.080  30.602  31.464  1.00  0.00     0.074 A 
ATOM     40  C   UNL A   1      41.036  31.579  31.273  1.00  0.00     0.031 C 
ATOM     41  C   UNL A   1      40.298  25.747  27.662  1.00  0.00     0.029 A 
ATOM     42  C   UNL A   1      41.485  25.824  28.508  1.00  0.00     0.049 A 
ATOM     43  H   UNL A   1      42.080  27.427  29.703  1.00  0.00     0.167 HD
ATOM     44  C   UNL A   1      43.145  30.788  32.280  1.00  0.00     0.031 A 
ATOM     45  C   UNL A   1      42.405  24.846  28.640  1.00  0.00     0.031 A 
ATOM     46  C   UNL A   1      44.148  29.787  32.522  1.00  0.00     0.049 A 
ATOM     47  C   UNL A   1      43.547  25.043  29.596  1.00  0.00     0.074 A 
ATOM     48  C   UNL A   1      45.218  29.843  33.397  1.00  0.00     0.029 A 
ATOM     49  N   UNL A   1      44.196  28.544  31.907  1.00  0.00    -0.354 N 
ATOM     50  N   UNL A   1      43.809  26.079  30.357  1.00  0.00    -0.248 NA
ATOM     51  C   UNL A   1      44.511  23.942  29.727  1.00  0.00     0.031 C 
ATOM     52  C   UNL A   1      45.946  28.659  33.270  1.00  0.00     0.029 A 
ATOM     53  C   UNL A   1      45.289  27.835  32.369  1.00  0.00     0.049 A 
ATOM     54  H   UNL A   1      43.549  28.218  31.242  1.00  0.00     0.167 HD
ATOM     55  C   UNL A   1      44.959  25.750  31.065  1.00  0.00     0.074 A 
ATOM     56  C   UNL A   1      45.330  24.409  30.662  1.00  0.00     0.031 C 
ATOM     57  C   UNL A   1      45.647  26.497  31.963  1.00  0.00     0.031 A 
BRANCH  44  58
ATOM     58  C   UNL A   1      43.262  32.094  33.029  1.00  0.00    -0.014 A 
ATOM     59  C   UNL A   1      42.593  32.268  34.255  1.00  0.00     0.010 A 
ATOM     60  C   UNL A   1      43.933  33.193  32.460  1.00  0.00     0.010 A 
ATOM     61  C   UNL A   1      42.565  33.520  34.879  1.00  0.00     0.020 A 
ATOM     62  C   UNL A   1      43.938  34.436  33.097  1.00  0.00     0.020 A 
ATOM     63  C   UNL A   1      43.231  34.598  34.290  1.00  0.00     0.054 A 
BRANCH  63  64
ATOM     64  S   UNL A   1      43.155  36.224  35.092  1.00  0.00     0.124 S 
ATOM     65  O   UNL A   1      44.523  36.397  35.566  1.00  0.00    -0.237 OA
ATOM     66  O   UNL A   1      42.748  37.102  33.997  1.00  0.00    -0.237 OA
ATOM     67  O   UNL A   1      42.148  36.043  36.137  1.00  0.00    -0.744 OA
ENDBRANCH  63  64
ENDBRANCH  44  58
BRANCH  45  68
ATOM     68  C   UNL A   1      42.214  23.567  27.898  1.00  0.00    -0.014 A 
ATOM     69  C   UNL A   1      41.338  22.579  28.386  1.00  0.00     0.010 A 
ATOM     70  C   UNL A   1      42.991  23.285  26.759  1.00  0.00     0.010 A 
ATOM     71  C   UNL A   1      41.291  21.314  27.791  1.00  0.00     0.020 A 
ATOM     72  C   UNL A   1      42.922  22.032  26.142  1.00  0.00     0.020 A 
ATOM     73  C   UNL A   1      42.098  21.043  26.684  1.00  0.00     0.054 A 
BRANCH  73  74
ATOM     74  S   UNL A   1      42.076  19.372  25.978  1.00  0.00     0.124 S 
ATOM     75  O   UNL A   1      42.922  19.535  24.798  1.00  0.00    -0.237 OA
ATOM     76  O   UNL A   1      42.646  18.563  27.052  1.00  0.00    -0.237 OA
ATOM     77  O   UNL A   1      40.662  19.133  25.705  1.00  0.00    -0.744 OA
ENDBRANCH  73  74
ENDBRANCH  45  68
BRANCH  57  78
ATOM     78  C   UNL A   1      46.886  25.910  32.585  1.00  0.00    -0.014 A 
ATOM     79  C   UNL A   1      48.113  25.987  31.901  1.00  0.00     0.010 A 
ATOM     80  C   UNL A   1      46.801  25.142  33.760  1.00  0.00     0.010 A 
ATOM     81  C   UNL A   1      49.222  25.269  32.352  1.00  0.00     0.020 A 
ATOM     82  C   UNL A   1      47.917  24.447  34.232  1.00  0.00     0.020 A 
ATOM     83  C   UNL A   1      49.112  24.490  33.508  1.00  0.00     0.054 A 
BRANCH  83  84
ATOM     84  S   UNL A   1      50.545  23.519  34.047  1.00  0.00     0.124 S 
ATOM     85  O   UNL A   1      51.616  24.511  34.022  1.00  0.00    -0.237 OA
ATOM     86  O   UNL A   1      50.141  23.060  35.373  1.00  0.00    -0.237 OA
ATOM     87  O   UNL A   1      50.645  22.467  33.037  1.00  0.00    -0.744 OA
ENDBRANCH  83  84
ENDBRANCH  57  78
ENDBRANCH  31  32
ENDBRANCH  24  26
ENDBRANCH  23  24
ENDBRANCH   1  23
TORSDOF 16
ENDMDL
MODEL 3
REMARK VINA RESULT:     -10.7      2.437      3.032
REMARK SMILES COc1cc(C)cc2c1O[C@H](C(F)(F)F)C(C(=O)OCCOC(=O)c1ccc(-c3c4nc(c(-c5ccc(S(=O)(=O)[O-])cc5)c5ccc([nH]5)c(-c5ccc(S(=O)(=O)[O-])cc5)c5nc(c(-c6ccc(S(=O)(=O)[O-])cc6)c6ccc3[nH]6)C=C5)C=C4)cc1)=C2
REMARK SMILES IDX 21 1 20 2 19 3 17 4 18 5 16 6 3 7 4 8 9 9 5 10 8 11 10 12
REMARK SMILES IDX 6 13 7 14 85 15 11 16 2 17 1 18 12 19 13 20 14 21 15 22
REMARK SMILES IDX 22 23 23 24 24 25 25 26 26 27 84 28 27 29 83 30 28 31 29 32
REMARK SMILES IDX 30 33 77 34 31 35 82 36 76 37 78 38 32 39 81 40 75 41 74 42
REMARK SMILES IDX 33 44 63 45 44 46 62 47 45 48 48 49 61 50 79 51 46 52 47 53
REMARK SMILES IDX 60 55 80 56 49 57 34 58 35 59 43 60 36 61 42 62 37 63 38 64
REMARK SMILES IDX 39 65 40 66 41 67 64 68 65 69 73 70 66 71 72 72 67 73 68 74
REMARK SMILES IDX 69 75 70 76 71 77 50 78 51 79 59 80 52 81 58 82 53 83 54 84
REMARK SMILES IDX 55 85 56 86 57 87
REMARK H PARENT 78 43 48 54
REMARK Flexibility Score: inf
ROOT
ATOM      1  C   UNL A   1      32.233  30.577  26.620  1.00  0.00     0.275 C 
ENDROOT
BRANCH   1   2
ATOM      2  C   UNL A   1      31.749  29.472  25.680  1.00  0.00     0.275 C 
BRANCH   2   3
ATOM      3  O   UNL A   1      32.495  28.248  25.861  1.00  0.00    -0.459 OA
BRANCH   3   4
ATOM      4  C   UNL A   1      31.864  27.281  26.567  1.00  0.00     0.338 C 
ATOM      5  O   UNL A   1      31.078  27.451  27.487  1.00  0.00    -0.246 OA
BRANCH   4   6
ATOM      6  C   UNL A   1      32.220  25.942  26.059  1.00  0.00     0.087 C 
ATOM      7  C   UNL A   1      33.342  22.339  24.246  1.00  0.00     0.161 A 
ATOM      8  C   UNL A   1      34.706  22.074  24.046  1.00  0.00     0.054 A 
ATOM      9  C   UNL A   1      32.938  23.517  24.885  1.00  0.00     0.169 A 
ATOM     10  C   UNL A   1      35.682  22.952  24.527  1.00  0.00    -0.047 A 
ATOM     11  C   UNL A   1      33.911  24.400  25.343  1.00  0.00     0.021 A 
ATOM     12  O   UNL A   1      31.596  23.737  25.060  1.00  0.00    -0.471 OA
ATOM     13  C   UNL A   1      37.148  22.695  24.330  1.00  0.00     0.044 C 
ATOM     14  C   UNL A   1      35.273  24.112  25.186  1.00  0.00     0.015 A 
ATOM     15  C   UNL A   1      33.520  25.652  25.949  1.00  0.00     0.027 C 
ATOM     16  C   UNL A   1      31.140  25.028  25.557  1.00  0.00     0.316 C 
BRANCH   7  17
ATOM     17  O   UNL A   1      32.359  21.513  23.757  1.00  0.00    -0.493 OA
ATOM     18  C   UNL A   1      32.529  20.153  24.140  1.00  0.00     0.278 C 
ENDBRANCH   7  17
BRANCH  16  19
ATOM     19  C   UNL A   1      30.301  25.709  24.464  1.00  0.00     0.430 C 
ATOM     20  F   UNL A   1      31.021  26.641  23.793  1.00  0.00    -0.167 F 
ATOM     21  F   UNL A   1      29.879  24.816  23.534  1.00  0.00    -0.167 F 
ATOM     22  F   UNL A   1      29.204  26.321  24.961  1.00  0.00    -0.167 F 
ENDBRANCH  16  19
ENDBRANCH   4   6
ENDBRANCH   3   4
ENDBRANCH   2   3
ENDBRANCH   1   2
BRANCH   1  23
ATOM     23  O   UNL A   1      33.645  30.453  26.869  1.00  0.00    -0.458 OA
BRANCH  23  24
ATOM     24  C   UNL A   1      34.184  31.436  27.625  1.00  0.00     0.338 C 
ATOM     25  O   UNL A   1      33.646  32.460  28.005  1.00  0.00    -0.246 OA
BRANCH  24  26
ATOM     26  C   UNL A   1      35.534  31.039  28.050  1.00  0.00     0.060 A 
ATOM     27  C   UNL A   1      36.572  31.955  28.155  1.00  0.00     0.016 A 
ATOM     28  C   UNL A   1      35.708  29.739  28.506  1.00  0.00     0.016 A 
ATOM     29  C   UNL A   1      37.788  31.539  28.714  1.00  0.00     0.010 A 
ATOM     30  C   UNL A   1      36.850  29.378  29.210  1.00  0.00     0.010 A 
ATOM     31  C   UNL A   1      37.931  30.258  29.290  1.00  0.00    -0.014 A 
BRANCH  31  32
ATOM     32  C   UNL A   1      39.195  29.835  29.964  1.00  0.00     0.031 A 
ATOM     33  C   UNL A   1      39.630  30.458  31.273  1.00  0.00     0.074 A 
ATOM     34  C   UNL A   1      39.981  28.905  29.380  1.00  0.00     0.049 A 
ATOM     35  N   UNL A   1      40.680  30.177  32.007  1.00  0.00    -0.248 NA
ATOM     36  C   UNL A   1      38.819  31.563  31.814  1.00  0.00     0.031 C 
ATOM     37  C   UNL A   1      39.738  28.299  28.067  1.00  0.00     0.029 A 
ATOM     38  N   UNL A   1      41.125  28.282  29.820  1.00  0.00    -0.354 N 
ATOM     39  C   UNL A   1      40.657  31.075  33.069  1.00  0.00     0.074 A 
ATOM     40  C   UNL A   1      39.546  31.967  32.846  1.00  0.00     0.031 C 
ATOM     41  C   UNL A   1      40.641  27.332  27.854  1.00  0.00     0.029 A 
ATOM     42  C   UNL A   1      41.562  27.278  28.984  1.00  0.00     0.049 A 
ATOM     43  H   UNL A   1      41.589  28.532  30.652  1.00  0.00     0.167 HD
ATOM     44  C   UNL A   1      41.452  31.123  34.164  1.00  0.00     0.031 A 
ATOM     45  C   UNL A   1      42.570  26.391  29.118  1.00  0.00     0.031 A 
ATOM     46  C   UNL A   1      42.516  30.190  34.418  1.00  0.00     0.049 A 
ATOM     47  C   UNL A   1      43.404  26.417  30.368  1.00  0.00     0.074 A 
ATOM     48  C   UNL A   1      43.322  30.097  35.538  1.00  0.00     0.029 A 
ATOM     49  N   UNL A   1      42.909  29.178  33.554  1.00  0.00    -0.354 N 
ATOM     50  N   UNL A   1      43.306  27.218  31.402  1.00  0.00    -0.248 NA
ATOM     51  C   UNL A   1      44.473  25.415  30.483  1.00  0.00     0.031 C 
ATOM     52  C   UNL A   1      44.241  29.067  35.327  1.00  0.00     0.029 A 
ATOM     53  C   UNL A   1      43.960  28.470  34.109  1.00  0.00     0.049 A 
ATOM     54  H   UNL A   1      42.500  28.992  32.679  1.00  0.00     0.167 HD
ATOM     55  C   UNL A   1      44.291  26.811  32.294  1.00  0.00     0.074 A 
ATOM     56  C   UNL A   1      44.959  25.676  31.691  1.00  0.00     0.031 C 
ATOM     57  C   UNL A   1      44.615  27.338  33.500  1.00  0.00     0.031 A 
BRANCH  44  58
ATOM     58  C   UNL A   1      41.174  32.173  35.213  1.00  0.00    -0.014 A 
ATOM     59  C   UNL A   1      40.231  31.926  36.229  1.00  0.00     0.010 A 
ATOM     60  C   UNL A   1      41.756  33.452  35.123  1.00  0.00     0.010 A 
ATOM     61  C   UNL A   1      39.853  32.944  37.111  1.00  0.00     0.020 A 
ATOM     62  C   UNL A   1      41.406  34.461  36.024  1.00  0.00     0.020 A 
ATOM     63  C   UNL A   1      40.436  34.208  36.995  1.00  0.00     0.054 A 
BRANCH  63  64
ATOM     64  S   UNL A   1      39.907  35.528  38.122  1.00  0.00     0.124 S 
ATOM     65  O   UNL A   1      41.030  35.608  39.050  1.00  0.00    -0.237 OA
ATOM     66  O   UNL A   1      39.745  36.669  37.224  1.00  0.00    -0.237 OA
ATOM     67  O   UNL A   1      38.662  35.014  38.690  1.00  0.00    -0.744 OA
ENDBRANCH  63  64
ENDBRANCH  44  58
BRANCH  45  68
ATOM     68  C   UNL A   1      42.770  25.358  28.062  1.00  0.00    -0.014 A 
ATOM     69  C   UNL A   1      42.153  24.096  28.166  1.00  0.00     0.010 A 
ATOM     70  C   UNL A   1      43.668  25.590  27.004  1.00  0.00     0.010 A 
ATOM     71  C   UNL A   1      42.479  23.070  27.274  1.00  0.00     0.020 A 
ATOM     72  C   UNL A   1      43.971  24.575  26.090  1.00  0.00     0.020 A 
ATOM     73  C   UNL A   1      43.400  23.311  26.253  1.00  0.00     0.054 A 
BRANCH  73  74
ATOM     74  S   UNL A   1      43.864  21.942  25.156  1.00  0.00     0.124 S 
ATOM     75  O   UNL A   1      42.841  20.948  25.469  1.00  0.00    -0.237 OA
ATOM     76  O   UNL A   1      43.768  22.548  23.831  1.00  0.00    -0.237 OA
ATOM     77  O   UNL A   1      45.218  21.602  25.586  1.00  0.00    -0.744 OA
ENDBRANCH  73  74
ENDBRANCH  45  68
BRANCH  57  78
ATOM     78  C   UNL A   1      45.748  26.716  34.273  1.00  0.00    -0.014 A 
ATOM     79  C   UNL A   1      47.073  27.105  34.003  1.00  0.00     0.010 A 
ATOM     80  C   UNL A   1      45.513  25.636  35.141  1.00  0.00     0.010 A 
ATOM     81  C   UNL A   1      48.145  26.396  34.548  1.00  0.00     0.020 A 
ATOM     82  C   UNL A   1      46.582  24.942  35.713  1.00  0.00     0.020 A 
ATOM     83  C   UNL A   1      47.892  25.309  35.388  1.00  0.00     0.054 A 
BRANCH  83  84
ATOM     84  S   UNL A   1      49.295  24.364  36.041  1.00  0.00     0.124 S 
ATOM     85  O   UNL A   1      50.258  25.418  36.348  1.00  0.00    -0.237 OA
ATOM     86  O   UNL A   1      48.715  23.683  37.196  1.00  0.00    -0.237 OA
ATOM     87  O   UNL A   1      49.663  23.487  34.932  1.00  0.00    -0.744 OA
ENDBRANCH  83  84
ENDBRANCH  57  78
ENDBRANCH  31  32
ENDBRANCH  24  26
ENDBRANCH  23  24
ENDBRANCH   1  23
TORSDOF 16
ENDMDL
