MODEL 1
REMARK VINA RESULT:     -10.9      0.000      0.000
REMARK SMILES C[C@H]1CCc2sc3ncn4nc(/C=C\C(=O)OCCOC(=O)c5ccc(-c6c7nc(c(-c8ccc(S(=O)(=O)[O-])cc8)c8ccc([nH]8)c(-c8ccc(S(=O)(=O)[O-])cc8)c8nc(c(-c9ccc(S(=O)(=O)[O-])cc9)c9ccc6[nH]9)C=C8)C=C7)cc5)nc4c3c2C1
REMARK SMILES IDX 19 1 18 2 17 3 15 4 16 5 14 6 13 7 12 8 1 9 2 10 3 11 87 12
REMARK SMILES IDX 4 13 86 14 5 15 85 16 6 17 7 18 84 19 8 20 10 21 83 22 9 23
REMARK SMILES IDX 11 24 20 25 21 26 22 27 23 28 24 29 82 30 25 31 81 32 26 33
REMARK SMILES IDX 27 34 28 35 75 36 29 37 80 38 74 39 76 40 30 41 79 42 73 43
REMARK SMILES IDX 72 44 31 46 61 47 42 48 60 49 43 50 46 51 59 52 77 53 44 54
REMARK SMILES IDX 45 55 58 57 78 58 47 59 32 60 33 61 41 62 34 63 40 64 35 65
REMARK SMILES IDX 36 66 37 67 38 68 39 69 62 70 63 71 71 72 64 73 70 74 65 75
REMARK SMILES IDX 66 76 67 77 68 78 69 79 48 80 49 81 57 82 50 83 56 84 51 85
REMARK SMILES IDX 52 86 53 87 54 88 55 89
REMARK H PARENT 76 45 46 56
REMARK Flexibility Score: inf
ROOT
ATOM      1  C   UNL A   1      34.061  33.470  28.199  1.00  0.00     0.275 C 
ENDROOT
BRANCH   1   2
ATOM      2  C   UNL A   1      34.262  34.550  29.224  1.00  0.00     0.275 C 
BRANCH   2   3
ATOM      3  O   UNL A   1      35.056  34.034  30.273  1.00  0.00    -0.459 OA
BRANCH   3   4
ATOM      4  C   UNL A   1      34.437  33.742  31.421  1.00  0.00     0.331 C 
ATOM      5  O   UNL A   1      33.674  34.429  32.054  1.00  0.00    -0.247 OA
BRANCH   4   6
ATOM      6  C   UNL A   1      34.831  32.373  31.779  1.00  0.00     0.097 C 
ATOM      7  C   UNL A   1      35.982  32.029  32.381  1.00  0.00     0.058 C 
BRANCH   7   8
ATOM      8  C   UNL A   1      37.095  32.813  32.847  1.00  0.00     0.175 A 
ATOM      9  C   UNL A   1      41.587  36.080  28.559  1.00  0.00     0.008 C 
ATOM     10  C   UNL A   1      42.009  34.723  29.138  1.00  0.00    -0.009 C 
ATOM     11  C   UNL A   1      43.426  34.719  29.734  1.00  0.00     0.009 C 
ATOM     12  C   UNL A   1      40.987  34.213  30.161  1.00  0.00     0.041 C 
ATOM     13  C   UNL A   1      43.535  35.506  31.054  1.00  0.00     0.047 C 
ATOM     14  C   UNL A   1      41.179  34.649  31.566  1.00  0.00    -0.020 A 
ATOM     15  C   UNL A   1      42.372  35.223  31.963  1.00  0.00     0.011 A 
ATOM     16  C   UNL A   1      40.298  34.472  32.676  1.00  0.00     0.060 A 
ATOM     17  S   UNL A   1      42.392  35.600  33.624  1.00  0.00    -0.120 S 
ATOM     18  C   UNL A   1      40.832  34.935  33.873  1.00  0.00     0.129 A 
ATOM     19  C   UNL A   1      38.950  33.852  32.837  1.00  0.00     0.168 A 
ATOM     20  N   UNL A   1      40.268  34.887  35.128  1.00  0.00    -0.225 NA
ATOM     21  N   UNL A   1      38.455  33.767  34.103  1.00  0.00    -0.201 N 
ATOM     22  N   UNL A   1      38.078  33.329  32.010  1.00  0.00    -0.207 NA
ATOM     23  C   UNL A   1      39.106  34.290  35.215  1.00  0.00     0.227 A 
ATOM     24  N   UNL A   1      37.274  33.124  34.144  1.00  0.00    -0.145 NA
ENDBRANCH   7   8
ENDBRANCH   4   6
ENDBRANCH   3   4
ENDBRANCH   2   3
ENDBRANCH   1   2
BRANCH   1  25
ATOM     25  O   UNL A   1      35.302  32.811  28.102  1.00  0.00    -0.458 OA
BRANCH  25  26
ATOM     26  C   UNL A   1      35.214  31.494  27.832  1.00  0.00     0.338 C 
ATOM     27  O   UNL A   1      34.325  30.865  27.284  1.00  0.00    -0.246 OA
BRANCH  26  28
ATOM     28  C   UNL A   1      36.287  30.874  28.580  1.00  0.00     0.060 A 
ATOM     29  C   UNL A   1      37.297  31.728  29.010  1.00  0.00     0.016 A 
ATOM     30  C   UNL A   1      36.430  29.480  28.465  1.00  0.00     0.016 A 
ATOM     31  C   UNL A   1      38.547  31.190  29.126  1.00  0.00     0.010 A 
ATOM     32  C   UNL A   1      37.677  28.953  28.552  1.00  0.00     0.010 A 
ATOM     33  C   UNL A   1      38.715  29.834  28.810  1.00  0.00    -0.014 A 
BRANCH  33  34
ATOM     34  C   UNL A   1      40.018  29.270  28.965  1.00  0.00     0.031 A 
ATOM     35  C   UNL A   1      40.274  28.975  30.385  1.00  0.00     0.074 A 
ATOM     36  C   UNL A   1      40.806  28.974  27.926  1.00  0.00     0.049 A 
ATOM     37  N   UNL A   1      40.913  29.733  31.207  1.00  0.00    -0.248 NA
ATOM     38  C   UNL A   1      39.478  27.915  31.029  1.00  0.00     0.031 C 
ATOM     39  C   UNL A   1      40.506  28.961  26.494  1.00  0.00     0.029 A 
ATOM     40  N   UNL A   1      42.069  28.510  27.982  1.00  0.00    -0.354 N 
ATOM     41  C   UNL A   1      40.826  29.090  32.428  1.00  0.00     0.074 A 
ATOM     42  C   UNL A   1      39.732  28.161  32.315  1.00  0.00     0.031 C 
ATOM     43  C   UNL A   1      41.489  28.283  25.851  1.00  0.00     0.029 A 
ATOM     44  C   UNL A   1      42.537  27.957  26.806  1.00  0.00     0.049 A 
ATOM     45  H   UNL A   1      42.617  28.563  28.797  1.00  0.00     0.167 HD
ATOM     46  C   UNL A   1      41.866  29.139  33.302  1.00  0.00     0.031 A 
ATOM     47  C   UNL A   1      43.671  27.221  26.693  1.00  0.00     0.031 A 
ATOM     48  C   UNL A   1      42.810  30.166  32.930  1.00  0.00     0.049 A 
ATOM     49  C   UNL A   1      44.521  27.567  27.870  1.00  0.00     0.074 A 
ATOM     50  C   UNL A   1      42.733  31.537  32.778  1.00  0.00     0.029 A 
ATOM     51  N   UNL A   1      43.912  29.758  32.206  1.00  0.00    -0.354 N 
ATOM     52  N   UNL A   1      45.018  28.761  28.060  1.00  0.00    -0.248 NA
ATOM     53  C   UNL A   1      44.387  26.761  29.078  1.00  0.00     0.031 C 
ATOM     54  C   UNL A   1      43.516  31.826  31.622  1.00  0.00     0.029 A 
ATOM     55  C   UNL A   1      44.097  30.638  31.170  1.00  0.00     0.049 A 
ATOM     56  H   UNL A   1      44.470  28.971  32.401  1.00  0.00     0.167 HD
ATOM     57  C   UNL A   1      44.853  29.014  29.418  1.00  0.00     0.074 A 
ATOM     58  C   UNL A   1      44.545  27.710  30.008  1.00  0.00     0.031 C 
ATOM     59  C   UNL A   1      44.690  30.288  29.891  1.00  0.00     0.031 A 
BRANCH  46  60
ATOM     60  C   UNL A   1      42.246  27.973  34.175  1.00  0.00    -0.014 A 
ATOM     61  C   UNL A   1      42.202  28.146  35.569  1.00  0.00     0.010 A 
ATOM     62  C   UNL A   1      42.904  26.821  33.690  1.00  0.00     0.010 A 
ATOM     63  C   UNL A   1      42.862  27.261  36.428  1.00  0.00     0.020 A 
ATOM     64  C   UNL A   1      43.529  25.910  34.538  1.00  0.00     0.020 A 
ATOM     65  C   UNL A   1      43.535  26.158  35.901  1.00  0.00     0.054 A 
BRANCH  65  66
ATOM     66  S   UNL A   1      44.483  25.089  37.005  1.00  0.00     0.124 S 
ATOM     67  O   UNL A   1      43.842  25.345  38.290  1.00  0.00    -0.237 OA
ATOM     68  O   UNL A   1      44.247  23.769  36.427  1.00  0.00    -0.237 OA
ATOM     69  O   UNL A   1      45.850  25.588  36.875  1.00  0.00    -0.744 OA
ENDBRANCH  65  66
ENDBRANCH  46  60
BRANCH  47  70
ATOM     70  C   UNL A   1      43.864  26.001  25.869  1.00  0.00    -0.014 A 
ATOM     71  C   UNL A   1      45.134  25.649  25.381  1.00  0.00     0.010 A 
ATOM     72  C   UNL A   1      42.840  25.034  25.785  1.00  0.00     0.010 A 
ATOM     73  C   UNL A   1      45.384  24.359  24.875  1.00  0.00     0.020 A 
ATOM     74  C   UNL A   1      43.079  23.750  25.279  1.00  0.00     0.020 A 
ATOM     75  C   UNL A   1      44.357  23.412  24.845  1.00  0.00     0.054 A 
BRANCH  75  76
ATOM     76  S   UNL A   1      44.726  21.705  24.336  1.00  0.00     0.124 S 
ATOM     77  O   UNL A   1      43.741  20.935  25.090  1.00  0.00    -0.237 OA
ATOM     78  O   UNL A   1      44.520  21.754  22.892  1.00  0.00    -0.237 OA
ATOM     79  O   UNL A   1      46.113  21.512  24.755  1.00  0.00    -0.744 OA
ENDBRANCH  75  76
ENDBRANCH  47  70
BRANCH  59  80
ATOM     80  C   UNL A   1      44.951  31.445  28.946  1.00  0.00    -0.014 A 
ATOM     81  C   UNL A   1      46.105  32.252  28.985  1.00  0.00     0.010 A 
ATOM     82  C   UNL A   1      44.067  31.598  27.863  1.00  0.00     0.010 A 
ATOM     83  C   UNL A   1      46.355  33.198  27.976  1.00  0.00     0.020 A 
ATOM     84  C   UNL A   1      44.318  32.523  26.848  1.00  0.00     0.020 A 
ATOM     85  C   UNL A   1      45.457  33.326  26.911  1.00  0.00     0.054 A 
BRANCH  85  86
ATOM     86  S   UNL A   1      45.801  34.515  25.582  1.00  0.00     0.124 S 
ATOM     87  O   UNL A   1      47.216  34.283  25.304  1.00  0.00    -0.237 OA
ATOM     88  O   UNL A   1      44.878  34.100  24.528  1.00  0.00    -0.237 OA
ATOM     89  O   UNL A   1      45.496  35.811  26.186  1.00  0.00    -0.744 OA
ENDBRANCH  85  86
ENDBRANCH  59  80
ENDBRANCH  33  34
ENDBRANCH  26  28
ENDBRANCH  25  26
ENDBRANCH   1  25
TORSDOF 15
ENDMDL
MODEL 2
REMARK VINA RESULT:     -10.7      4.699     11.421
REMARK SMILES C[C@H]1CCc2sc3ncn4nc(/C=C\C(=O)OCCOC(=O)c5ccc(-c6c7nc(c(-c8ccc(S(=O)(=O)[O-])cc8)c8ccc([nH]8)c(-c8ccc(S(=O)(=O)[O-])cc8)c8nc(c(-c9ccc(S(=O)(=O)[O-])cc9)c9ccc6[nH]9)C=C8)C=C7)cc5)nc4c3c2C1
REMARK SMILES IDX 19 1 18 2 17 3 15 4 16 5 14 6 13 7 12 8 1 9 2 10 3 11 87 12
REMARK SMILES IDX 4 13 86 14 5 15 85 16 6 17 7 18 84 19 8 20 10 21 83 22 9 23
REMARK SMILES IDX 11 24 20 25 21 26 22 27 23 28 24 29 82 30 25 31 81 32 26 33
REMARK SMILES IDX 27 34 28 35 75 36 29 37 80 38 74 39 76 40 30 41 79 42 73 43
REMARK SMILES IDX 72 44 31 46 61 47 42 48 60 49 43 50 46 51 59 52 77 53 44 54
REMARK SMILES IDX 45 55 58 57 78 58 47 59 32 60 33 61 41 62 34 63 40 64 35 65
REMARK SMILES IDX 36 66 37 67 38 68 39 69 62 70 63 71 71 72 64 73 70 74 65 75
REMARK SMILES IDX 66 76 67 77 68 78 69 79 48 80 49 81 57 82 50 83 56 84 51 85
REMARK SMILES IDX 52 86 53 87 54 88 55 89
REMARK H PARENT 76 45 46 56
REMARK Flexibility Score: inf
ROOT
ATOM      1  C   UNL A   1      38.730  21.138  25.558  1.00  0.00     0.275 C 
ENDROOT
BRANCH   1   2
ATOM      2  C   UNL A   1      37.234  21.126  25.420  1.00  0.00     0.275 C 
BRANCH   2   3
ATOM      3  O   UNL A   1      36.809  22.407  24.998  1.00  0.00    -0.459 OA
BRANCH   3   4
ATOM      4  C   UNL A   1      36.124  22.476  23.853  1.00  0.00     0.331 C 
ATOM      5  O   UNL A   1      36.447  23.006  22.819  1.00  0.00    -0.247 OA
BRANCH   4   6
ATOM      6  C   UNL A   1      34.873  21.735  24.064  1.00  0.00     0.097 C 
ATOM      7  C   UNL A   1      33.636  22.241  23.915  1.00  0.00     0.058 C 
BRANCH   7   8
ATOM      8  C   UNL A   1      33.172  23.545  23.520  1.00  0.00     0.175 A 
ATOM      9  C   UNL A   1      34.583  29.403  27.116  1.00  0.00     0.008 C 
ATOM     10  C   UNL A   1      33.219  28.737  27.340  1.00  0.00    -0.009 C 
ATOM     11  C   UNL A   1      32.035  29.714  27.268  1.00  0.00     0.009 C 
ATOM     12  C   UNL A   1      33.012  27.559  26.380  1.00  0.00     0.041 C 
ATOM     13  C   UNL A   1      31.743  30.216  25.841  1.00  0.00     0.047 C 
ATOM     14  C   UNL A   1      32.417  27.875  25.059  1.00  0.00    -0.020 A 
ATOM     15  C   UNL A   1      31.816  29.100  24.838  1.00  0.00     0.011 A 
ATOM     16  C   UNL A   1      32.275  27.019  23.925  1.00  0.00     0.060 A 
ATOM     17  S   UNL A   1      31.158  29.229  23.272  1.00  0.00    -0.120 S 
ATOM     18  C   UNL A   1      31.594  27.620  22.872  1.00  0.00     0.129 A 
ATOM     19  C   UNL A   1      32.652  25.603  23.645  1.00  0.00     0.168 A 
ATOM     20  N   UNL A   1      31.257  27.070  21.656  1.00  0.00    -0.225 NA
ATOM     21  N   UNL A   1      32.244  25.076  22.456  1.00  0.00    -0.201 N 
ATOM     22  N   UNL A   1      33.311  24.682  24.306  1.00  0.00    -0.207 NA
ATOM     23  C   UNL A   1      31.572  25.810  21.486  1.00  0.00     0.227 A 
ATOM     24  N   UNL A   1      32.568  23.776  22.340  1.00  0.00    -0.145 NA
ENDBRANCH   7   8
ENDBRANCH   4   6
ENDBRANCH   3   4
ENDBRANCH   2   3
ENDBRANCH   1   2
BRANCH   1  25
ATOM     25  O   UNL A   1      39.045  22.393  26.114  1.00  0.00    -0.458 OA
BRANCH  25  26
ATOM     26  C   UNL A   1      40.038  22.367  27.023  1.00  0.00     0.338 C 
ATOM     27  O   UNL A   1      40.356  21.492  27.809  1.00  0.00    -0.246 OA
BRANCH  26  28
ATOM     28  C   UNL A   1      40.523  23.728  27.106  1.00  0.00     0.060 A 
ATOM     29  C   UNL A   1      41.676  23.915  27.862  1.00  0.00     0.016 A 
ATOM     30  C   UNL A   1      39.620  24.755  26.781  1.00  0.00     0.016 A 
ATOM     31  C   UNL A   1      41.811  25.123  28.485  1.00  0.00     0.010 A 
ATOM     32  C   UNL A   1      39.741  25.943  27.424  1.00  0.00     0.010 A 
ATOM     33  C   UNL A   1      40.794  26.073  28.315  1.00  0.00    -0.014 A 
BRANCH  33  34
ATOM     34  C   UNL A   1      40.958  27.345  28.941  1.00  0.00     0.031 A 
ATOM     35  C   UNL A   1      42.077  28.073  28.319  1.00  0.00     0.074 A 
ATOM     36  C   UNL A   1      40.122  27.803  29.879  1.00  0.00     0.049 A 
ATOM     37  N   UNL A   1      43.285  28.118  28.762  1.00  0.00    -0.248 NA
ATOM     38  C   UNL A   1      41.925  28.516  26.921  1.00  0.00     0.031 C 
ATOM     39  C   UNL A   1      38.835  27.271  30.329  1.00  0.00     0.029 A 
ATOM     40  N   UNL A   1      40.241  28.952  30.572  1.00  0.00    -0.354 N 
ATOM     41  C   UNL A   1      43.987  28.839  27.815  1.00  0.00     0.074 A 
ATOM     42  C   UNL A   1      43.190  28.810  26.616  1.00  0.00     0.031 C 
ATOM     43  C   UNL A   1      38.194  28.230  31.043  1.00  0.00     0.029 A 
ATOM     44  C   UNL A   1      39.089  29.364  31.214  1.00  0.00     0.049 A 
ATOM     45  H   UNL A   1      41.083  29.458  30.616  1.00  0.00     0.167 HD
ATOM     46  C   UNL A   1      44.992  29.671  28.195  1.00  0.00     0.031 A 
ATOM     47  C   UNL A   1      38.905  30.591  31.762  1.00  0.00     0.031 A 
ATOM     48  C   UNL A   1      45.391  29.414  29.559  1.00  0.00     0.049 A 
ATOM     49  C   UNL A   1      40.265  31.160  31.998  1.00  0.00     0.074 A 
ATOM     50  C   UNL A   1      45.904  28.316  30.222  1.00  0.00     0.029 A 
ATOM     51  N   UNL A   1      44.841  30.229  30.527  1.00  0.00    -0.354 N 
ATOM     52  N   UNL A   1      41.115  30.637  32.842  1.00  0.00    -0.248 NA
ATOM     53  C   UNL A   1      40.867  31.969  30.944  1.00  0.00     0.031 C 
ATOM     54  C   UNL A   1      45.249  28.309  31.489  1.00  0.00     0.029 A 
ATOM     55  C   UNL A   1      44.431  29.439  31.573  1.00  0.00     0.049 A 
ATOM     56  H   UNL A   1      44.757  31.208  30.477  1.00  0.00     0.167 HD
ATOM     57  C   UNL A   1      42.346  30.681  32.196  1.00  0.00     0.074 A 
ATOM     58  C   UNL A   1      42.146  31.597  31.071  1.00  0.00     0.031 C 
ATOM     59  C   UNL A   1      43.321  29.756  32.454  1.00  0.00     0.031 A 
BRANCH  46  60
ATOM     60  C   UNL A   1      45.258  30.986  27.512  1.00  0.00    -0.014 A 
ATOM     61  C   UNL A   1      46.523  31.188  26.933  1.00  0.00     0.010 A 
ATOM     62  C   UNL A   1      44.428  32.119  27.657  1.00  0.00     0.010 A 
ATOM     63  C   UNL A   1      46.968  32.472  26.603  1.00  0.00     0.020 A 
ATOM     64  C   UNL A   1      44.844  33.397  27.292  1.00  0.00     0.020 A 
ATOM     65  C   UNL A   1      46.129  33.569  26.802  1.00  0.00     0.054 A 
BRANCH  65  66
ATOM     66  S   UNL A   1      46.755  35.233  26.485  1.00  0.00     0.124 S 
ATOM     67  O   UNL A   1      47.627  35.009  25.337  1.00  0.00    -0.237 OA
ATOM     68  O   UNL A   1      45.526  35.974  26.216  1.00  0.00    -0.237 OA
ATOM     69  O   UNL A   1      47.432  35.587  27.730  1.00  0.00    -0.744 OA
ENDBRANCH  65  66
ENDBRANCH  46  60
BRANCH  47  70
ATOM     70  C   UNL A   1      37.668  31.410  31.718  1.00  0.00    -0.014 A 
ATOM     71  C   UNL A   1      36.753  31.401  32.786  1.00  0.00     0.010 A 
ATOM     72  C   UNL A   1      37.515  32.411  30.736  1.00  0.00     0.010 A 
ATOM     73  C   UNL A   1      35.756  32.389  32.895  1.00  0.00     0.020 A 
ATOM     74  C   UNL A   1      36.522  33.395  30.834  1.00  0.00     0.020 A 
ATOM     75  C   UNL A   1      35.660  33.391  31.926  1.00  0.00     0.054 A 
BRANCH  75  76
ATOM     76  S   UNL A   1      34.471  34.748  32.155  1.00  0.00     0.124 S 
ATOM     77  O   UNL A   1      33.398  34.100  32.904  1.00  0.00    -0.237 OA
ATOM     78  O   UNL A   1      35.254  35.734  32.895  1.00  0.00    -0.237 OA
ATOM     79  O   UNL A   1      34.123  35.137  30.789  1.00  0.00    -0.744 OA
ENDBRANCH  75  76
ENDBRANCH  47  70
BRANCH  59  80
ATOM     80  C   UNL A   1      43.138  28.832  33.642  1.00  0.00    -0.014 A 
ATOM     81  C   UNL A   1      43.598  29.120  34.943  1.00  0.00     0.010 A 
ATOM     82  C   UNL A   1      42.310  27.711  33.461  1.00  0.00     0.010 A 
ATOM     83  C   UNL A   1      43.249  28.295  36.027  1.00  0.00     0.020 A 
ATOM     84  C   UNL A   1      41.944  26.898  34.536  1.00  0.00     0.020 A 
ATOM     85  C   UNL A   1      42.421  27.188  35.815  1.00  0.00     0.054 A 
BRANCH  85  86
ATOM     86  S   UNL A   1      41.931  26.148  37.220  1.00  0.00     0.124 S 
ATOM     87  O   UNL A   1      40.636  26.707  37.595  1.00  0.00    -0.237 OA
ATOM     88  O   UNL A   1      41.891  24.809  36.635  1.00  0.00    -0.237 OA
ATOM     89  O   UNL A   1      42.999  26.356  38.197  1.00  0.00    -0.744 OA
ENDBRANCH  85  86
ENDBRANCH  59  80
ENDBRANCH  33  34
ENDBRANCH  26  28
ENDBRANCH  25  26
ENDBRANCH   1  25
TORSDOF 15
ENDMDL
MODEL 3
REMARK VINA RESULT:     -10.5      4.525     11.568
REMARK SMILES C[C@H]1CCc2sc3ncn4nc(/C=C\C(=O)OCCOC(=O)c5ccc(-c6c7nc(c(-c8ccc(S(=O)(=O)[O-])cc8)c8ccc([nH]8)c(-c8ccc(S(=O)(=O)[O-])cc8)c8nc(c(-c9ccc(S(=O)(=O)[O-])cc9)c9ccc6[nH]9)C=C8)C=C7)cc5)nc4c3c2C1
REMARK SMILES IDX 19 1 18 2 17 3 15 4 16 5 14 6 13 7 12 8 1 9 2 10 3 11 87 12
REMARK SMILES IDX 4 13 86 14 5 15 85 16 6 17 7 18 84 19 8 20 10 21 83 22 9 23
REMARK SMILES IDX 11 24 20 25 21 26 22 27 23 28 24 29 82 30 25 31 81 32 26 33
REMARK SMILES IDX 27 34 28 35 75 36 29 37 80 38 74 39 76 40 30 41 79 42 73 43
REMARK SMILES IDX 72 44 31 46 61 47 42 48 60 49 43 50 46 51 59 52 77 53 44 54
REMARK SMILES IDX 45 55 58 57 78 58 47 59 32 60 33 61 41 62 34 63 40 64 35 65
REMARK SMILES IDX 36 66 37 67 38 68 39 69 62 70 63 71 71 72 64 73 70 74 65 75
REMARK SMILES IDX 66 76 67 77 68 78 69 79 48 80 49 81 57 82 50 83 56 84 51 85
REMARK SMILES IDX 52 86 53 87 54 88 55 89
REMARK H PARENT 76 45 46 56
REMARK Flexibility Score: inf
ROOT
ATOM      1  C   UNL A   1      41.679  20.710  26.390  1.00  0.00     0.275 C 
ENDROOT
BRANCH   1   2
ATOM      2  C   UNL A   1      40.206  20.499  26.185  1.00  0.00     0.275 C 
BRANCH   2   3
ATOM      3  O   UNL A   1      39.516  21.632  26.674  1.00  0.00    -0.459 OA
BRANCH   3   4
ATOM      4  C   UNL A   1      38.510  22.103  25.930  1.00  0.00     0.331 C 
ATOM      5  O   UNL A   1      38.131  23.242  25.821  1.00  0.00    -0.247 OA
BRANCH   4   6
ATOM      6  C   UNL A   1      37.943  20.955  25.210  1.00  0.00     0.097 C 
ATOM      7  C   UNL A   1      36.633  20.741  25.000  1.00  0.00     0.058 C 
BRANCH   7   8
ATOM      8  C   UNL A   1      35.465  21.501  25.359  1.00  0.00     0.175 A 
ATOM      9  C   UNL A   1      32.204  25.886  20.957  1.00  0.00     0.008 C 
ATOM     10  C   UNL A   1      33.186  26.488  21.970  1.00  0.00    -0.009 C 
ATOM     11  C   UNL A   1      32.622  27.699  22.731  1.00  0.00     0.009 C 
ATOM     12  C   UNL A   1      33.700  25.424  22.946  1.00  0.00     0.041 C 
ATOM     13  C   UNL A   1      31.534  27.325  23.755  1.00  0.00     0.047 C 
ATOM     14  C   UNL A   1      32.890  25.195  24.167  1.00  0.00    -0.020 A 
ATOM     15  C   UNL A   1      31.910  26.096  24.535  1.00  0.00     0.011 A 
ATOM     16  C   UNL A   1      33.034  24.163  25.144  1.00  0.00     0.060 A 
ATOM     17  S   UNL A   1      31.140  25.663  25.992  1.00  0.00    -0.120 S 
ATOM     18  C   UNL A   1      32.151  24.296  26.209  1.00  0.00     0.129 A 
ATOM     19  C   UNL A   1      33.962  23.005  25.295  1.00  0.00     0.168 A 
ATOM     20  N   UNL A   1      32.046  23.501  27.329  1.00  0.00    -0.225 NA
ATOM     21  N   UNL A   1      33.870  22.282  26.446  1.00  0.00    -0.201 N 
ATOM     22  N   UNL A   1      34.909  22.486  24.551  1.00  0.00    -0.207 NA
ATOM     23  C   UNL A   1      32.917  22.529  27.429  1.00  0.00     0.227 A 
ATOM     24  N   UNL A   1      34.800  21.313  26.514  1.00  0.00    -0.145 NA
ENDBRANCH   7   8
ENDBRANCH   4   6
ENDBRANCH   3   4
ENDBRANCH   2   3
ENDBRANCH   1   2
BRANCH   1  25
ATOM     25  O   UNL A   1      42.012  21.824  25.596  1.00  0.00    -0.458 OA
BRANCH  25  26
ATOM     26  C   UNL A   1      42.978  22.608  26.112  1.00  0.00     0.338 C 
ATOM     27  O   UNL A   1      44.186  22.450  26.133  1.00  0.00    -0.246 OA
BRANCH  26  28
ATOM     28  C   UNL A   1      42.287  23.591  26.920  1.00  0.00     0.060 A 
ATOM     29  C   UNL A   1      41.550  24.540  26.219  1.00  0.00     0.016 A 
ATOM     30  C   UNL A   1      42.722  23.755  28.247  1.00  0.00     0.016 A 
ATOM     31  C   UNL A   1      41.428  25.772  26.797  1.00  0.00     0.010 A 
ATOM     32  C   UNL A   1      42.626  24.987  28.806  1.00  0.00     0.010 A 
ATOM     33  C   UNL A   1      42.045  25.983  28.038  1.00  0.00    -0.014 A 
BRANCH  33  34
ATOM     34  C   UNL A   1      41.885  27.263  28.651  1.00  0.00     0.031 A 
ATOM     35  C   UNL A   1      43.043  28.119  28.342  1.00  0.00     0.074 A 
ATOM     36  C   UNL A   1      40.775  27.616  29.308  1.00  0.00     0.049 A 
ATOM     37  N   UNL A   1      44.068  28.300  29.100  1.00  0.00    -0.248 NA
ATOM     38  C   UNL A   1      43.236  28.548  26.946  1.00  0.00     0.031 C 
ATOM     39  C   UNL A   1      39.482  26.937  29.400  1.00  0.00     0.029 A 
ATOM     40  N   UNL A   1      40.568  28.768  29.976  1.00  0.00    -0.354 N 
ATOM     41  C   UNL A   1      44.920  29.103  28.365  1.00  0.00     0.074 A 
ATOM     42  C   UNL A   1      44.494  28.987  26.994  1.00  0.00     0.031 C 
ATOM     43  C   UNL A   1      38.565  27.812  29.883  1.00  0.00     0.029 A 
ATOM     44  C   UNL A   1      39.245  29.041  30.264  1.00  0.00     0.049 A 
ATOM     45  H   UNL A   1      41.302  29.367  30.238  1.00  0.00     0.167 HD
ATOM     46  C   UNL A   1      45.679  30.043  28.985  1.00  0.00     0.031 A 
ATOM     47  C   UNL A   1      38.779  30.236  30.706  1.00  0.00     0.031 A 
ATOM     48  C   UNL A   1      45.711  29.827  30.413  1.00  0.00     0.049 A 
ATOM     49  C   UNL A   1      39.947  30.956  31.293  1.00  0.00     0.074 A 
ATOM     50  C   UNL A   1      46.140  28.792  31.221  1.00  0.00     0.029 A 
ATOM     51  N   UNL A   1      44.826  30.567  31.168  1.00  0.00    -0.354 N 
ATOM     52  N   UNL A   1      40.583  30.531  32.353  1.00  0.00    -0.248 NA
ATOM     53  C   UNL A   1      40.723  31.835  30.425  1.00  0.00     0.031 C 
ATOM     54  C   UNL A   1      45.164  28.703  32.257  1.00  0.00     0.029 A 
ATOM     55  C   UNL A   1      44.234  29.731  32.081  1.00  0.00     0.049 A 
ATOM     56  H   UNL A   1      44.650  31.531  31.071  1.00  0.00     0.167 HD
ATOM     57  C   UNL A   1      41.932  30.720  32.071  1.00  0.00     0.074 A 
ATOM     58  C   UNL A   1      41.950  31.612  30.910  1.00  0.00     0.031 C 
ATOM     59  C   UNL A   1      42.894  29.912  32.613  1.00  0.00     0.031 A 
BRANCH  46  60
ATOM     60  C   UNL A   1      45.975  31.383  28.367  1.00  0.00    -0.014 A 
ATOM     61  C   UNL A   1      44.896  32.243  28.099  1.00  0.00     0.010 A 
ATOM     62  C   UNL A   1      47.220  31.715  27.789  1.00  0.00     0.010 A 
ATOM     63  C   UNL A   1      45.035  33.325  27.224  1.00  0.00     0.020 A 
ATOM     64  C   UNL A   1      47.381  32.814  26.949  1.00  0.00     0.020 A 
ATOM     65  C   UNL A   1      46.275  33.591  26.643  1.00  0.00     0.054 A 
BRANCH  65  66
ATOM     66  S   UNL A   1      46.417  34.915  25.424  1.00  0.00     0.124 S 
ATOM     67  O   UNL A   1      46.067  36.089  26.217  1.00  0.00    -0.237 OA
ATOM     68  O   UNL A   1      47.817  34.811  25.023  1.00  0.00    -0.237 OA
ATOM     69  O   UNL A   1      45.449  34.540  24.396  1.00  0.00    -0.744 OA
ENDBRANCH  65  66
ENDBRANCH  46  60
BRANCH  47  70
ATOM     70  C   UNL A   1      37.518  30.906  30.301  1.00  0.00    -0.014 A 
ATOM     71  C   UNL A   1      36.643  31.449  31.259  1.00  0.00     0.010 A 
ATOM     72  C   UNL A   1      37.302  31.250  28.949  1.00  0.00     0.010 A 
ATOM     73  C   UNL A   1      35.624  32.344  30.885  1.00  0.00     0.020 A 
ATOM     74  C   UNL A   1      36.286  32.137  28.568  1.00  0.00     0.020 A 
ATOM     75  C   UNL A   1      35.464  32.696  29.542  1.00  0.00     0.054 A 
BRANCH  75  76
ATOM     76  S   UNL A   1      34.247  33.969  29.087  1.00  0.00     0.124 S 
ATOM     77  O   UNL A   1      33.430  33.278  28.093  1.00  0.00    -0.237 OA
ATOM     78  O   UNL A   1      33.591  34.250  30.361  1.00  0.00    -0.237 OA
ATOM     79  O   UNL A   1      35.067  35.060  28.563  1.00  0.00    -0.744 OA
ENDBRANCH  75  76
ENDBRANCH  47  70
BRANCH  59  80
ATOM     80  C   UNL A   1      42.494  28.967  33.729  1.00  0.00    -0.014 A 
ATOM     81  C   UNL A   1      41.789  27.763  33.530  1.00  0.00     0.010 A 
ATOM     82  C   UNL A   1      43.016  29.230  35.008  1.00  0.00     0.010 A 
ATOM     83  C   UNL A   1      41.597  26.859  34.589  1.00  0.00     0.020 A 
ATOM     84  C   UNL A   1      42.846  28.328  36.060  1.00  0.00     0.020 A 
ATOM     85  C   UNL A   1      42.131  27.148  35.850  1.00  0.00     0.054 A 
BRANCH  85  86
ATOM     86  S   UNL A   1      41.925  25.961  37.208  1.00  0.00     0.124 S 
ATOM     87  O   UNL A   1      42.768  26.527  38.257  1.00  0.00    -0.237 OA
ATOM     88  O   UNL A   1      40.487  26.006  37.464  1.00  0.00    -0.237 OA
ATOM     89  O   UNL A   1      42.406  24.700  36.645  1.00  0.00    -0.744 OA
ENDBRANCH  85  86
ENDBRANCH  59  80
ENDBRANCH  33  34
ENDBRANCH  26  28
ENDBRANCH  25  26
ENDBRANCH   1  25
TORSDOF 15
ENDMDL
