MODEL 1
REMARK VINA RESULT:     -12.6      0.000      0.000
REMARK SMILES COC(=O)c1ccc([C@H]2CC(=O)Nc3c(C(=O)OCCOC(=O)c4ccc(-c5c6nc(c(-c7ccc(S(=O)(=O)[O-])cc7)c7ccc([nH]7)c(-c7ccc(S(=O)(=O)[O-])cc7)c7nc(c(-c8ccc(S(=O)(=O)[O-])cc8)c8ccc5[nH]8)C=C7)C=C6)cc4)cn(-c4cc(OC)ccc4OC)c32)cc1
REMARK SMILES IDX 19 1 18 2 16 3 17 4 15 5 9 6 10 7 96 8 11 9 14 10 85 11
REMARK SMILES IDX 12 12 13 13 84 14 8 16 5 17 6 18 98 19 7 20 97 21 3 22 4 23
REMARK SMILES IDX 2 24 1 25 86 26 87 27 93 28 88 29 92 30 91 31 94 32 95 33
REMARK SMILES IDX 89 34 90 35 20 36 21 37 22 38 23 39 24 40 25 41 83 42 26 43
REMARK SMILES IDX 82 44 27 45 28 46 29 47 76 48 30 49 81 50 75 51 77 52 31 53
REMARK SMILES IDX 80 54 74 55 73 56 32 58 62 59 43 60 61 61 44 62 47 63 60 64
REMARK SMILES IDX 78 65 45 66 46 67 59 69 79 70 48 71 33 72 34 73 42 74 35 75
REMARK SMILES IDX 41 76 36 77 37 78 38 79 39 80 40 81 63 82 64 83 72 84 65 85
REMARK SMILES IDX 71 86 66 87 67 88 68 89 69 90 70 91 49 92 50 93 58 94 51 95
REMARK SMILES IDX 57 96 52 97 53 98 54 99 55 100 56 101
REMARK H PARENT 13 15 77 57 47 68
REMARK Flexibility Score: inf
ROOT
ATOM      1  C   UNL A   1      31.764  30.112  25.439  1.00  0.00     0.275 C 
ENDROOT
BRANCH   1   2
ATOM      2  O   UNL A   1      31.038  28.898  25.170  1.00  0.00    -0.458 OA
BRANCH   2   3
ATOM      3  C   UNL A   1      31.174  28.409  23.894  1.00  0.00     0.341 C 
ATOM      4  O   UNL A   1      30.756  28.970  22.900  1.00  0.00    -0.246 OA
BRANCH   3   5
ATOM      5  C   UNL A   1      31.937  27.163  23.847  1.00  0.00     0.102 A 
ATOM      6  C   UNL A   1      33.560  24.133  22.359  1.00  0.00     0.078 C 
ATOM      7  C   UNL A   1      32.937  24.232  20.960  1.00  0.00     0.115 C 
ATOM      8  C   UNL A   1      32.990  25.222  23.255  1.00  0.00     0.055 A 
ATOM      9  C   UNL A   1      32.674  25.654  20.484  1.00  0.00     0.225 C 
ATOM     10  C   UNL A   1      32.355  26.349  22.768  1.00  0.00     0.078 A 
ATOM     11  N   UNL A   1      32.988  25.319  24.643  1.00  0.00    -0.314 N 
ATOM     12  O   UNL A   1      32.737  25.958  19.293  1.00  0.00    -0.275 OA
ATOM     13  N   UNL A   1      32.247  26.564  21.416  1.00  0.00    -0.324 N 
ATOM     14  C   UNL A   1      32.378  26.508  24.986  1.00  0.00     0.109 A 
ATOM     15  H   UNL A   1      31.845  27.407  21.102  1.00  0.00     0.170 HD
BRANCH   6  16
ATOM     16  C   UNL A   1      33.449  22.701  22.884  1.00  0.00    -0.038 A 
ATOM     17  C   UNL A   1      33.099  20.476  24.555  1.00  0.00     0.060 A 
ATOM     18  C   UNL A   1      34.386  20.945  24.272  1.00  0.00     0.016 A 
ATOM     19  C   UNL A   1      32.025  20.964  23.809  1.00  0.00     0.016 A 
ATOM     20  C   UNL A   1      34.559  22.068  23.456  1.00  0.00     0.005 A 
ATOM     21  C   UNL A   1      32.221  22.030  22.925  1.00  0.00     0.005 A 
BRANCH  17  22
ATOM     22  C   UNL A   1      32.913  19.603  25.752  1.00  0.00     0.337 C 
ATOM     23  O   UNL A   1      33.291  19.905  26.874  1.00  0.00    -0.246 OA
BRANCH  22  24
ATOM     24  O   UNL A   1      32.117  18.549  25.438  1.00  0.00    -0.465 OA
ATOM     25  C   UNL A   1      32.739  17.266  25.554  1.00  0.00     0.282 C 
ENDBRANCH  22  24
ENDBRANCH  17  22
ENDBRANCH   6  16
BRANCH  11  26
ATOM     26  C   UNL A   1      33.518  24.414  25.592  1.00  0.00     0.091 A 
ATOM     27  C   UNL A   1      34.913  24.274  25.630  1.00  0.00     0.077 A 
ATOM     28  C   UNL A   1      32.717  23.696  26.494  1.00  0.00     0.143 A 
ATOM     29  C   UNL A   1      35.508  23.382  26.521  1.00  0.00     0.121 A 
ATOM     30  C   UNL A   1      33.335  22.830  27.403  1.00  0.00     0.052 A 
ATOM     31  C   UNL A   1      34.720  22.664  27.414  1.00  0.00     0.050 A 
BRANCH  28  32
ATOM     32  O   UNL A   1      31.361  23.702  26.639  1.00  0.00    -0.495 OA
ATOM     33  C   UNL A   1      30.652  22.543  26.248  1.00  0.00     0.278 C 
ENDBRANCH  28  32
BRANCH  29  34
ATOM     34  O   UNL A   1      36.874  23.310  26.468  1.00  0.00    -0.497 OA
ATOM     35  C   UNL A   1      37.369  22.257  25.647  1.00  0.00     0.278 C 
ENDBRANCH  29  34
ENDBRANCH  11  26
ENDBRANCH   3   5
ENDBRANCH   2   3
ENDBRANCH   1   2
BRANCH   1  36
ATOM     36  C   UNL A   1      32.455  30.079  26.797  1.00  0.00     0.275 C 
BRANCH  36  37
ATOM     37  O   UNL A   1      33.865  30.295  26.704  1.00  0.00    -0.458 OA
BRANCH  37  38
ATOM     38  C   UNL A   1      34.323  31.243  27.550  1.00  0.00     0.338 C 
ATOM     39  O   UNL A   1      33.978  32.413  27.592  1.00  0.00    -0.246 OA
BRANCH  38  40
ATOM     40  C   UNL A   1      35.528  30.756  28.230  1.00  0.00     0.060 A 
ATOM     41  C   UNL A   1      36.439  31.711  28.672  1.00  0.00     0.016 A 
ATOM     42  C   UNL A   1      35.882  29.405  28.151  1.00  0.00     0.016 A 
ATOM     43  C   UNL A   1      37.752  31.366  28.869  1.00  0.00     0.010 A 
ATOM     44  C   UNL A   1      37.194  29.044  28.375  1.00  0.00     0.010 A 
ATOM     45  C   UNL A   1      38.126  30.040  28.664  1.00  0.00    -0.014 A 
BRANCH  45  46
ATOM     46  C   UNL A   1      39.497  29.702  28.978  1.00  0.00     0.031 A 
ATOM     47  C   UNL A   1      39.772  29.820  30.433  1.00  0.00     0.074 A 
ATOM     48  C   UNL A   1      40.359  29.230  28.060  1.00  0.00     0.049 A 
ATOM     49  N   UNL A   1      40.551  30.663  31.026  1.00  0.00    -0.248 NA
ATOM     50  C   UNL A   1      38.892  29.069  31.348  1.00  0.00     0.031 C 
ATOM     51  C   UNL A   1      40.077  28.859  26.672  1.00  0.00     0.029 A 
ATOM     52  N   UNL A   1      41.650  28.844  28.222  1.00  0.00    -0.354 N 
ATOM     53  C   UNL A   1      40.445  30.366  32.380  1.00  0.00     0.074 A 
ATOM     54  C   UNL A   1      39.258  29.564  32.528  1.00  0.00     0.031 C 
ATOM     55  C   UNL A   1      41.067  28.054  26.224  1.00  0.00     0.029 A 
ATOM     56  C   UNL A   1      42.101  27.966  27.243  1.00  0.00     0.049 A 
ATOM     57  H   UNL A   1      42.215  29.157  28.965  1.00  0.00     0.167 HD
ATOM     58  C   UNL A   1      41.506  30.518  33.218  1.00  0.00     0.031 A 
ATOM     59  C   UNL A   1      43.189  27.157  27.324  1.00  0.00     0.031 A 
ATOM     60  C   UNL A   1      42.502  31.393  32.655  1.00  0.00     0.049 A 
ATOM     61  C   UNL A   1      44.051  27.689  28.410  1.00  0.00     0.074 A 
ATOM     62  C   UNL A   1      42.507  32.702  32.213  1.00  0.00     0.029 A 
ATOM     63  N   UNL A   1      43.612  30.797  32.104  1.00  0.00    -0.354 N 
ATOM     64  N   UNL A   1      44.662  28.839  28.339  1.00  0.00    -0.248 NA
ATOM     65  C   UNL A   1      43.853  27.174  29.757  1.00  0.00     0.031 C 
ATOM     66  C   UNL A   1      43.349  32.699  31.063  1.00  0.00     0.029 A 
ATOM     67  C   UNL A   1      43.873  31.414  30.909  1.00  0.00     0.049 A 
ATOM     68  H   UNL A   1      44.128  30.057  32.499  1.00  0.00     0.167 HD
ATOM     69  C   UNL A   1      44.522  29.394  29.603  1.00  0.00     0.074 A 
ATOM     70  C   UNL A   1      44.102  28.284  30.459  1.00  0.00     0.031 C 
ATOM     71  C   UNL A   1      44.478  30.749  29.776  1.00  0.00     0.031 A 
BRANCH  58  72
ATOM     72  C   UNL A   1      41.841  29.495  34.281  1.00  0.00    -0.014 A 
ATOM     73  C   UNL A   1      42.298  28.227  33.874  1.00  0.00     0.010 A 
ATOM     74  C   UNL A   1      41.438  29.625  35.628  1.00  0.00     0.010 A 
ATOM     75  C   UNL A   1      42.268  27.132  34.746  1.00  0.00     0.020 A 
ATOM     76  C   UNL A   1      41.447  28.553  36.518  1.00  0.00     0.020 A 
ATOM     77  C   UNL A   1      41.827  27.302  36.059  1.00  0.00     0.054 A 
BRANCH  77  78
ATOM     78  S   UNL A   1      41.698  25.867  37.149  1.00  0.00     0.124 S 
ATOM     79  O   UNL A   1      42.760  26.130  38.115  1.00  0.00    -0.237 OA
ATOM     80  O   UNL A   1      40.333  25.989  37.653  1.00  0.00    -0.237 OA
ATOM     81  O   UNL A   1      41.928  24.737  36.252  1.00  0.00    -0.744 OA
ENDBRANCH  77  78
ENDBRANCH  58  72
BRANCH  59  82
ATOM     82  C   UNL A   1      43.347  25.780  26.782  1.00  0.00    -0.014 A 
ATOM     83  C   UNL A   1      42.904  25.457  25.484  1.00  0.00     0.010 A 
ATOM     84  C   UNL A   1      44.187  24.853  27.432  1.00  0.00     0.010 A 
ATOM     85  C   UNL A   1      43.339  24.285  24.839  1.00  0.00     0.020 A 
ATOM     86  C   UNL A   1      44.616  23.679  26.799  1.00  0.00     0.020 A 
ATOM     87  C   UNL A   1      44.212  23.413  25.494  1.00  0.00     0.054 A 
BRANCH  87  88
ATOM     88  S   UNL A   1      44.920  22.002  24.593  1.00  0.00     0.124 S 
ATOM     89  O   UNL A   1      44.195  20.871  25.166  1.00  0.00    -0.237 OA
ATOM     90  O   UNL A   1      44.602  22.319  23.204  1.00  0.00    -0.237 OA
ATOM     91  O   UNL A   1      46.342  22.058  24.928  1.00  0.00    -0.744 OA
ENDBRANCH  87  88
ENDBRANCH  59  82
BRANCH  71  92
ATOM     92  C   UNL A   1      44.902  31.636  28.628  1.00  0.00    -0.014 A 
ATOM     93  C   UNL A   1      44.183  31.777  27.424  1.00  0.00     0.010 A 
ATOM     94  C   UNL A   1      46.015  32.466  28.846  1.00  0.00     0.010 A 
ATOM     95  C   UNL A   1      44.597  32.699  26.450  1.00  0.00     0.020 A 
ATOM     96  C   UNL A   1      46.417  33.400  27.892  1.00  0.00     0.020 A 
ATOM     97  C   UNL A   1      45.717  33.502  26.690  1.00  0.00     0.054 A 
BRANCH  97  98
ATOM     98  S   UNL A   1      46.243  34.707  25.440  1.00  0.00     0.124 S 
ATOM     99  O   UNL A   1      45.997  35.983  26.105  1.00  0.00    -0.237 OA
ATOM    100  O   UNL A   1      47.649  34.365  25.230  1.00  0.00    -0.237 OA
ATOM    101  O   UNL A   1      45.371  34.428  24.299  1.00  0.00    -0.744 OA
ENDBRANCH  97  98
ENDBRANCH  71  92
ENDBRANCH  45  46
ENDBRANCH  38  40
ENDBRANCH  37  38
ENDBRANCH  36  37
ENDBRANCH   1  36
TORSDOF 20
ENDMDL
MODEL 2
REMARK VINA RESULT:     -11.8      2.253      9.074
REMARK SMILES COC(=O)c1ccc([C@H]2CC(=O)Nc3c(C(=O)OCCOC(=O)c4ccc(-c5c6nc(c(-c7ccc(S(=O)(=O)[O-])cc7)c7ccc([nH]7)c(-c7ccc(S(=O)(=O)[O-])cc7)c7nc(c(-c8ccc(S(=O)(=O)[O-])cc8)c8ccc5[nH]8)C=C7)C=C6)cc4)cn(-c4cc(OC)ccc4OC)c32)cc1
REMARK SMILES IDX 19 1 18 2 16 3 17 4 15 5 9 6 10 7 96 8 11 9 14 10 85 11
REMARK SMILES IDX 12 12 13 13 84 14 8 16 5 17 6 18 98 19 7 20 97 21 3 22 4 23
REMARK SMILES IDX 2 24 1 25 86 26 87 27 93 28 88 29 92 30 91 31 94 32 95 33
REMARK SMILES IDX 89 34 90 35 20 36 21 37 22 38 23 39 24 40 25 41 83 42 26 43
REMARK SMILES IDX 82 44 27 45 28 46 29 47 76 48 30 49 81 50 75 51 77 52 31 53
REMARK SMILES IDX 80 54 74 55 73 56 32 58 62 59 43 60 61 61 44 62 47 63 60 64
REMARK SMILES IDX 78 65 45 66 46 67 59 69 79 70 48 71 33 72 34 73 42 74 35 75
REMARK SMILES IDX 41 76 36 77 37 78 38 79 39 80 40 81 63 82 64 83 72 84 65 85
REMARK SMILES IDX 71 86 66 87 67 88 68 89 69 90 70 91 49 92 50 93 58 94 51 95
REMARK SMILES IDX 57 96 52 97 53 98 54 99 55 100 56 101
REMARK H PARENT 13 15 77 57 47 68
REMARK Flexibility Score: inf
ROOT
ATOM      1  C   UNL A   1      38.574  22.989  26.426  1.00  0.00     0.275 C 
ENDROOT
BRANCH   1   2
ATOM      2  O   UNL A   1      37.497  23.394  25.559  1.00  0.00    -0.458 OA
BRANCH   2   3
ATOM      3  C   UNL A   1      36.497  22.467  25.402  1.00  0.00     0.341 C 
ATOM      4  O   UNL A   1      36.664  21.264  25.464  1.00  0.00    -0.246 OA
BRANCH   3   5
ATOM      5  C   UNL A   1      35.184  23.081  25.211  1.00  0.00     0.102 A 
ATOM      6  C   UNL A   1      31.682  23.481  23.945  1.00  0.00     0.078 C 
ATOM      7  C   UNL A   1      31.703  22.341  22.918  1.00  0.00     0.115 C 
ATOM      8  C   UNL A   1      33.057  23.630  24.578  1.00  0.00     0.055 A 
ATOM      9  C   UNL A   1      32.578  21.157  23.305  1.00  0.00     0.225 C 
ATOM     10  C   UNL A   1      34.020  22.639  24.540  1.00  0.00     0.078 A 
ATOM     11  N   UNL A   1      33.600  24.701  25.279  1.00  0.00    -0.314 N 
ATOM     12  O   UNL A   1      32.300  20.008  22.961  1.00  0.00    -0.275 OA
ATOM     13  N   UNL A   1      33.756  21.425  23.953  1.00  0.00    -0.324 N 
ATOM     14  C   UNL A   1      34.871  24.346  25.682  1.00  0.00     0.109 A 
ATOM     15  H   UNL A   1      34.441  20.719  24.000  1.00  0.00     0.170 HD
BRANCH   6  16
ATOM     16  C   UNL A   1      31.088  24.743  23.317  1.00  0.00    -0.038 A 
ATOM     17  C   UNL A   1      30.392  27.411  22.802  1.00  0.00     0.060 A 
ATOM     18  C   UNL A   1      29.510  26.577  23.498  1.00  0.00     0.016 A 
ATOM     19  C   UNL A   1      31.493  26.840  22.161  1.00  0.00     0.016 A 
ATOM     20  C   UNL A   1      29.867  25.253  23.774  1.00  0.00     0.005 A 
ATOM     21  C   UNL A   1      31.795  25.490  22.368  1.00  0.00     0.005 A 
BRANCH  17  22
ATOM     22  C   UNL A   1      30.209  28.887  22.919  1.00  0.00     0.337 C 
ATOM     23  O   UNL A   1      30.494  29.527  23.921  1.00  0.00    -0.246 OA
BRANCH  22  24
ATOM     24  O   UNL A   1      29.871  29.410  21.714  1.00  0.00    -0.465 OA
ATOM     25  C   UNL A   1      28.494  29.773  21.577  1.00  0.00     0.282 C 
ENDBRANCH  22  24
ENDBRANCH  17  22
ENDBRANCH   6  16
BRANCH  11  26
ATOM     26  C   UNL A   1      33.007  25.948  25.584  1.00  0.00     0.091 A 
ATOM     27  C   UNL A   1      33.557  27.084  24.971  1.00  0.00     0.077 A 
ATOM     28  C   UNL A   1      31.894  26.079  26.429  1.00  0.00     0.143 A 
ATOM     29  C   UNL A   1      33.042  28.351  25.242  1.00  0.00     0.121 A 
ATOM     30  C   UNL A   1      31.370  27.355  26.663  1.00  0.00     0.052 A 
ATOM     31  C   UNL A   1      31.943  28.487  26.083  1.00  0.00     0.050 A 
BRANCH  28  32
ATOM     32  O   UNL A   1      31.200  25.114  27.099  1.00  0.00    -0.495 OA
ATOM     33  C   UNL A   1      29.835  24.939  26.771  1.00  0.00     0.278 C 
ENDBRANCH  28  32
BRANCH  29  34
ATOM     34  O   UNL A   1      33.660  29.393  24.605  1.00  0.00    -0.497 OA
ATOM     35  C   UNL A   1      33.960  29.140  23.236  1.00  0.00     0.278 C 
ENDBRANCH  29  34
ENDBRANCH  11  26
ENDBRANCH   3   5
ENDBRANCH   2   3
ENDBRANCH   1   2
BRANCH   1  36
ATOM     36  C   UNL A   1      39.484  21.959  25.766  1.00  0.00     0.275 C 
BRANCH  36  37
ATOM     37  O   UNL A   1      40.733  21.812  26.447  1.00  0.00    -0.458 OA
BRANCH  37  38
ATOM     38  C   UNL A   1      41.780  22.334  25.774  1.00  0.00     0.338 C 
ATOM     39  O   UNL A   1      42.502  21.752  24.979  1.00  0.00    -0.246 OA
BRANCH  38  40
ATOM     40  C   UNL A   1      42.137  23.634  26.350  1.00  0.00     0.060 A 
ATOM     41  C   UNL A   1      42.645  23.638  27.646  1.00  0.00     0.016 A 
ATOM     42  C   UNL A   1      41.693  24.815  25.747  1.00  0.00     0.016 A 
ATOM     43  C   UNL A   1      42.554  24.771  28.414  1.00  0.00     0.010 A 
ATOM     44  C   UNL A   1      41.626  25.967  26.503  1.00  0.00     0.010 A 
ATOM     45  C   UNL A   1      41.992  25.912  27.847  1.00  0.00    -0.014 A 
BRANCH  45  46
ATOM     46  C   UNL A   1      42.007  27.109  28.660  1.00  0.00     0.031 A 
ATOM     47  C   UNL A   1      43.209  27.940  28.392  1.00  0.00     0.074 A 
ATOM     48  C   UNL A   1      40.986  27.455  29.463  1.00  0.00     0.049 A 
ATOM     49  N   UNL A   1      44.191  28.194  29.192  1.00  0.00    -0.248 NA
ATOM     50  C   UNL A   1      43.458  28.332  26.991  1.00  0.00     0.031 C 
ATOM     51  C   UNL A   1      39.677  26.809  29.580  1.00  0.00     0.029 A 
ATOM     52  N   UNL A   1      40.854  28.556  30.246  1.00  0.00    -0.354 N 
ATOM     53  C   UNL A   1      45.057  28.997  28.460  1.00  0.00     0.074 A 
ATOM     54  C   UNL A   1      44.683  28.847  27.079  1.00  0.00     0.031 C 
ATOM     55  C   UNL A   1      38.811  27.676  30.153  1.00  0.00     0.029 A 
ATOM     56  C   UNL A   1      39.535  28.872  30.552  1.00  0.00     0.049 A 
ATOM     57  H   UNL A   1      41.621  29.082  30.568  1.00  0.00     0.167 HD
ATOM     58  C   UNL A   1      45.791  29.972  29.064  1.00  0.00     0.031 A 
ATOM     59  C   UNL A   1      39.075  30.068  31.002  1.00  0.00     0.031 A 
ATOM     60  C   UNL A   1      45.892  29.752  30.484  1.00  0.00     0.049 A 
ATOM     61  C   UNL A   1      40.244  30.814  31.536  1.00  0.00     0.074 A 
ATOM     62  C   UNL A   1      46.372  28.728  31.277  1.00  0.00     0.029 A 
ATOM     63  N   UNL A   1      45.076  30.511  31.289  1.00  0.00    -0.354 N 
ATOM     64  N   UNL A   1      40.905  30.442  32.598  1.00  0.00    -0.248 NA
ATOM     65  C   UNL A   1      40.969  31.692  30.631  1.00  0.00     0.031 C 
ATOM     66  C   UNL A   1      45.467  28.657  32.375  1.00  0.00     0.029 A 
ATOM     67  C   UNL A   1      44.532  29.685  32.237  1.00  0.00     0.049 A 
ATOM     68  H   UNL A   1      44.911  31.478  31.200  1.00  0.00     0.167 HD
ATOM     69  C   UNL A   1      42.238  30.657  32.278  1.00  0.00     0.074 A 
ATOM     70  C   UNL A   1      42.210  31.517  31.096  1.00  0.00     0.031 C 
ATOM     71  C   UNL A   1      43.226  29.885  32.825  1.00  0.00     0.031 A 
BRANCH  58  72
ATOM     72  C   UNL A   1      45.970  31.340  28.446  1.00  0.00    -0.014 A 
ATOM     73  C   UNL A   1      44.820  32.088  28.123  1.00  0.00     0.010 A 
ATOM     74  C   UNL A   1      47.193  31.784  27.898  1.00  0.00     0.010 A 
ATOM     75  C   UNL A   1      44.884  33.164  27.230  1.00  0.00     0.020 A 
ATOM     76  C   UNL A   1      47.275  32.881  27.043  1.00  0.00     0.020 A 
ATOM     77  C   UNL A   1      46.112  33.543  26.685  1.00  0.00     0.054 A 
BRANCH  77  78
ATOM     78  S   UNL A   1      46.172  34.868  25.459  1.00  0.00     0.124 S 
ATOM     79  O   UNL A   1      45.217  34.394  24.461  1.00  0.00    -0.237 OA
ATOM     80  O   UNL A   1      45.754  36.027  26.242  1.00  0.00    -0.237 OA
ATOM     81  O   UNL A   1      47.570  34.878  25.036  1.00  0.00    -0.744 OA
ENDBRANCH  77  78
ENDBRANCH  58  72
BRANCH  59  82
ATOM     82  C   UNL A   1      37.786  30.735  30.675  1.00  0.00    -0.014 A 
ATOM     83  C   UNL A   1      37.213  31.674  31.555  1.00  0.00     0.010 A 
ATOM     84  C   UNL A   1      37.257  30.660  29.370  1.00  0.00     0.010 A 
ATOM     85  C   UNL A   1      36.198  32.548  31.124  1.00  0.00     0.020 A 
ATOM     86  C   UNL A   1      36.240  31.519  28.937  1.00  0.00     0.020 A 
ATOM     87  C   UNL A   1      35.733  32.479  29.808  1.00  0.00     0.054 A 
BRANCH  87  88
ATOM     88  S   UNL A   1      34.561  33.729  29.201  1.00  0.00     0.124 S 
ATOM     89  O   UNL A   1      33.814  32.989  28.188  1.00  0.00    -0.237 OA
ATOM     90  O   UNL A   1      33.816  34.081  30.406  1.00  0.00    -0.237 OA
ATOM     91  O   UNL A   1      35.425  34.788  28.680  1.00  0.00    -0.744 OA
ENDBRANCH  87  88
ENDBRANCH  59  82
BRANCH  71  92
ATOM     92  C   UNL A   1      42.886  29.017  34.013  1.00  0.00    -0.014 A 
ATOM     93  C   UNL A   1      42.564  29.510  35.294  1.00  0.00     0.010 A 
ATOM     94  C   UNL A   1      42.759  27.638  33.775  1.00  0.00     0.010 A 
ATOM     95  C   UNL A   1      42.164  28.634  36.316  1.00  0.00     0.020 A 
ATOM     96  C   UNL A   1      42.340  26.766  34.780  1.00  0.00     0.020 A 
ATOM     97  C   UNL A   1      42.059  27.265  36.051  1.00  0.00     0.054 A 
BRANCH  97  98
ATOM     98  S   UNL A   1      41.526  26.134  37.365  1.00  0.00     0.124 S 
ATOM     99  O   UNL A   1      42.611  26.240  38.336  1.00  0.00    -0.237 OA
ATOM    100  O   UNL A   1      40.247  26.704  37.785  1.00  0.00    -0.237 OA
ATOM    101  O   UNL A   1      41.425  24.840  36.692  1.00  0.00    -0.744 OA
ENDBRANCH  97  98
ENDBRANCH  71  92
ENDBRANCH  45  46
ENDBRANCH  38  40
ENDBRANCH  37  38
ENDBRANCH  36  37
ENDBRANCH   1  36
TORSDOF 20
ENDMDL
MODEL 3
REMARK VINA RESULT:     -11.5      1.616      2.552
REMARK SMILES COC(=O)c1ccc([C@H]2CC(=O)Nc3c(C(=O)OCCOC(=O)c4ccc(-c5c6nc(c(-c7ccc(S(=O)(=O)[O-])cc7)c7ccc([nH]7)c(-c7ccc(S(=O)(=O)[O-])cc7)c7nc(c(-c8ccc(S(=O)(=O)[O-])cc8)c8ccc5[nH]8)C=C7)C=C6)cc4)cn(-c4cc(OC)ccc4OC)c32)cc1
REMARK SMILES IDX 19 1 18 2 16 3 17 4 15 5 9 6 10 7 96 8 11 9 14 10 85 11
REMARK SMILES IDX 12 12 13 13 84 14 8 16 5 17 6 18 98 19 7 20 97 21 3 22 4 23
REMARK SMILES IDX 2 24 1 25 86 26 87 27 93 28 88 29 92 30 91 31 94 32 95 33
REMARK SMILES IDX 89 34 90 35 20 36 21 37 22 38 23 39 24 40 25 41 83 42 26 43
REMARK SMILES IDX 82 44 27 45 28 46 29 47 76 48 30 49 81 50 75 51 77 52 31 53
REMARK SMILES IDX 80 54 74 55 73 56 32 58 62 59 43 60 61 61 44 62 47 63 60 64
REMARK SMILES IDX 78 65 45 66 46 67 59 69 79 70 48 71 33 72 34 73 42 74 35 75
REMARK SMILES IDX 41 76 36 77 37 78 38 79 39 80 40 81 63 82 64 83 72 84 65 85
REMARK SMILES IDX 71 86 66 87 67 88 68 89 69 90 70 91 49 92 50 93 58 94 51 95
REMARK SMILES IDX 57 96 52 97 53 98 54 99 55 100 56 101
REMARK H PARENT 13 15 77 57 47 68
REMARK Flexibility Score: inf
ROOT
ATOM      1  C   UNL A   1      32.688  30.503  26.071  1.00  0.00     0.275 C 
ENDROOT
BRANCH   1   2
ATOM      2  O   UNL A   1      33.370  29.235  26.040  1.00  0.00    -0.458 OA
BRANCH   2   3
ATOM      3  C   UNL A   1      32.860  28.280  26.885  1.00  0.00     0.341 C 
ATOM      4  O   UNL A   1      32.415  28.514  27.991  1.00  0.00    -0.246 OA
BRANCH   3   5
ATOM      5  C   UNL A   1      32.848  26.946  26.285  1.00  0.00     0.102 A 
ATOM      6  C   UNL A   1      31.559  23.544  25.394  1.00  0.00     0.078 C 
ATOM      7  C   UNL A   1      30.345  23.532  26.334  1.00  0.00     0.115 C 
ATOM      8  C   UNL A   1      32.366  24.816  25.612  1.00  0.00     0.055 A 
ATOM      9  C   UNL A   1      29.710  24.896  26.564  1.00  0.00     0.225 C 
ATOM     10  C   UNL A   1      31.856  25.940  26.233  1.00  0.00     0.078 A 
ATOM     11  N   UNL A   1      33.680  25.105  25.259  1.00  0.00    -0.314 N 
ATOM     12  O   UNL A   1      28.503  25.020  26.770  1.00  0.00    -0.275 OA
ATOM     13  N   UNL A   1      30.548  25.978  26.653  1.00  0.00    -0.324 N 
ATOM     14  C   UNL A   1      33.948  26.402  25.642  1.00  0.00     0.109 A 
ATOM     15  H   UNL A   1      30.198  26.816  27.034  1.00  0.00     0.170 HD
BRANCH   6  16
ATOM     16  C   UNL A   1      32.329  22.229  25.514  1.00  0.00    -0.038 A 
ATOM     17  C   UNL A   1      34.305  20.249  25.310  1.00  0.00     0.060 A 
ATOM     18  C   UNL A   1      33.246  20.279  24.397  1.00  0.00     0.016 A 
ATOM     19  C   UNL A   1      34.233  21.047  26.452  1.00  0.00     0.016 A 
ATOM     20  C   UNL A   1      32.273  21.280  24.485  1.00  0.00     0.005 A 
ATOM     21  C   UNL A   1      33.203  21.986  26.579  1.00  0.00     0.005 A 
BRANCH  17  22
ATOM     22  C   UNL A   1      35.538  19.493  24.937  1.00  0.00     0.337 C 
ATOM     23  O   UNL A   1      36.622  20.022  24.742  1.00  0.00    -0.246 OA
BRANCH  22  24
ATOM     24  O   UNL A   1      35.311  18.159  25.036  1.00  0.00    -0.465 OA
ATOM     25  C   UNL A   1      34.720  17.558  23.880  1.00  0.00     0.282 C 
ENDBRANCH  22  24
ENDBRANCH  17  22
ENDBRANCH   6  16
BRANCH  11  26
ATOM     26  C   UNL A   1      34.619  24.277  24.601  1.00  0.00     0.091 A 
ATOM     27  C   UNL A   1      35.772  23.924  25.319  1.00  0.00     0.077 A 
ATOM     28  C   UNL A   1      34.425  23.782  23.302  1.00  0.00     0.143 A 
ATOM     29  C   UNL A   1      36.755  23.131  24.730  1.00  0.00     0.121 A 
ATOM     30  C   UNL A   1      35.408  22.960  22.739  1.00  0.00     0.052 A 
ATOM     31  C   UNL A   1      36.571  22.643  23.440  1.00  0.00     0.050 A 
BRANCH  28  32
ATOM     32  O   UNL A   1      33.379  23.981  22.449  1.00  0.00    -0.495 OA
ATOM     33  C   UNL A   1      33.181  25.287  21.945  1.00  0.00     0.278 C 
ENDBRANCH  28  32
BRANCH  29  34
ATOM     34  O   UNL A   1      37.845  22.857  25.509  1.00  0.00    -0.497 OA
ATOM     35  C   UNL A   1      38.266  23.948  26.323  1.00  0.00     0.278 C 
ENDBRANCH  29  34
ENDBRANCH  11  26
ENDBRANCH   3   5
ENDBRANCH   2   3
ENDBRANCH   1   2
BRANCH   1  36
ATOM     36  C   UNL A   1      33.150  31.373  27.235  1.00  0.00     0.275 C 
BRANCH  36  37
ATOM     37  O   UNL A   1      34.509  31.127  27.602  1.00  0.00    -0.458 OA
BRANCH  37  38
ATOM     38  C   UNL A   1      34.895  31.783  28.717  1.00  0.00     0.338 C 
ATOM     39  O   UNL A   1      34.488  32.867  29.106  1.00  0.00    -0.246 OA
BRANCH  38  40
ATOM     40  C   UNL A   1      36.105  31.159  29.262  1.00  0.00     0.060 A 
ATOM     41  C   UNL A   1      37.185  31.996  29.533  1.00  0.00     0.016 A 
ATOM     42  C   UNL A   1      36.265  29.771  29.209  1.00  0.00     0.016 A 
ATOM     43  C   UNL A   1      38.456  31.481  29.578  1.00  0.00     0.010 A 
ATOM     44  C   UNL A   1      37.536  29.242  29.283  1.00  0.00     0.010 A 
ATOM     45  C   UNL A   1      38.621  30.110  29.396  1.00  0.00    -0.014 A 
BRANCH  45  46
ATOM     46  C   UNL A   1      39.966  29.598  29.550  1.00  0.00     0.031 A 
ATOM     47  C   UNL A   1      40.358  29.506  30.980  1.00  0.00     0.074 A 
ATOM     48  C   UNL A   1      40.700  29.159  28.513  1.00  0.00     0.049 A 
ATOM     49  N   UNL A   1      41.267  30.184  31.597  1.00  0.00    -0.248 NA
ATOM     50  C   UNL A   1      39.469  28.739  31.874  1.00  0.00     0.031 C 
ATOM     51  C   UNL A   1      40.277  28.995  27.120  1.00  0.00     0.029 A 
ATOM     52  N   UNL A   1      41.949  28.628  28.517  1.00  0.00    -0.354 N 
ATOM     53  C   UNL A   1      41.228  29.733  32.912  1.00  0.00     0.074 A 
ATOM     54  C   UNL A   1      39.974  29.043  33.068  1.00  0.00     0.031 C 
ATOM     55  C   UNL A   1      41.137  28.157  26.498  1.00  0.00     0.029 A 
ATOM     56  C   UNL A   1      42.226  27.838  27.407  1.00  0.00     0.049 A 
ATOM     57  H   UNL A   1      42.598  28.787  29.239  1.00  0.00     0.167 HD
ATOM     58  C   UNL A   1      42.358  29.671  33.667  1.00  0.00     0.031 A 
ATOM     59  C   UNL A   1      43.221  26.918  27.299  1.00  0.00     0.031 A 
ATOM     60  C   UNL A   1      43.401  30.504  33.126  1.00  0.00     0.049 A 
ATOM     61  C   UNL A   1      44.214  27.221  28.361  1.00  0.00     0.074 A 
ATOM     62  C   UNL A   1      43.519  31.850  32.841  1.00  0.00     0.029 A 
ATOM     63  N   UNL A   1      44.395  29.872  32.416  1.00  0.00    -0.354 N 
ATOM     64  N   UNL A   1      44.942  28.303  28.372  1.00  0.00    -0.248 NA
ATOM     65  C   UNL A   1      44.060  26.565  29.651  1.00  0.00     0.031 C 
ATOM     66  C   UNL A   1      44.269  31.906  31.630  1.00  0.00     0.029 A 
ATOM     67  C   UNL A   1      44.634  30.604  31.283  1.00  0.00     0.049 A 
ATOM     68  H   UNL A   1      44.853  29.040  32.676  1.00  0.00     0.167 HD
ATOM     69  C   UNL A   1      44.957  28.707  29.700  1.00  0.00     0.074 A 
ATOM     70  C   UNL A   1      44.481  27.548  30.454  1.00  0.00     0.031 C 
ATOM     71  C   UNL A   1      45.077  30.028  30.032  1.00  0.00     0.031 A 
BRANCH  58  72
ATOM     72  C   UNL A   1      42.654  28.495  34.571  1.00  0.00    -0.014 A 
ATOM     73  C   UNL A   1      43.731  28.594  35.473  1.00  0.00     0.010 A 
ATOM     74  C   UNL A   1      42.119  27.206  34.358  1.00  0.00     0.010 A 
ATOM     75  C   UNL A   1      44.294  27.452  36.057  1.00  0.00     0.020 A 
ATOM     76  C   UNL A   1      42.641  26.068  34.969  1.00  0.00     0.020 A 
ATOM     77  C   UNL A   1      43.752  26.195  35.787  1.00  0.00     0.054 A 
BRANCH  77  78
ATOM     78  S   UNL A   1      44.543  24.720  36.466  1.00  0.00     0.124 S 
ATOM     79  O   UNL A   1      44.150  24.790  37.870  1.00  0.00    -0.237 OA
ATOM     80  O   UNL A   1      43.924  23.654  35.683  1.00  0.00    -0.237 OA
ATOM     81  O   UNL A   1      45.962  24.940  36.198  1.00  0.00    -0.744 OA
ENDBRANCH  77  78
ENDBRANCH  58  72
BRANCH  59  82
ATOM     82  C   UNL A   1      43.186  25.612  26.589  1.00  0.00    -0.014 A 
ATOM     83  C   UNL A   1      43.722  25.477  25.293  1.00  0.00     0.010 A 
ATOM     84  C   UNL A   1      42.878  24.429  27.291  1.00  0.00     0.010 A 
ATOM     85  C   UNL A   1      44.002  24.209  24.752  1.00  0.00     0.020 A 
ATOM     86  C   UNL A   1      43.144  23.163  26.755  1.00  0.00     0.020 A 
ATOM     87  C   UNL A   1      43.731  23.059  25.497  1.00  0.00     0.054 A 
BRANCH  87  88
ATOM     88  S   UNL A   1      44.266  21.436  24.875  1.00  0.00     0.124 S 
ATOM     89  O   UNL A   1      43.143  20.577  25.240  1.00  0.00    -0.237 OA
ATOM     90  O   UNL A   1      44.436  21.682  23.446  1.00  0.00    -0.237 OA
ATOM     91  O   UNL A   1      45.505  21.178  25.607  1.00  0.00    -0.744 OA
ENDBRANCH  87  88
ENDBRANCH  59  82
BRANCH  71  92
ATOM     92  C   UNL A   1      45.512  31.003  28.963  1.00  0.00    -0.014 A 
ATOM     93  C   UNL A   1      44.642  31.593  28.024  1.00  0.00     0.010 A 
ATOM     94  C   UNL A   1      46.846  31.441  29.008  1.00  0.00     0.010 A 
ATOM     95  C   UNL A   1      45.114  32.566  27.128  1.00  0.00     0.020 A 
ATOM     96  C   UNL A   1      47.315  32.423  28.136  1.00  0.00     0.020 A 
ATOM     97  C   UNL A   1      46.452  32.971  27.189  1.00  0.00     0.054 A 
BRANCH  97  98
ATOM     98  S   UNL A   1      47.058  34.240  26.044  1.00  0.00     0.124 S 
ATOM     99  O   UNL A   1      47.214  35.403  26.912  1.00  0.00    -0.237 OA
ATOM    100  O   UNL A   1      48.301  33.657  25.541  1.00  0.00    -0.237 OA
ATOM    101  O   UNL A   1      45.991  34.352  25.050  1.00  0.00    -0.744 OA
ENDBRANCH  97  98
ENDBRANCH  71  92
ENDBRANCH  45  46
ENDBRANCH  38  40
ENDBRANCH  37  38
ENDBRANCH  36  37
ENDBRANCH   1  36
TORSDOF 20
ENDMDL
