MODEL 1
REMARK VINA RESULT:     -11.6      0.000      0.000
REMARK SMILES O=C(OCCOC(=O)[C@]12CCC[NH2+][C@@H]1CCN(C(=O)Cc1c(F)cccc1Cl)C2)c1ccc(-c2c3nc(c(-c4ccc(S(=O)(=O)[O-])cc4)c4ccc([nH]4)c(-c4ccc(S(=O)(=O)[O-])cc4)c4nc(c(-c5ccc(S(=O)(=O)[O-])cc5)c5ccc2[nH]5)C=C4)C=C3)cc1
REMARK SMILES IDX 4 1 3 2 2 3 1 4 30 5 31 6 89 7 32 8 88 9 33 10 34 11 35 12
REMARK SMILES IDX 82 13 36 14 87 15 81 16 83 17 37 18 86 19 80 20 79 21 38 23
REMARK SMILES IDX 68 24 49 25 67 26 50 27 53 28 66 29 84 30 51 31 52 32 65 34
REMARK SMILES IDX 85 35 54 36 39 37 40 38 48 39 41 40 47 41 42 42 43 43 44 44
REMARK SMILES IDX 45 45 46 46 69 47 70 48 78 49 71 50 77 51 72 52 73 53 74 54
REMARK SMILES IDX 75 55 76 56 55 57 56 58 64 59 57 60 63 61 58 62 59 63 60 64
REMARK SMILES IDX 61 65 62 66 5 67 6 68 7 69 8 70 9 71 10 72 14 73 29 74 11 75
REMARK SMILES IDX 13 76 15 77 17 78 12 79 16 82 18 83 19 84 20 85 21 86 22 87
REMARK SMILES IDX 27 88 23 89 24 90 26 91 28 92 25 93
REMARK H PARENT 83 22 53 33 13 80 13 81
REMARK Flexibility Score: inf
ROOT
ATOM      1  C   UNL A   1      33.900  29.362  27.310  1.00  0.00     0.275 C 
ENDROOT
BRANCH   1   2
ATOM      2  O   UNL A   1      35.112  30.095  27.461  1.00  0.00    -0.458 OA
BRANCH   2   3
ATOM      3  C   UNL A   1      35.889  30.032  28.571  1.00  0.00     0.338 C 
ATOM      4  O   UNL A   1      35.573  30.700  29.552  1.00  0.00    -0.246 OA
BRANCH   3   5
ATOM      5  C   UNL A   1      37.250  29.377  28.547  1.00  0.00     0.060 A 
ATOM      6  C   UNL A   1      37.938  28.632  29.518  1.00  0.00     0.016 A 
ATOM      7  C   UNL A   1      38.047  29.783  27.526  1.00  0.00     0.016 A 
ATOM      8  C   UNL A   1      39.398  28.298  29.417  1.00  0.00     0.010 A 
ATOM      9  C   UNL A   1      39.462  29.527  27.576  1.00  0.00     0.010 A 
ATOM     10  C   UNL A   1      40.256  28.768  28.411  1.00  0.00    -0.014 A 
BRANCH  10  11
ATOM     11  C   UNL A   1      41.829  28.469  28.097  1.00  0.00     0.031 A 
ATOM     12  C   UNL A   1      42.908  29.552  28.056  1.00  0.00     0.074 A 
ATOM     13  C   UNL A   1      42.499  27.493  27.381  1.00  0.00     0.049 A 
ATOM     14  N   UNL A   1      43.599  30.019  29.062  1.00  0.00    -0.248 NA
ATOM     15  C   UNL A   1      43.432  29.997  26.721  1.00  0.00     0.031 C 
ATOM     16  C   UNL A   1      42.232  26.951  26.054  1.00  0.00     0.029 A 
ATOM     17  N   UNL A   1      43.775  26.962  27.551  1.00  0.00    -0.354 N 
ATOM     18  C   UNL A   1      44.586  30.823  28.495  1.00  0.00     0.074 A 
ATOM     19  C   UNL A   1      44.501  30.714  27.060  1.00  0.00     0.031 C 
ATOM     20  C   UNL A   1      42.954  25.864  25.775  1.00  0.00     0.029 A 
ATOM     21  C   UNL A   1      44.023  25.854  26.744  1.00  0.00     0.049 A 
ATOM     22  H   UNL A   1      44.436  27.332  28.180  1.00  0.00     0.167 HD
ATOM     23  C   UNL A   1      45.679  31.300  29.127  1.00  0.00     0.031 A 
ATOM     24  C   UNL A   1      45.051  24.992  26.648  1.00  0.00     0.031 A 
ATOM     25  C   UNL A   1      46.948  30.621  28.993  1.00  0.00     0.049 A 
ATOM     26  C   UNL A   1      46.355  25.431  27.212  1.00  0.00     0.074 A 
ATOM     27  C   UNL A   1      48.230  31.066  29.263  1.00  0.00     0.029 A 
ATOM     28  N   UNL A   1      47.063  29.299  28.588  1.00  0.00    -0.354 N 
ATOM     29  N   UNL A   1      46.666  26.615  27.676  1.00  0.00    -0.248 NA
ATOM     30  C   UNL A   1      47.469  24.481  27.147  1.00  0.00     0.031 C 
ATOM     31  C   UNL A   1      49.125  30.023  28.978  1.00  0.00     0.029 A 
ATOM     32  C   UNL A   1      48.389  28.911  28.607  1.00  0.00     0.049 A 
ATOM     33  H   UNL A   1      46.311  28.721  28.326  1.00  0.00     0.167 HD
ATOM     34  C   UNL A   1      48.028  26.566  27.921  1.00  0.00     0.074 A 
ATOM     35  C   UNL A   1      48.465  25.218  27.619  1.00  0.00     0.031 C 
ATOM     36  C   UNL A   1      48.838  27.575  28.318  1.00  0.00     0.031 A 
BRANCH  23  37
ATOM     37  C   UNL A   1      45.651  32.800  29.266  1.00  0.00    -0.014 A 
ATOM     38  C   UNL A   1      45.863  33.601  28.135  1.00  0.00     0.010 A 
ATOM     39  C   UNL A   1      45.355  33.430  30.494  1.00  0.00     0.010 A 
ATOM     40  C   UNL A   1      45.757  34.993  28.217  1.00  0.00     0.020 A 
ATOM     41  C   UNL A   1      45.228  34.822  30.580  1.00  0.00     0.020 A 
ATOM     42  C   UNL A   1      45.426  35.595  29.436  1.00  0.00     0.054 A 
BRANCH  42  43
ATOM     43  S   UNL A   1      45.200  37.395  29.479  1.00  0.00     0.124 S 
ATOM     44  O   UNL A   1      45.907  37.824  28.275  1.00  0.00    -0.237 OA
ATOM     45  O   UNL A   1      43.747  37.533  29.434  1.00  0.00    -0.237 OA
ATOM     46  O   UNL A   1      45.820  37.797  30.739  1.00  0.00    -0.744 OA
ENDBRANCH  42  43
ENDBRANCH  23  37
BRANCH  24  47
ATOM     47  C   UNL A   1      44.904  23.644  26.016  1.00  0.00    -0.014 A 
ATOM     48  C   UNL A   1      44.031  22.732  26.645  1.00  0.00     0.010 A 
ATOM     49  C   UNL A   1      45.588  23.226  24.862  1.00  0.00     0.010 A 
ATOM     50  C   UNL A   1      43.869  21.432  26.161  1.00  0.00     0.020 A 
ATOM     51  C   UNL A   1      45.394  21.935  24.345  1.00  0.00     0.020 A 
ATOM     52  C   UNL A   1      44.552  21.039  25.011  1.00  0.00     0.054 A 
BRANCH  52  53
ATOM     53  S   UNL A   1      44.295  19.358  24.372  1.00  0.00     0.124 S 
ATOM     54  O   UNL A   1      42.960  19.046  24.869  1.00  0.00    -0.237 OA
ATOM     55  O   UNL A   1      44.403  19.543  22.926  1.00  0.00    -0.237 OA
ATOM     56  O   UNL A   1      45.387  18.597  24.976  1.00  0.00    -0.744 OA
ENDBRANCH  52  53
ENDBRANCH  24  47
BRANCH  36  57
ATOM     57  C   UNL A   1      50.279  27.239  28.525  1.00  0.00    -0.014 A 
ATOM     58  C   UNL A   1      50.787  26.912  29.793  1.00  0.00     0.010 A 
ATOM     59  C   UNL A   1      51.136  27.256  27.412  1.00  0.00     0.010 A 
ATOM     60  C   UNL A   1      52.148  26.641  29.950  1.00  0.00     0.020 A 
ATOM     61  C   UNL A   1      52.489  26.962  27.562  1.00  0.00     0.020 A 
ATOM     62  C   UNL A   1      52.990  26.673  28.833  1.00  0.00     0.054 A 
BRANCH  62  63
ATOM     63  S   UNL A   1      54.748  26.294  29.049  1.00  0.00     0.124 S 
ATOM     64  O   UNL A   1      54.755  25.628  30.348  1.00  0.00    -0.237 OA
ATOM     65  O   UNL A   1      55.036  25.440  27.900  1.00  0.00    -0.237 OA
ATOM     66  O   UNL A   1      55.389  27.607  29.017  1.00  0.00    -0.744 OA
ENDBRANCH  62  63
ENDBRANCH  36  57
ENDBRANCH  10  11
ENDBRANCH   3   5
ENDBRANCH   2   3
ENDBRANCH   1   2
BRANCH   1  67
ATOM     67  C   UNL A   1      34.122  28.051  26.572  1.00  0.00     0.274 C 
BRANCH  67  68
ATOM     68  O   UNL A   1      33.068  27.752  25.644  1.00  0.00    -0.461 OA
BRANCH  68  69
ATOM     69  C   UNL A   1      32.068  26.897  26.007  1.00  0.00     0.320 C 
ATOM     70  O   UNL A   1      31.423  27.009  27.047  1.00  0.00    -0.251 OA
BRANCH  69  71
ATOM     71  C   UNL A   1      31.939  25.695  25.048  1.00  0.00     0.137 C 
ATOM     72  C   UNL A   1      31.507  26.195  23.653  1.00  0.00     0.033 C 
ATOM     73  C   UNL A   1      30.759  24.760  25.453  1.00  0.00     0.203 C 
ATOM     74  C   UNL A   1      33.345  24.972  24.900  1.00  0.00     0.144 C 
ATOM     75  C   UNL A   1      30.145  26.898  23.695  1.00  0.00     0.063 C 
ATOM     76  N   UNL A   1      29.451  25.417  25.606  1.00  0.00    -0.343 N 
ATOM     77  C   UNL A   1      31.148  23.984  26.677  1.00  0.00     0.088 C 
ATOM     78  N   UNL A   1      33.704  24.061  25.981  1.00  0.00    -0.341 N 
ATOM     79  C   UNL A   1      29.040  26.077  24.371  1.00  0.00     0.260 C 
ATOM     80  H   UNL A   1      28.754  24.716  25.855  1.00  0.00     0.346 HD
ATOM     81  H   UNL A   1      29.528  26.124  26.337  1.00  0.00     0.346 HD
ATOM     82  C   UNL A   1      32.452  23.300  26.295  1.00  0.00     0.125 C 
BRANCH  78  83
ATOM     83  C   UNL A   1      34.992  23.309  25.859  1.00  0.00     0.227 C 
ATOM     84  O   UNL A   1      34.888  22.090  25.625  1.00  0.00    -0.275 OA
BRANCH  83  85
ATOM     85  C   UNL A   1      36.647  23.942  25.872  1.00  0.00     0.140 C 
BRANCH  85  86
ATOM     86  C   UNL A   1      38.072  23.230  26.124  1.00  0.00     0.016 A 
ATOM     87  C   UNL A   1      38.467  21.994  25.569  1.00  0.00     0.128 A 
ATOM     88  C   UNL A   1      39.105  23.781  26.898  1.00  0.00     0.047 A 
ATOM     89  F   UNL A   1      37.933  21.610  24.407  1.00  0.00    -0.207 F 
ATOM     90  C   UNL A   1      39.514  21.183  26.083  1.00  0.00     0.039 A 
ATOM     91  C   UNL A   1      40.158  22.990  27.447  1.00  0.00     0.021 A 
ATOM     92  Cl  UNL A   1      39.179  25.485  27.155  1.00  0.00    -0.084 Cl
ATOM     93  C   UNL A   1      40.306  21.649  27.113  1.00  0.00     0.005 A 
ENDBRANCH  85  86
ENDBRANCH  83  85
ENDBRANCH  78  83
ENDBRANCH  69  71
ENDBRANCH  68  69
ENDBRANCH  67  68
ENDBRANCH   1  67
TORSDOF 17
ENDMDL
MODEL 2
REMARK VINA RESULT:     -11.3     11.044     17.346
REMARK SMILES O=C(OCCOC(=O)[C@]12CCC[NH2+][C@@H]1CCN(C(=O)Cc1c(F)cccc1Cl)C2)c1ccc(-c2c3nc(c(-c4ccc(S(=O)(=O)[O-])cc4)c4ccc([nH]4)c(-c4ccc(S(=O)(=O)[O-])cc4)c4nc(c(-c5ccc(S(=O)(=O)[O-])cc5)c5ccc2[nH]5)C=C4)C=C3)cc1
REMARK SMILES IDX 4 1 3 2 2 3 1 4 30 5 31 6 89 7 32 8 88 9 33 10 34 11 35 12
REMARK SMILES IDX 82 13 36 14 87 15 81 16 83 17 37 18 86 19 80 20 79 21 38 23
REMARK SMILES IDX 68 24 49 25 67 26 50 27 53 28 66 29 84 30 51 31 52 32 65 34
REMARK SMILES IDX 85 35 54 36 39 37 40 38 48 39 41 40 47 41 42 42 43 43 44 44
REMARK SMILES IDX 45 45 46 46 69 47 70 48 78 49 71 50 77 51 72 52 73 53 74 54
REMARK SMILES IDX 75 55 76 56 55 57 56 58 64 59 57 60 63 61 58 62 59 63 60 64
REMARK SMILES IDX 61 65 62 66 5 67 6 68 7 69 8 70 9 71 10 72 14 73 29 74 11 75
REMARK SMILES IDX 13 76 15 77 17 78 12 79 16 82 18 83 19 84 20 85 21 86 22 87
REMARK SMILES IDX 27 88 23 89 24 90 26 91 28 92 25 93
REMARK H PARENT 83 22 53 33 13 80 13 81
REMARK Flexibility Score: inf
ROOT
ATOM      1  C   UNL A   1      46.324  22.260  38.901  1.00  0.00     0.275 C 
ENDROOT
BRANCH   1   2
ATOM      2  O   UNL A   1      45.437  22.449  37.802  1.00  0.00    -0.458 OA
BRANCH   2   3
ATOM      3  C   UNL A   1      45.637  23.376  36.833  1.00  0.00     0.338 C 
ATOM      4  O   UNL A   1      46.587  23.234  36.067  1.00  0.00    -0.246 OA
BRANCH   3   5
ATOM      5  C   UNL A   1      44.894  24.691  36.832  1.00  0.00     0.060 A 
ATOM      6  C   UNL A   1      44.158  25.342  37.835  1.00  0.00     0.016 A 
ATOM      7  C   UNL A   1      44.682  25.211  35.596  1.00  0.00     0.016 A 
ATOM      8  C   UNL A   1      43.254  26.510  37.566  1.00  0.00     0.010 A 
ATOM      9  C   UNL A   1      43.699  26.246  35.412  1.00  0.00     0.010 A 
ATOM     10  C   UNL A   1      42.963  27.016  36.289  1.00  0.00    -0.014 A 
BRANCH  10  11
ATOM     11  C   UNL A   1      42.075  28.296  35.805  1.00  0.00     0.031 A 
ATOM     12  C   UNL A   1      41.657  28.539  34.354  1.00  0.00     0.074 A 
ATOM     13  C   UNL A   1      41.904  29.583  36.280  1.00  0.00     0.049 A 
ATOM     14  N   UNL A   1      40.600  28.068  33.746  1.00  0.00    -0.248 NA
ATOM     15  C   UNL A   1      42.368  29.601  33.567  1.00  0.00     0.031 C 
ATOM     16  C   UNL A   1      42.890  30.560  36.725  1.00  0.00     0.029 A 
ATOM     17  N   UNL A   1      40.811  30.442  36.191  1.00  0.00    -0.354 N 
ATOM     18  C   UNL A   1      40.547  28.733  32.522  1.00  0.00     0.074 A 
ATOM     19  C   UNL A   1      41.596  29.721  32.489  1.00  0.00     0.031 C 
ATOM     20  C   UNL A   1      42.346  31.621  37.325  1.00  0.00     0.029 A 
ATOM     21  C   UNL A   1      40.950  31.593  36.963  1.00  0.00     0.049 A 
ATOM     22  H   UNL A   1      40.018  30.255  35.639  1.00  0.00     0.167 HD
ATOM     23  C   UNL A   1      39.493  28.759  31.679  1.00  0.00     0.031 A 
ATOM     24  C   UNL A   1      40.129  32.619  37.249  1.00  0.00     0.031 A 
ATOM     25  C   UNL A   1      38.586  29.883  31.689  1.00  0.00     0.049 A 
ATOM     26  C   UNL A   1      38.975  32.835  36.336  1.00  0.00     0.074 A 
ATOM     27  C   UNL A   1      37.657  30.287  30.747  1.00  0.00     0.029 A 
ATOM     28  N   UNL A   1      38.474  30.761  32.757  1.00  0.00    -0.354 N 
ATOM     29  N   UNL A   1      38.729  32.227  35.203  1.00  0.00    -0.248 NA
ATOM     30  C   UNL A   1      38.054  33.927  36.663  1.00  0.00     0.031 C 
ATOM     31  C   UNL A   1      37.013  31.437  31.230  1.00  0.00     0.029 A 
ATOM     32  C   UNL A   1      37.491  31.698  32.502  1.00  0.00     0.049 A 
ATOM     33  H   UNL A   1      39.016  30.722  33.578  1.00  0.00     0.167 HD
ATOM     34  C   UNL A   1      37.645  32.892  34.658  1.00  0.00     0.074 A 
ATOM     35  C   UNL A   1      37.241  33.902  35.616  1.00  0.00     0.031 C 
ATOM     36  C   UNL A   1      37.074  32.700  33.446  1.00  0.00     0.031 A 
BRANCH  23  37
ATOM     37  C   UNL A   1      39.779  28.047  30.383  1.00  0.00    -0.014 A 
ATOM     38  C   UNL A   1      40.806  28.517  29.551  1.00  0.00     0.010 A 
ATOM     39  C   UNL A   1      39.085  26.878  30.004  1.00  0.00     0.010 A 
ATOM     40  C   UNL A   1      41.150  27.825  28.384  1.00  0.00     0.020 A 
ATOM     41  C   UNL A   1      39.437  26.170  28.848  1.00  0.00     0.020 A 
ATOM     42  C   UNL A   1      40.474  26.648  28.047  1.00  0.00     0.054 A 
BRANCH  42  43
ATOM     43  S   UNL A   1      41.017  25.728  26.580  1.00  0.00     0.124 S 
ATOM     44  O   UNL A   1      39.947  24.748  26.416  1.00  0.00    -0.237 OA
ATOM     45  O   UNL A   1      41.074  26.770  25.557  1.00  0.00    -0.237 OA
ATOM     46  O   UNL A   1      42.312  25.176  26.971  1.00  0.00    -0.744 OA
ENDBRANCH  42  43
ENDBRANCH  23  37
BRANCH  24  47
ATOM     47  C   UNL A   1      40.346  33.508  38.432  1.00  0.00    -0.014 A 
ATOM     48  C   UNL A   1      39.862  33.050  39.676  1.00  0.00     0.010 A 
ATOM     49  C   UNL A   1      40.975  34.763  38.383  1.00  0.00     0.010 A 
ATOM     50  C   UNL A   1      39.969  33.832  40.828  1.00  0.00     0.020 A 
ATOM     51  C   UNL A   1      41.125  35.535  39.547  1.00  0.00     0.020 A 
ATOM     52  C   UNL A   1      40.602  35.072  40.759  1.00  0.00     0.054 A 
BRANCH  52  53
ATOM     53  S   UNL A   1      40.769  36.056  42.276  1.00  0.00     0.124 S 
ATOM     54  O   UNL A   1      39.618  36.949  42.186  1.00  0.00    -0.237 OA
ATOM     55  O   UNL A   1      40.700  35.043  43.327  1.00  0.00    -0.237 OA
ATOM     56  O   UNL A   1      42.075  36.694  42.123  1.00  0.00    -0.744 OA
ENDBRANCH  52  53
ENDBRANCH  24  47
BRANCH  36  57
ATOM     57  C   UNL A   1      35.894  33.554  33.114  1.00  0.00    -0.014 A 
ATOM     58  C   UNL A   1      36.042  34.847  32.586  1.00  0.00     0.010 A 
ATOM     59  C   UNL A   1      34.609  33.036  33.343  1.00  0.00     0.010 A 
ATOM     60  C   UNL A   1      34.913  35.627  32.326  1.00  0.00     0.020 A 
ATOM     61  C   UNL A   1      33.480  33.803  33.062  1.00  0.00     0.020 A 
ATOM     62  C   UNL A   1      33.640  35.100  32.571  1.00  0.00     0.054 A 
BRANCH  62  63
ATOM     63  S   UNL A   1      32.186  36.115  32.204  1.00  0.00     0.124 S 
ATOM     64  O   UNL A   1      32.420  37.290  33.037  1.00  0.00    -0.237 OA
ATOM     65  O   UNL A   1      32.299  36.330  30.763  1.00  0.00    -0.237 OA
ATOM     66  O   UNL A   1      31.066  35.271  32.614  1.00  0.00    -0.744 OA
ENDBRANCH  62  63
ENDBRANCH  36  57
ENDBRANCH  10  11
ENDBRANCH   3   5
ENDBRANCH   2   3
ENDBRANCH   1   2
BRANCH   1  67
ATOM     67  C   UNL A   1      45.628  21.596  40.080  1.00  0.00     0.274 C 
BRANCH  67  68
ATOM     68  O   UNL A   1      46.317  20.426  40.545  1.00  0.00    -0.461 OA
BRANCH  68  69
ATOM     69  C   UNL A   1      45.693  19.570  41.405  1.00  0.00     0.320 C 
ATOM     70  O   UNL A   1      44.888  19.933  42.260  1.00  0.00    -0.251 OA
BRANCH  69  71
ATOM     71  C   UNL A   1      46.220  18.124  41.289  1.00  0.00     0.137 C 
ATOM     72  C   UNL A   1      47.372  17.914  42.294  1.00  0.00     0.033 C 
ATOM     73  C   UNL A   1      46.917  17.875  39.917  1.00  0.00     0.203 C 
ATOM     74  C   UNL A   1      45.059  17.100  41.645  1.00  0.00     0.144 C 
ATOM     75  C   UNL A   1      48.550  18.855  42.017  1.00  0.00     0.063 C 
ATOM     76  N   UNL A   1      47.987  18.823  39.566  1.00  0.00    -0.343 N 
ATOM     77  C   UNL A   1      45.871  17.782  38.846  1.00  0.00     0.088 C 
ATOM     78  N   UNL A   1      44.104  16.831  40.577  1.00  0.00    -0.341 N 
ATOM     79  C   UNL A   1      49.049  18.821  40.568  1.00  0.00     0.260 C 
ATOM     80  H   UNL A   1      48.382  18.560  38.664  1.00  0.00     0.346 HD
ATOM     81  H   UNL A   1      47.587  19.760  39.525  1.00  0.00     0.346 HD
ATOM     82  C   UNL A   1      44.926  16.694  39.331  1.00  0.00     0.125 C 
BRANCH  78  83
ATOM     83  C   UNL A   1      43.028  15.827  40.844  1.00  0.00     0.227 C 
ATOM     84  O   UNL A   1      42.561  15.253  39.841  1.00  0.00    -0.275 OA
BRANCH  83  85
ATOM     85  C   UNL A   1      42.417  15.248  42.403  1.00  0.00     0.140 C 
BRANCH  85  86
ATOM     86  C   UNL A   1      42.412  13.785  43.084  1.00  0.00     0.016 A 
ATOM     87  C   UNL A   1      42.760  13.518  44.425  1.00  0.00     0.128 A 
ATOM     88  C   UNL A   1      42.020  12.609  42.428  1.00  0.00     0.047 A 
ATOM     89  F   UNL A   1      42.592  14.478  45.338  1.00  0.00    -0.207 F 
ATOM     90  C   UNL A   1      43.144  12.240  44.913  1.00  0.00     0.039 A 
ATOM     91  C   UNL A   1      42.406  11.311  42.880  1.00  0.00     0.021 A 
ATOM     92  Cl  UNL A   1      40.969  12.690  41.062  1.00  0.00    -0.084 Cl
ATOM     93  C   UNL A   1      43.064  11.134  44.091  1.00  0.00     0.005 A 
ENDBRANCH  85  86
ENDBRANCH  83  85
ENDBRANCH  78  83
ENDBRANCH  69  71
ENDBRANCH  68  69
ENDBRANCH  67  68
ENDBRANCH   1  67
TORSDOF 17
ENDMDL
MODEL 3
REMARK VINA RESULT:     -11.3      6.340     12.604
REMARK SMILES O=C(OCCOC(=O)[C@]12CCC[NH2+][C@@H]1CCN(C(=O)Cc1c(F)cccc1Cl)C2)c1ccc(-c2c3nc(c(-c4ccc(S(=O)(=O)[O-])cc4)c4ccc([nH]4)c(-c4ccc(S(=O)(=O)[O-])cc4)c4nc(c(-c5ccc(S(=O)(=O)[O-])cc5)c5ccc2[nH]5)C=C4)C=C3)cc1
REMARK SMILES IDX 4 1 3 2 2 3 1 4 30 5 31 6 89 7 32 8 88 9 33 10 34 11 35 12
REMARK SMILES IDX 82 13 36 14 87 15 81 16 83 17 37 18 86 19 80 20 79 21 38 23
REMARK SMILES IDX 68 24 49 25 67 26 50 27 53 28 66 29 84 30 51 31 52 32 65 34
REMARK SMILES IDX 85 35 54 36 39 37 40 38 48 39 41 40 47 41 42 42 43 43 44 44
REMARK SMILES IDX 45 45 46 46 69 47 70 48 78 49 71 50 77 51 72 52 73 53 74 54
REMARK SMILES IDX 75 55 76 56 55 57 56 58 64 59 57 60 63 61 58 62 59 63 60 64
REMARK SMILES IDX 61 65 62 66 5 67 6 68 7 69 8 70 9 71 10 72 14 73 29 74 11 75
REMARK SMILES IDX 13 76 15 77 17 78 12 79 16 82 18 83 19 84 20 85 21 86 22 87
REMARK SMILES IDX 27 88 23 89 24 90 26 91 28 92 25 93
REMARK H PARENT 83 22 53 33 13 80 13 81
REMARK Flexibility Score: inf
ROOT
ATOM      1  C   UNL A   1      46.896  25.801  24.927  1.00  0.00     0.275 C 
ENDROOT
BRANCH   1   2
ATOM      2  O   UNL A   1      45.840  26.714  24.640  1.00  0.00    -0.458 OA
BRANCH   2   3
ATOM      3  C   UNL A   1      45.696  27.908  25.265  1.00  0.00     0.338 C 
ATOM      4  O   UNL A   1      46.560  28.767  25.104  1.00  0.00    -0.246 OA
BRANCH   3   5
ATOM      5  C   UNL A   1      44.657  28.118  26.341  1.00  0.00     0.060 A 
ATOM      6  C   UNL A   1      43.255  28.153  26.283  1.00  0.00     0.016 A 
ATOM      7  C   UNL A   1      45.152  28.606  27.508  1.00  0.00     0.016 A 
ATOM      8  C   UNL A   1      42.396  28.652  27.408  1.00  0.00     0.010 A 
ATOM      9  C   UNL A   1      44.260  29.184  28.478  1.00  0.00     0.010 A 
ATOM     10  C   UNL A   1      42.886  29.228  28.590  1.00  0.00    -0.014 A 
BRANCH  10  11
ATOM     11  C   UNL A   1      42.129  29.760  29.934  1.00  0.00     0.031 A 
ATOM     12  C   UNL A   1      42.497  29.312  31.350  1.00  0.00     0.074 A 
ATOM     13  C   UNL A   1      40.857  30.231  30.199  1.00  0.00     0.049 A 
ATOM     14  N   UNL A   1      43.411  29.827  32.130  1.00  0.00    -0.248 NA
ATOM     15  C   UNL A   1      41.598  28.338  32.055  1.00  0.00     0.031 C 
ATOM     16  C   UNL A   1      39.557  29.710  29.792  1.00  0.00     0.029 A 
ATOM     17  N   UNL A   1      40.407  31.132  31.162  1.00  0.00    -0.354 N 
ATOM     18  C   UNL A   1      43.223  29.224  33.372  1.00  0.00     0.074 A 
ATOM     19  C   UNL A   1      42.053  28.385  33.304  1.00  0.00     0.031 C 
ATOM     20  C   UNL A   1      38.550  30.549  30.046  1.00  0.00     0.029 A 
ATOM     21  C   UNL A   1      39.076  31.504  30.991  1.00  0.00     0.049 A 
ATOM     22  H   UNL A   1      40.974  31.473  31.891  1.00  0.00     0.167 HD
ATOM     23  C   UNL A   1      43.763  29.631  34.540  1.00  0.00     0.031 A 
ATOM     24  C   UNL A   1      38.279  32.396  31.606  1.00  0.00     0.031 A 
ATOM     25  C   UNL A   1      42.991  30.446  35.450  1.00  0.00     0.049 A 
ATOM     26  C   UNL A   1      38.698  32.856  32.957  1.00  0.00     0.074 A 
ATOM     27  C   UNL A   1      43.188  30.713  36.793  1.00  0.00     0.029 A 
ATOM     28  N   UNL A   1      41.879  31.177  35.059  1.00  0.00    -0.354 N 
ATOM     29  N   UNL A   1      39.684  32.399  33.686  1.00  0.00    -0.248 NA
ATOM     30  C   UNL A   1      37.855  33.857  33.617  1.00  0.00     0.031 C 
ATOM     31  C   UNL A   1      42.165  31.573  37.223  1.00  0.00     0.029 A 
ATOM     32  C   UNL A   1      41.384  31.898  36.128  1.00  0.00     0.049 A 
ATOM     33  H   UNL A   1      41.498  31.182  34.151  1.00  0.00     0.167 HD
ATOM     34  C   UNL A   1      39.557  33.029  34.911  1.00  0.00     0.074 A 
ATOM     35  C   UNL A   1      38.442  33.948  34.802  1.00  0.00     0.031 C 
ATOM     36  C   UNL A   1      40.283  32.819  36.034  1.00  0.00     0.031 A 
BRANCH  23  37
ATOM     37  C   UNL A   1      44.752  28.636  35.091  1.00  0.00    -0.014 A 
ATOM     38  C   UNL A   1      44.309  27.641  35.974  1.00  0.00     0.010 A 
ATOM     39  C   UNL A   1      46.107  28.635  34.697  1.00  0.00     0.010 A 
ATOM     40  C   UNL A   1      45.187  26.653  36.433  1.00  0.00     0.020 A 
ATOM     41  C   UNL A   1      46.987  27.639  35.137  1.00  0.00     0.020 A 
ATOM     42  C   UNL A   1      46.518  26.649  36.001  1.00  0.00     0.054 A 
BRANCH  42  43
ATOM     43  S   UNL A   1      47.598  25.295  36.540  1.00  0.00     0.124 S 
ATOM     44  O   UNL A   1      46.848  24.114  36.119  1.00  0.00    -0.237 OA
ATOM     45  O   UNL A   1      48.827  25.555  35.793  1.00  0.00    -0.237 OA
ATOM     46  O   UNL A   1      47.702  25.483  37.985  1.00  0.00    -0.744 OA
ENDBRANCH  42  43
ENDBRANCH  23  37
BRANCH  24  47
ATOM     47  C   UNL A   1      37.030  32.919  30.972  1.00  0.00    -0.014 A 
ATOM     48  C   UNL A   1      37.184  33.818  29.896  1.00  0.00     0.010 A 
ATOM     49  C   UNL A   1      35.727  32.592  31.386  1.00  0.00     0.010 A 
ATOM     50  C   UNL A   1      36.078  34.402  29.274  1.00  0.00     0.020 A 
ATOM     51  C   UNL A   1      34.611  33.142  30.735  1.00  0.00     0.020 A 
ATOM     52  C   UNL A   1      34.795  34.060  29.697  1.00  0.00     0.054 A 
BRANCH  52  53
ATOM     53  S   UNL A   1      33.368  34.797  28.848  1.00  0.00     0.124 S 
ATOM     54  O   UNL A   1      32.448  35.036  29.955  1.00  0.00    -0.237 OA
ATOM     55  O   UNL A   1      33.941  35.993  28.234  1.00  0.00    -0.237 OA
ATOM     56  O   UNL A   1      32.962  33.757  27.905  1.00  0.00    -0.744 OA
ENDBRANCH  52  53
ENDBRANCH  24  47
BRANCH  36  57
ATOM     57  C   UNL A   1      39.942  33.657  37.223  1.00  0.00    -0.014 A 
ATOM     58  C   UNL A   1      39.112  33.178  38.251  1.00  0.00     0.010 A 
ATOM     59  C   UNL A   1      40.471  34.955  37.300  1.00  0.00     0.010 A 
ATOM     60  C   UNL A   1      38.787  34.008  39.326  1.00  0.00     0.020 A 
ATOM     61  C   UNL A   1      40.168  35.776  38.384  1.00  0.00     0.020 A 
ATOM     62  C   UNL A   1      39.314  35.303  39.382  1.00  0.00     0.054 A 
BRANCH  62  63
ATOM     63  S   UNL A   1      38.903  36.357  40.797  1.00  0.00     0.124 S 
ATOM     64  O   UNL A   1      38.550  37.614  40.143  1.00  0.00    -0.237 OA
ATOM     65  O   UNL A   1      37.795  35.638  41.422  1.00  0.00    -0.237 OA
ATOM     66  O   UNL A   1      40.138  36.383  41.576  1.00  0.00    -0.744 OA
ENDBRANCH  62  63
ENDBRANCH  36  57
ENDBRANCH  10  11
ENDBRANCH   3   5
ENDBRANCH   2   3
ENDBRANCH   1   2
BRANCH   1  67
ATOM     67  C   UNL A   1      46.446  24.355  24.782  1.00  0.00     0.274 C 
BRANCH  67  68
ATOM     68  O   UNL A   1      45.063  24.238  24.417  1.00  0.00    -0.461 OA
BRANCH  68  69
ATOM     69  C   UNL A   1      44.473  23.007  24.384  1.00  0.00     0.320 C 
ATOM     70  O   UNL A   1      43.974  22.519  23.373  1.00  0.00    -0.251 OA
BRANCH  69  71
ATOM     71  C   UNL A   1      44.369  22.363  25.783  1.00  0.00     0.137 C 
ATOM     72  C   UNL A   1      45.695  21.649  26.120  1.00  0.00     0.033 C 
ATOM     73  C   UNL A   1      43.340  21.193  25.802  1.00  0.00     0.203 C 
ATOM     74  C   UNL A   1      44.123  23.490  26.876  1.00  0.00     0.144 C 
ATOM     75  C   UNL A   1      46.011  20.530  25.121  1.00  0.00     0.063 C 
ATOM     76  N   UNL A   1      43.547  20.147  24.788  1.00  0.00    -0.343 N 
ATOM     77  C   UNL A   1      41.952  21.761  25.752  1.00  0.00     0.088 C 
ATOM     78  N   UNL A   1      42.748  23.960  26.999  1.00  0.00    -0.341 N 
ATOM     79  C   UNL A   1      44.864  19.532  24.920  1.00  0.00     0.260 C 
ATOM     80  H   UNL A   1      42.833  19.428  24.900  1.00  0.00     0.346 HD
ATOM     81  H   UNL A   1      43.486  20.576  23.865  1.00  0.00     0.346 HD
ATOM     82  C   UNL A   1      41.896  22.730  26.923  1.00  0.00     0.125 C 
BRANCH  78  83
ATOM     83  C   UNL A   1      42.453  24.977  28.056  1.00  0.00     0.227 C 
ATOM     84  O   UNL A   1      41.259  25.314  28.166  1.00  0.00    -0.275 OA
BRANCH  83  85
ATOM     85  C   UNL A   1      43.552  25.671  29.260  1.00  0.00     0.140 C 
BRANCH  85  86
ATOM     86  C   UNL A   1      44.131  25.095  30.652  1.00  0.00     0.016 A 
ATOM     87  C   UNL A   1      44.085  23.741  31.046  1.00  0.00     0.128 A 
ATOM     88  C   UNL A   1      44.786  25.873  31.618  1.00  0.00     0.047 A 
ATOM     89  F   UNL A   1      44.061  22.795  30.103  1.00  0.00    -0.207 F 
ATOM     90  C   UNL A   1      44.213  23.293  32.388  1.00  0.00     0.039 A 
ATOM     91  C   UNL A   1      44.912  25.462  32.978  1.00  0.00     0.021 A 
ATOM     92  Cl  UNL A   1      45.546  27.355  31.166  1.00  0.00    -0.084 Cl
ATOM     93  C   UNL A   1      44.529  24.190  33.388  1.00  0.00     0.005 A 
ENDBRANCH  85  86
ENDBRANCH  83  85
ENDBRANCH  78  83
ENDBRANCH  69  71
ENDBRANCH  68  69
ENDBRANCH  67  68
ENDBRANCH   1  67
TORSDOF 17
ENDMDL
