MODEL 1
REMARK VINA RESULT:     -10.5      0.000      0.000
REMARK SMILES Cc1cc(NC(=O)CC2(CC(=O)OCCOC(=O)c3ccc(-c4c5nc(c(-c6ccc(S(=O)(=O)[O-])cc6)c6ccc([nH]6)c(-c6ccc(S(=O)(=O)[O-])cc6)c6nc(c(-c7ccc(S(=O)(=O)[O-])cc7)c7ccc4[nH]7)C=C6)C=C5)cc3)CCCC2)ccn1
REMARK SMILES IDX 14 1 13 2 11 3 12 4 10 5 9 6 79 7 82 8 80 9 81 10 8 11 6 12
REMARK SMILES IDX 5 13 7 15 4 16 1 17 2 18 3 19 85 20 84 21 83 22 15 23 16 24
REMARK SMILES IDX 17 25 18 26 19 27 20 28 78 29 21 30 77 31 22 32 23 33 24 34
REMARK SMILES IDX 71 35 25 36 76 37 70 38 72 39 26 40 75 41 69 42 68 43 27 45
REMARK SMILES IDX 57 46 38 47 56 48 39 49 42 50 55 51 73 52 40 53 41 54 54 56
REMARK SMILES IDX 74 57 43 58 28 59 29 60 37 61 30 62 36 63 31 64 32 65 33 66
REMARK SMILES IDX 34 67 35 68 58 69 59 70 67 71 60 72 66 73 61 74 62 75 63 76
REMARK SMILES IDX 64 77 65 78 44 79 45 80 53 81 46 82 52 83 47 84 48 85 49 86
REMARK SMILES IDX 50 87 51 88
REMARK H PARENT 5 14 72 44 42 55
REMARK Flexibility Score: inf
ROOT
ATOM      1  C   UNL A   1      31.704  28.855  26.145  1.00  0.00     0.274 C 
ENDROOT
BRANCH   1   2
ATOM      2  O   UNL A   1      31.897  27.679  25.333  1.00  0.00    -0.462 OA
BRANCH   2   3
ATOM      3  C   UNL A   1      31.451  26.526  25.884  1.00  0.00     0.306 C 
ATOM      4  O   UNL A   1      30.552  26.460  26.718  1.00  0.00    -0.252 OA
BRANCH   3   5
ATOM      5  C   UNL A   1      32.187  25.278  25.446  1.00  0.00     0.130 C 
BRANCH   5   6
ATOM      6  C   UNL A   1      31.598  24.253  24.434  1.00  0.00    -0.011 C 
ATOM      7  C   UNL A   1      32.761  23.827  23.506  1.00  0.00     0.008 C 
ATOM      8  C   UNL A   1      30.658  24.868  23.374  1.00  0.00     0.008 C 
ATOM      9  C   UNL A   1      32.923  24.957  22.490  1.00  0.00     0.001 C 
ATOM     10  C   UNL A   1      31.559  25.635  22.413  1.00  0.00     0.001 C 
BRANCH   6  11
ATOM     11  C   UNL A   1      30.892  23.070  25.149  1.00  0.00     0.108 C 
BRANCH  11  12
ATOM     12  C   UNL A   1      31.220  22.870  26.619  1.00  0.00     0.224 C 
ATOM     13  N   UNL A   1      32.415  22.429  27.091  1.00  0.00    -0.326 N 
ATOM     14  H   UNL A   1      32.455  22.412  28.075  1.00  0.00     0.169 HD
ATOM     15  O   UNL A   1      30.391  23.206  27.471  1.00  0.00    -0.275 OA
BRANCH  13  16
ATOM     16  C   UNL A   1      33.605  21.992  26.490  1.00  0.00     0.044 A 
ATOM     17  C   UNL A   1      37.003  23.541  25.888  1.00  0.00     0.067 C 
ATOM     18  C   UNL A   1      35.868  22.562  25.904  1.00  0.00     0.039 A 
ATOM     19  C   UNL A   1      34.701  22.850  26.605  1.00  0.00     0.049 A 
ATOM     20  N   UNL A   1      35.997  21.457  25.137  1.00  0.00    -0.261 NA
ATOM     21  C   UNL A   1      34.953  20.603  25.106  1.00  0.00     0.113 A 
ATOM     22  C   UNL A   1      33.753  20.818  25.766  1.00  0.00     0.046 A 
ENDBRANCH  13  16
ENDBRANCH  11  12
ENDBRANCH   6  11
ENDBRANCH   5   6
ENDBRANCH   3   5
ENDBRANCH   2   3
ENDBRANCH   1   2
BRANCH   1  23
ATOM     23  C   UNL A   1      32.999  29.648  26.282  1.00  0.00     0.275 C 
BRANCH  23  24
ATOM     24  O   UNL A   1      33.526  29.514  27.611  1.00  0.00    -0.458 OA
BRANCH  24  25
ATOM     25  C   UNL A   1      34.327  30.520  28.023  1.00  0.00     0.338 C 
ATOM     26  O   UNL A   1      34.015  31.697  28.176  1.00  0.00    -0.246 OA
BRANCH  25  27
ATOM     27  C   UNL A   1      35.688  30.017  28.260  1.00  0.00     0.060 A 
ATOM     28  C   UNL A   1      36.066  29.574  29.525  1.00  0.00     0.016 A 
ATOM     29  C   UNL A   1      36.631  30.104  27.235  1.00  0.00     0.016 A 
ATOM     30  C   UNL A   1      37.407  29.301  29.795  1.00  0.00     0.010 A 
ATOM     31  C   UNL A   1      37.956  29.743  27.485  1.00  0.00     0.010 A 
ATOM     32  C   UNL A   1      38.367  29.368  28.775  1.00  0.00    -0.014 A 
BRANCH  32  33
ATOM     33  C   UNL A   1      39.797  29.055  29.044  1.00  0.00     0.031 A 
ATOM     34  C   UNL A   1      40.723  30.117  29.581  1.00  0.00     0.074 A 
ATOM     35  C   UNL A   1      40.280  27.829  28.765  1.00  0.00     0.049 A 
ATOM     36  N   UNL A   1      42.029  30.111  29.656  1.00  0.00    -0.248 NA
ATOM     37  C   UNL A   1      40.097  31.350  30.088  1.00  0.00     0.031 C 
ATOM     38  C   UNL A   1      39.491  26.692  28.286  1.00  0.00     0.029 A 
ATOM     39  N   UNL A   1      41.562  27.337  28.831  1.00  0.00    -0.354 N 
ATOM     40  C   UNL A   1      42.388  31.355  30.164  1.00  0.00     0.074 A 
ATOM     41  C   UNL A   1      41.160  32.090  30.384  1.00  0.00     0.031 C 
ATOM     42  C   UNL A   1      40.300  25.636  28.113  1.00  0.00     0.029 A 
ATOM     43  C   UNL A   1      41.673  26.042  28.387  1.00  0.00     0.049 A 
ATOM     44  H   UNL A   1      42.325  27.862  29.165  1.00  0.00     0.167 HD
ATOM     45  C   UNL A   1      43.628  31.841  30.415  1.00  0.00     0.031 A 
ATOM     46  C   UNL A   1      42.759  25.276  28.170  1.00  0.00     0.031 A 
ATOM     47  C   UNL A   1      44.844  31.091  30.229  1.00  0.00     0.049 A 
ATOM     48  C   UNL A   1      44.123  25.846  28.418  1.00  0.00     0.074 A 
ATOM     49  C   UNL A   1      46.148  31.491  30.473  1.00  0.00     0.029 A 
ATOM     50  N   UNL A   1      44.909  29.787  29.764  1.00  0.00    -0.354 N 
ATOM     51  N   UNL A   1      44.449  27.041  28.849  1.00  0.00    -0.248 NA
ATOM     52  C   UNL A   1      45.268  24.969  28.140  1.00  0.00     0.031 C 
ATOM     53  C   UNL A   1      47.002  30.439  30.123  1.00  0.00     0.029 A 
ATOM     54  C   UNL A   1      46.228  29.370  29.704  1.00  0.00     0.049 A 
ATOM     55  H   UNL A   1      44.130  29.237  29.515  1.00  0.00     0.167 HD
ATOM     56  C   UNL A   1      45.837  27.056  28.906  1.00  0.00     0.074 A 
ATOM     57  C   UNL A   1      46.288  25.746  28.480  1.00  0.00     0.031 C 
ATOM     58  C   UNL A   1      46.662  28.065  29.275  1.00  0.00     0.031 A 
BRANCH  45  59
ATOM     59  C   UNL A   1      43.743  33.266  30.887  1.00  0.00    -0.014 A 
ATOM     60  C   UNL A   1      43.873  33.580  32.250  1.00  0.00     0.010 A 
ATOM     61  C   UNL A   1      43.786  34.305  29.939  1.00  0.00     0.010 A 
ATOM     62  C   UNL A   1      44.014  34.910  32.660  1.00  0.00     0.020 A 
ATOM     63  C   UNL A   1      43.947  35.635  30.342  1.00  0.00     0.020 A 
ATOM     64  C   UNL A   1      44.045  35.929  31.702  1.00  0.00     0.054 A 
BRANCH  64  65
ATOM     65  S   UNL A   1      44.262  37.645  32.256  1.00  0.00     0.124 S 
ATOM     66  O   UNL A   1      45.688  37.679  32.575  1.00  0.00    -0.237 OA
ATOM     67  O   UNL A   1      43.865  38.417  31.081  1.00  0.00    -0.237 OA
ATOM     68  O   UNL A   1      43.364  37.754  33.403  1.00  0.00    -0.744 OA
ENDBRANCH  64  65
ENDBRANCH  45  59
BRANCH  46  69
ATOM     69  C   UNL A   1      42.587  23.898  27.637  1.00  0.00    -0.014 A 
ATOM     70  C   UNL A   1      42.515  23.671  26.253  1.00  0.00     0.010 A 
ATOM     71  C   UNL A   1      42.536  22.800  28.518  1.00  0.00     0.010 A 
ATOM     72  C   UNL A   1      42.393  22.370  25.757  1.00  0.00     0.020 A 
ATOM     73  C   UNL A   1      42.441  21.497  28.024  1.00  0.00     0.020 A 
ATOM     74  C   UNL A   1      42.360  21.291  26.646  1.00  0.00     0.054 A 
BRANCH  74  75
ATOM     75  S   UNL A   1      42.276  19.605  25.980  1.00  0.00     0.124 S 
ATOM     76  O   UNL A   1      40.910  19.550  25.469  1.00  0.00    -0.237 OA
ATOM     77  O   UNL A   1      43.331  19.607  24.970  1.00  0.00    -0.237 OA
ATOM     78  O   UNL A   1      42.545  18.767  27.147  1.00  0.00    -0.744 OA
ENDBRANCH  74  75
ENDBRANCH  46  69
BRANCH  58  79
ATOM     79  C   UNL A   1      48.138  27.779  29.265  1.00  0.00    -0.014 A 
ATOM     80  C   UNL A   1      48.783  27.258  30.400  1.00  0.00     0.010 A 
ATOM     81  C   UNL A   1      48.881  28.004  28.093  1.00  0.00     0.010 A 
ATOM     82  C   UNL A   1      50.155  26.995  30.372  1.00  0.00     0.020 A 
ATOM     83  C   UNL A   1      50.248  27.724  28.054  1.00  0.00     0.020 A 
ATOM     84  C   UNL A   1      50.880  27.234  29.199  1.00  0.00     0.054 A 
BRANCH  84  85
ATOM     85  S   UNL A   1      52.654  26.856  29.172  1.00  0.00     0.124 S 
ATOM     86  O   UNL A   1      52.821  26.099  30.410  1.00  0.00    -0.237 OA
ATOM     87  O   UNL A   1      52.803  26.086  27.939  1.00  0.00    -0.237 OA
ATOM     88  O   UNL A   1      53.286  28.173  29.157  1.00  0.00    -0.744 OA
ENDBRANCH  84  85
ENDBRANCH  58  79
ENDBRANCH  32  33
ENDBRANCH  25  27
ENDBRANCH  24  25
ENDBRANCH  23  24
ENDBRANCH   1  23
TORSDOF 18
ENDMDL
MODEL 2
REMARK VINA RESULT:     -10.2      2.157      2.940
REMARK SMILES Cc1cc(NC(=O)CC2(CC(=O)OCCOC(=O)c3ccc(-c4c5nc(c(-c6ccc(S(=O)(=O)[O-])cc6)c6ccc([nH]6)c(-c6ccc(S(=O)(=O)[O-])cc6)c6nc(c(-c7ccc(S(=O)(=O)[O-])cc7)c7ccc4[nH]7)C=C6)C=C5)cc3)CCCC2)ccn1
REMARK SMILES IDX 14 1 13 2 11 3 12 4 10 5 9 6 79 7 82 8 80 9 81 10 8 11 6 12
REMARK SMILES IDX 5 13 7 15 4 16 1 17 2 18 3 19 85 20 84 21 83 22 15 23 16 24
REMARK SMILES IDX 17 25 18 26 19 27 20 28 78 29 21 30 77 31 22 32 23 33 24 34
REMARK SMILES IDX 71 35 25 36 76 37 70 38 72 39 26 40 75 41 69 42 68 43 27 45
REMARK SMILES IDX 57 46 38 47 56 48 39 49 42 50 55 51 73 52 40 53 41 54 54 56
REMARK SMILES IDX 74 57 43 58 28 59 29 60 37 61 30 62 36 63 31 64 32 65 33 66
REMARK SMILES IDX 34 67 35 68 58 69 59 70 67 71 60 72 66 73 61 74 62 75 63 76
REMARK SMILES IDX 64 77 65 78 44 79 45 80 53 81 46 82 52 83 47 84 48 85 49 86
REMARK SMILES IDX 50 87 51 88
REMARK H PARENT 5 14 72 44 42 55
REMARK Flexibility Score: inf
ROOT
ATOM      1  C   UNL A   1      32.964  29.884  27.204  1.00  0.00     0.274 C 
ENDROOT
BRANCH   1   2
ATOM      2  O   UNL A   1      33.169  28.456  27.190  1.00  0.00    -0.462 OA
BRANCH   2   3
ATOM      3  C   UNL A   1      32.086  27.727  26.833  1.00  0.00     0.306 C 
ATOM      4  O   UNL A   1      31.147  27.474  27.581  1.00  0.00    -0.252 OA
BRANCH   3   5
ATOM      5  C   UNL A   1      32.123  27.169  25.426  1.00  0.00     0.130 C 
BRANCH   5   6
ATOM      6  C   UNL A   1      32.353  25.662  25.114  1.00  0.00    -0.011 C 
ATOM      7  C   UNL A   1      33.588  25.585  24.185  1.00  0.00     0.008 C 
ATOM      8  C   UNL A   1      31.303  25.035  24.172  1.00  0.00     0.008 C 
ATOM      9  C   UNL A   1      33.084  25.946  22.788  1.00  0.00     0.001 C 
ATOM     10  C   UNL A   1      31.599  25.596  22.786  1.00  0.00     0.001 C 
BRANCH   6  11
ATOM     11  C   UNL A   1      32.481  24.813  26.409  1.00  0.00     0.108 C 
BRANCH  11  12
ATOM     12  C   UNL A   1      31.417  23.754  26.635  1.00  0.00     0.224 C 
ATOM     13  N   UNL A   1      31.570  22.432  26.355  1.00  0.00    -0.326 N 
ATOM     14  H   UNL A   1      30.789  21.893  26.617  1.00  0.00     0.169 HD
ATOM     15  O   UNL A   1      30.360  24.071  27.191  1.00  0.00    -0.275 OA
BRANCH  13  16
ATOM     16  C   UNL A   1      32.591  21.666  25.775  1.00  0.00     0.044 A 
ATOM     17  C   UNL A   1      32.680  18.612  23.545  1.00  0.00     0.067 C 
ATOM     18  C   UNL A   1      33.118  19.774  24.385  1.00  0.00     0.039 A 
ATOM     19  C   UNL A   1      32.181  20.675  24.880  1.00  0.00     0.049 A 
ATOM     20  N   UNL A   1      34.427  19.838  24.712  1.00  0.00    -0.261 NA
ATOM     21  C   UNL A   1      34.812  20.852  25.515  1.00  0.00     0.113 A 
ATOM     22  C   UNL A   1      33.944  21.786  26.058  1.00  0.00     0.046 A 
ENDBRANCH  13  16
ENDBRANCH  11  12
ENDBRANCH   6  11
ENDBRANCH   5   6
ENDBRANCH   3   5
ENDBRANCH   2   3
ENDBRANCH   1   2
BRANCH   1  23
ATOM     23  C   UNL A   1      34.237  30.619  27.607  1.00  0.00     0.275 C 
BRANCH  23  24
ATOM     24  O   UNL A   1      35.181  29.701  28.179  1.00  0.00    -0.458 OA
BRANCH  24  25
ATOM     25  C   UNL A   1      36.034  30.231  29.083  1.00  0.00     0.338 C 
ATOM     26  O   UNL A   1      35.776  31.078  29.933  1.00  0.00    -0.246 OA
BRANCH  25  27
ATOM     27  C   UNL A   1      37.376  29.659  28.905  1.00  0.00     0.060 A 
ATOM     28  C   UNL A   1      38.093  29.188  30.003  1.00  0.00     0.016 A 
ATOM     29  C   UNL A   1      37.973  29.709  27.645  1.00  0.00     0.016 A 
ATOM     30  C   UNL A   1      39.438  28.846  29.861  1.00  0.00     0.010 A 
ATOM     31  C   UNL A   1      39.293  29.280  27.490  1.00  0.00     0.010 A 
ATOM     32  C   UNL A   1      40.052  28.875  28.601  1.00  0.00    -0.014 A 
BRANCH  32  33
ATOM     33  C   UNL A   1      41.479  28.489  28.433  1.00  0.00     0.031 A 
ATOM     34  C   UNL A   1      42.565  29.532  28.508  1.00  0.00     0.074 A 
ATOM     35  C   UNL A   1      41.803  27.208  28.168  1.00  0.00     0.049 A 
ATOM     36  N   UNL A   1      43.823  29.439  28.159  1.00  0.00    -0.248 NA
ATOM     37  C   UNL A   1      42.183  30.854  29.032  1.00  0.00     0.031 C 
ATOM     38  C   UNL A   1      40.862  26.087  28.112  1.00  0.00     0.029 A 
ATOM     39  N   UNL A   1      43.017  26.635  27.879  1.00  0.00    -0.354 N 
ATOM     40  C   UNL A   1      44.371  30.701  28.366  1.00  0.00     0.074 A 
ATOM     41  C   UNL A   1      43.308  31.542  28.876  1.00  0.00     0.031 C 
ATOM     42  C   UNL A   1      41.533  24.963  27.821  1.00  0.00     0.029 A 
ATOM     43  C   UNL A   1      42.933  25.295  27.586  1.00  0.00     0.049 A 
ATOM     44  H   UNL A   1      43.865  27.136  27.882  1.00  0.00     0.167 HD
ATOM     45  C   UNL A   1      45.640  31.119  28.143  1.00  0.00     0.031 A 
ATOM     46  C   UNL A   1      43.860  24.434  27.128  1.00  0.00     0.031 A 
ATOM     47  C   UNL A   1      46.702  30.268  27.670  1.00  0.00     0.049 A 
ATOM     48  C   UNL A   1      45.249  24.926  26.853  1.00  0.00     0.074 A 
ATOM     49  C   UNL A   1      48.026  30.596  27.430  1.00  0.00     0.029 A 
ATOM     50  N   UNL A   1      46.566  28.921  27.375  1.00  0.00    -0.354 N 
ATOM     51  N   UNL A   1      45.739  26.134  27.004  1.00  0.00    -0.248 NA
ATOM     52  C   UNL A   1      46.209  23.944  26.331  1.00  0.00     0.031 C 
ATOM     53  C   UNL A   1      48.682  29.453  26.958  1.00  0.00     0.029 A 
ATOM     54  C   UNL A   1      47.778  28.405  26.946  1.00  0.00     0.049 A 
ATOM     55  H   UNL A   1      45.731  28.405  27.459  1.00  0.00     0.167 HD
ATOM     56  C   UNL A   1      47.068  26.054  26.609  1.00  0.00     0.074 A 
ATOM     57  C   UNL A   1      47.310  24.677  26.227  1.00  0.00     0.031 C 
ATOM     58  C   UNL A   1      48.003  27.034  26.565  1.00  0.00     0.031 A 
BRANCH  45  59
ATOM     59  C   UNL A   1      45.952  32.575  28.372  1.00  0.00    -0.014 A 
ATOM     60  C   UNL A   1      45.767  33.534  27.362  1.00  0.00     0.010 A 
ATOM     61  C   UNL A   1      46.377  32.995  29.647  1.00  0.00     0.010 A 
ATOM     62  C   UNL A   1      46.031  34.884  27.613  1.00  0.00     0.020 A 
ATOM     63  C   UNL A   1      46.622  34.347  29.908  1.00  0.00     0.020 A 
ATOM     64  C   UNL A   1      46.461  35.281  28.884  1.00  0.00     0.054 A 
BRANCH  64  65
ATOM     65  S   UNL A   1      46.765  37.044  29.194  1.00  0.00     0.124 S 
ATOM     66  O   UNL A   1      47.376  37.014  30.521  1.00  0.00    -0.237 OA
ATOM     67  O   UNL A   1      47.659  37.416  28.101  1.00  0.00    -0.237 OA
ATOM     68  O   UNL A   1      45.432  37.641  29.136  1.00  0.00    -0.744 OA
ENDBRANCH  64  65
ENDBRANCH  45  59
BRANCH  46  69
ATOM     69  C   UNL A   1      43.477  23.023  26.855  1.00  0.00    -0.014 A 
ATOM     70  C   UNL A   1      43.819  22.414  25.636  1.00  0.00     0.010 A 
ATOM     71  C   UNL A   1      42.802  22.270  27.835  1.00  0.00     0.010 A 
ATOM     72  C   UNL A   1      43.491  21.076  25.400  1.00  0.00     0.020 A 
ATOM     73  C   UNL A   1      42.496  20.926  27.612  1.00  0.00     0.020 A 
ATOM     74  C   UNL A   1      42.834  20.340  26.391  1.00  0.00     0.054 A 
BRANCH  74  75
ATOM     75  S   UNL A   1      42.483  18.584  26.095  1.00  0.00     0.124 S 
ATOM     76  O   UNL A   1      43.371  18.283  24.976  1.00  0.00    -0.237 OA
ATOM     77  O   UNL A   1      42.839  17.967  27.370  1.00  0.00    -0.237 OA
ATOM     78  O   UNL A   1      41.055  18.572  25.784  1.00  0.00    -0.744 OA
ENDBRANCH  74  75
ENDBRANCH  46  69
BRANCH  58  79
ATOM     79  C   UNL A   1      49.383  26.642  26.117  1.00  0.00    -0.014 A 
ATOM     80  C   UNL A   1      49.863  27.000  24.846  1.00  0.00     0.010 A 
ATOM     81  C   UNL A   1      50.222  25.934  26.997  1.00  0.00     0.010 A 
ATOM     82  C   UNL A   1      51.150  26.629  24.449  1.00  0.00     0.020 A 
ATOM     83  C   UNL A   1      51.516  25.580  26.611  1.00  0.00     0.020 A 
ATOM     84  C   UNL A   1      51.968  25.917  25.334  1.00  0.00     0.054 A 
BRANCH  84  85
ATOM     85  S   UNL A   1      53.647  25.473  24.811  1.00  0.00     0.124 S 
ATOM     86  O   UNL A   1      53.778  24.115  25.332  1.00  0.00    -0.237 OA
ATOM     87  O   UNL A   1      53.574  25.584  23.356  1.00  0.00    -0.237 OA
ATOM     88  O   UNL A   1      54.487  26.474  25.464  1.00  0.00    -0.744 OA
ENDBRANCH  84  85
ENDBRANCH  58  79
ENDBRANCH  32  33
ENDBRANCH  25  27
ENDBRANCH  24  25
ENDBRANCH  23  24
ENDBRANCH   1  23
TORSDOF 18
ENDMDL
MODEL 3
REMARK VINA RESULT:     -10.1      2.658      7.341
REMARK SMILES Cc1cc(NC(=O)CC2(CC(=O)OCCOC(=O)c3ccc(-c4c5nc(c(-c6ccc(S(=O)(=O)[O-])cc6)c6ccc([nH]6)c(-c6ccc(S(=O)(=O)[O-])cc6)c6nc(c(-c7ccc(S(=O)(=O)[O-])cc7)c7ccc4[nH]7)C=C6)C=C5)cc3)CCCC2)ccn1
REMARK SMILES IDX 14 1 13 2 11 3 12 4 10 5 9 6 79 7 82 8 80 9 81 10 8 11 6 12
REMARK SMILES IDX 5 13 7 15 4 16 1 17 2 18 3 19 85 20 84 21 83 22 15 23 16 24
REMARK SMILES IDX 17 25 18 26 19 27 20 28 78 29 21 30 77 31 22 32 23 33 24 34
REMARK SMILES IDX 71 35 25 36 76 37 70 38 72 39 26 40 75 41 69 42 68 43 27 45
REMARK SMILES IDX 57 46 38 47 56 48 39 49 42 50 55 51 73 52 40 53 41 54 54 56
REMARK SMILES IDX 74 57 43 58 28 59 29 60 37 61 30 62 36 63 31 64 32 65 33 66
REMARK SMILES IDX 34 67 35 68 58 69 59 70 67 71 60 72 66 73 61 74 62 75 63 76
REMARK SMILES IDX 64 77 65 78 44 79 45 80 53 81 46 82 52 83 47 84 48 85 49 86
REMARK SMILES IDX 50 87 51 88
REMARK H PARENT 5 14 72 44 42 55
REMARK Flexibility Score: inf
ROOT
ATOM      1  C   UNL A   1      36.065  21.071  24.993  1.00  0.00     0.274 C 
ENDROOT
BRANCH   1   2
ATOM      2  O   UNL A   1      35.578  21.520  26.274  1.00  0.00    -0.462 OA
BRANCH   2   3
ATOM      3  C   UNL A   1      34.231  21.503  26.410  1.00  0.00     0.306 C 
ATOM      4  O   UNL A   1      33.646  21.199  27.445  1.00  0.00    -0.252 OA
BRANCH   3   5
ATOM      5  C   UNL A   1      33.454  21.833  25.154  1.00  0.00     0.130 C 
BRANCH   5   6
ATOM      6  C   UNL A   1      32.822  23.230  24.886  1.00  0.00    -0.011 C 
ATOM      7  C   UNL A   1      33.224  23.630  23.447  1.00  0.00     0.008 C 
ATOM      8  C   UNL A   1      33.487  24.391  25.656  1.00  0.00     0.008 C 
ATOM      9  C   UNL A   1      34.662  24.139  23.540  1.00  0.00     0.001 C 
ATOM     10  C   UNL A   1      34.832  24.624  24.976  1.00  0.00     0.001 C 
BRANCH   6  11
ATOM     11  C   UNL A   1      31.290  23.232  25.140  1.00  0.00     0.108 C 
BRANCH  11  12
ATOM     12  C   UNL A   1      30.804  23.987  26.364  1.00  0.00     0.224 C 
ATOM     13  N   UNL A   1      30.417  25.291  26.366  1.00  0.00    -0.326 N 
ATOM     14  H   UNL A   1      30.086  25.590  27.243  1.00  0.00     0.169 HD
ATOM     15  O   UNL A   1      30.657  23.378  27.429  1.00  0.00    -0.275 OA
BRANCH  13  16
ATOM     16  C   UNL A   1      30.386  26.304  25.397  1.00  0.00     0.044 A 
ATOM     17  C   UNL A   1      31.870  29.774  25.134  1.00  0.00     0.067 C 
ATOM     18  C   UNL A   1      31.114  28.521  24.808  1.00  0.00     0.039 A 
ATOM     19  C   UNL A   1      31.207  27.408  25.639  1.00  0.00     0.049 A 
ATOM     20  N   UNL A   1      30.280  28.564  23.746  1.00  0.00    -0.261 NA
ATOM     21  C   UNL A   1      29.557  27.455  23.486  1.00  0.00     0.113 A 
ATOM     22  C   UNL A   1      29.582  26.309  24.267  1.00  0.00     0.046 A 
ENDBRANCH  13  16
ENDBRANCH  11  12
ENDBRANCH   6  11
ENDBRANCH   5   6
ENDBRANCH   3   5
ENDBRANCH   2   3
ENDBRANCH   1   2
BRANCH   1  23
ATOM     23  C   UNL A   1      37.527  21.455  24.795  1.00  0.00     0.275 C 
BRANCH  23  24
ATOM     24  O   UNL A   1      37.981  22.263  25.891  1.00  0.00    -0.458 OA
BRANCH  24  25
ATOM     25  C   UNL A   1      39.253  22.043  26.288  1.00  0.00     0.338 C 
ATOM     26  O   UNL A   1      39.881  20.992  26.205  1.00  0.00    -0.246 OA
BRANCH  25  27
ATOM     27  C   UNL A   1      39.817  23.266  26.878  1.00  0.00     0.060 A 
ATOM     28  C   UNL A   1      39.500  24.515  26.350  1.00  0.00     0.016 A 
ATOM     29  C   UNL A   1      40.768  23.152  27.893  1.00  0.00     0.016 A 
ATOM     30  C   UNL A   1      40.198  25.647  26.773  1.00  0.00     0.010 A 
ATOM     31  C   UNL A   1      41.400  24.300  28.378  1.00  0.00     0.010 A 
ATOM     32  C   UNL A   1      41.146  25.556  27.801  1.00  0.00    -0.014 A 
BRANCH  32  33
ATOM     33  C   UNL A   1      41.879  26.760  28.279  1.00  0.00     0.031 A 
ATOM     34  C   UNL A   1      41.129  27.928  28.866  1.00  0.00     0.074 A 
ATOM     35  C   UNL A   1      43.219  26.827  28.146  1.00  0.00     0.049 A 
ATOM     36  N   UNL A   1      41.555  29.140  29.116  1.00  0.00    -0.248 NA
ATOM     37  C   UNL A   1      39.714  27.706  29.205  1.00  0.00     0.031 C 
ATOM     38  C   UNL A   1      44.078  25.755  27.638  1.00  0.00     0.029 A 
ATOM     39  N   UNL A   1      44.093  27.852  28.414  1.00  0.00    -0.354 N 
ATOM     40  C   UNL A   1      40.450  29.843  29.587  1.00  0.00     0.074 A 
ATOM     41  C   UNL A   1      39.336  28.919  29.593  1.00  0.00     0.031 C 
ATOM     42  C   UNL A   1      45.353  26.173  27.643  1.00  0.00     0.029 A 
ATOM     43  C   UNL A   1      45.393  27.566  28.072  1.00  0.00     0.049 A 
ATOM     44  H   UNL A   1      43.815  28.708  28.813  1.00  0.00     0.167 HD
ATOM     45  C   UNL A   1      40.374  31.140  29.970  1.00  0.00     0.031 A 
ATOM     46  C   UNL A   1      46.490  28.345  28.052  1.00  0.00     0.031 A 
ATOM     47  C   UNL A   1      41.496  32.044  29.996  1.00  0.00     0.049 A 
ATOM     48  C   UNL A   1      46.375  29.788  28.444  1.00  0.00     0.074 A 
ATOM     49  C   UNL A   1      41.521  33.373  30.387  1.00  0.00     0.029 A 
ATOM     50  N   UNL A   1      42.790  31.713  29.629  1.00  0.00    -0.354 N 
ATOM     51  N   UNL A   1      45.314  30.451  28.837  1.00  0.00    -0.248 NA
ATOM     52  C   UNL A   1      47.602  30.592  28.377  1.00  0.00     0.031 C 
ATOM     53  C   UNL A   1      42.826  33.853  30.222  1.00  0.00     0.029 A 
ATOM     54  C   UNL A   1      43.620  32.812  29.772  1.00  0.00     0.049 A 
ATOM     55  H   UNL A   1      43.078  30.825  29.313  1.00  0.00     0.167 HD
ATOM     56  C   UNL A   1      45.749  31.748  29.078  1.00  0.00     0.074 A 
ATOM     57  C   UNL A   1      47.171  31.772  28.802  1.00  0.00     0.031 C 
ATOM     58  C   UNL A   1      45.032  32.823  29.489  1.00  0.00     0.031 A 
BRANCH  45  59
ATOM     59  C   UNL A   1      39.023  31.679  30.361  1.00  0.00    -0.014 A 
ATOM     60  C   UNL A   1      38.586  31.664  31.696  1.00  0.00     0.010 A 
ATOM     61  C   UNL A   1      38.207  32.271  29.379  1.00  0.00     0.010 A 
ATOM     62  C   UNL A   1      37.342  32.204  32.038  1.00  0.00     0.020 A 
ATOM     63  C   UNL A   1      36.971  32.830  29.720  1.00  0.00     0.020 A 
ATOM     64  C   UNL A   1      36.540  32.780  31.046  1.00  0.00     0.054 A 
BRANCH  64  65
ATOM     65  S   UNL A   1      34.944  33.503  31.521  1.00  0.00     0.124 S 
ATOM     66  O   UNL A   1      34.195  32.323  31.949  1.00  0.00    -0.237 OA
ATOM     67  O   UNL A   1      35.313  34.431  32.586  1.00  0.00    -0.237 OA
ATOM     68  O   UNL A   1      34.469  34.130  30.290  1.00  0.00    -0.744 OA
ENDBRANCH  64  65
ENDBRANCH  45  59
BRANCH  46  69
ATOM     69  C   UNL A   1      47.784  27.775  27.590  1.00  0.00    -0.014 A 
ATOM     70  C   UNL A   1      48.103  27.745  26.223  1.00  0.00     0.010 A 
ATOM     71  C   UNL A   1      48.720  27.297  28.527  1.00  0.00     0.010 A 
ATOM     72  C   UNL A   1      49.337  27.243  25.798  1.00  0.00     0.020 A 
ATOM     73  C   UNL A   1      49.964  26.820  28.107  1.00  0.00     0.020 A 
ATOM     74  C   UNL A   1      50.261  26.787  26.743  1.00  0.00     0.054 A 
BRANCH  74  75
ATOM     75  S   UNL A   1      51.885  26.210  26.178  1.00  0.00     0.124 S 
ATOM     76  O   UNL A   1      51.885  26.630  24.780  1.00  0.00    -0.237 OA
ATOM     77  O   UNL A   1      52.805  26.930  27.055  1.00  0.00    -0.237 OA
ATOM     78  O   UNL A   1      51.828  24.767  26.400  1.00  0.00    -0.744 OA
ENDBRANCH  74  75
ENDBRANCH  46  69
BRANCH  58  79
ATOM     79  C   UNL A   1      45.785  34.107  29.696  1.00  0.00    -0.014 A 
ATOM     80  C   UNL A   1      45.912  35.049  28.661  1.00  0.00     0.010 A 
ATOM     81  C   UNL A   1      46.344  34.388  30.956  1.00  0.00     0.010 A 
ATOM     82  C   UNL A   1      46.613  36.239  28.873  1.00  0.00     0.020 A 
ATOM     83  C   UNL A   1      47.028  35.585  31.177  1.00  0.00     0.020 A 
ATOM     84  C   UNL A   1      47.171  36.497  30.130  1.00  0.00     0.054 A 
BRANCH  84  85
ATOM     85  S   UNL A   1      48.050  38.062  30.394  1.00  0.00     0.124 S 
ATOM     86  O   UNL A   1      47.512  38.897  29.323  1.00  0.00    -0.237 OA
ATOM     87  O   UNL A   1      47.644  38.437  31.747  1.00  0.00    -0.237 OA
ATOM     88  O   UNL A   1      49.457  37.694  30.252  1.00  0.00    -0.744 OA
ENDBRANCH  84  85
ENDBRANCH  58  79
ENDBRANCH  32  33
ENDBRANCH  25  27
ENDBRANCH  24  25
ENDBRANCH  23  24
ENDBRANCH   1  23
TORSDOF 18
ENDMDL
