MODEL 1
REMARK VINA RESULT:     -12.2      0.000      0.000
REMARK SMILES O=C(OCCOC(=O)[C@@H]1CC=CC[C@H]1C(=O)N1CC[NH+](Cc2ccc3c(c2)OCO3)CC1)c1ccc(-c2c3nc(c(-c4ccc(S(=O)(=O)[O-])cc4)c4ccc([nH]4)c(-c4ccc(S(=O)(=O)[O-])cc4)c4nc(c(-c5ccc(S(=O)(=O)[O-])cc5)c5ccc2[nH]5)C=C4)C=C3)cc1
REMARK SMILES IDX 4 1 3 2 2 3 1 4 33 5 34 6 92 7 35 8 91 9 36 10 37 11 38 12
REMARK SMILES IDX 85 13 39 14 90 15 84 16 86 17 40 18 89 19 83 20 82 21 41 23
REMARK SMILES IDX 71 24 52 25 70 26 53 27 56 28 69 29 87 30 54 31 55 32 68 34
REMARK SMILES IDX 88 35 57 36 42 37 43 38 51 39 44 40 50 41 45 42 46 43 47 44
REMARK SMILES IDX 48 45 49 46 72 47 73 48 81 49 74 50 80 51 75 52 76 53 77 54
REMARK SMILES IDX 78 55 79 56 58 57 59 58 67 59 60 60 66 61 61 62 62 63 63 64
REMARK SMILES IDX 64 65 65 66 5 67 6 68 7 69 8 70 9 71 10 72 14 73 11 74 13 75
REMARK SMILES IDX 12 76 15 77 16 78 17 79 18 80 32 81 19 82 31 83 20 84 21 86
REMARK SMILES IDX 22 87 23 88 27 89 24 90 26 91 25 92 28 93 30 94 29 95
REMARK H PARENT 86 22 56 33 20 85
REMARK Flexibility Score: inf
ROOT
ATOM      1  C   UNL A   1      34.983  30.084  27.832  1.00  0.00     0.275 C 
ENDROOT
BRANCH   1   2
ATOM      2  O   UNL A   1      36.393  30.382  27.858  1.00  0.00    -0.458 OA
BRANCH   2   3
ATOM      3  C   UNL A   1      37.248  29.907  28.792  1.00  0.00     0.338 C 
ATOM      4  O   UNL A   1      36.875  29.780  29.958  1.00  0.00    -0.246 OA
BRANCH   3   5
ATOM      5  C   UNL A   1      38.614  29.484  28.368  1.00  0.00     0.060 A 
ATOM      6  C   UNL A   1      39.006  29.284  27.041  1.00  0.00     0.016 A 
ATOM      7  C   UNL A   1      39.568  29.305  29.370  1.00  0.00     0.016 A 
ATOM      8  C   UNL A   1      40.353  29.073  26.713  1.00  0.00     0.010 A 
ATOM      9  C   UNL A   1      40.917  29.139  29.047  1.00  0.00     0.010 A 
ATOM     10  C   UNL A   1      41.330  29.035  27.711  1.00  0.00    -0.014 A 
BRANCH  10  11
ATOM     11  C   UNL A   1      42.757  28.759  27.397  1.00  0.00     0.031 A 
ATOM     12  C   UNL A   1      43.714  29.919  27.360  1.00  0.00     0.074 A 
ATOM     13  C   UNL A   1      43.196  27.514  27.110  1.00  0.00     0.049 A 
ATOM     14  N   UNL A   1      44.997  29.917  27.112  1.00  0.00    -0.248 NA
ATOM     15  C   UNL A   1      43.163  31.255  27.651  1.00  0.00     0.031 C 
ATOM     16  C   UNL A   1      42.390  26.293  27.142  1.00  0.00     0.029 A 
ATOM     17  N   UNL A   1      44.428  27.065  26.695  1.00  0.00    -0.354 N 
ATOM     18  C   UNL A   1      45.403  31.236  27.265  1.00  0.00     0.074 A 
ATOM     19  C   UNL A   1      44.219  32.032  27.483  1.00  0.00     0.031 C 
ATOM     20  C   UNL A   1      43.107  25.263  26.657  1.00  0.00     0.029 A 
ATOM     21  C   UNL A   1      44.447  25.734  26.339  1.00  0.00     0.049 A 
ATOM     22  H   UNL A   1      45.225  27.643  26.657  1.00  0.00     0.167 HD
ATOM     23  C   UNL A   1      46.660  31.729  27.324  1.00  0.00     0.031 A 
ATOM     24  C   UNL A   1      45.439  24.972  25.836  1.00  0.00     0.031 A 
ATOM     25  C   UNL A   1      47.833  30.925  27.155  1.00  0.00     0.049 A 
ATOM     26  C   UNL A   1      46.824  25.560  25.799  1.00  0.00     0.074 A 
ATOM     27  C   UNL A   1      49.158  31.289  27.297  1.00  0.00     0.029 A 
ATOM     28  N   UNL A   1      47.814  29.583  26.806  1.00  0.00    -0.354 N 
ATOM     29  N   UNL A   1      47.203  26.779  26.102  1.00  0.00    -0.248 NA
ATOM     30  C   UNL A   1      47.924  24.653  25.447  1.00  0.00     0.031 C 
ATOM     31  C   UNL A   1      49.945  30.171  27.002  1.00  0.00     0.029 A 
ATOM     32  C   UNL A   1      49.106  29.105  26.708  1.00  0.00     0.049 A 
ATOM     33  H   UNL A   1      47.001  29.050  26.650  1.00  0.00     0.167 HD
ATOM     34  C   UNL A   1      48.591  26.761  26.063  1.00  0.00     0.074 A 
ATOM     35  C   UNL A   1      48.982  25.420  25.679  1.00  0.00     0.031 C 
ATOM     36  C   UNL A   1      49.464  27.756  26.352  1.00  0.00     0.031 A 
BRANCH  23  37
ATOM     37  C   UNL A   1      46.800  33.185  27.666  1.00  0.00    -0.014 A 
ATOM     38  C   UNL A   1      46.850  34.149  26.640  1.00  0.00     0.010 A 
ATOM     39  C   UNL A   1      46.903  33.598  29.003  1.00  0.00     0.010 A 
ATOM     40  C   UNL A   1      47.051  35.496  26.942  1.00  0.00     0.020 A 
ATOM     41  C   UNL A   1      47.079  34.951  29.312  1.00  0.00     0.020 A 
ATOM     42  C   UNL A   1      47.172  35.888  28.277  1.00  0.00     0.054 A 
BRANCH  42  43
ATOM     43  S   UNL A   1      47.424  37.646  28.642  1.00  0.00     0.124 S 
ATOM     44  O   UNL A   1      47.033  37.721  30.048  1.00  0.00    -0.237 OA
ATOM     45  O   UNL A   1      48.849  37.828  28.377  1.00  0.00    -0.237 OA
ATOM     46  O   UNL A   1      46.528  38.324  27.709  1.00  0.00    -0.744 OA
ENDBRANCH  42  43
ENDBRANCH  23  37
BRANCH  24  47
ATOM     47  C   UNL A   1      45.201  23.561  25.419  1.00  0.00    -0.014 A 
ATOM     48  C   UNL A   1      45.419  22.497  26.311  1.00  0.00     0.010 A 
ATOM     49  C   UNL A   1      44.805  23.269  24.099  1.00  0.00     0.010 A 
ATOM     50  C   UNL A   1      45.293  21.169  25.883  1.00  0.00     0.020 A 
ATOM     51  C   UNL A   1      44.661  21.943  23.672  1.00  0.00     0.020 A 
ATOM     52  C   UNL A   1      44.925  20.901  24.562  1.00  0.00     0.054 A 
BRANCH  52  53
ATOM     53  S   UNL A   1      44.784  19.169  24.030  1.00  0.00     0.124 S 
ATOM     54  O   UNL A   1      43.653  18.698  24.823  1.00  0.00    -0.237 OA
ATOM     55  O   UNL A   1      44.539  19.301  22.596  1.00  0.00    -0.237 OA
ATOM     56  O   UNL A   1      46.080  18.595  24.385  1.00  0.00    -0.744 OA
ENDBRANCH  52  53
ENDBRANCH  24  47
BRANCH  36  57
ATOM     57  C   UNL A   1      50.925  27.421  26.326  1.00  0.00    -0.014 A 
ATOM     58  C   UNL A   1      51.575  26.929  27.469  1.00  0.00     0.010 A 
ATOM     59  C   UNL A   1      51.631  27.522  25.113  1.00  0.00     0.010 A 
ATOM     60  C   UNL A   1      52.918  26.556  27.403  1.00  0.00     0.020 A 
ATOM     61  C   UNL A   1      52.965  27.123  25.037  1.00  0.00     0.020 A 
ATOM     62  C   UNL A   1      53.603  26.650  26.186  1.00  0.00     0.054 A 
BRANCH  62  63
ATOM     63  S   UNL A   1      55.322  26.080  26.107  1.00  0.00     0.124 S 
ATOM     64  O   UNL A   1      55.568  26.063  24.667  1.00  0.00    -0.237 OA
ATOM     65  O   UNL A   1      56.037  27.111  26.855  1.00  0.00    -0.237 OA
ATOM     66  O   UNL A   1      55.281  24.769  26.748  1.00  0.00    -0.744 OA
ENDBRANCH  62  63
ENDBRANCH  36  57
ENDBRANCH  10  11
ENDBRANCH   3   5
ENDBRANCH   2   3
ENDBRANCH   1   2
BRANCH   1  67
ATOM     67  C   UNL A   1      34.570  28.756  27.194  1.00  0.00     0.274 C 
BRANCH  67  68
ATOM     68  O   UNL A   1      34.083  28.855  25.843  1.00  0.00    -0.462 OA
BRANCH  68  69
ATOM     69  C   UNL A   1      33.615  27.658  25.378  1.00  0.00     0.310 C 
ATOM     70  O   UNL A   1      33.996  26.571  25.804  1.00  0.00    -0.252 OA
BRANCH  69  71
ATOM     71  C   UNL A   1      32.630  27.758  24.226  1.00  0.00     0.115 C 
ATOM     72  C   UNL A   1      31.465  28.660  24.639  1.00  0.00     0.043 C 
ATOM     73  C   UNL A   1      32.128  26.428  23.668  1.00  0.00     0.097 C 
ATOM     74  C   UNL A   1      30.387  28.715  23.596  1.00  0.00    -0.030 C 
ATOM     75  C   UNL A   1      31.170  26.631  22.476  1.00  0.00     0.041 C 
ATOM     76  C   UNL A   1      30.258  27.807  22.621  1.00  0.00    -0.030 C 
BRANCH  73  77
ATOM     77  C   UNL A   1      33.037  25.274  23.245  1.00  0.00     0.227 C 
ATOM     78  O   UNL A   1      33.991  25.540  22.503  1.00  0.00    -0.275 OA
ATOM     79  N   UNL A   1      32.985  24.042  23.867  1.00  0.00    -0.331 N 
ATOM     80  C   UNL A   1      34.168  23.197  23.695  1.00  0.00     0.181 C 
ATOM     81  C   UNL A   1      31.749  23.323  24.136  1.00  0.00     0.181 C 
ATOM     82  C   UNL A   1      34.251  22.019  24.681  1.00  0.00     0.284 C 
ATOM     83  C   UNL A   1      31.895  22.193  25.159  1.00  0.00     0.284 C 
ATOM     84  N   UNL A   1      33.010  21.274  24.929  1.00  0.00    -0.328 N 
ATOM     85  H   UNL A   1      33.166  20.762  25.797  1.00  0.00     0.348 HD
BRANCH  84  86
ATOM     86  C   UNL A   1      32.724  20.152  24.033  1.00  0.00     0.299 C 
BRANCH  86  87
ATOM     87  C   UNL A   1      33.180  18.771  24.450  1.00  0.00     0.010 A 
ATOM     88  C   UNL A   1      34.541  18.406  24.332  1.00  0.00     0.013 A 
ATOM     89  C   UNL A   1      32.256  17.824  24.929  1.00  0.00     0.060 A 
ATOM     90  C   UNL A   1      34.968  17.103  24.606  1.00  0.00     0.051 A 
ATOM     91  C   UNL A   1      32.706  16.546  25.189  1.00  0.00     0.166 A 
ATOM     92  C   UNL A   1      34.024  16.194  25.025  1.00  0.00     0.165 A 
ATOM     93  O   UNL A   1      31.939  15.498  25.595  1.00  0.00    -0.454 OA
ATOM     94  O   UNL A   1      34.255  14.887  25.316  1.00  0.00    -0.454 OA
ATOM     95  C   UNL A   1      32.918  14.436  25.599  1.00  0.00     0.468 C 
ENDBRANCH  86  87
ENDBRANCH  84  86
ENDBRANCH  73  77
ENDBRANCH  69  71
ENDBRANCH  68  69
ENDBRANCH  67  68
ENDBRANCH   1  67
TORSDOF 17
ENDMDL
MODEL 2
REMARK VINA RESULT:     -12.2      5.381      6.307
REMARK SMILES O=C(OCCOC(=O)[C@@H]1CC=CC[C@H]1C(=O)N1CC[NH+](Cc2ccc3c(c2)OCO3)CC1)c1ccc(-c2c3nc(c(-c4ccc(S(=O)(=O)[O-])cc4)c4ccc([nH]4)c(-c4ccc(S(=O)(=O)[O-])cc4)c4nc(c(-c5ccc(S(=O)(=O)[O-])cc5)c5ccc2[nH]5)C=C4)C=C3)cc1
REMARK SMILES IDX 4 1 3 2 2 3 1 4 33 5 34 6 92 7 35 8 91 9 36 10 37 11 38 12
REMARK SMILES IDX 85 13 39 14 90 15 84 16 86 17 40 18 89 19 83 20 82 21 41 23
REMARK SMILES IDX 71 24 52 25 70 26 53 27 56 28 69 29 87 30 54 31 55 32 68 34
REMARK SMILES IDX 88 35 57 36 42 37 43 38 51 39 44 40 50 41 45 42 46 43 47 44
REMARK SMILES IDX 48 45 49 46 72 47 73 48 81 49 74 50 80 51 75 52 76 53 77 54
REMARK SMILES IDX 78 55 79 56 58 57 59 58 67 59 60 60 66 61 61 62 62 63 63 64
REMARK SMILES IDX 64 65 65 66 5 67 6 68 7 69 8 70 9 71 10 72 14 73 11 74 13 75
REMARK SMILES IDX 12 76 15 77 16 78 17 79 18 80 32 81 19 82 31 83 20 84 21 86
REMARK SMILES IDX 22 87 23 88 27 89 24 90 26 91 25 92 28 93 30 94 29 95
REMARK H PARENT 86 22 56 33 20 85
REMARK Flexibility Score: inf
ROOT
ATOM      1  C   UNL A   1      32.534  29.114  27.461  1.00  0.00     0.275 C 
ENDROOT
BRANCH   1   2
ATOM      2  O   UNL A   1      33.514  29.961  26.828  1.00  0.00    -0.458 OA
BRANCH   2   3
ATOM      3  C   UNL A   1      34.352  30.780  27.503  1.00  0.00     0.338 C 
ATOM      4  O   UNL A   1      34.012  31.936  27.754  1.00  0.00    -0.246 OA
BRANCH   3   5
ATOM      5  C   UNL A   1      35.654  30.236  27.986  1.00  0.00     0.060 A 
ATOM      6  C   UNL A   1      36.845  30.260  27.254  1.00  0.00     0.016 A 
ATOM      7  C   UNL A   1      35.682  29.690  29.269  1.00  0.00     0.016 A 
ATOM      8  C   UNL A   1      38.063  29.902  27.850  1.00  0.00     0.010 A 
ATOM      9  C   UNL A   1      36.897  29.373  29.882  1.00  0.00     0.010 A 
ATOM     10  C   UNL A   1      38.107  29.490  29.183  1.00  0.00    -0.014 A 
BRANCH  10  11
ATOM     11  C   UNL A   1      39.376  29.052  29.824  1.00  0.00     0.031 A 
ATOM     12  C   UNL A   1      39.939  29.896  30.935  1.00  0.00     0.074 A 
ATOM     13  C   UNL A   1      40.042  27.953  29.409  1.00  0.00     0.049 A 
ATOM     14  N   UNL A   1      41.026  29.710  31.637  1.00  0.00    -0.248 NA
ATOM     15  C   UNL A   1      39.179  31.100  31.316  1.00  0.00     0.031 C 
ATOM     16  C   UNL A   1      39.598  27.024  28.370  1.00  0.00     0.029 A 
ATOM     17  N   UNL A   1      41.263  27.443  29.784  1.00  0.00    -0.354 N 
ATOM     18  C   UNL A   1      41.045  30.743  32.564  1.00  0.00     0.074 A 
ATOM     19  C   UNL A   1      39.951  31.630  32.250  1.00  0.00     0.031 C 
ATOM     20  C   UNL A   1      40.572  26.133  28.110  1.00  0.00     0.029 A 
ATOM     21  C   UNL A   1      41.688  26.385  29.010  1.00  0.00     0.049 A 
ATOM     22  H   UNL A   1      41.785  27.801  30.539  1.00  0.00     0.167 HD
ATOM     23  C   UNL A   1      41.840  30.887  33.649  1.00  0.00     0.031 A 
ATOM     24  C   UNL A   1      42.838  25.681  29.038  1.00  0.00     0.031 A 
ATOM     25  C   UNL A   1      42.893  29.976  33.983  1.00  0.00     0.049 A 
ATOM     26  C   UNL A   1      43.777  25.919  30.189  1.00  0.00     0.074 A 
ATOM     27  C   UNL A   1      43.694  29.957  35.108  1.00  0.00     0.029 A 
ATOM     28  N   UNL A   1      43.287  28.914  33.183  1.00  0.00    -0.354 N 
ATOM     29  N   UNL A   1      43.687  26.810  31.148  1.00  0.00    -0.248 NA
ATOM     30  C   UNL A   1      44.918  25.003  30.319  1.00  0.00     0.031 C 
ATOM     31  C   UNL A   1      44.598  28.898  34.974  1.00  0.00     0.029 A 
ATOM     32  C   UNL A   1      44.336  28.241  33.780  1.00  0.00     0.049 A 
ATOM     33  H   UNL A   1      42.881  28.675  32.319  1.00  0.00     0.167 HD
ATOM     34  C   UNL A   1      44.705  26.505  32.041  1.00  0.00     0.074 A 
ATOM     35  C   UNL A   1      45.417  25.368  31.493  1.00  0.00     0.031 C 
ATOM     36  C   UNL A   1      45.005  27.094  33.224  1.00  0.00     0.031 A 
BRANCH  23  37
ATOM     37  C   UNL A   1      41.521  32.027  34.574  1.00  0.00    -0.014 A 
ATOM     38  C   UNL A   1      40.543  31.869  35.575  1.00  0.00     0.010 A 
ATOM     39  C   UNL A   1      42.177  33.260  34.440  1.00  0.00     0.010 A 
ATOM     40  C   UNL A   1      40.187  32.942  36.394  1.00  0.00     0.020 A 
ATOM     41  C   UNL A   1      41.841  34.331  35.276  1.00  0.00     0.020 A 
ATOM     42  C   UNL A   1      40.835  34.169  36.234  1.00  0.00     0.054 A 
BRANCH  42  43
ATOM     43  S   UNL A   1      40.360  35.543  37.318  1.00  0.00     0.124 S 
ATOM     44  O   UNL A   1      41.659  36.008  37.800  1.00  0.00    -0.237 OA
ATOM     45  O   UNL A   1      39.670  36.450  36.403  1.00  0.00    -0.237 OA
ATOM     46  O   UNL A   1      39.512  34.912  38.324  1.00  0.00    -0.744 OA
ENDBRANCH  42  43
ENDBRANCH  23  37
BRANCH  24  47
ATOM     47  C   UNL A   1      43.132  24.631  28.020  1.00  0.00    -0.014 A 
ATOM     48  C   UNL A   1      42.977  23.268  28.324  1.00  0.00     0.010 A 
ATOM     49  C   UNL A   1      43.625  24.992  26.752  1.00  0.00     0.010 A 
ATOM     50  C   UNL A   1      43.353  22.284  27.401  1.00  0.00     0.020 A 
ATOM     51  C   UNL A   1      43.986  24.011  25.819  1.00  0.00     0.020 A 
ATOM     52  C   UNL A   1      43.865  22.662  26.157  1.00  0.00     0.054 A 
BRANCH  52  53
ATOM     53  S   UNL A   1      44.358  21.365  24.985  1.00  0.00     0.124 S 
ATOM     54  O   UNL A   1      43.270  20.403  25.119  1.00  0.00    -0.237 OA
ATOM     55  O   UNL A   1      44.408  22.091  23.718  1.00  0.00    -0.237 OA
ATOM     56  O   UNL A   1      45.654  20.920  25.491  1.00  0.00    -0.744 OA
ENDBRANCH  52  53
ENDBRANCH  24  47
BRANCH  36  57
ATOM     57  C   UNL A   1      46.106  26.484  34.038  1.00  0.00    -0.014 A 
ATOM     58  C   UNL A   1      47.417  26.984  33.974  1.00  0.00     0.010 A 
ATOM     59  C   UNL A   1      45.800  25.448  34.941  1.00  0.00     0.010 A 
ATOM     60  C   UNL A   1      48.410  26.447  34.794  1.00  0.00     0.020 A 
ATOM     61  C   UNL A   1      46.785  24.930  35.781  1.00  0.00     0.020 A 
ATOM     62  C   UNL A   1      48.087  25.428  35.695  1.00  0.00     0.054 A 
BRANCH  62  63
ATOM     63  S   UNL A   1      49.377  24.806  36.807  1.00  0.00     0.124 S 
ATOM     64  O   UNL A   1      49.863  23.636  36.081  1.00  0.00    -0.237 OA
ATOM     65  O   UNL A   1      50.306  25.931  36.882  1.00  0.00    -0.237 OA
ATOM     66  O   UNL A   1      48.656  24.517  38.044  1.00  0.00    -0.744 OA
ENDBRANCH  62  63
ENDBRANCH  36  57
ENDBRANCH  10  11
ENDBRANCH   3   5
ENDBRANCH   2   3
ENDBRANCH   1   2
BRANCH   1  67
ATOM     67  C   UNL A   1      32.365  27.707  26.884  1.00  0.00     0.274 C 
BRANCH  67  68
ATOM     68  O   UNL A   1      31.131  27.051  27.232  1.00  0.00    -0.462 OA
BRANCH  68  69
ATOM     69  C   UNL A   1      30.654  26.280  26.210  1.00  0.00     0.310 C 
ATOM     70  O   UNL A   1      30.043  25.229  26.384  1.00  0.00    -0.252 OA
BRANCH  69  71
ATOM     71  C   UNL A   1      30.998  26.776  24.816  1.00  0.00     0.115 C 
ATOM     72  C   UNL A   1      29.724  27.283  24.136  1.00  0.00     0.043 C 
ATOM     73  C   UNL A   1      31.742  25.783  23.926  1.00  0.00     0.097 C 
ATOM     74  C   UNL A   1      29.959  27.682  22.708  1.00  0.00    -0.030 C 
ATOM     75  C   UNL A   1      32.085  26.391  22.551  1.00  0.00     0.041 C 
ATOM     76  C   UNL A   1      31.023  27.286  21.998  1.00  0.00    -0.030 C 
BRANCH  73  77
ATOM     77  C   UNL A   1      33.003  25.028  24.344  1.00  0.00     0.227 C 
ATOM     78  O   UNL A   1      34.015  25.697  24.588  1.00  0.00    -0.275 OA
ATOM     79  N   UNL A   1      32.967  23.697  24.710  1.00  0.00    -0.331 N 
ATOM     80  C   UNL A   1      34.107  23.228  25.500  1.00  0.00     0.181 C 
ATOM     81  C   UNL A   1      32.281  22.666  23.947  1.00  0.00     0.181 C 
ATOM     82  C   UNL A   1      33.875  21.880  26.205  1.00  0.00     0.284 C 
ATOM     83  C   UNL A   1      32.043  21.368  24.723  1.00  0.00     0.284 C 
ATOM     84  N   UNL A   1      33.209  20.830  25.424  1.00  0.00    -0.328 N 
ATOM     85  H   UNL A   1      32.868  20.153  26.106  1.00  0.00     0.348 HD
BRANCH  84  86
ATOM     86  C   UNL A   1      34.072  19.955  24.625  1.00  0.00     0.299 C 
BRANCH  86  87
ATOM     87  C   UNL A   1      34.029  18.468  24.897  1.00  0.00     0.010 A 
ATOM     88  C   UNL A   1      35.163  17.664  24.638  1.00  0.00     0.013 A 
ATOM     89  C   UNL A   1      32.854  17.861  25.379  1.00  0.00     0.060 A 
ATOM     90  C   UNL A   1      35.113  16.273  24.776  1.00  0.00     0.051 A 
ATOM     91  C   UNL A   1      32.834  16.486  25.503  1.00  0.00     0.166 A 
ATOM     92  C   UNL A   1      33.930  15.715  25.203  1.00  0.00     0.165 A 
ATOM     93  O   UNL A   1      31.766  15.737  25.892  1.00  0.00    -0.454 OA
ATOM     94  O   UNL A   1      33.696  14.387  25.374  1.00  0.00    -0.454 OA
ATOM     95  C   UNL A   1      32.303  14.405  25.733  1.00  0.00     0.468 C 
ENDBRANCH  86  87
ENDBRANCH  84  86
ENDBRANCH  73  77
ENDBRANCH  69  71
ENDBRANCH  68  69
ENDBRANCH  67  68
ENDBRANCH   1  67
TORSDOF 17
ENDMDL
MODEL 3
REMARK VINA RESULT:     -11.9      3.773      4.552
REMARK SMILES O=C(OCCOC(=O)[C@@H]1CC=CC[C@H]1C(=O)N1CC[NH+](Cc2ccc3c(c2)OCO3)CC1)c1ccc(-c2c3nc(c(-c4ccc(S(=O)(=O)[O-])cc4)c4ccc([nH]4)c(-c4ccc(S(=O)(=O)[O-])cc4)c4nc(c(-c5ccc(S(=O)(=O)[O-])cc5)c5ccc2[nH]5)C=C4)C=C3)cc1
REMARK SMILES IDX 4 1 3 2 2 3 1 4 33 5 34 6 92 7 35 8 91 9 36 10 37 11 38 12
REMARK SMILES IDX 85 13 39 14 90 15 84 16 86 17 40 18 89 19 83 20 82 21 41 23
REMARK SMILES IDX 71 24 52 25 70 26 53 27 56 28 69 29 87 30 54 31 55 32 68 34
REMARK SMILES IDX 88 35 57 36 42 37 43 38 51 39 44 40 50 41 45 42 46 43 47 44
REMARK SMILES IDX 48 45 49 46 72 47 73 48 81 49 74 50 80 51 75 52 76 53 77 54
REMARK SMILES IDX 78 55 79 56 58 57 59 58 67 59 60 60 66 61 61 62 62 63 63 64
REMARK SMILES IDX 64 65 65 66 5 67 6 68 7 69 8 70 9 71 10 72 14 73 11 74 13 75
REMARK SMILES IDX 12 76 15 77 16 78 17 79 18 80 32 81 19 82 31 83 20 84 21 86
REMARK SMILES IDX 22 87 23 88 27 89 24 90 26 91 25 92 28 93 30 94 29 95
REMARK H PARENT 86 22 56 33 20 85
REMARK Flexibility Score: inf
ROOT
ATOM      1  C   UNL A   1      33.196  29.714  25.931  1.00  0.00     0.275 C 
ENDROOT
BRANCH   1   2
ATOM      2  O   UNL A   1      33.728  29.573  27.263  1.00  0.00    -0.458 OA
BRANCH   2   3
ATOM      3  C   UNL A   1      34.457  30.524  27.890  1.00  0.00     0.338 C 
ATOM      4  O   UNL A   1      33.963  31.626  28.120  1.00  0.00    -0.246 OA
BRANCH   3   5
ATOM      5  C   UNL A   1      35.837  30.185  28.349  1.00  0.00     0.060 A 
ATOM      6  C   UNL A   1      36.168  29.802  29.652  1.00  0.00     0.016 A 
ATOM      7  C   UNL A   1      36.856  30.231  27.397  1.00  0.00     0.016 A 
ATOM      8  C   UNL A   1      37.448  29.319  29.955  1.00  0.00     0.010 A 
ATOM      9  C   UNL A   1      38.120  29.710  27.683  1.00  0.00     0.010 A 
ATOM     10  C   UNL A   1      38.429  29.233  28.965  1.00  0.00    -0.014 A 
BRANCH  10  11
ATOM     11  C   UNL A   1      39.811  28.775  29.271  1.00  0.00     0.031 A 
ATOM     12  C   UNL A   1      40.786  29.781  29.818  1.00  0.00     0.074 A 
ATOM     13  C   UNL A   1      40.211  27.507  29.034  1.00  0.00     0.049 A 
ATOM     14  N   UNL A   1      42.036  29.610  30.159  1.00  0.00    -0.248 NA
ATOM     15  C   UNL A   1      40.293  31.155  30.022  1.00  0.00     0.031 C 
ATOM     16  C   UNL A   1      39.366  26.421  28.540  1.00  0.00     0.029 A 
ATOM     17  N   UNL A   1      41.449  26.918  29.142  1.00  0.00    -0.354 N 
ATOM     18  C   UNL A   1      42.453  30.838  30.656  1.00  0.00     0.074 A 
ATOM     19  C   UNL A   1      41.380  31.779  30.443  1.00  0.00     0.031 C 
ATOM     20  C   UNL A   1      40.123  25.339  28.279  1.00  0.00     0.029 A 
ATOM     21  C   UNL A   1      41.500  25.632  28.648  1.00  0.00     0.049 A 
ATOM     22  H   UNL A   1      42.228  27.373  29.537  1.00  0.00     0.167 HD
ATOM     23  C   UNL A   1      43.589  31.134  31.327  1.00  0.00     0.031 A 
ATOM     24  C   UNL A   1      42.535  24.776  28.529  1.00  0.00     0.031 A 
ATOM     25  C   UNL A   1      44.629  30.182  31.578  1.00  0.00     0.049 A 
ATOM     26  C   UNL A   1      43.836  25.155  29.183  1.00  0.00     0.074 A 
ATOM     27  C   UNL A   1      45.775  30.334  32.334  1.00  0.00     0.029 A 
ATOM     28  N   UNL A   1      44.642  28.891  31.072  1.00  0.00    -0.354 N 
ATOM     29  N   UNL A   1      44.151  26.275  29.788  1.00  0.00    -0.248 NA
ATOM     30  C   UNL A   1      44.884  24.127  29.226  1.00  0.00     0.031 C 
ATOM     31  C   UNL A   1      46.500  29.140  32.260  1.00  0.00     0.029 A 
ATOM     32  C   UNL A   1      45.787  28.237  31.484  1.00  0.00     0.049 A 
ATOM     33  H   UNL A   1      43.940  28.498  30.504  1.00  0.00     0.167 HD
ATOM     34  C   UNL A   1      45.398  26.056  30.358  1.00  0.00     0.074 A 
ATOM     35  C   UNL A   1      45.791  24.707  30.001  1.00  0.00     0.031 C 
ATOM     36  C   UNL A   1      46.137  26.884  31.135  1.00  0.00     0.031 A 
BRANCH  23  37
ATOM     37  C   UNL A   1      43.697  32.520  31.896  1.00  0.00    -0.014 A 
ATOM     38  C   UNL A   1      44.318  33.541  31.150  1.00  0.00     0.010 A 
ATOM     39  C   UNL A   1      43.201  32.808  33.177  1.00  0.00     0.010 A 
ATOM     40  C   UNL A   1      44.488  34.814  31.695  1.00  0.00     0.020 A 
ATOM     41  C   UNL A   1      43.347  34.090  33.717  1.00  0.00     0.020 A 
ATOM     42  C   UNL A   1      44.007  35.078  32.980  1.00  0.00     0.054 A 
BRANCH  42  43
ATOM     43  S   UNL A   1      44.233  36.743  33.661  1.00  0.00     0.124 S 
ATOM     44  O   UNL A   1      44.951  37.415  32.580  1.00  0.00    -0.237 OA
ATOM     45  O   UNL A   1      42.859  37.193  33.874  1.00  0.00    -0.237 OA
ATOM     46  O   UNL A   1      45.008  36.517  34.878  1.00  0.00    -0.744 OA
ENDBRANCH  42  43
ENDBRANCH  23  37
BRANCH  24  47
ATOM     47  C   UNL A   1      42.377  23.454  27.857  1.00  0.00    -0.014 A 
ATOM     48  C   UNL A   1      41.868  22.346  28.554  1.00  0.00     0.010 A 
ATOM     49  C   UNL A   1      42.791  23.284  26.522  1.00  0.00     0.010 A 
ATOM     50  C   UNL A   1      41.819  21.083  27.950  1.00  0.00     0.020 A 
ATOM     51  C   UNL A   1      42.728  22.027  25.908  1.00  0.00     0.020 A 
ATOM     52  C   UNL A   1      42.260  20.930  26.633  1.00  0.00     0.054 A 
BRANCH  52  53
ATOM     53  S   UNL A   1      42.199  19.278  25.879  1.00  0.00     0.124 S 
ATOM     54  O   UNL A   1      40.780  19.134  25.574  1.00  0.00    -0.237 OA
ATOM     55  O   UNL A   1      43.082  19.428  24.725  1.00  0.00    -0.237 OA
ATOM     56  O   UNL A   1      42.705  18.401  26.933  1.00  0.00    -0.744 OA
ENDBRANCH  52  53
ENDBRANCH  24  47
BRANCH  36  57
ATOM     57  C   UNL A   1      47.413  26.340  31.704  1.00  0.00    -0.014 A 
ATOM     58  C   UNL A   1      47.454  25.791  32.996  1.00  0.00     0.010 A 
ATOM     59  C   UNL A   1      48.565  26.305  30.896  1.00  0.00     0.010 A 
ATOM     60  C   UNL A   1      48.635  25.226  33.478  1.00  0.00     0.020 A 
ATOM     61  C   UNL A   1      49.739  25.715  31.365  1.00  0.00     0.020 A 
ATOM     62  C   UNL A   1      49.768  25.186  32.658  1.00  0.00     0.054 A 
BRANCH  62  63
ATOM     63  S   UNL A   1      51.264  24.372  33.276  1.00  0.00     0.124 S 
ATOM     64  O   UNL A   1      50.748  23.612  34.411  1.00  0.00    -0.237 OA
ATOM     65  O   UNL A   1      51.695  23.575  32.129  1.00  0.00    -0.237 OA
ATOM     66  O   UNL A   1      52.146  25.484  33.620  1.00  0.00    -0.744 OA
ENDBRANCH  62  63
ENDBRANCH  36  57
ENDBRANCH  10  11
ENDBRANCH   3   5
ENDBRANCH   2   3
ENDBRANCH   1   2
BRANCH   1  67
ATOM     67  C   UNL A   1      33.959  29.012  24.806  1.00  0.00     0.274 C 
BRANCH  67  68
ATOM     68  O   UNL A   1      33.529  27.666  24.528  1.00  0.00    -0.462 OA
BRANCH  68  69
ATOM     69  C   UNL A   1      33.008  27.544  23.271  1.00  0.00     0.310 C 
ATOM     70  O   UNL A   1      33.671  27.684  22.246  1.00  0.00    -0.252 OA
BRANCH  69  71
ATOM     71  C   UNL A   1      31.511  27.292  23.218  1.00  0.00     0.115 C 
ATOM     72  C   UNL A   1      30.818  28.514  22.611  1.00  0.00     0.043 C 
ATOM     73  C   UNL A   1      30.861  26.888  24.540  1.00  0.00     0.097 C 
ATOM     74  C   UNL A   1      29.322  28.393  22.633  1.00  0.00    -0.030 C 
ATOM     75  C   UNL A   1      29.352  26.612  24.376  1.00  0.00     0.041 C 
ATOM     76  C   UNL A   1      28.664  27.534  23.422  1.00  0.00    -0.030 C 
BRANCH  73  77
ATOM     77  C   UNL A   1      31.368  25.763  25.440  1.00  0.00     0.227 C 
ATOM     78  O   UNL A   1      31.426  25.986  26.656  1.00  0.00    -0.275 OA
ATOM     79  N   UNL A   1      31.496  24.466  24.983  1.00  0.00    -0.331 N 
ATOM     80  C   UNL A   1      31.547  23.432  26.019  1.00  0.00     0.181 C 
ATOM     81  C   UNL A   1      32.136  24.110  23.726  1.00  0.00     0.181 C 
ATOM     82  C   UNL A   1      31.311  22.004  25.498  1.00  0.00     0.284 C 
ATOM     83  C   UNL A   1      31.822  22.691  23.245  1.00  0.00     0.284 C 
ATOM     84  N   UNL A   1      31.982  21.636  24.246  1.00  0.00    -0.328 N 
ATOM     85  H   UNL A   1      31.490  20.812  23.900  1.00  0.00     0.348 HD
BRANCH  84  86
ATOM     86  C   UNL A   1      33.333  21.079  24.361  1.00  0.00     0.299 C 
BRANCH  86  87
ATOM     87  C   UNL A   1      33.484  19.575  24.396  1.00  0.00     0.010 A 
ATOM     88  C   UNL A   1      32.361  18.742  24.183  1.00  0.00     0.013 A 
ATOM     89  C   UNL A   1      34.732  18.985  24.670  1.00  0.00     0.060 A 
ATOM     90  C   UNL A   1      32.452  17.353  24.320  1.00  0.00     0.051 A 
ATOM     91  C   UNL A   1      34.790  17.612  24.801  1.00  0.00     0.166 A 
ATOM     92  C   UNL A   1      33.680  16.821  24.637  1.00  0.00     0.165 A 
ATOM     93  O   UNL A   1      35.897  16.889  25.125  1.00  0.00    -0.454 OA
ATOM     94  O   UNL A   1      33.947  15.502  24.827  1.00  0.00    -0.454 OA
ATOM     95  C   UNL A   1      35.332  15.563  25.212  1.00  0.00     0.468 C 
ENDBRANCH  86  87
ENDBRANCH  84  86
ENDBRANCH  73  77
ENDBRANCH  69  71
ENDBRANCH  68  69
ENDBRANCH  67  68
ENDBRANCH   1  67
TORSDOF 17
ENDMDL
