MODEL 1
REMARK VINA RESULT:     -11.8      0.000      0.000
REMARK SMILES Cc1ccc(S(=O)(=O)N(CC(=O)OCCOC(=O)c2ccc(-c3c4nc(c(-c5ccc(S(=O)(=O)[O-])cc5)c5ccc([nH]5)c(-c5ccc(S(=O)(=O)[O-])cc5)c5nc(c(-c6ccc(S(=O)(=O)[O-])cc6)c6ccc3[nH]6)C=C5)C=C4)cc2)c2cc(Cl)cc(Cl)c2)cc1
REMARK SMILES IDX 14 1 13 2 11 3 12 4 10 5 9 6 6 7 7 8 8 9 5 10 1 11 2 12 3 13
REMARK SMILES IDX 88 14 4 15 87 16 79 17 80 18 86 19 81 20 84 21 82 22 83 23
REMARK SMILES IDX 85 24 15 25 16 26 17 27 18 28 19 29 20 30 78 31 21 32 77 33
REMARK SMILES IDX 22 34 23 35 24 36 71 37 25 38 76 39 70 40 72 41 26 42 75 43
REMARK SMILES IDX 69 44 68 45 27 47 57 48 38 49 56 50 39 51 42 52 55 53 73 54
REMARK SMILES IDX 40 55 41 56 54 58 74 59 43 60 28 61 29 62 37 63 30 64 36 65
REMARK SMILES IDX 31 66 32 67 33 68 34 69 35 70 58 71 59 72 67 73 60 74 66 75
REMARK SMILES IDX 61 76 62 77 63 78 64 79 65 80 44 81 45 82 53 83 46 84 52 85
REMARK SMILES IDX 47 86 48 87 49 88 50 89 51 90
REMARK H PARENT 72 46 42 57
REMARK Flexibility Score: inf
ROOT
ATOM      1  C   UNL A   1      33.323  30.464  27.124  1.00  0.00     0.274 C 
ENDROOT
BRANCH   1   2
ATOM      2  O   UNL A   1      33.143  29.853  25.831  1.00  0.00    -0.461 OA
BRANCH   2   3
ATOM      3  C   UNL A   1      32.938  28.515  25.770  1.00  0.00     0.326 C 
ATOM      4  O   UNL A   1      32.003  27.979  26.345  1.00  0.00    -0.250 OA
BRANCH   3   5
ATOM      5  C   UNL A   1      33.909  27.875  24.796  1.00  0.00     0.258 C 
BRANCH   5   6
ATOM      6  N   UNL A   1      33.821  26.523  24.157  1.00  0.00    -0.255 N 
BRANCH   6   7
ATOM      7  S   UNL A   1      33.106  26.505  22.599  1.00  0.00     0.264 S 
ATOM      8  O   UNL A   1      32.888  25.109  22.267  1.00  0.00    -0.201 OA
ATOM      9  O   UNL A   1      33.822  27.374  21.689  1.00  0.00    -0.201 OA
BRANCH   7  10
ATOM     10  C   UNL A   1      31.478  27.245  22.781  1.00  0.00     0.088 A 
ATOM     11  C   UNL A   1      27.632  29.182  23.088  1.00  0.00     0.044 C 
ATOM     12  C   UNL A   1      28.967  28.495  22.989  1.00  0.00    -0.051 A 
ATOM     13  C   UNL A   1      30.061  29.186  22.454  1.00  0.00     0.005 A 
ATOM     14  C   UNL A   1      29.152  27.182  23.450  1.00  0.00     0.005 A 
ATOM     15  C   UNL A   1      31.306  28.563  22.342  1.00  0.00     0.022 A 
ATOM     16  C   UNL A   1      30.407  26.556  23.355  1.00  0.00     0.022 A 
ENDBRANCH   7  10
ENDBRANCH   6   7
BRANCH   6  17
ATOM     17  C   UNL A   1      33.753  25.292  24.932  1.00  0.00     0.055 A 
ATOM     18  C   UNL A   1      34.877  24.519  25.220  1.00  0.00     0.047 A 
ATOM     19  C   UNL A   1      32.532  24.856  25.468  1.00  0.00     0.047 A 
ATOM     20  C   UNL A   1      34.766  23.255  25.807  1.00  0.00     0.044 A 
ATOM     21  C   UNL A   1      32.447  23.644  26.171  1.00  0.00     0.044 A 
ATOM     22  Cl  UNL A   1      36.162  22.250  25.928  1.00  0.00    -0.084 Cl
ATOM     23  C   UNL A   1      33.547  22.806  26.285  1.00  0.00     0.041 A 
ATOM     24  Cl  UNL A   1      30.975  23.201  26.951  1.00  0.00    -0.084 Cl
ENDBRANCH   6  17
ENDBRANCH   5   6
ENDBRANCH   3   5
ENDBRANCH   2   3
ENDBRANCH   1   2
BRANCH   1  25
ATOM     25  C   UNL A   1      34.768  30.968  27.385  1.00  0.00     0.275 C 
BRANCH  25  26
ATOM     26  O   UNL A   1      35.795  29.959  27.563  1.00  0.00    -0.458 OA
BRANCH  26  27
ATOM     27  C   UNL A   1      36.565  30.008  28.697  1.00  0.00     0.338 C 
ATOM     28  O   UNL A   1      36.169  30.340  29.793  1.00  0.00    -0.246 OA
BRANCH  27  29
ATOM     29  C   UNL A   1      37.789  29.196  28.456  1.00  0.00     0.060 A 
ATOM     30  C   UNL A   1      38.630  29.336  27.337  1.00  0.00     0.016 A 
ATOM     31  C   UNL A   1      38.276  28.584  29.597  1.00  0.00     0.016 A 
ATOM     32  C   UNL A   1      39.947  28.861  27.421  1.00  0.00     0.010 A 
ATOM     33  C   UNL A   1      39.614  28.613  29.810  1.00  0.00     0.010 A 
ATOM     34  C   UNL A   1      40.429  28.532  28.688  1.00  0.00    -0.014 A 
BRANCH  34  35
ATOM     35  C   UNL A   1      41.539  27.659  29.038  1.00  0.00     0.031 A 
ATOM     36  C   UNL A   1      41.591  26.268  28.575  1.00  0.00     0.074 A 
ATOM     37  C   UNL A   1      42.638  28.407  29.332  1.00  0.00     0.049 A 
ATOM     38  N   UNL A   1      42.182  25.315  29.205  1.00  0.00    -0.248 NA
ATOM     39  C   UNL A   1      40.971  25.836  27.317  1.00  0.00     0.031 C 
ATOM     40  C   UNL A   1      44.057  28.118  29.257  1.00  0.00     0.029 A 
ATOM     41  N   UNL A   1      42.635  29.755  29.732  1.00  0.00    -0.354 N 
ATOM     42  C   UNL A   1      42.355  24.307  28.276  1.00  0.00     0.074 A 
ATOM     43  C   UNL A   1      41.426  24.581  27.206  1.00  0.00     0.031 C 
ATOM     44  C   UNL A   1      44.718  29.080  29.942  1.00  0.00     0.029 A 
ATOM     45  C   UNL A   1      43.724  29.967  30.552  1.00  0.00     0.049 A 
ATOM     46  H   UNL A   1      41.970  30.432  29.471  1.00  0.00     0.167 HD
ATOM     47  C   UNL A   1      43.477  23.532  28.303  1.00  0.00     0.031 A 
ATOM     48  C   UNL A   1      43.471  30.156  31.883  1.00  0.00     0.031 A 
ATOM     49  C   UNL A   1      44.459  24.105  29.228  1.00  0.00     0.049 A 
ATOM     50  C   UNL A   1      43.869  28.897  32.621  1.00  0.00     0.074 A 
ATOM     51  C   UNL A   1      45.578  24.887  28.985  1.00  0.00     0.029 A 
ATOM     52  N   UNL A   1      44.159  24.255  30.577  1.00  0.00    -0.354 N 
ATOM     53  N   UNL A   1      43.906  27.715  32.066  1.00  0.00    -0.248 NA
ATOM     54  C   UNL A   1      44.330  28.884  34.002  1.00  0.00     0.031 C 
ATOM     55  C   UNL A   1      45.887  25.588  30.180  1.00  0.00     0.029 A 
ATOM     56  C   UNL A   1      44.959  25.233  31.146  1.00  0.00     0.049 A 
ATOM     57  H   UNL A   1      43.476  23.738  31.061  1.00  0.00     0.167 HD
ATOM     58  C   UNL A   1      44.503  26.834  32.915  1.00  0.00     0.074 A 
ATOM     59  C   UNL A   1      44.708  27.600  34.135  1.00  0.00     0.031 C 
ATOM     60  C   UNL A   1      44.836  25.559  32.560  1.00  0.00     0.031 A 
BRANCH  47  61
ATOM     61  C   UNL A   1      43.831  22.523  27.232  1.00  0.00    -0.014 A 
ATOM     62  C   UNL A   1      42.958  21.448  26.961  1.00  0.00     0.010 A 
ATOM     63  C   UNL A   1      44.984  22.611  26.421  1.00  0.00     0.010 A 
ATOM     64  C   UNL A   1      43.241  20.481  25.986  1.00  0.00     0.020 A 
ATOM     65  C   UNL A   1      45.289  21.635  25.452  1.00  0.00     0.020 A 
ATOM     66  C   UNL A   1      44.411  20.573  25.242  1.00  0.00     0.054 A 
BRANCH  66  67
ATOM     67  S   UNL A   1      44.739  19.311  23.982  1.00  0.00     0.124 S 
ATOM     68  O   UNL A   1      43.762  18.277  24.311  1.00  0.00    -0.237 OA
ATOM     69  O   UNL A   1      44.492  20.037  22.739  1.00  0.00    -0.237 OA
ATOM     70  O   UNL A   1      46.133  18.940  24.217  1.00  0.00    -0.744 OA
ENDBRANCH  66  67
ENDBRANCH  47  61
BRANCH  48  71
ATOM     71  C   UNL A   1      42.251  31.005  32.165  1.00  0.00    -0.014 A 
ATOM     72  C   UNL A   1      42.218  32.307  31.604  1.00  0.00     0.010 A 
ATOM     73  C   UNL A   1      41.035  30.474  32.640  1.00  0.00     0.010 A 
ATOM     74  C   UNL A   1      41.015  33.008  31.431  1.00  0.00     0.020 A 
ATOM     75  C   UNL A   1      39.824  31.185  32.483  1.00  0.00     0.020 A 
ATOM     76  C   UNL A   1      39.819  32.435  31.856  1.00  0.00     0.054 A 
BRANCH  76  77
ATOM     77  S   UNL A   1      38.248  33.246  31.400  1.00  0.00     0.124 S 
ATOM     78  O   UNL A   1      38.168  32.978  29.969  1.00  0.00    -0.237 OA
ATOM     79  O   UNL A   1      37.277  32.540  32.233  1.00  0.00    -0.237 OA
ATOM     80  O   UNL A   1      38.478  34.640  31.773  1.00  0.00    -0.744 OA
ENDBRANCH  76  77
ENDBRANCH  48  71
BRANCH  60  81
ATOM     81  C   UNL A   1      45.207  24.498  33.549  1.00  0.00    -0.014 A 
ATOM     82  C   UNL A   1      46.537  24.206  33.873  1.00  0.00     0.010 A 
ATOM     83  C   UNL A   1      44.188  23.874  34.304  1.00  0.00     0.010 A 
ATOM     84  C   UNL A   1      46.841  23.251  34.841  1.00  0.00     0.020 A 
ATOM     85  C   UNL A   1      44.483  22.965  35.315  1.00  0.00     0.020 A 
ATOM     86  C   UNL A   1      45.812  22.630  35.549  1.00  0.00     0.054 A 
BRANCH  86  87
ATOM     87  S   UNL A   1      46.227  21.412  36.812  1.00  0.00     0.124 S 
ATOM     88  O   UNL A   1      47.686  21.474  36.813  1.00  0.00    -0.237 OA
ATOM     89  O   UNL A   1      45.575  21.946  38.005  1.00  0.00    -0.237 OA
ATOM     90  O   UNL A   1      45.650  20.173  36.295  1.00  0.00    -0.744 OA
ENDBRANCH  86  87
ENDBRANCH  60  81
ENDBRANCH  34  35
ENDBRANCH  27  29
ENDBRANCH  26  27
ENDBRANCH  25  26
ENDBRANCH   1  25
TORSDOF 18
ENDMDL
MODEL 2
REMARK VINA RESULT:     -11.6      4.141     10.147
REMARK SMILES Cc1ccc(S(=O)(=O)N(CC(=O)OCCOC(=O)c2ccc(-c3c4nc(c(-c5ccc(S(=O)(=O)[O-])cc5)c5ccc([nH]5)c(-c5ccc(S(=O)(=O)[O-])cc5)c5nc(c(-c6ccc(S(=O)(=O)[O-])cc6)c6ccc3[nH]6)C=C5)C=C4)cc2)c2cc(Cl)cc(Cl)c2)cc1
REMARK SMILES IDX 14 1 13 2 11 3 12 4 10 5 9 6 6 7 7 8 8 9 5 10 1 11 2 12 3 13
REMARK SMILES IDX 88 14 4 15 87 16 79 17 80 18 86 19 81 20 84 21 82 22 83 23
REMARK SMILES IDX 85 24 15 25 16 26 17 27 18 28 19 29 20 30 78 31 21 32 77 33
REMARK SMILES IDX 22 34 23 35 24 36 71 37 25 38 76 39 70 40 72 41 26 42 75 43
REMARK SMILES IDX 69 44 68 45 27 47 57 48 38 49 56 50 39 51 42 52 55 53 73 54
REMARK SMILES IDX 40 55 41 56 54 58 74 59 43 60 28 61 29 62 37 63 30 64 36 65
REMARK SMILES IDX 31 66 32 67 33 68 34 69 35 70 58 71 59 72 67 73 60 74 66 75
REMARK SMILES IDX 61 76 62 77 63 78 64 79 65 80 44 81 45 82 53 83 46 84 52 85
REMARK SMILES IDX 47 86 48 87 49 88 50 89 51 90
REMARK H PARENT 72 46 42 57
REMARK Flexibility Score: inf
ROOT
ATOM      1  C   UNL A   1      36.518  21.453  25.116  1.00  0.00     0.274 C 
ENDROOT
BRANCH   1   2
ATOM      2  O   UNL A   1      36.149  22.804  24.774  1.00  0.00    -0.461 OA
BRANCH   2   3
ATOM      3  C   UNL A   1      35.722  23.059  23.513  1.00  0.00     0.326 C 
ATOM      4  O   UNL A   1      36.466  22.962  22.549  1.00  0.00    -0.250 OA
BRANCH   3   5
ATOM      5  C   UNL A   1      34.225  23.304  23.501  1.00  0.00     0.258 C 
BRANCH   5   6
ATOM      6  N   UNL A   1      33.383  23.925  24.573  1.00  0.00    -0.255 N 
BRANCH   6   7
ATOM      7  S   UNL A   1      32.050  22.976  25.084  1.00  0.00     0.264 S 
ATOM      8  O   UNL A   1      30.923  23.381  24.265  1.00  0.00    -0.201 OA
ATOM      9  O   UNL A   1      31.943  22.966  26.528  1.00  0.00    -0.201 OA
BRANCH   7  10
ATOM     10  C   UNL A   1      32.430  21.281  24.624  1.00  0.00     0.088 A 
ATOM     11  C   UNL A   1      33.297  17.259  23.314  1.00  0.00     0.044 C 
ATOM     12  C   UNL A   1      33.000  18.658  23.785  1.00  0.00    -0.051 A 
ATOM     13  C   UNL A   1      32.345  19.550  22.928  1.00  0.00     0.005 A 
ATOM     14  C   UNL A   1      33.336  19.082  25.079  1.00  0.00     0.005 A 
ATOM     15  C   UNL A   1      32.070  20.856  23.340  1.00  0.00     0.022 A 
ATOM     16  C   UNL A   1      33.047  20.390  25.506  1.00  0.00     0.022 A 
ENDBRANCH   7  10
ENDBRANCH   6   7
BRANCH   6  17
ATOM     17  C   UNL A   1      33.279  25.366  24.754  1.00  0.00     0.055 A 
ATOM     18  C   UNL A   1      33.622  26.278  23.756  1.00  0.00     0.047 A 
ATOM     19  C   UNL A   1      32.773  25.898  25.950  1.00  0.00     0.047 A 
ATOM     20  C   UNL A   1      33.687  27.652  24.011  1.00  0.00     0.044 A 
ATOM     21  C   UNL A   1      32.718  27.285  26.153  1.00  0.00     0.044 A 
ATOM     22  Cl  UNL A   1      34.338  28.707  22.812  1.00  0.00    -0.084 Cl
ATOM     23  C   UNL A   1      33.237  28.166  25.214  1.00  0.00     0.041 A 
ATOM     24  Cl  UNL A   1      31.955  27.921  27.561  1.00  0.00    -0.084 Cl
ENDBRANCH   6  17
ENDBRANCH   5   6
ENDBRANCH   3   5
ENDBRANCH   2   3
ENDBRANCH   1   2
BRANCH   1  25
ATOM     25  C   UNL A   1      38.038  21.261  25.363  1.00  0.00     0.275 C 
BRANCH  25  26
ATOM     26  O   UNL A   1      38.793  22.431  25.769  1.00  0.00    -0.458 OA
BRANCH  26  27
ATOM     27  C   UNL A   1      39.666  22.310  26.820  1.00  0.00     0.338 C 
ATOM     28  O   UNL A   1      40.127  21.265  27.224  1.00  0.00    -0.246 OA
BRANCH  27  29
ATOM     29  C   UNL A   1      40.266  23.649  27.075  1.00  0.00     0.060 A 
ATOM     30  C   UNL A   1      40.727  24.518  26.071  1.00  0.00     0.016 A 
ATOM     31  C   UNL A   1      39.963  24.157  28.325  1.00  0.00     0.016 A 
ATOM     32  C   UNL A   1      40.852  25.884  26.368  1.00  0.00     0.010 A 
ATOM     33  C   UNL A   1      39.615  25.464  28.410  1.00  0.00     0.010 A 
ATOM     34  C   UNL A   1      40.254  26.340  27.542  1.00  0.00    -0.014 A 
BRANCH  34  35
ATOM     35  C   UNL A   1      40.552  27.544  28.303  1.00  0.00     0.031 A 
ATOM     36  C   UNL A   1      39.575  28.631  28.424  1.00  0.00     0.074 A 
ATOM     37  C   UNL A   1      41.516  27.278  29.227  1.00  0.00     0.049 A 
ATOM     38  N   UNL A   1      39.882  29.868  28.592  1.00  0.00    -0.248 NA
ATOM     39  C   UNL A   1      38.127  28.393  28.380  1.00  0.00     0.031 C 
ATOM     40  C   UNL A   1      41.832  27.889  30.503  1.00  0.00     0.029 A 
ATOM     41  N   UNL A   1      42.440  26.219  29.173  1.00  0.00    -0.354 N 
ATOM     42  C   UNL A   1      38.734  30.477  29.060  1.00  0.00     0.074 A 
ATOM     43  C   UNL A   1      37.643  29.595  28.720  1.00  0.00     0.031 C 
ATOM     44  C   UNL A   1      43.056  27.457  30.884  1.00  0.00     0.029 A 
ATOM     45  C   UNL A   1      43.597  26.620  29.809  1.00  0.00     0.049 A 
ATOM     46  H   UNL A   1      42.288  25.342  28.753  1.00  0.00     0.167 HD
ATOM     47  C   UNL A   1      38.814  31.480  29.981  1.00  0.00     0.031 A 
ATOM     48  C   UNL A   1      44.686  26.866  29.019  1.00  0.00     0.031 A 
ATOM     49  C   UNL A   1      40.177  31.567  30.509  1.00  0.00     0.049 A 
ATOM     50  C   UNL A   1      44.879  28.365  28.937  1.00  0.00     0.074 A 
ATOM     51  C   UNL A   1      40.722  31.081  31.687  1.00  0.00     0.029 A 
ATOM     52  N   UNL A   1      41.248  31.843  29.665  1.00  0.00    -0.354 N 
ATOM     53  N   UNL A   1      43.913  29.227  29.105  1.00  0.00    -0.248 NA
ATOM     54  C   UNL A   1      46.175  29.001  28.746  1.00  0.00     0.031 C 
ATOM     55  C   UNL A   1      42.126  30.972  31.507  1.00  0.00     0.029 A 
ATOM     56  C   UNL A   1      42.434  31.391  30.222  1.00  0.00     0.049 A 
ATOM     57  H   UNL A   1      41.174  32.297  28.796  1.00  0.00     0.167 HD
ATOM     58  C   UNL A   1      44.435  30.483  29.188  1.00  0.00     0.074 A 
ATOM     59  C   UNL A   1      45.851  30.297  28.910  1.00  0.00     0.031 C 
ATOM     60  C   UNL A   1      43.698  31.581  29.525  1.00  0.00     0.031 A 
BRANCH  47  61
ATOM     61  C   UNL A   1      37.611  32.086  30.673  1.00  0.00    -0.014 A 
ATOM     62  C   UNL A   1      37.441  33.486  30.691  1.00  0.00     0.010 A 
ATOM     63  C   UNL A   1      36.587  31.324  31.278  1.00  0.00     0.010 A 
ATOM     64  C   UNL A   1      36.352  34.100  31.325  1.00  0.00     0.020 A 
ATOM     65  C   UNL A   1      35.498  31.929  31.934  1.00  0.00     0.020 A 
ATOM     66  C   UNL A   1      35.389  33.318  31.953  1.00  0.00     0.054 A 
BRANCH  66  67
ATOM     67  S   UNL A   1      33.987  34.145  32.753  1.00  0.00     0.124 S 
ATOM     68  O   UNL A   1      33.364  34.856  31.639  1.00  0.00    -0.237 OA
ATOM     69  O   UNL A   1      33.224  33.022  33.287  1.00  0.00    -0.237 OA
ATOM     70  O   UNL A   1      34.616  35.003  33.756  1.00  0.00    -0.744 OA
ENDBRANCH  66  67
ENDBRANCH  47  61
BRANCH  48  71
ATOM     71  C   UNL A   1      44.859  25.884  27.881  1.00  0.00    -0.014 A 
ATOM     72  C   UNL A   1      45.338  24.590  28.205  1.00  0.00     0.010 A 
ATOM     73  C   UNL A   1      44.262  26.056  26.617  1.00  0.00     0.010 A 
ATOM     74  C   UNL A   1      45.143  23.493  27.351  1.00  0.00     0.020 A 
ATOM     75  C   UNL A   1      44.079  24.958  25.747  1.00  0.00     0.020 A 
ATOM     76  C   UNL A   1      44.497  23.679  26.131  1.00  0.00     0.054 A 
BRANCH  76  77
ATOM     77  S   UNL A   1      44.032  22.210  25.152  1.00  0.00     0.124 S 
ATOM     78  O   UNL A   1      43.439  22.810  23.962  1.00  0.00    -0.237 OA
ATOM     79  O   UNL A   1      45.318  21.546  24.953  1.00  0.00    -0.237 OA
ATOM     80  O   UNL A   1      43.107  21.505  26.036  1.00  0.00    -0.744 OA
ENDBRANCH  76  77
ENDBRANCH  48  71
BRANCH  60  81
ATOM     81  C   UNL A   1      44.175  32.986  29.328  1.00  0.00    -0.014 A 
ATOM     82  C   UNL A   1      44.391  33.535  28.058  1.00  0.00     0.010 A 
ATOM     83  C   UNL A   1      44.263  33.846  30.446  1.00  0.00     0.010 A 
ATOM     84  C   UNL A   1      44.781  34.865  27.914  1.00  0.00     0.020 A 
ATOM     85  C   UNL A   1      44.590  35.191  30.307  1.00  0.00     0.020 A 
ATOM     86  C   UNL A   1      44.887  35.681  29.040  1.00  0.00     0.054 A 
BRANCH  86  87
ATOM     87  S   UNL A   1      45.373  37.405  28.831  1.00  0.00     0.124 S 
ATOM     88  O   UNL A   1      45.382  37.877  30.213  1.00  0.00    -0.237 OA
ATOM     89  O   UNL A   1      46.683  37.298  28.195  1.00  0.00    -0.237 OA
ATOM     90  O   UNL A   1      44.319  37.958  27.985  1.00  0.00    -0.744 OA
ENDBRANCH  86  87
ENDBRANCH  60  81
ENDBRANCH  34  35
ENDBRANCH  27  29
ENDBRANCH  26  27
ENDBRANCH  25  26
ENDBRANCH   1  25
TORSDOF 18
ENDMDL
MODEL 3
REMARK VINA RESULT:     -11.4      4.374     10.886
REMARK SMILES Cc1ccc(S(=O)(=O)N(CC(=O)OCCOC(=O)c2ccc(-c3c4nc(c(-c5ccc(S(=O)(=O)[O-])cc5)c5ccc([nH]5)c(-c5ccc(S(=O)(=O)[O-])cc5)c5nc(c(-c6ccc(S(=O)(=O)[O-])cc6)c6ccc3[nH]6)C=C5)C=C4)cc2)c2cc(Cl)cc(Cl)c2)cc1
REMARK SMILES IDX 14 1 13 2 11 3 12 4 10 5 9 6 6 7 7 8 8 9 5 10 1 11 2 12 3 13
REMARK SMILES IDX 88 14 4 15 87 16 79 17 80 18 86 19 81 20 84 21 82 22 83 23
REMARK SMILES IDX 85 24 15 25 16 26 17 27 18 28 19 29 20 30 78 31 21 32 77 33
REMARK SMILES IDX 22 34 23 35 24 36 71 37 25 38 76 39 70 40 72 41 26 42 75 43
REMARK SMILES IDX 69 44 68 45 27 47 57 48 38 49 56 50 39 51 42 52 55 53 73 54
REMARK SMILES IDX 40 55 41 56 54 58 74 59 43 60 28 61 29 62 37 63 30 64 36 65
REMARK SMILES IDX 31 66 32 67 33 68 34 69 35 70 58 71 59 72 67 73 60 74 66 75
REMARK SMILES IDX 61 76 62 77 63 78 64 79 65 80 44 81 45 82 53 83 46 84 52 85
REMARK SMILES IDX 47 86 48 87 49 88 50 89 51 90
REMARK H PARENT 72 46 42 57
REMARK Flexibility Score: inf
ROOT
ATOM      1  C   UNL A   1      38.544  21.912  25.915  1.00  0.00     0.274 C 
ENDROOT
BRANCH   1   2
ATOM      2  O   UNL A   1      37.224  22.492  25.876  1.00  0.00    -0.461 OA
BRANCH   2   3
ATOM      3  C   UNL A   1      36.167  21.678  25.634  1.00  0.00     0.326 C 
ATOM      4  O   UNL A   1      36.304  20.576  25.125  1.00  0.00    -0.250 OA
BRANCH   3   5
ATOM      5  C   UNL A   1      34.900  22.272  26.220  1.00  0.00     0.258 C 
BRANCH   5   6
ATOM      6  N   UNL A   1      33.502  22.171  25.690  1.00  0.00    -0.255 N 
BRANCH   6   7
ATOM      7  S   UNL A   1      32.325  23.037  26.586  1.00  0.00     0.264 S 
ATOM      8  O   UNL A   1      32.715  22.932  27.980  1.00  0.00    -0.201 OA
ATOM      9  O   UNL A   1      30.986  22.679  26.168  1.00  0.00    -0.201 OA
BRANCH   7  10
ATOM     10  C   UNL A   1      32.518  24.766  26.134  1.00  0.00     0.088 A 
ATOM     11  C   UNL A   1      32.818  28.967  25.183  1.00  0.00     0.044 C 
ATOM     12  C   UNL A   1      32.726  27.500  25.506  1.00  0.00    -0.051 A 
ATOM     13  C   UNL A   1      31.607  27.013  26.193  1.00  0.00     0.005 A 
ATOM     14  C   UNL A   1      33.724  26.597  25.108  1.00  0.00     0.005 A 
ATOM     15  C   UNL A   1      31.507  25.657  26.513  1.00  0.00     0.022 A 
ATOM     16  C   UNL A   1      33.621  25.229  25.413  1.00  0.00     0.022 A 
ENDBRANCH   7  10
ENDBRANCH   6   7
BRANCH   6  17
ATOM     17  C   UNL A   1      33.037  21.028  24.916  1.00  0.00     0.055 A 
ATOM     18  C   UNL A   1      32.843  19.766  25.475  1.00  0.00     0.047 A 
ATOM     19  C   UNL A   1      32.716  21.174  23.558  1.00  0.00     0.047 A 
ATOM     20  C   UNL A   1      32.572  18.647  24.682  1.00  0.00     0.044 A 
ATOM     21  C   UNL A   1      32.318  20.068  22.790  1.00  0.00     0.044 A 
ATOM     22  Cl  UNL A   1      32.571  17.079  25.399  1.00  0.00    -0.084 Cl
ATOM     23  C   UNL A   1      32.310  18.789  23.331  1.00  0.00     0.041 A 
ATOM     24  Cl  UNL A   1      31.782  20.292  21.168  1.00  0.00    -0.084 Cl
ENDBRANCH   6  17
ENDBRANCH   5   6
ENDBRANCH   3   5
ENDBRANCH   2   3
ENDBRANCH   1   2
BRANCH   1  25
ATOM     25  C   UNL A   1      39.514  22.627  26.893  1.00  0.00     0.275 C 
BRANCH  25  26
ATOM     26  O   UNL A   1      39.182  23.985  27.277  1.00  0.00    -0.458 OA
BRANCH  26  27
ATOM     27  C   UNL A   1      39.982  25.003  26.824  1.00  0.00     0.338 C 
ATOM     28  O   UNL A   1      40.578  25.003  25.769  1.00  0.00    -0.246 OA
BRANCH  27  29
ATOM     29  C   UNL A   1      39.649  26.229  27.601  1.00  0.00     0.060 A 
ATOM     30  C   UNL A   1      39.134  26.226  28.909  1.00  0.00     0.016 A 
ATOM     31  C   UNL A   1      40.264  27.369  27.117  1.00  0.00     0.016 A 
ATOM     32  C   UNL A   1      39.274  27.383  29.691  1.00  0.00     0.010 A 
ATOM     33  C   UNL A   1      40.811  28.224  28.016  1.00  0.00     0.010 A 
ATOM     34  C   UNL A   1      40.152  28.363  29.230  1.00  0.00    -0.014 A 
BRANCH  34  35
ATOM     35  C   UNL A   1      40.191  29.778  29.570  1.00  0.00     0.031 A 
ATOM     36  C   UNL A   1      39.019  30.640  29.384  1.00  0.00     0.074 A 
ATOM     37  C   UNL A   1      41.166  30.003  30.493  1.00  0.00     0.049 A 
ATOM     38  N   UNL A   1      39.076  31.902  29.149  1.00  0.00    -0.248 NA
ATOM     39  C   UNL A   1      37.647  30.126  29.470  1.00  0.00     0.031 C 
ATOM     40  C   UNL A   1      41.325  31.029  31.504  1.00  0.00     0.029 A 
ATOM     41  N   UNL A   1      42.279  29.178  30.735  1.00  0.00    -0.354 N 
ATOM     42  C   UNL A   1      37.821  32.394  29.447  1.00  0.00     0.074 A 
ATOM     43  C   UNL A   1      36.930  31.257  29.439  1.00  0.00     0.031 C 
ATOM     44  C   UNL A   1      42.601  30.981  31.955  1.00  0.00     0.029 A 
ATOM     45  C   UNL A   1      43.320  29.972  31.172  1.00  0.00     0.049 A 
ATOM     46  H   UNL A   1      42.310  28.202  30.614  1.00  0.00     0.167 HD
ATOM     47  C   UNL A   1      37.681  33.629  30.010  1.00  0.00     0.031 A 
ATOM     48  C   UNL A   1      44.360  30.164  30.304  1.00  0.00     0.031 A 
ATOM     49  C   UNL A   1      38.989  34.137  30.433  1.00  0.00     0.049 A 
ATOM     50  C   UNL A   1      44.260  31.570  29.756  1.00  0.00     0.074 A 
ATOM     51  C   UNL A   1      39.588  34.156  31.683  1.00  0.00     0.029 A 
ATOM     52  N   UNL A   1      40.006  34.337  29.506  1.00  0.00    -0.354 N 
ATOM     53  N   UNL A   1      43.141  32.240  29.683  1.00  0.00    -0.248 NA
ATOM     54  C   UNL A   1      45.412  32.353  29.329  1.00  0.00     0.031 C 
ATOM     55  C   UNL A   1      40.990  34.267  31.492  1.00  0.00     0.029 A 
ATOM     56  C   UNL A   1      41.243  34.317  30.131  1.00  0.00     0.049 A 
ATOM     57  H   UNL A   1      39.867  34.474  28.542  1.00  0.00     0.167 HD
ATOM     58  C   UNL A   1      43.407  33.534  29.355  1.00  0.00     0.074 A 
ATOM     59  C   UNL A   1      44.839  33.547  29.094  1.00  0.00     0.031 C 
ATOM     60  C   UNL A   1      42.462  34.519  29.362  1.00  0.00     0.031 A 
BRANCH  47  61
ATOM     61  C   UNL A   1      36.367  34.178  30.524  1.00  0.00    -0.014 A 
ATOM     62  C   UNL A   1      36.192  34.405  31.906  1.00  0.00     0.010 A 
ATOM     63  C   UNL A   1      35.287  34.538  29.690  1.00  0.00     0.010 A 
ATOM     64  C   UNL A   1      34.994  34.903  32.437  1.00  0.00     0.020 A 
ATOM     65  C   UNL A   1      34.071  35.021  30.212  1.00  0.00     0.020 A 
ATOM     66  C   UNL A   1      33.934  35.199  31.588  1.00  0.00     0.054 A 
BRANCH  66  67
ATOM     67  S   UNL A   1      32.403  35.852  32.308  1.00  0.00     0.124 S 
ATOM     68  O   UNL A   1      31.776  34.651  32.854  1.00  0.00    -0.237 OA
ATOM     69  O   UNL A   1      32.902  36.805  33.294  1.00  0.00    -0.237 OA
ATOM     70  O   UNL A   1      31.709  36.446  31.166  1.00  0.00    -0.744 OA
ENDBRANCH  66  67
ENDBRANCH  47  61
BRANCH  48  71
ATOM     71  C   UNL A   1      44.747  28.929  29.521  1.00  0.00    -0.014 A 
ATOM     72  C   UNL A   1      45.249  27.824  30.254  1.00  0.00     0.010 A 
ATOM     73  C   UNL A   1      44.328  28.692  28.198  1.00  0.00     0.010 A 
ATOM     74  C   UNL A   1      45.240  26.522  29.728  1.00  0.00     0.020 A 
ATOM     75  C   UNL A   1      44.333  27.385  27.660  1.00  0.00     0.020 A 
ATOM     76  C   UNL A   1      44.764  26.306  28.438  1.00  0.00     0.054 A 
BRANCH  76  77
ATOM     77  S   UNL A   1      44.527  24.588  27.867  1.00  0.00     0.124 S 
ATOM     78  O   UNL A   1      45.401  23.843  28.766  1.00  0.00    -0.237 OA
ATOM     79  O   UNL A   1      43.094  24.386  28.065  1.00  0.00    -0.237 OA
ATOM     80  O   UNL A   1      44.953  24.644  26.471  1.00  0.00    -0.744 OA
ENDBRANCH  76  77
ENDBRANCH  48  71
BRANCH  60  81
ATOM     81  C   UNL A   1      42.663  35.858  28.722  1.00  0.00    -0.014 A 
ATOM     82  C   UNL A   1      42.101  36.190  27.483  1.00  0.00     0.010 A 
ATOM     83  C   UNL A   1      43.305  36.882  29.454  1.00  0.00     0.010 A 
ATOM     84  C   UNL A   1      42.262  37.466  26.947  1.00  0.00     0.020 A 
ATOM     85  C   UNL A   1      43.417  38.175  28.954  1.00  0.00     0.020 A 
ATOM     86  C   UNL A   1      42.927  38.447  27.682  1.00  0.00     0.054 A 
BRANCH  86  87
ATOM     87  S   UNL A   1      43.108  40.098  26.979  1.00  0.00     0.124 S 
ATOM     88  O   UNL A   1      44.334  39.951  26.197  1.00  0.00    -0.237 OA
ATOM     89  O   UNL A   1      41.882  40.255  26.201  1.00  0.00    -0.237 OA
ATOM     90  O   UNL A   1      43.210  40.961  28.152  1.00  0.00    -0.744 OA
ENDBRANCH  86  87
ENDBRANCH  60  81
ENDBRANCH  34  35
ENDBRANCH  27  29
ENDBRANCH  26  27
ENDBRANCH  25  26
ENDBRANCH   1  25
TORSDOF 18
ENDMDL
