MODEL 1
REMARK VINA RESULT:      -9.7      0.000      0.000
REMARK SMILES CC[C@@H](C)[C@@H](NC(N)=O)C(=O)N1CCC[C@H](C(=O)OCCOC(=O)c2ccc(-c3c4nc(c(-c5ccc(S(=O)(=O)[O-])cc5)c5ccc([nH]5)c(-c5ccc(S(=O)(=O)[O-])cc5)c5nc(c(-c6ccc(S(=O)(=O)[O-])cc6)c6ccc3[nH]6)C=C5)C=C4)cc2)C1
REMARK SMILES IDX 20 1 19 2 17 3 18 4 16 5 12 6 13 7 85 8 14 9 15 10 10 11
REMARK SMILES IDX 11 12 5 13 3 14 4 15 2 16 1 17 6 18 7 19 8 21 9 22 21 25
REMARK SMILES IDX 22 26 23 27 24 28 25 29 26 30 84 31 27 32 83 33 28 34 29 35
REMARK SMILES IDX 30 36 77 37 31 38 82 39 76 40 78 41 32 42 81 43 75 44 74 45
REMARK SMILES IDX 33 47 63 48 44 49 62 50 45 51 48 52 61 53 79 54 46 55 47 56
REMARK SMILES IDX 60 58 80 59 49 60 34 61 35 62 43 63 36 64 42 65 37 66 38 67
REMARK SMILES IDX 39 68 40 69 41 70 64 71 65 72 73 73 66 74 72 75 67 76 68 77
REMARK SMILES IDX 69 78 70 79 71 80 50 81 51 82 59 83 52 84 58 85 53 86 54 87
REMARK SMILES IDX 55 88 56 89 57 90
REMARK H PARENT 6 20 8 23 8 24 78 46 48 57
REMARK Flexibility Score: inf
ROOT
ATOM      1  C   UNL A   1      36.305  22.707  23.851  1.00  0.00     0.274 C 
ENDROOT
BRANCH   1   2
ATOM      2  O   UNL A   1      35.361  23.787  23.742  1.00  0.00    -0.462 OA
BRANCH   2   3
ATOM      3  C   UNL A   1      34.163  23.664  24.358  1.00  0.00     0.310 C 
ATOM      4  O   UNL A   1      33.882  24.150  25.448  1.00  0.00    -0.252 OA
BRANCH   3   5
ATOM      5  C   UNL A   1      33.171  22.812  23.574  1.00  0.00     0.119 C 
ATOM      6  N   UNL A   1      32.113  24.693  22.460  1.00  0.00    -0.340 N 
ATOM      7  C   UNL A   1      30.816  24.490  23.095  1.00  0.00     0.119 C 
ATOM      8  C   UNL A   1      32.879  23.480  22.233  1.00  0.00     0.134 C 
ATOM      9  C   UNL A   1      30.904  23.690  24.393  1.00  0.00     0.022 C 
ATOM     10  C   UNL A   1      31.857  22.492  24.301  1.00  0.00     0.019 C 
BRANCH   6  11
ATOM     11  C   UNL A   1      32.657  25.973  22.390  1.00  0.00     0.245 C 
ATOM     12  O   UNL A   1      33.557  26.233  21.583  1.00  0.00    -0.272 OA
BRANCH  11  13
ATOM     13  C   UNL A   1      32.070  27.093  23.317  1.00  0.00     0.176 C 
BRANCH  13  14
ATOM     14  C   UNL A   1      32.831  27.336  24.652  1.00  0.00     0.018 C 
ATOM     15  C   UNL A   1      31.895  27.271  25.866  1.00  0.00     0.010 C 
BRANCH  14  16
ATOM     16  C   UNL A   1      33.579  28.693  24.645  1.00  0.00     0.002 C 
ATOM     17  C   UNL A   1      33.466  29.440  25.971  1.00  0.00     0.004 C 
ENDBRANCH  14  16
ENDBRANCH  13  14
BRANCH  13  18
ATOM     18  N   UNL A   1      31.956  28.327  22.525  1.00  0.00    -0.326 N 
ATOM     19  C   UNL A   1      30.754  28.943  22.357  1.00  0.00     0.312 C 
ATOM     20  H   UNL A   1      32.762  28.714  22.112  1.00  0.00     0.166 HD
ATOM     21  N   UNL A   1      30.830  30.067  21.610  1.00  0.00    -0.352 N 
ATOM     22  O   UNL A   1      29.683  28.542  22.785  1.00  0.00    -0.249 OA
ATOM     23  H   UNL A   1      31.702  30.377  21.273  1.00  0.00     0.161 HD
ATOM     24  H   UNL A   1      30.014  30.577  21.404  1.00  0.00     0.161 HD
ENDBRANCH  13  18
ENDBRANCH  11  13
ENDBRANCH   6  11
ENDBRANCH   3   5
ENDBRANCH   2   3
ENDBRANCH   1   2
BRANCH   1  25
ATOM     25  C   UNL A   1      36.793  22.568  25.293  1.00  0.00     0.275 C 
BRANCH  25  26
ATOM     26  O   UNL A   1      37.769  23.581  25.593  1.00  0.00    -0.458 OA
BRANCH  26  27
ATOM     27  C   UNL A   1      38.802  23.165  26.362  1.00  0.00     0.338 C 
ATOM     28  O   UNL A   1      39.269  22.043  26.444  1.00  0.00    -0.246 OA
BRANCH  27  29
ATOM     29  C   UNL A   1      39.420  24.335  26.997  1.00  0.00     0.060 A 
ATOM     30  C   UNL A   1      39.245  24.500  28.372  1.00  0.00     0.016 A 
ATOM     31  C   UNL A   1      40.098  25.290  26.243  1.00  0.00     0.016 A 
ATOM     32  C   UNL A   1      39.742  25.630  29.009  1.00  0.00     0.010 A 
ATOM     33  C   UNL A   1      40.598  26.426  26.883  1.00  0.00     0.010 A 
ATOM     34  C   UNL A   1      40.411  26.606  28.266  1.00  0.00    -0.014 A 
BRANCH  34  35
ATOM     35  C   UNL A   1      40.854  27.849  28.932  1.00  0.00     0.031 A 
ATOM     36  C   UNL A   1      42.232  27.914  29.522  1.00  0.00     0.074 A 
ATOM     37  C   UNL A   1      40.028  28.909  28.987  1.00  0.00     0.049 A 
ATOM     38  N   UNL A   1      42.776  28.860  30.241  1.00  0.00    -0.248 NA
ATOM     39  C   UNL A   1      43.114  26.761  29.273  1.00  0.00     0.031 C 
ATOM     40  C   UNL A   1      38.691  28.972  28.394  1.00  0.00     0.029 A 
ATOM     41  N   UNL A   1      40.191  30.135  29.577  1.00  0.00    -0.354 N 
ATOM     42  C   UNL A   1      44.048  28.404  30.563  1.00  0.00     0.074 A 
ATOM     43  C   UNL A   1      44.197  27.097  29.960  1.00  0.00     0.031 C 
ATOM     44  C   UNL A   1      38.150  30.172  28.663  1.00  0.00     0.029 A 
ATOM     45  C   UNL A   1      39.081  30.939  29.486  1.00  0.00     0.049 A 
ATOM     46  H   UNL A   1      41.023  30.414  30.024  1.00  0.00     0.167 HD
ATOM     47  C   UNL A   1      44.999  29.020  31.302  1.00  0.00     0.031 A 
ATOM     48  C   UNL A   1      38.826  32.140  30.041  1.00  0.00     0.031 A 
ATOM     49  C   UNL A   1      44.840  30.325  31.886  1.00  0.00     0.049 A 
ATOM     50  C   UNL A   1      39.883  32.784  30.896  1.00  0.00     0.074 A 
ATOM     51  C   UNL A   1      45.748  31.046  32.641  1.00  0.00     0.029 A 
ATOM     52  N   UNL A   1      43.696  31.102  31.784  1.00  0.00    -0.354 N 
ATOM     53  N   UNL A   1      41.082  32.340  31.196  1.00  0.00    -0.248 NA
ATOM     54  C   UNL A   1      39.556  34.087  31.488  1.00  0.00     0.031 C 
ATOM     55  C   UNL A   1      45.135  32.242  33.033  1.00  0.00     0.029 A 
ATOM     56  C   UNL A   1      43.865  32.287  32.478  1.00  0.00     0.049 A 
ATOM     57  H   UNL A   1      42.882  30.848  31.289  1.00  0.00     0.167 HD
ATOM     58  C   UNL A   1      41.657  33.317  31.998  1.00  0.00     0.074 A 
ATOM     59  C   UNL A   1      40.682  34.384  32.121  1.00  0.00     0.031 C 
ATOM     60  C   UNL A   1      42.880  33.333  32.584  1.00  0.00     0.031 A 
BRANCH  47  61
ATOM     61  C   UNL A   1      46.276  28.270  31.562  1.00  0.00    -0.014 A 
ATOM     62  C   UNL A   1      47.394  28.409  30.721  1.00  0.00     0.010 A 
ATOM     63  C   UNL A   1      46.370  27.442  32.695  1.00  0.00     0.010 A 
ATOM     64  C   UNL A   1      48.574  27.711  30.994  1.00  0.00     0.020 A 
ATOM     65  C   UNL A   1      47.555  26.759  32.985  1.00  0.00     0.020 A 
ATOM     66  C   UNL A   1      48.646  26.889  32.124  1.00  0.00     0.054 A 
BRANCH  66  67
ATOM     67  S   UNL A   1      50.199  26.019  32.474  1.00  0.00     0.124 S 
ATOM     68  O   UNL A   1      49.755  24.630  32.548  1.00  0.00    -0.237 OA
ATOM     69  O   UNL A   1      51.023  26.353  31.315  1.00  0.00    -0.237 OA
ATOM     70  O   UNL A   1      50.644  26.599  33.739  1.00  0.00    -0.744 OA
ENDBRANCH  66  67
ENDBRANCH  47  61
BRANCH  48  71
ATOM     71  C   UNL A   1      37.499  32.782  29.845  1.00  0.00    -0.014 A 
ATOM     72  C   UNL A   1      36.530  32.761  30.862  1.00  0.00     0.010 A 
ATOM     73  C   UNL A   1      37.202  33.431  28.631  1.00  0.00     0.010 A 
ATOM     74  C   UNL A   1      35.283  33.362  30.663  1.00  0.00     0.020 A 
ATOM     75  C   UNL A   1      35.968  34.056  28.438  1.00  0.00     0.020 A 
ATOM     76  C   UNL A   1      35.010  34.006  29.452  1.00  0.00     0.054 A 
BRANCH  76  77
ATOM     77  S   UNL A   1      33.406  34.823  29.233  1.00  0.00     0.124 S 
ATOM     78  O   UNL A   1      32.769  33.977  28.228  1.00  0.00    -0.237 OA
ATOM     79  O   UNL A   1      32.830  34.759  30.574  1.00  0.00    -0.237 OA
ATOM     80  O   UNL A   1      33.767  36.167  28.783  1.00  0.00    -0.744 OA
ENDBRANCH  76  77
ENDBRANCH  48  71
BRANCH  60  81
ATOM     81  C   UNL A   1      43.245  34.554  33.381  1.00  0.00    -0.014 A 
ATOM     82  C   UNL A   1      43.054  34.597  34.772  1.00  0.00     0.010 A 
ATOM     83  C   UNL A   1      43.838  35.653  32.732  1.00  0.00     0.010 A 
ATOM     84  C   UNL A   1      43.425  35.731  35.499  1.00  0.00     0.020 A 
ATOM     85  C   UNL A   1      44.232  36.778  33.458  1.00  0.00     0.020 A 
ATOM     86  C   UNL A   1      44.010  36.816  34.837  1.00  0.00     0.054 A 
BRANCH  86  87
ATOM     87  S   UNL A   1      44.523  38.260  35.805  1.00  0.00     0.124 S 
ATOM     88  O   UNL A   1      44.300  39.352  34.861  1.00  0.00    -0.237 OA
ATOM     89  O   UNL A   1      43.614  38.222  36.948  1.00  0.00    -0.237 OA
ATOM     90  O   UNL A   1      45.923  37.985  36.122  1.00  0.00    -0.744 OA
ENDBRANCH  86  87
ENDBRANCH  60  81
ENDBRANCH  34  35
ENDBRANCH  27  29
ENDBRANCH  26  27
ENDBRANCH  25  26
ENDBRANCH   1  25
TORSDOF 19
ENDMDL
MODEL 2
REMARK VINA RESULT:      -9.7      2.822      9.190
REMARK SMILES CC[C@@H](C)[C@@H](NC(N)=O)C(=O)N1CCC[C@H](C(=O)OCCOC(=O)c2ccc(-c3c4nc(c(-c5ccc(S(=O)(=O)[O-])cc5)c5ccc([nH]5)c(-c5ccc(S(=O)(=O)[O-])cc5)c5nc(c(-c6ccc(S(=O)(=O)[O-])cc6)c6ccc3[nH]6)C=C5)C=C4)cc2)C1
REMARK SMILES IDX 20 1 19 2 17 3 18 4 16 5 12 6 13 7 85 8 14 9 15 10 10 11
REMARK SMILES IDX 11 12 5 13 3 14 4 15 2 16 1 17 6 18 7 19 8 21 9 22 21 25
REMARK SMILES IDX 22 26 23 27 24 28 25 29 26 30 84 31 27 32 83 33 28 34 29 35
REMARK SMILES IDX 30 36 77 37 31 38 82 39 76 40 78 41 32 42 81 43 75 44 74 45
REMARK SMILES IDX 33 47 63 48 44 49 62 50 45 51 48 52 61 53 79 54 46 55 47 56
REMARK SMILES IDX 60 58 80 59 49 60 34 61 35 62 43 63 36 64 42 65 37 66 38 67
REMARK SMILES IDX 39 68 40 69 41 70 64 71 65 72 73 73 66 74 72 75 67 76 68 77
REMARK SMILES IDX 69 78 70 79 71 80 50 81 51 82 59 83 52 84 58 85 53 86 54 87
REMARK SMILES IDX 55 88 56 89 57 90
REMARK H PARENT 6 20 8 23 8 24 78 46 48 57
REMARK Flexibility Score: inf
ROOT
ATOM      1  C   UNL A   1      31.959  28.375  25.787  1.00  0.00     0.274 C 
ENDROOT
BRANCH   1   2
ATOM      2  O   UNL A   1      32.081  27.021  25.315  1.00  0.00    -0.462 OA
BRANCH   2   3
ATOM      3  C   UNL A   1      31.007  26.204  25.408  1.00  0.00     0.310 C 
ATOM      4  O   UNL A   1      30.431  25.919  26.452  1.00  0.00    -0.252 OA
BRANCH   3   5
ATOM      5  C   UNL A   1      30.581  25.620  24.065  1.00  0.00     0.119 C 
ATOM      6  N   UNL A   1      31.692  23.487  24.401  1.00  0.00    -0.340 N 
ATOM      7  C   UNL A   1      32.635  23.673  23.305  1.00  0.00     0.119 C 
ATOM      8  C   UNL A   1      30.396  24.111  24.206  1.00  0.00     0.134 C 
ATOM      9  C   UNL A   1      32.826  25.139  22.922  1.00  0.00     0.022 C 
ATOM     10  C   UNL A   1      31.512  25.930  22.886  1.00  0.00     0.019 C 
BRANCH   6  11
ATOM     11  C   UNL A   1      32.145  23.022  25.633  1.00  0.00     0.245 C 
ATOM     12  O   UNL A   1      31.446  23.134  26.646  1.00  0.00    -0.272 OA
BRANCH  11  13
ATOM     13  C   UNL A   1      33.538  22.305  25.702  1.00  0.00     0.176 C 
BRANCH  13  14
ATOM     14  C   UNL A   1      34.687  23.116  26.367  1.00  0.00     0.018 C 
ATOM     15  C   UNL A   1      34.537  24.624  26.129  1.00  0.00     0.010 C 
BRANCH  14  16
ATOM     16  C   UNL A   1      36.079  22.648  25.870  1.00  0.00     0.002 C 
ATOM     17  C   UNL A   1      36.520  23.353  24.591  1.00  0.00     0.004 C 
ENDBRANCH  14  16
ENDBRANCH  13  14
BRANCH  13  18
ATOM     18  N   UNL A   1      33.348  21.000  26.353  1.00  0.00    -0.326 N 
ATOM     19  C   UNL A   1      32.998  19.900  25.631  1.00  0.00     0.312 C 
ATOM     20  H   UNL A   1      33.477  20.920  27.326  1.00  0.00     0.166 HD
ATOM     21  N   UNL A   1      32.873  18.785  26.383  1.00  0.00    -0.352 N 
ATOM     22  O   UNL A   1      32.772  19.879  24.431  1.00  0.00    -0.249 OA
ATOM     23  H   UNL A   1      33.059  18.819  27.350  1.00  0.00     0.161 HD
ATOM     24  H   UNL A   1      32.597  17.938  25.966  1.00  0.00     0.161 HD
ENDBRANCH  13  18
ENDBRANCH  11  13
ENDBRANCH   6  11
ENDBRANCH   3   5
ENDBRANCH   2   3
ENDBRANCH   1   2
BRANCH   1  25
ATOM     25  C   UNL A   1      33.331  29.045  25.850  1.00  0.00     0.275 C 
BRANCH  25  26
ATOM     26  O   UNL A   1      33.889  28.927  27.170  1.00  0.00    -0.458 OA
BRANCH  26  27
ATOM     27  C   UNL A   1      34.336  30.086  27.705  1.00  0.00     0.338 C 
ATOM     28  O   UNL A   1      33.695  31.094  27.945  1.00  0.00    -0.246 OA
BRANCH  27  29
ATOM     29  C   UNL A   1      35.730  29.907  28.126  1.00  0.00     0.060 A 
ATOM     30  C   UNL A   1      36.727  30.047  27.159  1.00  0.00     0.016 A 
ATOM     31  C   UNL A   1      36.047  29.537  29.431  1.00  0.00     0.016 A 
ATOM     32  C   UNL A   1      38.056  29.811  27.486  1.00  0.00     0.010 A 
ATOM     33  C   UNL A   1      37.384  29.300  29.761  1.00  0.00     0.010 A 
ATOM     34  C   UNL A   1      38.391  29.424  28.786  1.00  0.00    -0.014 A 
BRANCH  34  35
ATOM     35  C   UNL A   1      39.793  29.083  29.104  1.00  0.00     0.031 A 
ATOM     36  C   UNL A   1      40.680  30.124  29.722  1.00  0.00     0.074 A 
ATOM     37  C   UNL A   1      40.254  27.844  28.853  1.00  0.00     0.049 A 
ATOM     38  N   UNL A   1      41.960  30.069  29.976  1.00  0.00    -0.248 NA
ATOM     39  C   UNL A   1      40.042  31.395  30.102  1.00  0.00     0.031 C 
ATOM     40  C   UNL A   1      39.461  26.741  28.308  1.00  0.00     0.029 A 
ATOM     41  N   UNL A   1      41.505  27.309  29.016  1.00  0.00    -0.354 N 
ATOM     42  C   UNL A   1      42.292  31.308  30.510  1.00  0.00     0.074 A 
ATOM     43  C   UNL A   1      41.078  32.095  30.546  1.00  0.00     0.031 C 
ATOM     44  C   UNL A   1      40.250  25.661  28.171  1.00  0.00     0.029 A 
ATOM     45  C   UNL A   1      41.610  26.014  28.568  1.00  0.00     0.049 A 
ATOM     46  H   UNL A   1      42.258  27.804  29.414  1.00  0.00     0.167 HD
ATOM     47  C   UNL A   1      43.503  31.748  30.924  1.00  0.00     0.031 A 
ATOM     48  C   UNL A   1      42.689  25.217  28.453  1.00  0.00     0.031 A 
ATOM     49  C   UNL A   1      44.699  30.951  30.891  1.00  0.00     0.049 A 
ATOM     50  C   UNL A   1      44.032  25.745  28.878  1.00  0.00     0.074 A 
ATOM     51  C   UNL A   1      45.975  31.296  31.301  1.00  0.00     0.029 A 
ATOM     52  N   UNL A   1      44.768  29.648  30.419  1.00  0.00    -0.354 N 
ATOM     53  N   UNL A   1      44.332  26.922  29.378  1.00  0.00    -0.248 NA
ATOM     54  C   UNL A   1      45.180  24.843  28.723  1.00  0.00     0.031 C 
ATOM     55  C   UNL A   1      46.824  30.216  31.034  1.00  0.00     0.029 A 
ATOM     56  C   UNL A   1      46.067  29.181  30.507  1.00  0.00     0.049 A 
ATOM     57  H   UNL A   1      44.004  29.132  30.073  1.00  0.00     0.167 HD
ATOM     58  C   UNL A   1      45.701  26.894  29.613  1.00  0.00     0.074 A 
ATOM     59  C   UNL A   1      46.167  25.579  29.217  1.00  0.00     0.031 C 
ATOM     60  C   UNL A   1      46.504  27.868  30.108  1.00  0.00     0.031 A 
BRANCH  47  61
ATOM     61  C   UNL A   1      43.602  33.171  31.400  1.00  0.00    -0.014 A 
ATOM     62  C   UNL A   1      43.404  33.510  32.750  1.00  0.00     0.010 A 
ATOM     63  C   UNL A   1      43.942  34.182  30.482  1.00  0.00     0.010 A 
ATOM     64  C   UNL A   1      43.519  34.839  33.168  1.00  0.00     0.020 A 
ATOM     65  C   UNL A   1      44.079  35.509  30.900  1.00  0.00     0.020 A 
ATOM     66  C   UNL A   1      43.854  35.830  32.240  1.00  0.00     0.054 A 
BRANCH  66  67
ATOM     67  S   UNL A   1      44.027  37.543  32.813  1.00  0.00     0.124 S 
ATOM     68  O   UNL A   1      45.375  37.538  33.373  1.00  0.00    -0.237 OA
ATOM     69  O   UNL A   1      43.861  38.312  31.582  1.00  0.00    -0.237 OA
ATOM     70  O   UNL A   1      42.949  37.693  33.788  1.00  0.00    -0.744 OA
ENDBRANCH  66  67
ENDBRANCH  47  61
BRANCH  48  71
ATOM     71  C   UNL A   1      42.549  23.858  27.865  1.00  0.00    -0.014 A 
ATOM     72  C   UNL A   1      42.639  23.659  26.477  1.00  0.00     0.010 A 
ATOM     73  C   UNL A   1      42.331  22.747  28.702  1.00  0.00     0.010 A 
ATOM     74  C   UNL A   1      42.497  22.377  25.935  1.00  0.00     0.020 A 
ATOM     75  C   UNL A   1      42.217  21.461  28.167  1.00  0.00     0.020 A 
ATOM     76  C   UNL A   1      42.288  21.286  26.785  1.00  0.00     0.054 A 
BRANCH  76  77
ATOM     77  S   UNL A   1      42.158  19.626  26.067  1.00  0.00     0.124 S 
ATOM     78  O   UNL A   1      42.564  18.779  27.184  1.00  0.00    -0.237 OA
ATOM     79  O   UNL A   1      40.748  19.549  25.693  1.00  0.00    -0.237 OA
ATOM     80  O   UNL A   1      43.090  19.668  24.941  1.00  0.00    -0.744 OA
ENDBRANCH  76  77
ENDBRANCH  48  71
BRANCH  60  81
ATOM     81  C   UNL A   1      47.961  27.537  30.281  1.00  0.00    -0.014 A 
ATOM     82  C   UNL A   1      48.907  27.889  29.304  1.00  0.00     0.010 A 
ATOM     83  C   UNL A   1      48.392  26.912  31.466  1.00  0.00     0.010 A 
ATOM     84  C   UNL A   1      50.259  27.596  29.496  1.00  0.00     0.020 A 
ATOM     85  C   UNL A   1      49.746  26.640  31.672  1.00  0.00     0.020 A 
ATOM     86  C   UNL A   1      50.670  26.971  30.679  1.00  0.00     0.054 A 
BRANCH  86  87
ATOM     87  S   UNL A   1      52.435  26.640  30.926  1.00  0.00     0.124 S 
ATOM     88  O   UNL A   1      52.412  25.691  32.036  1.00  0.00    -0.237 OA
ATOM     89  O   UNL A   1      52.844  26.089  29.637  1.00  0.00    -0.237 OA
ATOM     90  O   UNL A   1      52.993  27.953  31.240  1.00  0.00    -0.744 OA
ENDBRANCH  86  87
ENDBRANCH  60  81
ENDBRANCH  34  35
ENDBRANCH  27  29
ENDBRANCH  26  27
ENDBRANCH  25  26
ENDBRANCH   1  25
TORSDOF 19
ENDMDL
MODEL 3
REMARK VINA RESULT:      -9.5      2.108      2.510
REMARK SMILES CC[C@@H](C)[C@@H](NC(N)=O)C(=O)N1CCC[C@H](C(=O)OCCOC(=O)c2ccc(-c3c4nc(c(-c5ccc(S(=O)(=O)[O-])cc5)c5ccc([nH]5)c(-c5ccc(S(=O)(=O)[O-])cc5)c5nc(c(-c6ccc(S(=O)(=O)[O-])cc6)c6ccc3[nH]6)C=C5)C=C4)cc2)C1
REMARK SMILES IDX 20 1 19 2 17 3 18 4 16 5 12 6 13 7 85 8 14 9 15 10 10 11
REMARK SMILES IDX 11 12 5 13 3 14 4 15 2 16 1 17 6 18 7 19 8 21 9 22 21 25
REMARK SMILES IDX 22 26 23 27 24 28 25 29 26 30 84 31 27 32 83 33 28 34 29 35
REMARK SMILES IDX 30 36 77 37 31 38 82 39 76 40 78 41 32 42 81 43 75 44 74 45
REMARK SMILES IDX 33 47 63 48 44 49 62 50 45 51 48 52 61 53 79 54 46 55 47 56
REMARK SMILES IDX 60 58 80 59 49 60 34 61 35 62 43 63 36 64 42 65 37 66 38 67
REMARK SMILES IDX 39 68 40 69 41 70 64 71 65 72 73 73 66 74 72 75 67 76 68 77
REMARK SMILES IDX 69 78 70 79 71 80 50 81 51 82 59 83 52 84 58 85 53 86 54 87
REMARK SMILES IDX 55 88 56 89 57 90
REMARK H PARENT 6 20 8 23 8 24 78 46 48 57
REMARK Flexibility Score: inf
ROOT
ATOM      1  C   UNL A   1      36.616  22.541  23.771  1.00  0.00     0.274 C 
ENDROOT
BRANCH   1   2
ATOM      2  O   UNL A   1      35.696  23.634  23.942  1.00  0.00    -0.462 OA
BRANCH   2   3
ATOM      3  C   UNL A   1      34.533  23.403  24.594  1.00  0.00     0.310 C 
ATOM      4  O   UNL A   1      34.258  23.828  25.710  1.00  0.00    -0.252 OA
BRANCH   3   5
ATOM      5  C   UNL A   1      33.575  22.512  23.810  1.00  0.00     0.119 C 
ATOM      6  N   UNL A   1      32.457  24.347  22.679  1.00  0.00    -0.340 N 
ATOM      7  C   UNL A   1      31.165  24.104  23.309  1.00  0.00     0.119 C 
ATOM      8  C   UNL A   1      33.267  23.161  22.463  1.00  0.00     0.134 C 
ATOM      9  C   UNL A   1      31.275  23.315  24.612  1.00  0.00     0.022 C 
ATOM     10  C   UNL A   1      32.270  22.151  24.533  1.00  0.00     0.019 C 
BRANCH   6  11
ATOM     11  C   UNL A   1      32.957  25.645  22.602  1.00  0.00     0.245 C 
ATOM     12  O   UNL A   1      33.833  25.937  21.782  1.00  0.00    -0.272 OA
BRANCH  11  13
ATOM     13  C   UNL A   1      32.348  26.743  23.542  1.00  0.00     0.176 C 
BRANCH  13  14
ATOM     14  C   UNL A   1      33.080  26.957  24.898  1.00  0.00     0.018 C 
ATOM     15  C   UNL A   1      32.113  26.901  26.088  1.00  0.00     0.010 C 
BRANCH  14  16
ATOM     16  C   UNL A   1      33.857  28.298  24.924  1.00  0.00     0.002 C 
ATOM     17  C   UNL A   1      33.737  29.028  26.258  1.00  0.00     0.004 C 
ENDBRANCH  14  16
ENDBRANCH  13  14
BRANCH  13  18
ATOM     18  N   UNL A   1      32.248  27.995  22.777  1.00  0.00    -0.326 N 
ATOM     19  C   UNL A   1      31.040  28.569  22.527  1.00  0.00     0.312 C 
ATOM     20  H   UNL A   1      33.069  28.424  22.440  1.00  0.00     0.166 HD
ATOM     21  N   UNL A   1      31.130  29.717  21.819  1.00  0.00    -0.352 N 
ATOM     22  O   UNL A   1      29.954  28.116  22.857  1.00  0.00    -0.249 OA
ATOM     23  H   UNL A   1      32.013  30.069  21.562  1.00  0.00     0.161 HD
ATOM     24  H   UNL A   1      30.313  30.201  21.561  1.00  0.00     0.161 HD
ENDBRANCH  13  18
ENDBRANCH  11  13
ENDBRANCH   6  11
ENDBRANCH   3   5
ENDBRANCH   2   3
ENDBRANCH   1   2
BRANCH   1  25
ATOM     25  C   UNL A   1      37.175  22.097  25.122  1.00  0.00     0.275 C 
BRANCH  25  26
ATOM     26  O   UNL A   1      37.879  23.180  25.756  1.00  0.00    -0.458 OA
BRANCH  26  27
ATOM     27  C   UNL A   1      38.994  22.816  26.431  1.00  0.00     0.338 C 
ATOM     28  O   UNL A   1      39.424  21.691  26.613  1.00  0.00    -0.246 OA
BRANCH  27  29
ATOM     29  C   UNL A   1      39.739  24.026  26.799  1.00  0.00     0.060 A 
ATOM     30  C   UNL A   1      40.075  24.202  28.143  1.00  0.00     0.016 A 
ATOM     31  C   UNL A   1      40.040  25.003  25.853  1.00  0.00     0.016 A 
ATOM     32  C   UNL A   1      40.710  25.365  28.558  1.00  0.00     0.010 A 
ATOM     33  C   UNL A   1      40.679  26.173  26.270  1.00  0.00     0.010 A 
ATOM     34  C   UNL A   1      41.006  26.363  27.626  1.00  0.00    -0.014 A 
BRANCH  34  35
ATOM     35  C   UNL A   1      41.596  27.637  28.087  1.00  0.00     0.031 A 
ATOM     36  C   UNL A   1      43.084  27.819  28.029  1.00  0.00     0.074 A 
ATOM     37  C   UNL A   1      40.796  28.621  28.537  1.00  0.00     0.049 A 
ATOM     38  N   UNL A   1      43.811  28.806  28.483  1.00  0.00    -0.248 NA
ATOM     39  C   UNL A   1      43.857  26.750  27.376  1.00  0.00     0.031 C 
ATOM     40  C   UNL A   1      39.334  28.569  28.581  1.00  0.00     0.029 A 
ATOM     41  N   UNL A   1      41.104  29.853  29.051  1.00  0.00    -0.354 N 
ATOM     42  C   UNL A   1      45.128  28.461  28.207  1.00  0.00     0.074 A 
ATOM     43  C   UNL A   1      45.102  27.175  27.544  1.00  0.00     0.031 C 
ATOM     44  C   UNL A   1      38.871  29.716  29.107  1.00  0.00     0.029 A 
ATOM     45  C   UNL A   1      40.005  30.557  29.481  1.00  0.00     0.049 A 
ATOM     46  H   UNL A   1      42.023  30.202  29.108  1.00  0.00     0.167 HD
ATOM     47  C   UNL A   1      46.255  29.155  28.490  1.00  0.00     0.031 A 
ATOM     48  C   UNL A   1      39.924  31.729  30.141  1.00  0.00     0.031 A 
ATOM     49  C   UNL A   1      46.264  30.438  29.140  1.00  0.00     0.049 A 
ATOM     50  C   UNL A   1      41.194  32.459  30.484  1.00  0.00     0.074 A 
ATOM     51  C   UNL A   1      47.351  31.233  29.460  1.00  0.00     0.029 A 
ATOM     52  N   UNL A   1      45.132  31.113  29.573  1.00  0.00    -0.354 N 
ATOM     53  N   UNL A   1      42.435  32.119  30.220  1.00  0.00    -0.248 NA
ATOM     54  C   UNL A   1      41.055  33.725  31.214  1.00  0.00     0.031 C 
ATOM     55  C   UNL A   1      46.877  32.368  30.127  1.00  0.00     0.029 A 
ATOM     56  C   UNL A   1      45.493  32.305  30.176  1.00  0.00     0.049 A 
ATOM     57  H   UNL A   1      44.207  30.791  29.466  1.00  0.00     0.167 HD
ATOM     58  C   UNL A   1      43.223  33.140  30.736  1.00  0.00     0.074 A 
ATOM     59  C   UNL A   1      42.319  34.116  31.312  1.00  0.00     0.031 C 
ATOM     60  C   UNL A   1      44.574  33.260  30.739  1.00  0.00     0.031 A 
BRANCH  47  61
ATOM     61  C   UNL A   1      47.572  28.518  28.142  1.00  0.00    -0.014 A 
ATOM     62  C   UNL A   1      48.198  28.752  26.906  1.00  0.00     0.010 A 
ATOM     63  C   UNL A   1      48.214  27.702  29.092  1.00  0.00     0.010 A 
ATOM     64  C   UNL A   1      49.430  28.160  26.615  1.00  0.00     0.020 A 
ATOM     65  C   UNL A   1      49.456  27.126  28.814  1.00  0.00     0.020 A 
ATOM     66  C   UNL A   1      50.050  27.348  27.571  1.00  0.00     0.054 A 
BRANCH  66  67
ATOM     67  S   UNL A   1      51.664  26.616  27.181  1.00  0.00     0.124 S 
ATOM     68  O   UNL A   1      51.381  25.187  27.295  1.00  0.00    -0.237 OA
ATOM     69  O   UNL A   1      51.917  27.098  25.826  1.00  0.00    -0.237 OA
ATOM     70  O   UNL A   1      52.549  27.159  28.208  1.00  0.00    -0.744 OA
ENDBRANCH  66  67
ENDBRANCH  47  61
BRANCH  48  71
ATOM     71  C   UNL A   1      38.598  32.253  30.563  1.00  0.00    -0.014 A 
ATOM     72  C   UNL A   1      38.085  31.974  31.840  1.00  0.00     0.010 A 
ATOM     73  C   UNL A   1      37.841  33.048  29.680  1.00  0.00     0.010 A 
ATOM     74  C   UNL A   1      36.832  32.467  32.223  1.00  0.00     0.020 A 
ATOM     75  C   UNL A   1      36.603  33.565  30.068  1.00  0.00     0.020 A 
ATOM     76  C   UNL A   1      36.100  33.260  31.333  1.00  0.00     0.054 A 
BRANCH  76  77
ATOM     77  S   UNL A   1      34.501  33.932  31.867  1.00  0.00     0.124 S 
ATOM     78  O   UNL A   1      33.871  34.263  30.593  1.00  0.00    -0.237 OA
ATOM     79  O   UNL A   1      33.912  32.810  32.593  1.00  0.00    -0.237 OA
ATOM     80  O   UNL A   1      34.873  35.075  32.698  1.00  0.00    -0.744 OA
ENDBRANCH  76  77
ENDBRANCH  48  71
BRANCH  60  81
ATOM     81  C   UNL A   1      45.153  34.505  31.352  1.00  0.00    -0.014 A 
ATOM     82  C   UNL A   1      45.491  34.553  32.715  1.00  0.00     0.010 A 
ATOM     83  C   UNL A   1      45.410  35.622  30.537  1.00  0.00     0.010 A 
ATOM     84  C   UNL A   1      46.053  35.710  33.260  1.00  0.00     0.020 A 
ATOM     85  C   UNL A   1      45.995  36.771  31.073  1.00  0.00     0.020 A 
ATOM     86  C   UNL A   1      46.299  36.813  32.435  1.00  0.00     0.054 A 
BRANCH  86  87
ATOM     87  S   UNL A   1      47.069  38.290  33.154  1.00  0.00     0.124 S 
ATOM     88  O   UNL A   1      46.482  39.358  32.351  1.00  0.00    -0.237 OA
ATOM     89  O   UNL A   1      46.631  38.236  34.547  1.00  0.00    -0.237 OA
ATOM     90  O   UNL A   1      48.499  38.068  32.949  1.00  0.00    -0.744 OA
ENDBRANCH  86  87
ENDBRANCH  60  81
ENDBRANCH  34  35
ENDBRANCH  27  29
ENDBRANCH  26  27
ENDBRANCH  25  26
ENDBRANCH   1  25
TORSDOF 19
ENDMDL
