MODEL 1
REMARK VINA RESULT:     -12.2      0.000      0.000
REMARK SMILES O=C(OCCOC(=O)[C@H]1Cc2[nH]cnc2CN1S(=O)(=O)c1cccs1)c1ccc(-c2c3nc(c(-c4ccc(S(=O)(=O)[O-])cc4)c4ccc([nH]4)c(-c4ccc(S(=O)(=O)[O-])cc4)c4nc(c(-c5ccc(S(=O)(=O)[O-])cc5)c5ccc2[nH]5)C=C4)C=C3)cc1
REMARK SMILES IDX 4 1 3 2 2 3 1 4 26 5 27 6 85 7 28 8 84 9 29 10 30 11 31 12
REMARK SMILES IDX 78 13 32 14 83 15 77 16 79 17 33 18 82 19 76 20 75 21 34 23
REMARK SMILES IDX 64 24 45 25 63 26 46 27 49 28 62 29 80 30 47 31 48 32 61 34
REMARK SMILES IDX 81 35 50 36 35 37 36 38 44 39 37 40 43 41 38 42 39 43 40 44
REMARK SMILES IDX 41 45 42 46 65 47 66 48 74 49 67 50 73 51 68 52 69 53 70 54
REMARK SMILES IDX 71 55 72 56 51 57 52 58 60 59 53 60 59 61 54 62 55 63 56 64
REMARK SMILES IDX 57 65 58 66 5 67 6 68 7 69 8 70 9 71 10 72 17 73 11 74 16 75
REMARK SMILES IDX 12 76 15 77 13 78 14 80 18 81 19 82 20 83 21 84 22 85 25 86
REMARK SMILES IDX 23 87 24 88
REMARK H PARENT 79 22 49 33 12 79
REMARK Flexibility Score: inf
ROOT
ATOM      1  C   UNL A   1      37.754  21.390  25.125  1.00  0.00     0.275 C 
ENDROOT
BRANCH   1   2
ATOM      2  O   UNL A   1      38.368  22.042  26.251  1.00  0.00    -0.458 OA
BRANCH   2   3
ATOM      3  C   UNL A   1      39.655  22.274  26.578  1.00  0.00     0.338 C 
ATOM      4  O   UNL A   1      40.454  21.339  26.514  1.00  0.00    -0.246 OA
BRANCH   3   5
ATOM      5  C   UNL A   1      40.203  23.608  26.958  1.00  0.00     0.060 A 
ATOM      6  C   UNL A   1      41.397  23.825  27.650  1.00  0.00     0.016 A 
ATOM      7  C   UNL A   1      39.322  24.693  26.773  1.00  0.00     0.016 A 
ATOM      8  C   UNL A   1      41.641  25.052  28.254  1.00  0.00     0.010 A 
ATOM      9  C   UNL A   1      39.542  25.906  27.406  1.00  0.00     0.010 A 
ATOM     10  C   UNL A   1      40.671  26.052  28.202  1.00  0.00    -0.014 A 
BRANCH  10  11
ATOM     11  C   UNL A   1      40.903  27.289  28.932  1.00  0.00     0.031 A 
ATOM     12  C   UNL A   1      41.974  28.132  28.343  1.00  0.00     0.074 A 
ATOM     13  C   UNL A   1      40.119  27.695  29.955  1.00  0.00     0.049 A 
ATOM     14  N   UNL A   1      43.142  28.395  28.829  1.00  0.00    -0.248 NA
ATOM     15  C   UNL A   1      41.787  28.604  26.960  1.00  0.00     0.031 C 
ATOM     16  C   UNL A   1      38.870  27.090  30.427  1.00  0.00     0.029 A 
ATOM     17  N   UNL A   1      40.213  28.816  30.721  1.00  0.00    -0.354 N 
ATOM     18  C   UNL A   1      43.723  29.294  27.939  1.00  0.00     0.074 A 
ATOM     19  C   UNL A   1      42.949  29.214  26.728  1.00  0.00     0.031 C 
ATOM     20  C   UNL A   1      38.208  27.980  31.205  1.00  0.00     0.029 A 
ATOM     21  C   UNL A   1      39.041  29.157  31.395  1.00  0.00     0.049 A 
ATOM     22  H   UNL A   1      41.041  29.344  30.793  1.00  0.00     0.167 HD
ATOM     23  C   UNL A   1      44.601  30.248  28.361  1.00  0.00     0.031 A 
ATOM     24  C   UNL A   1      38.761  30.343  32.002  1.00  0.00     0.031 A 
ATOM     25  C   UNL A   1      45.135  29.942  29.664  1.00  0.00     0.049 A 
ATOM     26  C   UNL A   1      40.055  31.033  32.232  1.00  0.00     0.074 A 
ATOM     27  C   UNL A   1      45.791  28.857  30.216  1.00  0.00     0.029 A 
ATOM     28  N   UNL A   1      44.650  30.664  30.731  1.00  0.00    -0.354 N 
ATOM     29  N   UNL A   1      40.958  30.591  33.062  1.00  0.00    -0.248 NA
ATOM     30  C   UNL A   1      40.545  31.922  31.189  1.00  0.00     0.031 C 
ATOM     31  C   UNL A   1      45.213  28.706  31.511  1.00  0.00     0.029 A 
ATOM     32  C   UNL A   1      44.324  29.762  31.710  1.00  0.00     0.049 A 
ATOM     33  H   UNL A   1      44.555  31.642  30.781  1.00  0.00     0.167 HD
ATOM     34  C   UNL A   1      42.162  30.769  32.398  1.00  0.00     0.074 A 
ATOM     35  C   UNL A   1      41.853  31.666  31.282  1.00  0.00     0.031 C 
ATOM     36  C   UNL A   1      43.229  29.949  32.634  1.00  0.00     0.031 A 
BRANCH  23  37
ATOM     37  C   UNL A   1      44.611  31.654  27.802  1.00  0.00    -0.014 A 
ATOM     38  C   UNL A   1      45.716  32.073  27.035  1.00  0.00     0.010 A 
ATOM     39  C   UNL A   1      43.726  32.663  28.243  1.00  0.00     0.010 A 
ATOM     40  C   UNL A   1      45.969  33.431  26.802  1.00  0.00     0.020 A 
ATOM     41  C   UNL A   1      43.940  34.014  27.974  1.00  0.00     0.020 A 
ATOM     42  C   UNL A   1      45.082  34.393  27.286  1.00  0.00     0.054 A 
BRANCH  42  43
ATOM     43  S   UNL A   1      45.458  36.146  27.061  1.00  0.00     0.124 S 
ATOM     44  O   UNL A   1      44.125  36.718  26.901  1.00  0.00    -0.237 OA
ATOM     45  O   UNL A   1      46.147  36.471  28.307  1.00  0.00    -0.237 OA
ATOM     46  O   UNL A   1      46.299  36.162  25.867  1.00  0.00    -0.744 OA
ENDBRANCH  42  43
ENDBRANCH  23  37
BRANCH  24  47
ATOM     47  C   UNL A   1      37.458  31.061  32.092  1.00  0.00    -0.014 A 
ATOM     48  C   UNL A   1      37.032  31.664  33.294  1.00  0.00     0.010 A 
ATOM     49  C   UNL A   1      36.763  31.407  30.916  1.00  0.00     0.010 A 
ATOM     50  C   UNL A   1      36.000  32.623  33.306  1.00  0.00     0.020 A 
ATOM     51  C   UNL A   1      35.730  32.356  30.920  1.00  0.00     0.020 A 
ATOM     52  C   UNL A   1      35.369  32.980  32.111  1.00  0.00     0.054 A 
BRANCH  52  53
ATOM     53  S   UNL A   1      34.171  34.349  32.095  1.00  0.00     0.124 S 
ATOM     54  O   UNL A   1      33.778  34.405  30.690  1.00  0.00    -0.237 OA
ATOM     55  O   UNL A   1      33.142  33.885  33.021  1.00  0.00    -0.237 OA
ATOM     56  O   UNL A   1      34.951  35.494  32.565  1.00  0.00    -0.744 OA
ENDBRANCH  52  53
ENDBRANCH  24  47
BRANCH  36  57
ATOM     57  C   UNL A   1      43.185  29.014  33.819  1.00  0.00    -0.014 A 
ATOM     58  C   UNL A   1      43.640  29.345  35.112  1.00  0.00     0.010 A 
ATOM     59  C   UNL A   1      42.515  27.792  33.638  1.00  0.00     0.010 A 
ATOM     60  C   UNL A   1      43.459  28.455  36.183  1.00  0.00     0.020 A 
ATOM     61  C   UNL A   1      42.314  26.913  34.702  1.00  0.00     0.020 A 
ATOM     62  C   UNL A   1      42.799  27.241  35.968  1.00  0.00     0.054 A 
BRANCH  62  63
ATOM     63  S   UNL A   1      42.551  26.094  37.351  1.00  0.00     0.124 S 
ATOM     64  O   UNL A   1      43.507  26.582  38.342  1.00  0.00    -0.237 OA
ATOM     65  O   UNL A   1      41.141  26.290  37.684  1.00  0.00    -0.237 OA
ATOM     66  O   UNL A   1      42.866  24.785  36.780  1.00  0.00    -0.744 OA
ENDBRANCH  62  63
ENDBRANCH  36  57
ENDBRANCH  10  11
ENDBRANCH   3   5
ENDBRANCH   2   3
ENDBRANCH   1   2
BRANCH   1  67
ATOM     67  C   UNL A   1      36.675  22.224  24.448  1.00  0.00     0.274 C 
BRANCH  67  68
ATOM     68  O   UNL A   1      36.058  23.207  25.297  1.00  0.00    -0.461 OA
BRANCH  68  69
ATOM     69  C   UNL A   1      34.702  23.189  25.354  1.00  0.00     0.325 C 
ATOM     70  O   UNL A   1      34.024  24.127  25.743  1.00  0.00    -0.250 OA
BRANCH  69  71
ATOM     71  C   UNL A   1      34.088  21.874  24.945  1.00  0.00     0.189 C 
ATOM     72  C   UNL A   1      33.661  21.086  26.220  1.00  0.00     0.088 C 
ATOM     73  N   UNL A   1      32.924  21.970  23.949  1.00  0.00    -0.176 NA
ATOM     74  C   UNL A   1      33.089  19.800  25.784  1.00  0.00     0.041 A 
ATOM     75  C   UNL A   1      32.536  20.575  23.432  1.00  0.00     0.161 C 
ATOM     76  N   UNL A   1      32.986  18.630  26.472  1.00  0.00    -0.348 N 
ATOM     77  C   UNL A   1      32.572  19.566  24.535  1.00  0.00     0.077 A 
ATOM     78  C   UNL A   1      32.456  17.716  25.595  1.00  0.00     0.197 A 
ATOM     79  H   UNL A   1      33.240  18.470  27.409  1.00  0.00     0.167 HD
ATOM     80  N   UNL A   1      32.189  18.257  24.424  1.00  0.00    -0.240 NA
BRANCH  73  81
ATOM     81  S   UNL A   1      33.172  22.978  22.571  1.00  0.00     0.253 S 
ATOM     82  O   UNL A   1      34.582  23.259  22.491  1.00  0.00    -0.206 OA
ATOM     83  O   UNL A   1      32.493  22.337  21.452  1.00  0.00    -0.206 OA
BRANCH  81  84
ATOM     84  C   UNL A   1      32.375  24.571  22.711  1.00  0.00     0.135 A 
ATOM     85  C   UNL A   1      31.083  24.924  23.067  1.00  0.00     0.033 A 
ATOM     86  S   UNL A   1      33.328  25.961  22.411  1.00  0.00    -0.131 S 
ATOM     87  C   UNL A   1      30.860  26.329  23.029  1.00  0.00     0.013 A 
ATOM     88  C   UNL A   1      32.014  27.016  22.733  1.00  0.00     0.066 A 
ENDBRANCH  81  84
ENDBRANCH  73  81
ENDBRANCH  69  71
ENDBRANCH  68  69
ENDBRANCH  67  68
ENDBRANCH   1  67
TORSDOF 16
ENDMDL
MODEL 2
REMARK VINA RESULT:     -12.1      3.244      9.486
REMARK SMILES O=C(OCCOC(=O)[C@H]1Cc2[nH]cnc2CN1S(=O)(=O)c1cccs1)c1ccc(-c2c3nc(c(-c4ccc(S(=O)(=O)[O-])cc4)c4ccc([nH]4)c(-c4ccc(S(=O)(=O)[O-])cc4)c4nc(c(-c5ccc(S(=O)(=O)[O-])cc5)c5ccc2[nH]5)C=C4)C=C3)cc1
REMARK SMILES IDX 4 1 3 2 2 3 1 4 26 5 27 6 85 7 28 8 84 9 29 10 30 11 31 12
REMARK SMILES IDX 78 13 32 14 83 15 77 16 79 17 33 18 82 19 76 20 75 21 34 23
REMARK SMILES IDX 64 24 45 25 63 26 46 27 49 28 62 29 80 30 47 31 48 32 61 34
REMARK SMILES IDX 81 35 50 36 35 37 36 38 44 39 37 40 43 41 38 42 39 43 40 44
REMARK SMILES IDX 41 45 42 46 65 47 66 48 74 49 67 50 73 51 68 52 69 53 70 54
REMARK SMILES IDX 71 55 72 56 51 57 52 58 60 59 53 60 59 61 54 62 55 63 56 64
REMARK SMILES IDX 57 65 58 66 5 67 6 68 7 69 8 70 9 71 10 72 17 73 11 74 16 75
REMARK SMILES IDX 12 76 15 77 13 78 14 80 18 81 19 82 20 83 21 84 22 85 25 86
REMARK SMILES IDX 23 87 24 88
REMARK H PARENT 79 22 49 33 12 79
REMARK Flexibility Score: inf
ROOT
ATOM      1  C   UNL A   1      32.471  30.107  27.161  1.00  0.00     0.275 C 
ENDROOT
BRANCH   1   2
ATOM      2  O   UNL A   1      33.784  30.639  26.911  1.00  0.00    -0.458 OA
BRANCH   2   3
ATOM      3  C   UNL A   1      34.609  31.412  27.646  1.00  0.00     0.338 C 
ATOM      4  O   UNL A   1      34.313  32.596  27.809  1.00  0.00    -0.246 OA
BRANCH   3   5
ATOM      5  C   UNL A   1      35.835  30.919  28.337  1.00  0.00     0.060 A 
ATOM      6  C   UNL A   1      36.783  31.724  28.975  1.00  0.00     0.016 A 
ATOM      7  C   UNL A   1      36.134  29.556  28.131  1.00  0.00     0.016 A 
ATOM      8  C   UNL A   1      38.041  31.216  29.275  1.00  0.00     0.010 A 
ATOM      9  C   UNL A   1      37.400  29.057  28.393  1.00  0.00     0.010 A 
ATOM     10  C   UNL A   1      38.368  29.914  28.900  1.00  0.00    -0.014 A 
BRANCH  10  11
ATOM     11  C   UNL A   1      39.724  29.441  29.128  1.00  0.00     0.031 A 
ATOM     12  C   UNL A   1      40.037  29.207  30.560  1.00  0.00     0.074 A 
ATOM     13  C   UNL A   1      40.563  29.107  28.122  1.00  0.00     0.049 A 
ATOM     14  N   UNL A   1      40.843  29.873  31.321  1.00  0.00    -0.248 NA
ATOM     15  C   UNL A   1      39.224  28.214  31.282  1.00  0.00     0.031 C 
ATOM     16  C   UNL A   1      40.263  29.021  26.690  1.00  0.00     0.029 A 
ATOM     17  N   UNL A   1      41.845  28.653  28.183  1.00  0.00    -0.354 N 
ATOM     18  C   UNL A   1      40.844  29.202  32.540  1.00  0.00     0.074 A 
ATOM     19  C   UNL A   1      39.689  28.342  32.524  1.00  0.00     0.031 C 
ATOM     20  C   UNL A   1      41.235  28.309  26.071  1.00  0.00     0.029 A 
ATOM     21  C   UNL A   1      42.287  28.007  27.029  1.00  0.00     0.049 A 
ATOM     22  H   UNL A   1      42.414  28.770  28.978  1.00  0.00     0.167 HD
ATOM     23  C   UNL A   1      41.949  29.179  33.340  1.00  0.00     0.031 A 
ATOM     24  C   UNL A   1      43.398  27.231  26.899  1.00  0.00     0.031 A 
ATOM     25  C   UNL A   1      42.883  30.217  32.988  1.00  0.00     0.049 A 
ATOM     26  C   UNL A   1      44.295  27.559  28.035  1.00  0.00     0.074 A 
ATOM     27  C   UNL A   1      42.804  31.591  32.854  1.00  0.00     0.029 A 
ATOM     28  N   UNL A   1      44.017  29.842  32.304  1.00  0.00    -0.354 N 
ATOM     29  N   UNL A   1      44.875  28.719  28.171  1.00  0.00    -0.248 NA
ATOM     30  C   UNL A   1      44.153  26.783  29.258  1.00  0.00     0.031 C 
ATOM     31  C   UNL A   1      43.564  31.884  31.683  1.00  0.00     0.029 A 
ATOM     32  C   UNL A   1      44.142  30.695  31.238  1.00  0.00     0.049 A 
ATOM     33  H   UNL A   1      44.622  29.102  32.535  1.00  0.00     0.167 HD
ATOM     34  C   UNL A   1      44.761  29.012  29.522  1.00  0.00     0.074 A 
ATOM     35  C   UNL A   1      44.379  27.747  30.155  1.00  0.00     0.031 C 
ATOM     36  C   UNL A   1      44.699  30.303  29.964  1.00  0.00     0.031 A 
BRANCH  23  37
ATOM     37  C   UNL A   1      42.372  27.948  34.112  1.00  0.00    -0.014 A 
ATOM     38  C   UNL A   1      42.298  27.969  35.519  1.00  0.00     0.010 A 
ATOM     39  C   UNL A   1      43.111  26.893  33.531  1.00  0.00     0.010 A 
ATOM     40  C   UNL A   1      42.999  27.040  36.299  1.00  0.00     0.020 A 
ATOM     41  C   UNL A   1      43.770  25.933  34.297  1.00  0.00     0.020 A 
ATOM     42  C   UNL A   1      43.741  26.034  35.679  1.00  0.00     0.054 A 
BRANCH  42  43
ATOM     43  S   UNL A   1      44.715  24.894  36.687  1.00  0.00     0.124 S 
ATOM     44  O   UNL A   1      44.249  23.599  36.204  1.00  0.00    -0.237 OA
ATOM     45  O   UNL A   1      46.081  25.257  36.323  1.00  0.00    -0.237 OA
ATOM     46  O   UNL A   1      44.327  25.234  38.054  1.00  0.00    -0.744 OA
ENDBRANCH  42  43
ENDBRANCH  23  37
BRANCH  24  47
ATOM     47  C   UNL A   1      43.591  26.009  26.069  1.00  0.00    -0.014 A 
ATOM     48  C   UNL A   1      44.838  25.708  25.482  1.00  0.00     0.010 A 
ATOM     49  C   UNL A   1      42.626  24.982  26.094  1.00  0.00     0.010 A 
ATOM     50  C   UNL A   1      45.128  24.414  25.003  1.00  0.00     0.020 A 
ATOM     51  C   UNL A   1      42.904  23.694  25.614  1.00  0.00     0.020 A 
ATOM     52  C   UNL A   1      44.163  23.408  25.094  1.00  0.00     0.054 A 
BRANCH  52  53
ATOM     53  S   UNL A   1      44.599  21.697  24.651  1.00  0.00     0.124 S 
ATOM     54  O   UNL A   1      43.532  20.928  25.287  1.00  0.00    -0.237 OA
ATOM     55  O   UNL A   1      44.571  21.727  23.192  1.00  0.00    -0.237 OA
ATOM     56  O   UNL A   1      45.926  21.517  25.239  1.00  0.00    -0.744 OA
ENDBRANCH  52  53
ENDBRANCH  24  47
BRANCH  36  57
ATOM     57  C   UNL A   1      45.029  31.422  29.004  1.00  0.00    -0.014 A 
ATOM     58  C   UNL A   1      46.295  32.030  28.894  1.00  0.00     0.010 A 
ATOM     59  C   UNL A   1      44.037  31.767  28.070  1.00  0.00     0.010 A 
ATOM     60  C   UNL A   1      46.545  32.987  27.897  1.00  0.00     0.020 A 
ATOM     61  C   UNL A   1      44.285  32.702  27.064  1.00  0.00     0.020 A 
ATOM     62  C   UNL A   1      45.533  33.319  26.990  1.00  0.00     0.054 A 
BRANCH  62  63
ATOM     63  S   UNL A   1      45.856  34.544  25.692  1.00  0.00     0.124 S 
ATOM     64  O   UNL A   1      47.281  34.363  25.432  1.00  0.00    -0.237 OA
ATOM     65  O   UNL A   1      44.959  34.120  24.617  1.00  0.00    -0.237 OA
ATOM     66  O   UNL A   1      45.498  35.817  26.317  1.00  0.00    -0.744 OA
ENDBRANCH  62  63
ENDBRANCH  36  57
ENDBRANCH  10  11
ENDBRANCH   3   5
ENDBRANCH   2   3
ENDBRANCH   1   2
BRANCH   1  67
ATOM     67  C   UNL A   1      32.385  28.594  27.009  1.00  0.00     0.274 C 
BRANCH  67  68
ATOM     68  O   UNL A   1      33.454  28.008  26.247  1.00  0.00    -0.461 OA
BRANCH  68  69
ATOM     69  C   UNL A   1      33.179  27.711  24.950  1.00  0.00     0.325 C 
ATOM     70  O   UNL A   1      34.033  27.529  24.097  1.00  0.00    -0.250 OA
BRANCH  69  71
ATOM     71  C   UNL A   1      31.707  27.681  24.627  1.00  0.00     0.189 C 
ATOM     72  C   UNL A   1      31.391  28.770  23.557  1.00  0.00     0.088 C 
ATOM     73  N   UNL A   1      31.153  26.316  24.195  1.00  0.00    -0.176 NA
ATOM     74  C   UNL A   1      29.943  28.727  23.285  1.00  0.00     0.041 A 
ATOM     75  C   UNL A   1      29.618  26.353  24.119  1.00  0.00     0.161 C 
ATOM     76  N   UNL A   1      29.133  29.707  22.798  1.00  0.00    -0.348 N 
ATOM     77  C   UNL A   1      29.142  27.640  23.526  1.00  0.00     0.077 A 
ATOM     78  C   UNL A   1      27.861  29.191  22.809  1.00  0.00     0.197 A 
ATOM     79  H   UNL A   1      29.404  30.604  22.497  1.00  0.00     0.167 HD
ATOM     80  N   UNL A   1      27.839  27.944  23.235  1.00  0.00    -0.240 NA
BRANCH  73  81
ATOM     81  S   UNL A   1      31.587  24.965  25.177  1.00  0.00     0.253 S 
ATOM     82  O   UNL A   1      31.479  25.379  26.551  1.00  0.00    -0.206 OA
ATOM     83  O   UNL A   1      30.811  23.829  24.694  1.00  0.00    -0.206 OA
BRANCH  81  84
ATOM     84  C   UNL A   1      33.286  24.456  24.962  1.00  0.00     0.135 A 
ATOM     85  C   UNL A   1      34.337  24.358  25.860  1.00  0.00     0.033 A 
ATOM     86  S   UNL A   1      33.764  23.937  23.401  1.00  0.00    -0.131 S 
ATOM     87  C   UNL A   1      35.548  23.921  25.252  1.00  0.00     0.013 A 
ATOM     88  C   UNL A   1      35.364  23.610  23.925  1.00  0.00     0.066 A 
ENDBRANCH  81  84
ENDBRANCH  73  81
ENDBRANCH  69  71
ENDBRANCH  68  69
ENDBRANCH  67  68
ENDBRANCH   1  67
TORSDOF 16
ENDMDL
MODEL 3
REMARK VINA RESULT:     -12.0      1.438      3.173
REMARK SMILES O=C(OCCOC(=O)[C@H]1Cc2[nH]cnc2CN1S(=O)(=O)c1cccs1)c1ccc(-c2c3nc(c(-c4ccc(S(=O)(=O)[O-])cc4)c4ccc([nH]4)c(-c4ccc(S(=O)(=O)[O-])cc4)c4nc(c(-c5ccc(S(=O)(=O)[O-])cc5)c5ccc2[nH]5)C=C4)C=C3)cc1
REMARK SMILES IDX 4 1 3 2 2 3 1 4 26 5 27 6 85 7 28 8 84 9 29 10 30 11 31 12
REMARK SMILES IDX 78 13 32 14 83 15 77 16 79 17 33 18 82 19 76 20 75 21 34 23
REMARK SMILES IDX 64 24 45 25 63 26 46 27 49 28 62 29 80 30 47 31 48 32 61 34
REMARK SMILES IDX 81 35 50 36 35 37 36 38 44 39 37 40 43 41 38 42 39 43 40 44
REMARK SMILES IDX 41 45 42 46 65 47 66 48 74 49 67 50 73 51 68 52 69 53 70 54
REMARK SMILES IDX 71 55 72 56 51 57 52 58 60 59 53 60 59 61 54 62 55 63 56 64
REMARK SMILES IDX 57 65 58 66 5 67 6 68 7 69 8 70 9 71 10 72 17 73 11 74 16 75
REMARK SMILES IDX 12 76 15 77 13 78 14 80 18 81 19 82 20 83 21 84 22 85 25 86
REMARK SMILES IDX 23 87 24 88
REMARK H PARENT 79 22 49 33 12 79
REMARK Flexibility Score: inf
ROOT
ATOM      1  C   UNL A   1      37.208  22.277  25.482  1.00  0.00     0.275 C 
ENDROOT
BRANCH   1   2
ATOM      2  O   UNL A   1      38.629  22.059  25.513  1.00  0.00    -0.458 OA
BRANCH   2   3
ATOM      3  C   UNL A   1      39.551  22.196  26.487  1.00  0.00     0.338 C 
ATOM      4  O   UNL A   1      39.942  21.184  27.071  1.00  0.00    -0.246 OA
BRANCH   3   5
ATOM      5  C   UNL A   1      40.185  23.489  26.874  1.00  0.00     0.060 A 
ATOM      6  C   UNL A   1      41.302  23.626  27.702  1.00  0.00     0.016 A 
ATOM      7  C   UNL A   1      39.453  24.644  26.529  1.00  0.00     0.016 A 
ATOM      8  C   UNL A   1      41.598  24.856  28.278  1.00  0.00     0.010 A 
ATOM      9  C   UNL A   1      39.721  25.863  27.131  1.00  0.00     0.010 A 
ATOM     10  C   UNL A   1      40.752  25.942  28.057  1.00  0.00    -0.014 A 
BRANCH  10  11
ATOM     11  C   UNL A   1      41.022  27.190  28.755  1.00  0.00     0.031 A 
ATOM     12  C   UNL A   1      42.186  27.934  28.210  1.00  0.00     0.074 A 
ATOM     13  C   UNL A   1      40.202  27.691  29.705  1.00  0.00     0.049 A 
ATOM     14  N   UNL A   1      43.335  28.137  28.766  1.00  0.00    -0.248 NA
ATOM     15  C   UNL A   1      42.125  28.358  26.801  1.00  0.00     0.031 C 
ATOM     16  C   UNL A   1      38.885  27.193  30.112  1.00  0.00     0.029 A 
ATOM     17  N   UNL A   1      40.324  28.835  30.433  1.00  0.00    -0.354 N 
ATOM     18  C   UNL A   1      44.036  28.956  27.885  1.00  0.00     0.074 A 
ATOM     19  C   UNL A   1      43.340  28.878  26.627  1.00  0.00     0.031 C 
ATOM     20  C   UNL A   1      38.237  28.158  30.808  1.00  0.00     0.029 A 
ATOM     21  C   UNL A   1      39.137  29.282  31.011  1.00  0.00     0.049 A 
ATOM     22  H   UNL A   1      41.180  29.308  30.543  1.00  0.00     0.167 HD
ATOM     23  C   UNL A   1      44.949  29.865  28.331  1.00  0.00     0.031 A 
ATOM     24  C   UNL A   1      38.901  30.509  31.553  1.00  0.00     0.031 A 
ATOM     25  C   UNL A   1      45.372  29.579  29.679  1.00  0.00     0.049 A 
ATOM     26  C   UNL A   1      40.222  31.118  31.846  1.00  0.00     0.074 A 
ATOM     27  C   UNL A   1      45.912  28.476  30.314  1.00  0.00     0.029 A 
ATOM     28  N   UNL A   1      44.870  30.377  30.682  1.00  0.00    -0.354 N 
ATOM     29  N   UNL A   1      41.035  30.651  32.753  1.00  0.00    -0.248 NA
ATOM     30  C   UNL A   1      40.842  31.928  30.807  1.00  0.00     0.031 C 
ATOM     31  C   UNL A   1      45.240  28.419  31.571  1.00  0.00     0.029 A 
ATOM     32  C   UNL A   1      44.417  29.541  31.668  1.00  0.00     0.049 A 
ATOM     33  H   UNL A   1      44.841  31.360  30.689  1.00  0.00     0.167 HD
ATOM     34  C   UNL A   1      42.290  30.720  32.167  1.00  0.00     0.074 A 
ATOM     35  C   UNL A   1      42.120  31.588  31.000  1.00  0.00     0.031 C 
ATOM     36  C   UNL A   1      43.278  29.840  32.507  1.00  0.00     0.031 A 
BRANCH  23  37
ATOM     37  C   UNL A   1      45.095  31.243  27.722  1.00  0.00    -0.014 A 
ATOM     38  C   UNL A   1      46.389  31.757  27.507  1.00  0.00     0.010 A 
ATOM     39  C   UNL A   1      44.025  32.159  27.628  1.00  0.00     0.010 A 
ATOM     40  C   UNL A   1      46.604  33.127  27.301  1.00  0.00     0.020 A 
ATOM     41  C   UNL A   1      44.222  33.515  27.373  1.00  0.00     0.020 A 
ATOM     42  C   UNL A   1      45.516  33.997  27.248  1.00  0.00     0.054 A 
BRANCH  42  43
ATOM     43  S   UNL A   1      45.802  35.773  27.073  1.00  0.00     0.124 S 
ATOM     44  O   UNL A   1      46.616  36.060  28.249  1.00  0.00    -0.237 OA
ATOM     45  O   UNL A   1      46.492  35.844  25.787  1.00  0.00    -0.237 OA
ATOM     46  O   UNL A   1      44.455  36.337  27.085  1.00  0.00    -0.744 OA
ENDBRANCH  42  43
ENDBRANCH  23  37
BRANCH  24  47
ATOM     47  C   UNL A   1      37.648  31.317  31.526  1.00  0.00    -0.014 A 
ATOM     48  C   UNL A   1      36.699  31.236  32.566  1.00  0.00     0.010 A 
ATOM     49  C   UNL A   1      37.523  32.390  30.620  1.00  0.00     0.010 A 
ATOM     50  C   UNL A   1      35.708  32.225  32.730  1.00  0.00     0.020 A 
ATOM     51  C   UNL A   1      36.537  33.374  30.773  1.00  0.00     0.020 A 
ATOM     52  C   UNL A   1      35.648  33.303  31.842  1.00  0.00     0.054 A 
BRANCH  52  53
ATOM     53  S   UNL A   1      34.495  34.673  32.162  1.00  0.00     0.124 S 
ATOM     54  O   UNL A   1      33.440  34.022  32.932  1.00  0.00    -0.237 OA
ATOM     55  O   UNL A   1      35.323  35.622  32.902  1.00  0.00    -0.237 OA
ATOM     56  O   UNL A   1      34.103  35.112  30.823  1.00  0.00    -0.744 OA
ENDBRANCH  52  53
ENDBRANCH  24  47
BRANCH  36  57
ATOM     57  C   UNL A   1      43.090  28.961  33.721  1.00  0.00    -0.014 A 
ATOM     58  C   UNL A   1      43.319  29.375  35.048  1.00  0.00     0.010 A 
ATOM     59  C   UNL A   1      42.513  27.698  33.504  1.00  0.00     0.010 A 
ATOM     60  C   UNL A   1      43.012  28.529  36.125  1.00  0.00     0.020 A 
ATOM     61  C   UNL A   1      42.186  26.860  34.571  1.00  0.00     0.020 A 
ATOM     62  C   UNL A   1      42.450  27.272  35.877  1.00  0.00     0.054 A 
BRANCH  62  63
ATOM     63  S   UNL A   1      42.038  26.180  37.266  1.00  0.00     0.124 S 
ATOM     64  O   UNL A   1      43.070  26.510  38.244  1.00  0.00    -0.237 OA
ATOM     65  O   UNL A   1      40.681  26.598  37.614  1.00  0.00    -0.237 OA
ATOM     66  O   UNL A   1      42.134  24.838  36.694  1.00  0.00    -0.744 OA
ENDBRANCH  62  63
ENDBRANCH  36  57
ENDBRANCH  10  11
ENDBRANCH   3   5
ENDBRANCH   2   3
ENDBRANCH   1   2
BRANCH   1  67
ATOM     67  C   UNL A   1      36.720  22.962  24.212  1.00  0.00     0.274 C 
BRANCH  67  68
ATOM     68  O   UNL A   1      35.713  23.966  24.424  1.00  0.00    -0.461 OA
BRANCH  68  69
ATOM     69  C   UNL A   1      34.699  24.003  23.521  1.00  0.00     0.325 C 
ATOM     70  O   UNL A   1      34.614  23.255  22.560  1.00  0.00    -0.250 OA
BRANCH  69  71
ATOM     71  C   UNL A   1      33.696  25.101  23.771  1.00  0.00     0.189 C 
ATOM     72  C   UNL A   1      33.550  25.969  22.484  1.00  0.00     0.088 C 
ATOM     73  N   UNL A   1      32.321  24.638  24.274  1.00  0.00    -0.176 NA
ATOM     74  C   UNL A   1      32.583  27.042  22.772  1.00  0.00     0.041 A 
ATOM     75  C   UNL A   1      31.470  25.841  24.711  1.00  0.00     0.161 C 
ATOM     76  N   UNL A   1      32.448  28.258  22.175  1.00  0.00    -0.348 N 
ATOM     77  C   UNL A   1      31.638  26.987  23.765  1.00  0.00     0.077 A 
ATOM     78  C   UNL A   1      31.458  28.914  22.863  1.00  0.00     0.197 A 
ATOM     79  H   UNL A   1      32.957  28.598  21.404  1.00  0.00     0.167 HD
ATOM     80  N   UNL A   1      30.947  28.167  23.821  1.00  0.00    -0.240 NA
BRANCH  73  81
ATOM     81  S   UNL A   1      32.321  23.507  25.577  1.00  0.00     0.253 S 
ATOM     82  O   UNL A   1      33.406  23.861  26.455  1.00  0.00    -0.206 OA
ATOM     83  O   UNL A   1      30.957  23.456  26.089  1.00  0.00    -0.206 OA
BRANCH  81  84
ATOM     84  C   UNL A   1      32.654  21.831  25.055  1.00  0.00     0.135 A 
ATOM     85  C   UNL A   1      32.258  21.122  23.933  1.00  0.00     0.033 A 
ATOM     86  S   UNL A   1      33.679  20.884  26.047  1.00  0.00    -0.131 S 
ATOM     87  C   UNL A   1      32.741  19.783  23.922  1.00  0.00     0.013 A 
ATOM     88  C   UNL A   1      33.569  19.536  24.992  1.00  0.00     0.066 A 
ENDBRANCH  81  84
ENDBRANCH  73  81
ENDBRANCH  69  71
ENDBRANCH  68  69
ENDBRANCH  67  68
ENDBRANCH   1  67
TORSDOF 16
ENDMDL
