MODEL 1
REMARK VINA RESULT:     -12.3      0.000      0.000
REMARK SMILES O=C(OCCOC(=O)c1cccn1CC(=O)N1CCc2ccccc2C1)c1ccc(-c2c3nc(c(-c4ccc(S(=O)(=O)[O-])cc4)c4ccc([nH]4)c(-c4ccc(S(=O)(=O)[O-])cc4)c4nc(c(-c5ccc(S(=O)(=O)[O-])cc5)c5ccc2[nH]5)C=C4)C=C3)cc1
REMARK SMILES IDX 4 1 3 2 2 3 1 4 27 5 28 6 86 7 29 8 85 9 30 10 31 11 32 12
REMARK SMILES IDX 79 13 33 14 84 15 78 16 80 17 34 18 83 19 77 20 76 21 35 23
REMARK SMILES IDX 65 24 46 25 64 26 47 27 50 28 63 29 81 30 48 31 49 32 62 34
REMARK SMILES IDX 82 35 51 36 36 37 37 38 45 39 38 40 44 41 39 42 40 43 41 44
REMARK SMILES IDX 42 45 43 46 66 47 67 48 75 49 68 50 74 51 69 52 70 53 71 54
REMARK SMILES IDX 72 55 73 56 52 57 53 58 61 59 54 60 60 61 55 62 56 63 57 64
REMARK SMILES IDX 58 65 59 66 5 67 6 68 7 69 8 70 9 71 10 72 13 73 11 74 12 75
REMARK SMILES IDX 14 76 15 77 16 78 17 79 18 80 26 81 19 82 25 83 20 84 24 85
REMARK SMILES IDX 21 86 23 87 22 88
REMARK H PARENT 80 22 50 33
REMARK Flexibility Score: inf
ROOT
ATOM      1  C   UNL A   1      46.047  22.140  38.192  1.00  0.00     0.275 C 
ENDROOT
BRANCH   1   2
ATOM      2  O   UNL A   1      45.649  22.714  36.900  1.00  0.00    -0.458 OA
BRANCH   2   3
ATOM      3  C   UNL A   1      45.620  24.065  36.956  1.00  0.00     0.338 C 
ATOM      4  O   UNL A   1      46.348  24.650  37.741  1.00  0.00    -0.246 OA
BRANCH   3   5
ATOM      5  C   UNL A   1      44.977  24.992  36.002  1.00  0.00     0.060 A 
ATOM      6  C   UNL A   1      43.717  24.811  35.481  1.00  0.00     0.016 A 
ATOM      7  C   UNL A   1      45.894  25.739  35.242  1.00  0.00     0.016 A 
ATOM      8  C   UNL A   1      43.485  25.228  34.148  1.00  0.00     0.010 A 
ATOM      9  C   UNL A   1      45.719  26.014  33.888  1.00  0.00     0.010 A 
ATOM     10  C   UNL A   1      44.515  25.712  33.291  1.00  0.00    -0.014 A 
BRANCH  10  11
ATOM     11  C   UNL A   1      44.142  26.374  32.000  1.00  0.00     0.031 A 
ATOM     12  C   UNL A   1      43.197  27.453  32.381  1.00  0.00     0.074 A 
ATOM     13  C   UNL A   1      44.371  25.936  30.733  1.00  0.00     0.049 A 
ATOM     14  N   UNL A   1      41.908  27.414  32.410  1.00  0.00    -0.248 NA
ATOM     15  C   UNL A   1      43.786  28.581  33.141  1.00  0.00     0.031 C 
ATOM     16  C   UNL A   1      45.617  25.406  30.175  1.00  0.00     0.029 A 
ATOM     17  N   UNL A   1      43.525  25.839  29.644  1.00  0.00    -0.354 N 
ATOM     18  C   UNL A   1      41.545  28.583  33.074  1.00  0.00     0.074 A 
ATOM     19  C   UNL A   1      42.711  29.069  33.756  1.00  0.00     0.031 C 
ATOM     20  C   UNL A   1      45.401  24.842  28.958  1.00  0.00     0.029 A 
ATOM     21  C   UNL A   1      43.996  24.974  28.614  1.00  0.00     0.049 A 
ATOM     22  H   UNL A   1      42.670  26.324  29.585  1.00  0.00     0.167 HD
ATOM     23  C   UNL A   1      40.416  29.268  32.780  1.00  0.00     0.031 A 
ATOM     24  C   UNL A   1      43.267  24.373  27.623  1.00  0.00     0.031 A 
ATOM     25  C   UNL A   1      39.759  28.695  31.652  1.00  0.00     0.049 A 
ATOM     26  C   UNL A   1      42.035  25.170  27.550  1.00  0.00     0.074 A 
ATOM     27  C   UNL A   1      38.865  27.679  31.458  1.00  0.00     0.029 A 
ATOM     28  N   UNL A   1      40.253  29.088  30.425  1.00  0.00    -0.354 N 
ATOM     29  N   UNL A   1      41.998  26.380  27.087  1.00  0.00    -0.248 NA
ATOM     30  C   UNL A   1      40.754  24.619  28.004  1.00  0.00     0.031 C 
ATOM     31  C   UNL A   1      39.004  27.317  30.097  1.00  0.00     0.029 A 
ATOM     32  C   UNL A   1      40.010  28.093  29.512  1.00  0.00     0.049 A 
ATOM     33  H   UNL A   1      40.705  29.942  30.237  1.00  0.00     0.167 HD
ATOM     34  C   UNL A   1      40.836  26.863  27.623  1.00  0.00     0.074 A 
ATOM     35  C   UNL A   1      39.997  25.700  27.819  1.00  0.00     0.031 C 
ATOM     36  C   UNL A   1      40.874  28.015  28.348  1.00  0.00     0.031 A 
BRANCH  23  37
ATOM     37  C   UNL A   1      40.055  30.657  33.181  1.00  0.00    -0.014 A 
ATOM     38  C   UNL A   1      39.568  30.822  34.492  1.00  0.00     0.010 A 
ATOM     39  C   UNL A   1      39.910  31.719  32.275  1.00  0.00     0.010 A 
ATOM     40  C   UNL A   1      38.862  31.964  34.855  1.00  0.00     0.020 A 
ATOM     41  C   UNL A   1      39.245  32.889  32.646  1.00  0.00     0.020 A 
ATOM     42  C   UNL A   1      38.685  32.980  33.917  1.00  0.00     0.054 A 
BRANCH  42  43
ATOM     43  S   UNL A   1      37.643  34.385  34.364  1.00  0.00     0.124 S 
ATOM     44  O   UNL A   1      37.260  34.906  33.055  1.00  0.00    -0.237 OA
ATOM     45  O   UNL A   1      36.572  33.750  35.128  1.00  0.00    -0.237 OA
ATOM     46  O   UNL A   1      38.535  35.238  35.146  1.00  0.00    -0.744 OA
ENDBRANCH  42  43
ENDBRANCH  23  37
BRANCH  24  47
ATOM     47  C   UNL A   1      43.324  23.234  26.622  1.00  0.00    -0.014 A 
ATOM     48  C   UNL A   1      44.053  23.211  25.425  1.00  0.00     0.010 A 
ATOM     49  C   UNL A   1      42.783  21.976  27.033  1.00  0.00     0.010 A 
ATOM     50  C   UNL A   1      44.317  21.982  24.754  1.00  0.00     0.020 A 
ATOM     51  C   UNL A   1      43.086  20.758  26.419  1.00  0.00     0.020 A 
ATOM     52  C   UNL A   1      43.871  20.761  25.282  1.00  0.00     0.054 A 
BRANCH  52  53
ATOM     53  S   UNL A   1      44.405  19.159  24.601  1.00  0.00     0.124 S 
ATOM     54  O   UNL A   1      44.477  19.432  23.170  1.00  0.00    -0.237 OA
ATOM     55  O   UNL A   1      45.685  18.924  25.265  1.00  0.00    -0.237 OA
ATOM     56  O   UNL A   1      43.334  18.249  25.010  1.00  0.00    -0.744 OA
ENDBRANCH  52  53
ENDBRANCH  24  47
BRANCH  36  57
ATOM     57  C   UNL A   1      42.141  28.856  28.099  1.00  0.00    -0.014 A 
ATOM     58  C   UNL A   1      42.340  29.487  26.855  1.00  0.00     0.010 A 
ATOM     59  C   UNL A   1      43.227  28.885  29.001  1.00  0.00     0.010 A 
ATOM     60  C   UNL A   1      43.562  30.101  26.522  1.00  0.00     0.020 A 
ATOM     61  C   UNL A   1      44.454  29.501  28.682  1.00  0.00     0.020 A 
ATOM     62  C   UNL A   1      44.614  30.109  27.438  1.00  0.00     0.054 A 
BRANCH  62  63
ATOM     63  S   UNL A   1      46.191  30.886  26.966  1.00  0.00     0.124 S 
ATOM     64  O   UNL A   1      47.154  30.252  27.863  1.00  0.00    -0.237 OA
ATOM     65  O   UNL A   1      46.313  30.513  25.559  1.00  0.00    -0.237 OA
ATOM     66  O   UNL A   1      45.970  32.311  27.209  1.00  0.00    -0.744 OA
ENDBRANCH  62  63
ENDBRANCH  36  57
ENDBRANCH  10  11
ENDBRANCH   3   5
ENDBRANCH   2   3
ENDBRANCH   1   2
BRANCH   1  67
ATOM     67  C   UNL A   1      46.598  20.682  38.273  1.00  0.00     0.275 C 
BRANCH  67  68
ATOM     68  O   UNL A   1      46.062  19.872  39.332  1.00  0.00    -0.457 OA
BRANCH  68  69
ATOM     69  C   UNL A   1      45.740  18.561  39.008  1.00  0.00     0.355 C 
ATOM     70  O   UNL A   1      45.387  18.182  37.943  1.00  0.00    -0.244 OA
BRANCH  69  71
ATOM     71  C   UNL A   1      46.089  17.735  40.175  1.00  0.00     0.128 A 
ATOM     72  C   UNL A   1      47.360  17.337  40.566  1.00  0.00     0.035 A 
ATOM     73  N   UNL A   1      45.165  16.973  40.919  1.00  0.00    -0.333 N 
ATOM     74  C   UNL A   1      47.232  16.452  41.654  1.00  0.00     0.020 A 
ATOM     75  C   UNL A   1      45.880  16.316  41.911  1.00  0.00     0.087 A 
BRANCH  73  76
ATOM     76  C   UNL A   1      43.682  16.909  40.693  1.00  0.00     0.222 C 
BRANCH  76  77
ATOM     77  C   UNL A   1      42.953  15.653  40.091  1.00  0.00     0.242 C 
ATOM     78  O   UNL A   1      43.161  15.402  38.893  1.00  0.00    -0.273 OA
BRANCH  77  79
ATOM     79  N   UNL A   1      42.231  14.714  40.886  1.00  0.00    -0.336 N 
ATOM     80  C   UNL A   1      41.276  13.735  40.399  1.00  0.00     0.124 C 
ATOM     81  C   UNL A   1      42.264  14.779  42.373  1.00  0.00     0.155 C 
ATOM     82  C   UNL A   1      41.205  12.397  41.190  1.00  0.00     0.057 C 
ATOM     83  C   UNL A   1      42.444  13.427  43.053  1.00  0.00    -0.025 A 
ATOM     84  C   UNL A   1      42.104  12.259  42.384  1.00  0.00    -0.041 A 
ATOM     85  C   UNL A   1      42.920  13.282  44.361  1.00  0.00     0.006 A 
ATOM     86  C   UNL A   1      42.496  11.004  42.906  1.00  0.00     0.004 A 
ATOM     87  C   UNL A   1      43.370  12.058  44.866  1.00  0.00     0.000 A 
ATOM     88  C   UNL A   1      43.202  10.913  44.109  1.00  0.00     0.000 A 
ENDBRANCH  77  79
ENDBRANCH  76  77
ENDBRANCH  73  76
ENDBRANCH  69  71
ENDBRANCH  68  69
ENDBRANCH  67  68
ENDBRANCH   1  67
TORSDOF 17
ENDMDL
MODEL 2
REMARK VINA RESULT:     -12.2      8.738     20.843
REMARK SMILES O=C(OCCOC(=O)c1cccn1CC(=O)N1CCc2ccccc2C1)c1ccc(-c2c3nc(c(-c4ccc(S(=O)(=O)[O-])cc4)c4ccc([nH]4)c(-c4ccc(S(=O)(=O)[O-])cc4)c4nc(c(-c5ccc(S(=O)(=O)[O-])cc5)c5ccc2[nH]5)C=C4)C=C3)cc1
REMARK SMILES IDX 4 1 3 2 2 3 1 4 27 5 28 6 86 7 29 8 85 9 30 10 31 11 32 12
REMARK SMILES IDX 79 13 33 14 84 15 78 16 80 17 34 18 83 19 77 20 76 21 35 23
REMARK SMILES IDX 65 24 46 25 64 26 47 27 50 28 63 29 81 30 48 31 49 32 62 34
REMARK SMILES IDX 82 35 51 36 36 37 37 38 45 39 38 40 44 41 39 42 40 43 41 44
REMARK SMILES IDX 42 45 43 46 66 47 67 48 75 49 68 50 74 51 69 52 70 53 71 54
REMARK SMILES IDX 72 55 73 56 52 57 53 58 61 59 54 60 60 61 55 62 56 63 57 64
REMARK SMILES IDX 58 65 59 66 5 67 6 68 7 69 8 70 9 71 10 72 13 73 11 74 12 75
REMARK SMILES IDX 14 76 15 77 16 78 17 79 18 80 26 81 19 82 25 83 20 84 24 85
REMARK SMILES IDX 21 86 23 87 22 88
REMARK H PARENT 80 22 50 33
REMARK Flexibility Score: inf
ROOT
ATOM      1  C   UNL A   1      44.926  39.370  26.497  1.00  0.00     0.275 C 
ENDROOT
BRANCH   1   2
ATOM      2  O   UNL A   1      44.426  38.004  26.702  1.00  0.00    -0.458 OA
BRANCH   2   3
ATOM      3  C   UNL A   1      44.800  37.526  27.911  1.00  0.00     0.338 C 
ATOM      4  O   UNL A   1      45.825  37.937  28.430  1.00  0.00    -0.246 OA
BRANCH   3   5
ATOM      5  C   UNL A   1      43.994  36.713  28.846  1.00  0.00     0.060 A 
ATOM      6  C   UNL A   1      44.508  36.063  29.944  1.00  0.00     0.016 A 
ATOM      7  C   UNL A   1      42.826  36.187  28.266  1.00  0.00     0.016 A 
ATOM      8  C   UNL A   1      43.938  34.818  30.304  1.00  0.00     0.010 A 
ATOM      9  C   UNL A   1      42.361  34.899  28.520  1.00  0.00     0.010 A 
ATOM     10  C   UNL A   1      42.948  34.157  29.521  1.00  0.00    -0.014 A 
BRANCH  10  11
ATOM     11  C   UNL A   1      42.216  32.987  30.103  1.00  0.00     0.031 A 
ATOM     12  C   UNL A   1      42.807  31.798  29.441  1.00  0.00     0.074 A 
ATOM     13  C   UNL A   1      41.079  32.992  30.848  1.00  0.00     0.049 A 
ATOM     14  N   UNL A   1      42.391  31.178  28.389  1.00  0.00    -0.248 NA
ATOM     15  C   UNL A   1      44.210  31.491  29.808  1.00  0.00     0.031 C 
ATOM     16  C   UNL A   1      40.759  33.844  31.996  1.00  0.00     0.029 A 
ATOM     17  N   UNL A   1      39.922  32.245  30.737  1.00  0.00    -0.354 N 
ATOM     18  C   UNL A   1      43.435  30.318  28.062  1.00  0.00     0.074 A 
ATOM     19  C   UNL A   1      44.604  30.780  28.754  1.00  0.00     0.031 C 
ATOM     20  C   UNL A   1      39.445  33.737  32.327  1.00  0.00     0.029 A 
ATOM     21  C   UNL A   1      38.804  32.792  31.431  1.00  0.00     0.049 A 
ATOM     22  H   UNL A   1      39.873  31.406  30.222  1.00  0.00     0.167 HD
ATOM     23  C   UNL A   1      43.232  29.100  27.510  1.00  0.00     0.031 A 
ATOM     24  C   UNL A   1      37.476  32.532  31.221  1.00  0.00     0.031 A 
ATOM     25  C   UNL A   1      41.838  28.806  27.439  1.00  0.00     0.049 A 
ATOM     26  C   UNL A   1      37.470  31.253  30.499  1.00  0.00     0.074 A 
ATOM     27  C   UNL A   1      40.831  29.071  26.555  1.00  0.00     0.029 A 
ATOM     28  N   UNL A   1      41.285  28.312  28.603  1.00  0.00    -0.354 N 
ATOM     29  N   UNL A   1      37.785  30.123  31.051  1.00  0.00    -0.248 NA
ATOM     30  C   UNL A   1      37.092  31.189  29.083  1.00  0.00     0.031 C 
ATOM     31  C   UNL A   1      39.636  28.937  27.301  1.00  0.00     0.029 A 
ATOM     32  C   UNL A   1      39.952  28.638  28.630  1.00  0.00     0.049 A 
ATOM     33  H   UNL A   1      41.767  27.810  29.298  1.00  0.00     0.167 HD
ATOM     34  C   UNL A   1      38.089  29.343  29.970  1.00  0.00     0.074 A 
ATOM     35  C   UNL A   1      37.314  29.892  28.877  1.00  0.00     0.031 C 
ATOM     36  C   UNL A   1      39.301  28.724  29.924  1.00  0.00     0.031 A 
BRANCH  23  37
ATOM     37  C   UNL A   1      44.201  27.974  27.387  1.00  0.00    -0.014 A 
ATOM     38  C   UNL A   1      44.971  27.939  26.209  1.00  0.00     0.010 A 
ATOM     39  C   UNL A   1      44.188  26.838  28.212  1.00  0.00     0.010 A 
ATOM     40  C   UNL A   1      45.618  26.774  25.811  1.00  0.00     0.020 A 
ATOM     41  C   UNL A   1      44.874  25.680  27.844  1.00  0.00     0.020 A 
ATOM     42  C   UNL A   1      45.542  25.643  26.622  1.00  0.00     0.054 A 
BRANCH  42  43
ATOM     43  S   UNL A   1      46.265  24.104  26.017  1.00  0.00     0.124 S 
ATOM     44  O   UNL A   1      47.598  24.142  26.608  1.00  0.00    -0.237 OA
ATOM     45  O   UNL A   1      45.360  23.096  26.566  1.00  0.00    -0.237 OA
ATOM     46  O   UNL A   1      46.213  24.250  24.564  1.00  0.00    -0.744 OA
ENDBRANCH  42  43
ENDBRANCH  23  37
BRANCH  24  47
ATOM     47  C   UNL A   1      36.092  33.091  31.494  1.00  0.00    -0.014 A 
ATOM     48  C   UNL A   1      35.454  33.166  32.740  1.00  0.00     0.010 A 
ATOM     49  C   UNL A   1      35.466  33.827  30.441  1.00  0.00     0.010 A 
ATOM     50  C   UNL A   1      34.329  34.019  32.935  1.00  0.00     0.020 A 
ATOM     51  C   UNL A   1      34.403  34.714  30.633  1.00  0.00     0.020 A 
ATOM     52  C   UNL A   1      33.843  34.821  31.892  1.00  0.00     0.054 A 
BRANCH  52  53
ATOM     53  S   UNL A   1      32.584  36.108  32.166  1.00  0.00     0.124 S 
ATOM     54  O   UNL A   1      31.400  35.324  32.501  1.00  0.00    -0.237 OA
ATOM     55  O   UNL A   1      33.148  36.899  33.257  1.00  0.00    -0.237 OA
ATOM     56  O   UNL A   1      32.529  36.801  30.879  1.00  0.00    -0.744 OA
ENDBRANCH  52  53
ENDBRANCH  24  47
BRANCH  36  57
ATOM     57  C   UNL A   1      39.993  28.627  31.298  1.00  0.00    -0.014 A 
ATOM     58  C   UNL A   1      39.440  27.826  32.316  1.00  0.00     0.010 A 
ATOM     59  C   UNL A   1      41.076  29.454  31.666  1.00  0.00     0.010 A 
ATOM     60  C   UNL A   1      39.930  27.858  33.634  1.00  0.00     0.020 A 
ATOM     61  C   UNL A   1      41.580  29.493  32.982  1.00  0.00     0.020 A 
ATOM     62  C   UNL A   1      41.001  28.690  33.963  1.00  0.00     0.054 A 
BRANCH  62  63
ATOM     63  S   UNL A   1      41.593  28.731  35.684  1.00  0.00     0.124 S 
ATOM     64  O   UNL A   1      40.898  29.887  36.245  1.00  0.00    -0.237 OA
ATOM     65  O   UNL A   1      41.155  27.435  36.195  1.00  0.00    -0.237 OA
ATOM     66  O   UNL A   1      43.041  28.887  35.557  1.00  0.00    -0.744 OA
ENDBRANCH  62  63
ENDBRANCH  36  57
ENDBRANCH  10  11
ENDBRANCH   3   5
ENDBRANCH   2   3
ENDBRANCH   1   2
BRANCH   1  67
ATOM     67  C   UNL A   1      43.939  40.577  26.466  1.00  0.00     0.275 C 
BRANCH  67  68
ATOM     68  O   UNL A   1      44.367  41.712  25.696  1.00  0.00    -0.457 OA
BRANCH  68  69
ATOM     69  C   UNL A   1      43.539  42.101  24.650  1.00  0.00     0.355 C 
ATOM     70  O   UNL A   1      42.496  41.610  24.380  1.00  0.00    -0.244 OA
BRANCH  69  71
ATOM     71  C   UNL A   1      44.122  43.325  24.077  1.00  0.00     0.128 A 
ATOM     72  C   UNL A   1      44.526  44.459  24.767  1.00  0.00     0.035 A 
ATOM     73  N   UNL A   1      44.094  43.657  22.707  1.00  0.00    -0.333 N 
ATOM     74  C   UNL A   1      44.900  45.439  23.828  1.00  0.00     0.020 A 
ATOM     75  C   UNL A   1      44.713  44.891  22.572  1.00  0.00     0.087 A 
BRANCH  73  76
ATOM     76  C   UNL A   1      43.525  42.814  21.601  1.00  0.00     0.222 C 
BRANCH  76  77
ATOM     77  C   UNL A   1      42.189  43.163  20.851  1.00  0.00     0.242 C 
ATOM     78  O   UNL A   1      41.153  43.202  21.534  1.00  0.00    -0.273 OA
BRANCH  77  79
ATOM     79  N   UNL A   1      42.147  43.602  19.494  1.00  0.00    -0.336 N 
ATOM     80  C   UNL A   1      40.988  43.578  18.621  1.00  0.00     0.124 C 
ATOM     81  C   UNL A   1      43.393  43.977  18.769  1.00  0.00     0.155 C 
ATOM     82  C   UNL A   1      40.903  44.719  17.566  1.00  0.00     0.057 C 
ATOM     83  C   UNL A   1      43.277  45.256  17.948  1.00  0.00    -0.025 A 
ATOM     84  C   UNL A   1      42.031  45.710  17.535  1.00  0.00    -0.041 A 
ATOM     85  C   UNL A   1      44.382  46.015  17.547  1.00  0.00     0.006 A 
ATOM     86  C   UNL A   1      41.893  47.009  16.995  1.00  0.00     0.004 A 
ATOM     87  C   UNL A   1      44.262  47.324  17.071  1.00  0.00     0.000 A 
ATOM     88  C   UNL A   1      43.002  47.846  16.840  1.00  0.00     0.000 A 
ENDBRANCH  77  79
ENDBRANCH  76  77
ENDBRANCH  73  76
ENDBRANCH  69  71
ENDBRANCH  68  69
ENDBRANCH  67  68
ENDBRANCH   1  67
TORSDOF 17
ENDMDL
MODEL 3
REMARK VINA RESULT:     -11.8      7.889     13.036
REMARK SMILES O=C(OCCOC(=O)c1cccn1CC(=O)N1CCc2ccccc2C1)c1ccc(-c2c3nc(c(-c4ccc(S(=O)(=O)[O-])cc4)c4ccc([nH]4)c(-c4ccc(S(=O)(=O)[O-])cc4)c4nc(c(-c5ccc(S(=O)(=O)[O-])cc5)c5ccc2[nH]5)C=C4)C=C3)cc1
REMARK SMILES IDX 4 1 3 2 2 3 1 4 27 5 28 6 86 7 29 8 85 9 30 10 31 11 32 12
REMARK SMILES IDX 79 13 33 14 84 15 78 16 80 17 34 18 83 19 77 20 76 21 35 23
REMARK SMILES IDX 65 24 46 25 64 26 47 27 50 28 63 29 81 30 48 31 49 32 62 34
REMARK SMILES IDX 82 35 51 36 36 37 37 38 45 39 38 40 44 41 39 42 40 43 41 44
REMARK SMILES IDX 42 45 43 46 66 47 67 48 75 49 68 50 74 51 69 52 70 53 71 54
REMARK SMILES IDX 72 55 73 56 52 57 53 58 61 59 54 60 60 61 55 62 56 63 57 64
REMARK SMILES IDX 58 65 59 66 5 67 6 68 7 69 8 70 9 71 10 72 13 73 11 74 12 75
REMARK SMILES IDX 14 76 15 77 16 78 17 79 18 80 26 81 19 82 25 83 20 84 24 85
REMARK SMILES IDX 21 86 23 87 22 88
REMARK H PARENT 80 22 50 33
REMARK Flexibility Score: inf
ROOT
ATOM      1  C   UNL A   1      33.213  30.566  27.493  1.00  0.00     0.275 C 
ENDROOT
BRANCH   1   2
ATOM      2  O   UNL A   1      34.632  30.890  27.296  1.00  0.00    -0.458 OA
BRANCH   2   3
ATOM      3  C   UNL A   1      35.422  29.842  27.625  1.00  0.00     0.338 C 
ATOM      4  O   UNL A   1      35.035  28.705  27.407  1.00  0.00    -0.246 OA
BRANCH   3   5
ATOM      5  C   UNL A   1      36.846  29.876  28.016  1.00  0.00     0.060 A 
ATOM      6  C   UNL A   1      37.886  30.046  27.131  1.00  0.00     0.016 A 
ATOM      7  C   UNL A   1      37.116  29.187  29.211  1.00  0.00     0.016 A 
ATOM      8  C   UNL A   1      39.098  29.366  27.395  1.00  0.00     0.010 A 
ATOM      9  C   UNL A   1      38.248  28.398  29.399  1.00  0.00     0.010 A 
ATOM     10  C   UNL A   1      39.253  28.430  28.458  1.00  0.00    -0.014 A 
BRANCH  10  11
ATOM     11  C   UNL A   1      40.627  27.961  28.825  1.00  0.00     0.031 A 
ATOM     12  C   UNL A   1      41.353  29.187  29.241  1.00  0.00     0.074 A 
ATOM     13  C   UNL A   1      41.198  26.752  28.578  1.00  0.00     0.049 A 
ATOM     14  N   UNL A   1      42.108  29.950  28.526  1.00  0.00    -0.248 NA
ATOM     15  C   UNL A   1      40.895  29.805  30.508  1.00  0.00     0.031 C 
ATOM     16  C   UNL A   1      40.619  25.423  28.788  1.00  0.00     0.029 A 
ATOM     17  N   UNL A   1      42.434  26.426  28.051  1.00  0.00    -0.354 N 
ATOM     18  C   UNL A   1      42.315  31.072  29.324  1.00  0.00     0.074 A 
ATOM     19  C   UNL A   1      41.313  31.059  30.352  1.00  0.00     0.031 C 
ATOM     20  C   UNL A   1      41.380  24.464  28.198  1.00  0.00     0.029 A 
ATOM     21  C   UNL A   1      42.529  25.089  27.568  1.00  0.00     0.049 A 
ATOM     22  H   UNL A   1      43.184  27.064  28.011  1.00  0.00     0.167 HD
ATOM     23  C   UNL A   1      43.471  31.774  29.310  1.00  0.00     0.031 A 
ATOM     24  C   UNL A   1      43.435  24.581  26.675  1.00  0.00     0.031 A 
ATOM     25  C   UNL A   1      44.438  31.136  28.479  1.00  0.00     0.049 A 
ATOM     26  C   UNL A   1      44.543  25.545  26.700  1.00  0.00     0.074 A 
ATOM     27  C   UNL A   1      44.734  31.146  27.144  1.00  0.00     0.029 A 
ATOM     28  N   UNL A   1      45.134  30.106  29.076  1.00  0.00    -0.354 N 
ATOM     29  N   UNL A   1      45.347  25.677  27.709  1.00  0.00    -0.248 NA
ATOM     30  C   UNL A   1      44.805  26.422  25.554  1.00  0.00     0.031 C 
ATOM     31  C   UNL A   1      45.454  29.950  26.914  1.00  0.00     0.029 A 
ATOM     32  C   UNL A   1      45.537  29.223  28.105  1.00  0.00     0.049 A 
ATOM     33  H   UNL A   1      45.312  30.018  30.040  1.00  0.00     0.167 HD
ATOM     34  C   UNL A   1      45.871  26.924  27.503  1.00  0.00     0.074 A 
ATOM     35  C   UNL A   1      45.808  27.130  26.071  1.00  0.00     0.031 C 
ATOM     36  C   UNL A   1      45.784  27.848  28.499  1.00  0.00     0.031 A 
BRANCH  23  37
ATOM     37  C   UNL A   1      43.943  32.786  30.297  1.00  0.00    -0.014 A 
ATOM     38  C   UNL A   1      44.358  32.291  31.548  1.00  0.00     0.010 A 
ATOM     39  C   UNL A   1      43.736  34.168  30.160  1.00  0.00     0.010 A 
ATOM     40  C   UNL A   1      44.458  33.131  32.652  1.00  0.00     0.020 A 
ATOM     41  C   UNL A   1      43.881  35.025  31.252  1.00  0.00     0.020 A 
ATOM     42  C   UNL A   1      44.193  34.491  32.499  1.00  0.00     0.054 A 
BRANCH  42  43
ATOM     43  S   UNL A   1      44.187  35.534  33.972  1.00  0.00     0.124 S 
ATOM     44  O   UNL A   1      42.989  36.342  33.766  1.00  0.00    -0.237 OA
ATOM     45  O   UNL A   1      44.107  34.552  35.051  1.00  0.00    -0.237 OA
ATOM     46  O   UNL A   1      45.456  36.252  33.888  1.00  0.00    -0.744 OA
ENDBRANCH  42  43
ENDBRANCH  23  37
BRANCH  24  47
ATOM     47  C   UNL A   1      43.660  23.407  25.741  1.00  0.00    -0.014 A 
ATOM     48  C   UNL A   1      44.561  23.356  24.668  1.00  0.00     0.010 A 
ATOM     49  C   UNL A   1      43.085  22.154  26.116  1.00  0.00     0.010 A 
ATOM     50  C   UNL A   1      44.943  22.110  24.093  1.00  0.00     0.020 A 
ATOM     51  C   UNL A   1      43.497  20.921  25.603  1.00  0.00     0.020 A 
ATOM     52  C   UNL A   1      44.443  20.900  24.596  1.00  0.00     0.054 A 
BRANCH  52  53
ATOM     53  S   UNL A   1      45.100  19.286  24.067  1.00  0.00     0.124 S 
ATOM     54  O   UNL A   1      44.482  18.368  25.018  1.00  0.00    -0.237 OA
ATOM     55  O   UNL A   1      44.636  19.173  22.687  1.00  0.00    -0.237 OA
ATOM     56  O   UNL A   1      46.547  19.451  24.209  1.00  0.00    -0.744 OA
ENDBRANCH  52  53
ENDBRANCH  24  47
BRANCH  36  57
ATOM     57  C   UNL A   1      45.499  27.234  29.883  1.00  0.00    -0.014 A 
ATOM     58  C   UNL A   1      46.454  26.402  30.500  1.00  0.00     0.010 A 
ATOM     59  C   UNL A   1      44.235  27.310  30.506  1.00  0.00     0.010 A 
ATOM     60  C   UNL A   1      46.160  25.673  31.667  1.00  0.00     0.020 A 
ATOM     61  C   UNL A   1      43.928  26.589  31.678  1.00  0.00     0.020 A 
ATOM     62  C   UNL A   1      44.898  25.771  32.255  1.00  0.00     0.054 A 
BRANCH  62  63
ATOM     63  S   UNL A   1      44.539  24.793  33.747  1.00  0.00     0.124 S 
ATOM     64  O   UNL A   1      45.675  25.089  34.617  1.00  0.00    -0.237 OA
ATOM     65  O   UNL A   1      43.261  25.347  34.184  1.00  0.00    -0.237 OA
ATOM     66  O   UNL A   1      44.480  23.415  33.261  1.00  0.00    -0.744 OA
ENDBRANCH  62  63
ENDBRANCH  36  57
ENDBRANCH  10  11
ENDBRANCH   3   5
ENDBRANCH   2   3
ENDBRANCH   1   2
BRANCH   1  67
ATOM     67  C   UNL A   1      32.246  30.475  26.272  1.00  0.00     0.275 C 
BRANCH  67  68
ATOM     68  O   UNL A   1      32.674  29.617  25.202  1.00  0.00    -0.457 OA
BRANCH  68  69
ATOM     69  C   UNL A   1      31.675  29.069  24.408  1.00  0.00     0.355 C 
ATOM     70  O   UNL A   1      30.578  29.501  24.287  1.00  0.00    -0.244 OA
BRANCH  69  71
ATOM     71  C   UNL A   1      32.292  27.980  23.635  1.00  0.00     0.128 A 
ATOM     72  C   UNL A   1      33.124  28.108  22.532  1.00  0.00     0.035 A 
ATOM     73  N   UNL A   1      31.905  26.627  23.712  1.00  0.00    -0.333 N 
ATOM     74  C   UNL A   1      33.382  26.823  22.019  1.00  0.00     0.020 A 
ATOM     75  C   UNL A   1      32.697  25.923  22.816  1.00  0.00     0.087 A 
BRANCH  73  76
ATOM     76  C   UNL A   1      30.851  26.056  24.617  1.00  0.00     0.222 C 
BRANCH  76  77
ATOM     77  C   UNL A   1      31.150  24.962  25.706  1.00  0.00     0.242 C 
ATOM     78  O   UNL A   1      30.428  24.962  26.717  1.00  0.00    -0.273 OA
BRANCH  77  79
ATOM     79  N   UNL A   1      32.067  23.889  25.504  1.00  0.00    -0.336 N 
ATOM     80  C   UNL A   1      31.843  22.713  24.683  1.00  0.00     0.124 C 
ATOM     81  C   UNL A   1      33.325  23.793  26.296  1.00  0.00     0.155 C 
ATOM     82  C   UNL A   1      33.101  22.115  23.987  1.00  0.00     0.057 C 
ATOM     83  C   UNL A   1      34.556  23.435  25.473  1.00  0.00    -0.025 A 
ATOM     84  C   UNL A   1      34.416  22.789  24.252  1.00  0.00    -0.041 A 
ATOM     85  C   UNL A   1      35.865  23.701  25.892  1.00  0.00     0.006 A 
ATOM     86  C   UNL A   1      35.521  22.679  23.377  1.00  0.00     0.004 A 
ATOM     87  C   UNL A   1      36.957  23.657  25.020  1.00  0.00     0.000 A 
ATOM     88  C   UNL A   1      36.774  23.188  23.732  1.00  0.00     0.000 A 
ENDBRANCH  77  79
ENDBRANCH  76  77
ENDBRANCH  73  76
ENDBRANCH  69  71
ENDBRANCH  68  69
ENDBRANCH  67  68
ENDBRANCH   1  67
TORSDOF 17
ENDMDL
