MODEL 1
REMARK VINA RESULT:     -11.0      0.000      0.000
REMARK SMILES O=C(OCCOC(=O)c1cc(F)ccc1NS(=O)(=O)c1ccc(Cl)s1)c1ccc(-c2c3nc(c(-c4ccc(S(=O)(=O)[O-])cc4)c4ccc([nH]4)c(-c4ccc(S(=O)(=O)[O-])cc4)c4nc(c(-c5ccc(S(=O)(=O)[O-])cc5)c5ccc2[nH]5)C=C4)C=C3)cc1
REMARK SMILES IDX 4 1 3 2 2 3 1 4 26 5 27 6 85 7 28 8 84 9 29 10 30 11 31 12
REMARK SMILES IDX 78 13 32 14 83 15 77 16 79 17 33 18 82 19 76 20 75 21 34 23
REMARK SMILES IDX 64 24 45 25 63 26 46 27 49 28 62 29 80 30 47 31 48 32 61 34
REMARK SMILES IDX 81 35 50 36 35 37 36 38 44 39 37 40 43 41 38 42 39 43 40 44
REMARK SMILES IDX 41 45 42 46 65 47 66 48 74 49 67 50 73 51 68 52 69 53 70 54
REMARK SMILES IDX 71 55 72 56 51 57 52 58 60 59 53 60 59 61 54 62 55 63 56 64
REMARK SMILES IDX 57 65 58 66 5 67 6 68 7 69 8 70 9 71 10 72 15 73 11 74 14 75
REMARK SMILES IDX 12 76 13 77 16 78 17 80 18 81 19 82 20 83 21 84 25 85 22 86
REMARK SMILES IDX 23 87 24 88
REMARK H PARENT 79 22 49 33 16 79
REMARK Flexibility Score: inf
ROOT
ATOM      1  C   UNL A   1      44.105  23.939  26.380  1.00  0.00     0.275 C 
ENDROOT
BRANCH   1   2
ATOM      2  O   UNL A   1      42.774  24.314  25.994  1.00  0.00    -0.458 OA
BRANCH   2   3
ATOM      3  C   UNL A   1      42.144  25.510  26.002  1.00  0.00     0.338 C 
ATOM      4  O   UNL A   1      41.903  26.033  24.915  1.00  0.00    -0.246 OA
BRANCH   3   5
ATOM      5  C   UNL A   1      41.795  26.279  27.243  1.00  0.00     0.060 A 
ATOM      6  C   UNL A   1      40.779  25.985  28.152  1.00  0.00     0.016 A 
ATOM      7  C   UNL A   1      42.562  27.430  27.493  1.00  0.00     0.016 A 
ATOM      8  C   UNL A   1      40.585  26.763  29.301  1.00  0.00     0.010 A 
ATOM      9  C   UNL A   1      42.401  28.193  28.652  1.00  0.00     0.010 A 
ATOM     10  C   UNL A   1      41.397  27.867  29.565  1.00  0.00    -0.014 A 
BRANCH  10  11
ATOM     11  C   UNL A   1      41.101  28.754  30.714  1.00  0.00     0.031 A 
ATOM     12  C   UNL A   1      41.896  28.591  31.976  1.00  0.00     0.074 A 
ATOM     13  C   UNL A   1      40.159  29.713  30.620  1.00  0.00     0.049 A 
ATOM     14  N   UNL A   1      41.852  29.302  33.071  1.00  0.00    -0.248 NA
ATOM     15  C   UNL A   1      42.884  27.498  32.004  1.00  0.00     0.031 C 
ATOM     16  C   UNL A   1      39.361  29.994  29.429  1.00  0.00     0.029 A 
ATOM     17  N   UNL A   1      39.704  30.623  31.540  1.00  0.00    -0.354 N 
ATOM     18  C   UNL A   1      42.833  28.770  33.899  1.00  0.00     0.074 A 
ATOM     19  C   UNL A   1      43.394  27.625  33.218  1.00  0.00     0.031 C 
ATOM     20  C   UNL A   1      38.478  30.969  29.702  1.00  0.00     0.029 A 
ATOM     21  C   UNL A   1      38.667  31.403  31.080  1.00  0.00     0.049 A 
ATOM     22  H   UNL A   1      40.085  30.711  32.443  1.00  0.00     0.167 HD
ATOM     23  C   UNL A   1      43.262  29.224  35.099  1.00  0.00     0.031 A 
ATOM     24  C   UNL A   1      37.958  32.368  31.697  1.00  0.00     0.031 A 
ATOM     25  C   UNL A   1      42.681  30.346  35.778  1.00  0.00     0.049 A 
ATOM     26  C   UNL A   1      38.373  32.783  33.082  1.00  0.00     0.074 A 
ATOM     27  C   UNL A   1      43.037  30.897  36.995  1.00  0.00     0.029 A 
ATOM     28  N   UNL A   1      41.608  31.084  35.298  1.00  0.00    -0.354 N 
ATOM     29  N   UNL A   1      39.351  32.310  33.820  1.00  0.00    -0.248 NA
ATOM     30  C   UNL A   1      37.625  33.885  33.699  1.00  0.00     0.031 C 
ATOM     31  C   UNL A   1      42.148  31.943  37.271  1.00  0.00     0.029 A 
ATOM     32  C   UNL A   1      41.271  32.072  36.204  1.00  0.00     0.049 A 
ATOM     33  H   UNL A   1      41.154  30.927  34.439  1.00  0.00     0.167 HD
ATOM     34  C   UNL A   1      39.369  33.092  34.968  1.00  0.00     0.074 A 
ATOM     35  C   UNL A   1      38.300  34.063  34.827  1.00  0.00     0.031 C 
ATOM     36  C   UNL A   1      40.206  33.027  36.033  1.00  0.00     0.031 A 
BRANCH  23  37
ATOM     37  C   UNL A   1      44.411  28.486  35.726  1.00  0.00    -0.014 A 
ATOM     38  C   UNL A   1      44.177  27.409  36.604  1.00  0.00     0.010 A 
ATOM     39  C   UNL A   1      45.732  28.889  35.472  1.00  0.00     0.010 A 
ATOM     40  C   UNL A   1      45.240  26.788  37.261  1.00  0.00     0.020 A 
ATOM     41  C   UNL A   1      46.801  28.253  36.108  1.00  0.00     0.020 A 
ATOM     42  C   UNL A   1      46.546  27.223  37.017  1.00  0.00     0.054 A 
BRANCH  42  43
ATOM     43  S   UNL A   1      47.910  26.415  37.898  1.00  0.00     0.124 S 
ATOM     44  O   UNL A   1      47.704  25.012  37.546  1.00  0.00    -0.237 OA
ATOM     45  O   UNL A   1      49.090  27.042  37.310  1.00  0.00    -0.237 OA
ATOM     46  O   UNL A   1      47.662  26.748  39.298  1.00  0.00    -0.744 OA
ENDBRANCH  42  43
ENDBRANCH  23  37
BRANCH  24  47
ATOM     47  C   UNL A   1      36.818  33.029  31.000  1.00  0.00    -0.014 A 
ATOM     48  C   UNL A   1      35.487  32.706  31.322  1.00  0.00     0.010 A 
ATOM     49  C   UNL A   1      37.061  33.992  30.002  1.00  0.00     0.010 A 
ATOM     50  C   UNL A   1      34.425  33.312  30.642  1.00  0.00     0.020 A 
ATOM     51  C   UNL A   1      36.002  34.615  29.335  1.00  0.00     0.020 A 
ATOM     52  C   UNL A   1      34.689  34.262  29.650  1.00  0.00     0.054 A 
BRANCH  52  53
ATOM     53  S   UNL A   1      33.292  35.054  28.803  1.00  0.00     0.124 S 
ATOM     54  O   UNL A   1      32.491  35.538  29.923  1.00  0.00    -0.237 OA
ATOM     55  O   UNL A   1      33.952  36.085  28.005  1.00  0.00    -0.237 OA
ATOM     56  O   UNL A   1      32.697  33.965  28.032  1.00  0.00    -0.744 OA
ENDBRANCH  52  53
ENDBRANCH  24  47
BRANCH  36  57
ATOM     57  C   UNL A   1      40.027  34.061  37.109  1.00  0.00    -0.014 A 
ATOM     58  C   UNL A   1      40.599  35.339  36.994  1.00  0.00     0.010 A 
ATOM     59  C   UNL A   1      39.216  33.763  38.220  1.00  0.00     0.010 A 
ATOM     60  C   UNL A   1      40.383  36.296  37.988  1.00  0.00     0.020 A 
ATOM     61  C   UNL A   1      38.977  34.725  39.200  1.00  0.00     0.020 A 
ATOM     62  C   UNL A   1      39.573  35.983  39.084  1.00  0.00     0.054 A 
BRANCH  62  63
ATOM     63  S   UNL A   1      39.258  37.261  40.332  1.00  0.00     0.124 S 
ATOM     64  O   UNL A   1      38.448  36.537  41.307  1.00  0.00    -0.237 OA
ATOM     65  O   UNL A   1      40.605  37.618  40.773  1.00  0.00    -0.237 OA
ATOM     66  O   UNL A   1      38.556  38.304  39.587  1.00  0.00    -0.744 OA
ENDBRANCH  62  63
ENDBRANCH  36  57
ENDBRANCH  10  11
ENDBRANCH   3   5
ENDBRANCH   2   3
ENDBRANCH   1   2
BRANCH   1  67
ATOM     67  C   UNL A   1      45.158  24.120  25.288  1.00  0.00     0.275 C 
BRANCH  67  68
ATOM     68  O   UNL A   1      45.697  22.889  24.785  1.00  0.00    -0.458 OA
BRANCH  68  69
ATOM     69  C   UNL A   1      44.818  22.045  24.177  1.00  0.00     0.340 C 
ATOM     70  O   UNL A   1      44.170  22.261  23.168  1.00  0.00    -0.246 OA
BRANCH  69  71
ATOM     71  C   UNL A   1      44.872  20.737  24.864  1.00  0.00     0.087 A 
ATOM     72  C   UNL A   1      46.130  20.153  25.069  1.00  0.00     0.057 A 
ATOM     73  C   UNL A   1      43.684  20.069  25.244  1.00  0.00     0.064 A 
ATOM     74  C   UNL A   1      46.207  18.879  25.601  1.00  0.00     0.124 A 
ATOM     75  C   UNL A   1      43.809  18.732  25.635  1.00  0.00     0.030 A 
ATOM     76  F   UNL A   1      47.405  18.342  25.853  1.00  0.00    -0.207 F 
ATOM     77  C   UNL A   1      45.061  18.139  25.823  1.00  0.00     0.041 A 
BRANCH  73  78
ATOM     78  N   UNL A   1      42.491  20.837  25.499  1.00  0.00    -0.278 N 
ATOM     79  H   UNL A   1      42.464  21.741  25.109  1.00  0.00     0.180 HD
BRANCH  78  80
ATOM     80  S   UNL A   1      41.142  20.373  26.382  1.00  0.00     0.271 S 
ATOM     81  O   UNL A   1      40.576  19.214  25.725  1.00  0.00    -0.200 OA
ATOM     82  O   UNL A   1      41.502  20.327  27.782  1.00  0.00    -0.200 OA
BRANCH  80  83
ATOM     83  C   UNL A   1      39.844  21.586  26.353  1.00  0.00     0.141 A 
ATOM     84  C   UNL A   1      39.777  22.846  26.931  1.00  0.00     0.036 A 
ATOM     85  S   UNL A   1      38.449  21.247  25.421  1.00  0.00    -0.110 S 
ATOM     86  C   UNL A   1      38.661  23.593  26.458  1.00  0.00     0.034 A 
ATOM     87  C   UNL A   1      37.905  22.844  25.594  1.00  0.00     0.094 A 
ATOM     88  Cl  UNL A   1      36.534  23.381  24.713  1.00  0.00    -0.072 Cl
ENDBRANCH  80  83
ENDBRANCH  78  80
ENDBRANCH  73  78
ENDBRANCH  69  71
ENDBRANCH  68  69
ENDBRANCH  67  68
ENDBRANCH   1  67
TORSDOF 17
ENDMDL
MODEL 2
REMARK VINA RESULT:     -10.8      6.098     14.414
REMARK SMILES O=C(OCCOC(=O)c1cc(F)ccc1NS(=O)(=O)c1ccc(Cl)s1)c1ccc(-c2c3nc(c(-c4ccc(S(=O)(=O)[O-])cc4)c4ccc([nH]4)c(-c4ccc(S(=O)(=O)[O-])cc4)c4nc(c(-c5ccc(S(=O)(=O)[O-])cc5)c5ccc2[nH]5)C=C4)C=C3)cc1
REMARK SMILES IDX 4 1 3 2 2 3 1 4 26 5 27 6 85 7 28 8 84 9 29 10 30 11 31 12
REMARK SMILES IDX 78 13 32 14 83 15 77 16 79 17 33 18 82 19 76 20 75 21 34 23
REMARK SMILES IDX 64 24 45 25 63 26 46 27 49 28 62 29 80 30 47 31 48 32 61 34
REMARK SMILES IDX 81 35 50 36 35 37 36 38 44 39 37 40 43 41 38 42 39 43 40 44
REMARK SMILES IDX 41 45 42 46 65 47 66 48 74 49 67 50 73 51 68 52 69 53 70 54
REMARK SMILES IDX 71 55 72 56 51 57 52 58 60 59 53 60 59 61 54 62 55 63 56 64
REMARK SMILES IDX 57 65 58 66 5 67 6 68 7 69 8 70 9 71 10 72 15 73 11 74 14 75
REMARK SMILES IDX 12 76 13 77 16 78 17 80 18 81 19 82 20 83 21 84 25 85 22 86
REMARK SMILES IDX 23 87 24 88
REMARK H PARENT 79 22 49 33 16 79
REMARK Flexibility Score: inf
ROOT
ATOM      1  C   UNL A   1      37.109  32.593  33.089  1.00  0.00     0.275 C 
ENDROOT
BRANCH   1   2
ATOM      2  O   UNL A   1      36.799  31.977  31.830  1.00  0.00    -0.458 OA
BRANCH   2   3
ATOM      3  C   UNL A   1      37.029  30.728  31.365  1.00  0.00     0.338 C 
ATOM      4  O   UNL A   1      36.106  29.917  31.435  1.00  0.00    -0.246 OA
BRANCH   3   5
ATOM      5  C   UNL A   1      38.352  30.241  30.850  1.00  0.00     0.060 A 
ATOM      6  C   UNL A   1      39.439  29.811  31.611  1.00  0.00     0.016 A 
ATOM      7  C   UNL A   1      38.510  30.244  29.454  1.00  0.00     0.016 A 
ATOM      8  C   UNL A   1      40.608  29.335  31.001  1.00  0.00     0.010 A 
ATOM      9  C   UNL A   1      39.656  29.739  28.835  1.00  0.00     0.010 A 
ATOM     10  C   UNL A   1      40.724  29.288  29.612  1.00  0.00    -0.014 A 
BRANCH  10  11
ATOM     11  C   UNL A   1      42.009  28.903  28.982  1.00  0.00     0.031 A 
ATOM     12  C   UNL A   1      43.059  29.957  28.783  1.00  0.00     0.074 A 
ATOM     13  C   UNL A   1      42.247  27.627  28.623  1.00  0.00     0.049 A 
ATOM     14  N   UNL A   1      44.274  29.828  28.320  1.00  0.00    -0.248 NA
ATOM     15  C   UNL A   1      42.705  31.333  29.174  1.00  0.00     0.031 C 
ATOM     16  C   UNL A   1      41.321  26.514  28.814  1.00  0.00     0.029 A 
ATOM     17  N   UNL A   1      43.332  27.048  28.017  1.00  0.00    -0.354 N 
ATOM     18  C   UNL A   1      44.840  31.093  28.405  1.00  0.00     0.074 A 
ATOM     19  C   UNL A   1      43.813  31.993  28.878  1.00  0.00     0.031 C 
ATOM     20  C   UNL A   1      41.850  25.397  28.288  1.00  0.00     0.029 A 
ATOM     21  C   UNL A   1      43.167  25.708  27.749  1.00  0.00     0.049 A 
ATOM     22  H   UNL A   1      44.154  27.544  27.796  1.00  0.00     0.167 HD
ATOM     23  C   UNL A   1      46.117  31.465  28.156  1.00  0.00     0.031 A 
ATOM     24  C   UNL A   1      43.990  24.828  27.147  1.00  0.00     0.031 A 
ATOM     25  C   UNL A   1      47.124  30.570  27.662  1.00  0.00     0.049 A 
ATOM     26  C   UNL A   1      45.371  25.288  26.767  1.00  0.00     0.074 A 
ATOM     27  C   UNL A   1      48.450  30.835  27.378  1.00  0.00     0.029 A 
ATOM     28  N   UNL A   1      46.906  29.232  27.366  1.00  0.00    -0.354 N 
ATOM     29  N   UNL A   1      45.910  26.476  26.920  1.00  0.00    -0.248 NA
ATOM     30  C   UNL A   1      46.268  24.287  26.178  1.00  0.00     0.031 C 
ATOM     31  C   UNL A   1      49.024  29.664  26.867  1.00  0.00     0.029 A 
ATOM     32  C   UNL A   1      48.067  28.661  26.879  1.00  0.00     0.049 A 
ATOM     33  H   UNL A   1      46.051  28.758  27.484  1.00  0.00     0.167 HD
ATOM     34  C   UNL A   1      47.226  26.352  26.494  1.00  0.00     0.074 A 
ATOM     35  C   UNL A   1      47.398  24.975  26.071  1.00  0.00     0.031 C 
ATOM     36  C   UNL A   1      48.209  27.285  26.473  1.00  0.00     0.031 A 
BRANCH  23  37
ATOM     37  C   UNL A   1      46.464  32.903  28.422  1.00  0.00    -0.014 A 
ATOM     38  C   UNL A   1      46.899  33.311  29.698  1.00  0.00     0.010 A 
ATOM     39  C   UNL A   1      46.319  33.863  27.406  1.00  0.00     0.010 A 
ATOM     40  C   UNL A   1      47.127  34.661  29.968  1.00  0.00     0.020 A 
ATOM     41  C   UNL A   1      46.571  35.212  27.667  1.00  0.00     0.020 A 
ATOM     42  C   UNL A   1      46.949  35.605  28.953  1.00  0.00     0.054 A 
BRANCH  42  43
ATOM     43  S   UNL A   1      47.231  37.356  29.335  1.00  0.00     0.124 S 
ATOM     44  O   UNL A   1      48.633  37.523  28.959  1.00  0.00    -0.237 OA
ATOM     45  O   UNL A   1      46.266  38.033  28.473  1.00  0.00    -0.237 OA
ATOM     46  O   UNL A   1      46.956  37.446  30.766  1.00  0.00    -0.744 OA
ENDBRANCH  42  43
ENDBRANCH  23  37
BRANCH  24  47
ATOM     47  C   UNL A   1      43.549  23.425  26.905  1.00  0.00    -0.014 A 
ATOM     48  C   UNL A   1      43.330  22.540  27.976  1.00  0.00     0.010 A 
ATOM     49  C   UNL A   1      43.346  22.964  25.591  1.00  0.00     0.010 A 
ATOM     50  C   UNL A   1      42.943  21.217  27.737  1.00  0.00     0.020 A 
ATOM     51  C   UNL A   1      42.939  21.648  25.348  1.00  0.00     0.020 A 
ATOM     52  C   UNL A   1      42.752  20.778  26.422  1.00  0.00     0.054 A 
BRANCH  52  53
ATOM     53  S   UNL A   1      42.222  19.065  26.141  1.00  0.00     0.124 S 
ATOM     54  O   UNL A   1      40.816  19.234  25.786  1.00  0.00    -0.237 OA
ATOM     55  O   UNL A   1      43.101  18.638  25.055  1.00  0.00    -0.237 OA
ATOM     56  O   UNL A   1      42.470  18.413  27.425  1.00  0.00    -0.744 OA
ENDBRANCH  52  53
ENDBRANCH  24  47
BRANCH  36  57
ATOM     57  C   UNL A   1      49.570  26.837  26.017  1.00  0.00    -0.014 A 
ATOM     58  C   UNL A   1      50.010  27.068  24.704  1.00  0.00     0.010 A 
ATOM     59  C   UNL A   1      50.440  26.236  26.944  1.00  0.00     0.010 A 
ATOM     60  C   UNL A   1      51.295  26.680  24.317  1.00  0.00     0.020 A 
ATOM     61  C   UNL A   1      51.733  25.872  26.568  1.00  0.00     0.020 A 
ATOM     62  C   UNL A   1      52.148  26.085  25.252  1.00  0.00     0.054 A 
BRANCH  62  63
ATOM     63  S   UNL A   1      53.832  25.645  24.743  1.00  0.00     0.124 S 
ATOM     64  O   UNL A   1      53.833  24.196  24.926  1.00  0.00    -0.237 OA
ATOM     65  O   UNL A   1      53.879  26.105  23.356  1.00  0.00    -0.237 OA
ATOM     66  O   UNL A   1      54.679  26.392  25.670  1.00  0.00    -0.744 OA
ENDBRANCH  62  63
ENDBRANCH  36  57
ENDBRANCH  10  11
ENDBRANCH   3   5
ENDBRANCH   2   3
ENDBRANCH   1   2
BRANCH   1  67
ATOM     67  C   UNL A   1      36.567  34.012  33.252  1.00  0.00     0.275 C 
BRANCH  67  68
ATOM     68  O   UNL A   1      35.278  34.078  33.879  1.00  0.00    -0.458 OA
BRANCH  68  69
ATOM     69  C   UNL A   1      34.198  33.912  33.067  1.00  0.00     0.340 C 
ATOM     70  O   UNL A   1      33.439  32.958  33.041  1.00  0.00    -0.246 OA
BRANCH  69  71
ATOM     71  C   UNL A   1      33.994  35.155  32.295  1.00  0.00     0.087 A 
ATOM     72  C   UNL A   1      34.142  36.378  32.967  1.00  0.00     0.057 A 
ATOM     73  C   UNL A   1      33.599  35.109  30.938  1.00  0.00     0.064 A 
ATOM     74  C   UNL A   1      33.844  37.555  32.305  1.00  0.00     0.124 A 
ATOM     75  C   UNL A   1      33.167  36.310  30.364  1.00  0.00     0.030 A 
ATOM     76  F   UNL A   1      34.039  38.725  32.921  1.00  0.00    -0.207 F 
ATOM     77  C   UNL A   1      33.295  37.528  31.036  1.00  0.00     0.041 A 
BRANCH  73  78
ATOM     78  N   UNL A   1      33.931  33.952  30.143  1.00  0.00    -0.278 N 
ATOM     79  H   UNL A   1      34.246  33.161  30.638  1.00  0.00     0.180 HD
BRANCH  78  80
ATOM     80  S   UNL A   1      33.847  33.796  28.475  1.00  0.00     0.271 S 
ATOM     81  O   UNL A   1      32.456  33.941  28.100  1.00  0.00    -0.200 OA
ATOM     82  O   UNL A   1      34.864  34.634  27.881  1.00  0.00    -0.200 OA
BRANCH  80  83
ATOM     83  C   UNL A   1      34.299  32.174  27.908  1.00  0.00     0.141 A 
ATOM     84  C   UNL A   1      35.520  31.516  27.943  1.00  0.00     0.036 A 
ATOM     85  S   UNL A   1      33.065  31.174  27.269  1.00  0.00    -0.110 S 
ATOM     86  C   UNL A   1      35.396  30.137  27.612  1.00  0.00     0.034 A 
ATOM     87  C   UNL A   1      34.101  29.830  27.284  1.00  0.00     0.094 A 
ATOM     88  Cl  UNL A   1      33.484  28.270  26.923  1.00  0.00    -0.072 Cl
ENDBRANCH  80  83
ENDBRANCH  78  80
ENDBRANCH  73  78
ENDBRANCH  69  71
ENDBRANCH  68  69
ENDBRANCH  67  68
ENDBRANCH   1  67
TORSDOF 17
ENDMDL
MODEL 3
REMARK VINA RESULT:     -10.7      0.614      8.328
REMARK SMILES O=C(OCCOC(=O)c1cc(F)ccc1NS(=O)(=O)c1ccc(Cl)s1)c1ccc(-c2c3nc(c(-c4ccc(S(=O)(=O)[O-])cc4)c4ccc([nH]4)c(-c4ccc(S(=O)(=O)[O-])cc4)c4nc(c(-c5ccc(S(=O)(=O)[O-])cc5)c5ccc2[nH]5)C=C4)C=C3)cc1
REMARK SMILES IDX 4 1 3 2 2 3 1 4 26 5 27 6 85 7 28 8 84 9 29 10 30 11 31 12
REMARK SMILES IDX 78 13 32 14 83 15 77 16 79 17 33 18 82 19 76 20 75 21 34 23
REMARK SMILES IDX 64 24 45 25 63 26 46 27 49 28 62 29 80 30 47 31 48 32 61 34
REMARK SMILES IDX 81 35 50 36 35 37 36 38 44 39 37 40 43 41 38 42 39 43 40 44
REMARK SMILES IDX 41 45 42 46 65 47 66 48 74 49 67 50 73 51 68 52 69 53 70 54
REMARK SMILES IDX 71 55 72 56 51 57 52 58 60 59 53 60 59 61 54 62 55 63 56 64
REMARK SMILES IDX 57 65 58 66 5 67 6 68 7 69 8 70 9 71 10 72 15 73 11 74 14 75
REMARK SMILES IDX 12 76 13 77 16 78 17 80 18 81 19 82 20 83 21 84 25 85 22 86
REMARK SMILES IDX 23 87 24 88
REMARK H PARENT 79 22 49 33 16 79
REMARK Flexibility Score: inf
ROOT
ATOM      1  C   UNL A   1      44.331  23.800  26.646  1.00  0.00     0.275 C 
ENDROOT
BRANCH   1   2
ATOM      2  O   UNL A   1      42.954  24.147  26.431  1.00  0.00    -0.458 OA
BRANCH   2   3
ATOM      3  C   UNL A   1      42.342  25.347  26.316  1.00  0.00     0.338 C 
ATOM      4  O   UNL A   1      41.938  25.675  25.201  1.00  0.00    -0.246 OA
BRANCH   3   5
ATOM      5  C   UNL A   1      42.196  26.339  27.433  1.00  0.00     0.060 A 
ATOM      6  C   UNL A   1      43.024  27.432  27.694  1.00  0.00     0.016 A 
ATOM      7  C   UNL A   1      41.125  26.124  28.316  1.00  0.00     0.016 A 
ATOM      8  C   UNL A   1      42.750  28.314  28.748  1.00  0.00     0.010 A 
ATOM      9  C   UNL A   1      40.822  27.015  29.348  1.00  0.00     0.010 A 
ATOM     10  C   UNL A   1      41.645  28.118  29.578  1.00  0.00    -0.014 A 
BRANCH  10  11
ATOM     11  C   UNL A   1      41.440  28.982  30.764  1.00  0.00     0.031 A 
ATOM     12  C   UNL A   1      40.349  30.012  30.727  1.00  0.00     0.074 A 
ATOM     13  C   UNL A   1      42.195  28.827  31.869  1.00  0.00     0.049 A 
ATOM     14  N   UNL A   1      39.951  30.820  31.673  1.00  0.00    -0.248 NA
ATOM     15  C   UNL A   1      39.593  30.136  29.468  1.00  0.00     0.031 C 
ATOM     16  C   UNL A   1      43.247  27.829  32.035  1.00  0.00     0.029 A 
ATOM     17  N   UNL A   1      42.202  29.510  33.059  1.00  0.00    -0.354 N 
ATOM     18  C   UNL A   1      38.874  31.516  31.138  1.00  0.00     0.074 A 
ATOM     19  C   UNL A   1      38.736  31.101  29.761  1.00  0.00     0.031 C 
ATOM     20  C   UNL A   1      43.836  27.995  33.231  1.00  0.00     0.029 A 
ATOM     21  C   UNL A   1      43.183  29.093  33.930  1.00  0.00     0.049 A 
ATOM     22  H   UNL A   1      41.564  30.229  33.271  1.00  0.00     0.167 HD
ATOM     23  C   UNL A   1      38.043  32.388  31.754  1.00  0.00     0.031 A 
ATOM     24  C   UNL A   1      43.509  29.538  35.159  1.00  0.00     0.031 A 
ATOM     25  C   UNL A   1      38.203  32.814  33.115  1.00  0.00     0.049 A 
ATOM     26  C   UNL A   1      42.644  30.597  35.786  1.00  0.00     0.074 A 
ATOM     27  C   UNL A   1      37.421  33.689  33.844  1.00  0.00     0.029 A 
ATOM     28  N   UNL A   1      39.231  32.398  33.950  1.00  0.00    -0.354 N 
ATOM     29  N   UNL A   1      41.585  31.192  35.286  1.00  0.00    -0.248 NA
ATOM     30  C   UNL A   1      42.983  31.010  37.153  1.00  0.00     0.031 C 
ATOM     31  C   UNL A   1      38.002  33.838  35.109  1.00  0.00     0.029 A 
ATOM     32  C   UNL A   1      39.119  33.018  35.181  1.00  0.00     0.049 A 
ATOM     33  H   UNL A   1      39.937  31.758  33.702  1.00  0.00     0.167 HD
ATOM     34  C   UNL A   1      41.102  32.013  36.297  1.00  0.00     0.074 A 
ATOM     35  C   UNL A   1      41.988  31.842  37.433  1.00  0.00     0.031 C 
ATOM     36  C   UNL A   1      40.013  32.821  36.294  1.00  0.00     0.031 A 
BRANCH  23  37
ATOM     37  C   UNL A   1      36.900  32.921  30.936  1.00  0.00    -0.014 A 
ATOM     38  C   UNL A   1      37.107  33.960  30.008  1.00  0.00     0.010 A 
ATOM     39  C   UNL A   1      35.604  32.412  31.119  1.00  0.00     0.010 A 
ATOM     40  C   UNL A   1      36.029  34.519  29.321  1.00  0.00     0.020 A 
ATOM     41  C   UNL A   1      34.525  32.954  30.414  1.00  0.00     0.020 A 
ATOM     42  C   UNL A   1      34.742  34.020  29.538  1.00  0.00     0.054 A 
BRANCH  42  43
ATOM     43  S   UNL A   1      33.354  34.777  28.649  1.00  0.00     0.124 S 
ATOM     44  O   UNL A   1      34.003  35.907  27.988  1.00  0.00    -0.237 OA
ATOM     45  O   UNL A   1      32.914  33.702  27.764  1.00  0.00    -0.237 OA
ATOM     46  O   UNL A   1      32.416  35.132  29.710  1.00  0.00    -0.744 OA
ENDBRANCH  42  43
ENDBRANCH  23  37
BRANCH  24  47
ATOM     47  C   UNL A   1      44.676  28.963  35.885  1.00  0.00    -0.014 A 
ATOM     48  C   UNL A   1      45.979  29.444  35.660  1.00  0.00     0.010 A 
ATOM     49  C   UNL A   1      44.488  27.920  36.812  1.00  0.00     0.010 A 
ATOM     50  C   UNL A   1      47.070  28.877  36.326  1.00  0.00     0.020 A 
ATOM     51  C   UNL A   1      45.575  27.364  37.495  1.00  0.00     0.020 A 
ATOM     52  C   UNL A   1      46.862  27.838  37.239  1.00  0.00     0.054 A 
BRANCH  52  53
ATOM     53  S   UNL A   1      48.292  27.140  38.112  1.00  0.00     0.124 S 
ATOM     54  O   UNL A   1      47.703  25.993  38.795  1.00  0.00    -0.237 OA
ATOM     55  O   UNL A   1      49.205  26.823  37.015  1.00  0.00    -0.237 OA
ATOM     56  O   UNL A   1      48.731  28.230  38.981  1.00  0.00    -0.744 OA
ENDBRANCH  52  53
ENDBRANCH  24  47
BRANCH  36  57
ATOM     57  C   UNL A   1      39.694  33.547  37.571  1.00  0.00    -0.014 A 
ATOM     58  C   UNL A   1      38.937  32.937  38.585  1.00  0.00     0.010 A 
ATOM     59  C   UNL A   1      40.221  34.834  37.779  1.00  0.00     0.010 A 
ATOM     60  C   UNL A   1      38.689  33.616  39.780  1.00  0.00     0.020 A 
ATOM     61  C   UNL A   1      39.998  35.505  38.982  1.00  0.00     0.020 A 
ATOM     62  C   UNL A   1      39.223  34.896  39.971  1.00  0.00     0.054 A 
BRANCH  62  63
ATOM     63  S   UNL A   1      38.939  35.734  41.553  1.00  0.00     0.124 S 
ATOM     64  O   UNL A   1      39.135  37.135  41.192  1.00  0.00    -0.237 OA
ATOM     65  O   UNL A   1      37.565  35.353  41.878  1.00  0.00    -0.237 OA
ATOM     66  O   UNL A   1      39.959  35.166  42.432  1.00  0.00    -0.744 OA
ENDBRANCH  62  63
ENDBRANCH  36  57
ENDBRANCH  10  11
ENDBRANCH   3   5
ENDBRANCH   2   3
ENDBRANCH   1   2
BRANCH   1  67
ATOM     67  C   UNL A   1      45.264  24.162  25.491  1.00  0.00     0.275 C 
BRANCH  67  68
ATOM     68  O   UNL A   1      45.710  23.034  24.724  1.00  0.00    -0.458 OA
BRANCH  68  69
ATOM     69  C   UNL A   1      44.742  22.236  24.196  1.00  0.00     0.340 C 
ATOM     70  O   UNL A   1      44.004  22.498  23.262  1.00  0.00    -0.246 OA
BRANCH  69  71
ATOM     71  C   UNL A   1      44.813  20.914  24.851  1.00  0.00     0.087 A 
ATOM     72  C   UNL A   1      46.075  20.319  24.996  1.00  0.00     0.057 A 
ATOM     73  C   UNL A   1      43.637  20.244  25.261  1.00  0.00     0.064 A 
ATOM     74  C   UNL A   1      46.164  19.033  25.497  1.00  0.00     0.124 A 
ATOM     75  C   UNL A   1      43.768  18.898  25.618  1.00  0.00     0.030 A 
ATOM     76  F   UNL A   1      47.367  18.484  25.693  1.00  0.00    -0.207 F 
ATOM     77  C   UNL A   1      45.021  18.294  25.746  1.00  0.00     0.041 A 
BRANCH  73  78
ATOM     78  N   UNL A   1      42.458  21.013  25.577  1.00  0.00    -0.278 N 
ATOM     79  H   UNL A   1      42.460  21.952  25.281  1.00  0.00     0.180 HD
BRANCH  78  80
ATOM     80  S   UNL A   1      41.085  20.496  26.391  1.00  0.00     0.271 S 
ATOM     81  O   UNL A   1      40.535  19.385  25.643  1.00  0.00    -0.200 OA
ATOM     82  O   UNL A   1      41.406  20.357  27.794  1.00  0.00    -0.200 OA
BRANCH  80  83
ATOM     83  C   UNL A   1      39.791  21.713  26.407  1.00  0.00     0.141 A 
ATOM     84  C   UNL A   1      39.740  22.965  27.003  1.00  0.00     0.036 A 
ATOM     85  S   UNL A   1      38.374  21.390  25.502  1.00  0.00    -0.110 S 
ATOM     86  C   UNL A   1      38.617  23.722  26.564  1.00  0.00     0.034 A 
ATOM     87  C   UNL A   1      37.839  22.987  25.707  1.00  0.00     0.094 A 
ATOM     88  Cl  UNL A   1      36.450  23.539  24.864  1.00  0.00    -0.072 Cl
ENDBRANCH  80  83
ENDBRANCH  78  80
ENDBRANCH  73  78
ENDBRANCH  69  71
ENDBRANCH  68  69
ENDBRANCH  67  68
ENDBRANCH   1  67
TORSDOF 17
ENDMDL
