MODEL 1
REMARK VINA RESULT:     -10.0      0.000      0.000
REMARK SMILES CC(C)C[C@H](NC(=O)c1cc(Cl)nnc1Cl)C(=O)OCCOC(=O)c1ccc(-c2c3nc(c(-c4ccc(S(=O)(=O)[O-])cc4)c4ccc([nH]4)c(-c4ccc(S(=O)(=O)[O-])cc4)c4nc(c(-c5ccc(S(=O)(=O)[O-])cc5)c5ccc2[nH]5)C=C4)C=C3)cc1
REMARK SMILES IDX 21 1 20 2 19 3 17 4 18 5 5 6 4 7 2 8 1 9 3 10 6 11 7 12 8 14
REMARK SMILES IDX 9 15 10 16 15 17 11 18 14 19 16 20 12 21 13 22 22 23 23 24
REMARK SMILES IDX 24 25 25 26 26 27 84 28 27 29 83 30 28 31 29 32 30 33 77 34
REMARK SMILES IDX 31 35 82 36 76 37 78 38 32 39 81 40 75 41 74 42 33 44 63 45
REMARK SMILES IDX 44 46 62 47 45 48 48 49 61 50 79 51 46 52 47 53 60 55 80 56
REMARK SMILES IDX 49 57 34 58 35 59 43 60 36 61 42 62 37 63 38 64 39 65 40 66
REMARK SMILES IDX 41 67 64 68 65 69 73 70 66 71 72 72 67 73 68 74 69 75 70 76
REMARK SMILES IDX 71 77 50 78 51 79 59 80 52 81 58 82 53 83 54 84 55 85 56 86
REMARK SMILES IDX 57 87
REMARK H PARENT 6 13 78 43 48 54
REMARK Flexibility Score: inf
ROOT
ATOM      1  C   UNL A   1      32.274  28.309  27.416  1.00  0.00     0.275 C 
ENDROOT
BRANCH   1   2
ATOM      2  C   UNL A   1      31.640  28.283  26.019  1.00  0.00     0.274 C 
BRANCH   2   3
ATOM      3  O   UNL A   1      31.855  27.022  25.360  1.00  0.00    -0.461 OA
BRANCH   3   4
ATOM      4  C   UNL A   1      31.228  25.936  25.903  1.00  0.00     0.328 C 
ATOM      5  O   UNL A   1      30.205  25.990  26.572  1.00  0.00    -0.250 OA
BRANCH   4   6
ATOM      6  C   UNL A   1      31.982  24.627  25.601  1.00  0.00     0.192 C 
BRANCH   6   7
ATOM      7  C   UNL A   1      31.646  24.095  24.195  1.00  0.00     0.040 C 
BRANCH   7   8
ATOM      8  C   UNL A   1      32.703  24.215  23.073  1.00  0.00    -0.015 C 
ATOM      9  C   UNL A   1      34.040  24.770  23.587  1.00  0.00     0.007 C 
ATOM     10  C   UNL A   1      32.969  22.823  22.485  1.00  0.00     0.007 C 
ENDBRANCH   7   8
ENDBRANCH   6   7
BRANCH   6  11
ATOM     11  N   UNL A   1      31.882  23.709  26.759  1.00  0.00    -0.338 N 
ATOM     12  C   UNL A   1      32.719  22.742  27.239  1.00  0.00     0.255 C 
ATOM     13  H   UNL A   1      31.055  23.817  27.282  1.00  0.00     0.164 HD
ATOM     14  O   UNL A   1      32.753  22.457  28.432  1.00  0.00    -0.269 OA
BRANCH  12  15
ATOM     15  C   UNL A   1      33.410  21.855  26.321  1.00  0.00     0.082 A 
ATOM     16  C   UNL A   1      32.677  20.767  25.846  1.00  0.00     0.060 A 
ATOM     17  C   UNL A   1      34.720  22.029  25.930  1.00  0.00     0.164 A 
ATOM     18  C   UNL A   1      33.294  19.938  24.944  1.00  0.00     0.152 A 
ATOM     19  N   UNL A   1      35.287  21.195  25.033  1.00  0.00    -0.136 NA
ATOM     20  Cl  UNL A   1      35.712  23.334  26.421  1.00  0.00    -0.059 Cl
ATOM     21  Cl  UNL A   1      32.476  18.606  24.251  1.00  0.00    -0.060 Cl
ATOM     22  N   UNL A   1      34.559  20.138  24.526  1.00  0.00    -0.137 NA
ENDBRANCH  12  15
ENDBRANCH   6  11
ENDBRANCH   4   6
ENDBRANCH   3   4
ENDBRANCH   2   3
ENDBRANCH   1   2
BRANCH   1  23
ATOM     23  O   UNL A   1      33.702  28.484  27.369  1.00  0.00    -0.458 OA
BRANCH  23  24
ATOM     24  C   UNL A   1      34.136  29.736  27.647  1.00  0.00     0.338 C 
ATOM     25  O   UNL A   1      33.456  30.748  27.708  1.00  0.00    -0.246 OA
BRANCH  24  26
ATOM     26  C   UNL A   1      35.552  29.700  28.046  1.00  0.00     0.060 A 
ATOM     27  C   UNL A   1      36.516  29.989  27.074  1.00  0.00     0.016 A 
ATOM     28  C   UNL A   1      35.934  29.299  29.326  1.00  0.00     0.016 A 
ATOM     29  C   UNL A   1      37.866  29.852  27.362  1.00  0.00     0.010 A 
ATOM     30  C   UNL A   1      37.294  29.151  29.613  1.00  0.00     0.010 A 
ATOM     31  C   UNL A   1      38.261  29.402  28.624  1.00  0.00    -0.014 A 
BRANCH  31  32
ATOM     32  C   UNL A   1      39.684  29.084  28.862  1.00  0.00     0.031 A 
ATOM     33  C   UNL A   1      40.560  30.120  29.504  1.00  0.00     0.074 A 
ATOM     34  C   UNL A   1      40.164  27.862  28.571  1.00  0.00     0.049 A 
ATOM     35  N   UNL A   1      41.849  30.089  29.717  1.00  0.00    -0.248 NA
ATOM     36  C   UNL A   1      39.898  31.347  29.983  1.00  0.00     0.031 C 
ATOM     37  C   UNL A   1      39.375  26.740  28.056  1.00  0.00     0.029 A 
ATOM     38  N   UNL A   1      41.433  27.357  28.685  1.00  0.00    -0.354 N 
ATOM     39  C   UNL A   1      42.155  31.290  30.344  1.00  0.00     0.074 A 
ATOM     40  C   UNL A   1      40.923  32.035  30.471  1.00  0.00     0.031 C 
ATOM     41  C   UNL A   1      40.179  25.674  27.908  1.00  0.00     0.029 A 
ATOM     42  C   UNL A   1      41.544  26.052  28.268  1.00  0.00     0.049 A 
ATOM     43  H   UNL A   1      42.192  27.878  29.032  1.00  0.00     0.167 HD
ATOM     44  C   UNL A   1      43.359  31.727  30.774  1.00  0.00     0.031 A 
ATOM     45  C   UNL A   1      42.631  25.263  28.165  1.00  0.00     0.031 A 
ATOM     46  C   UNL A   1      44.581  30.981  30.643  1.00  0.00     0.049 A 
ATOM     47  C   UNL A   1      43.978  25.824  28.531  1.00  0.00     0.074 A 
ATOM     48  C   UNL A   1      45.862  31.359  31.004  1.00  0.00     0.029 A 
ATOM     49  N   UNL A   1      44.670  29.701  30.119  1.00  0.00    -0.354 N 
ATOM     50  N   UNL A   1      44.269  26.999  29.035  1.00  0.00    -0.248 NA
ATOM     51  C   UNL A   1      45.143  24.959  28.299  1.00  0.00     0.031 C 
ATOM     52  C   UNL A   1      46.733  30.318  30.667  1.00  0.00     0.029 A 
ATOM     53  C   UNL A   1      45.987  29.278  30.137  1.00  0.00     0.049 A 
ATOM     54  H   UNL A   1      43.910  29.173  29.785  1.00  0.00     0.167 HD
ATOM     55  C   UNL A   1      45.650  27.008  29.196  1.00  0.00     0.074 A 
ATOM     56  C   UNL A   1      46.134  25.719  28.744  1.00  0.00     0.031 C 
ATOM     57  C   UNL A   1      46.445  27.994  29.676  1.00  0.00     0.031 A 
BRANCH  44  58
ATOM     58  C   UNL A   1      43.432  33.087  31.407  1.00  0.00    -0.014 A 
ATOM     59  C   UNL A   1      43.363  33.236  32.802  1.00  0.00     0.010 A 
ATOM     60  C   UNL A   1      43.672  34.216  30.602  1.00  0.00     0.010 A 
ATOM     61  C   UNL A   1      43.542  34.495  33.384  1.00  0.00     0.020 A 
ATOM     62  C   UNL A   1      43.867  35.471  31.180  1.00  0.00     0.020 A 
ATOM     63  C   UNL A   1      43.806  35.602  32.569  1.00  0.00     0.054 A 
BRANCH  63  64
ATOM     64  S   UNL A   1      44.103  37.207  33.361  1.00  0.00     0.124 S 
ATOM     65  O   UNL A   1      42.843  37.438  34.065  1.00  0.00    -0.237 OA
ATOM     66  O   UNL A   1      45.256  36.928  34.211  1.00  0.00    -0.237 OA
ATOM     67  O   UNL A   1      44.356  38.107  32.238  1.00  0.00    -0.744 OA
ENDBRANCH  63  64
ENDBRANCH  44  58
BRANCH  45  68
ATOM     68  C   UNL A   1      42.498  23.871  27.662  1.00  0.00    -0.014 A 
ATOM     69  C   UNL A   1      42.266  22.813  28.556  1.00  0.00     0.010 A 
ATOM     70  C   UNL A   1      42.603  23.597  26.287  1.00  0.00     0.010 A 
ATOM     71  C   UNL A   1      42.146  21.502  28.085  1.00  0.00     0.020 A 
ATOM     72  C   UNL A   1      42.463  22.291  25.809  1.00  0.00     0.020 A 
ATOM     73  C   UNL A   1      42.238  21.251  26.713  1.00  0.00     0.054 A 
BRANCH  73  74
ATOM     74  S   UNL A   1      42.045  19.545  26.128  1.00  0.00     0.124 S 
ATOM     75  O   UNL A   1      42.498  18.771  27.279  1.00  0.00    -0.237 OA
ATOM     76  O   UNL A   1      40.615  19.477  25.842  1.00  0.00    -0.237 OA
ATOM     77  O   UNL A   1      42.913  19.483  24.954  1.00  0.00    -0.744 OA
ENDBRANCH  73  74
ENDBRANCH  45  68
BRANCH  57  78
ATOM     78  C   UNL A   1      47.919  27.717  29.759  1.00  0.00    -0.014 A 
ATOM     79  C   UNL A   1      48.454  26.965  30.818  1.00  0.00     0.010 A 
ATOM     80  C   UNL A   1      48.767  28.154  28.724  1.00  0.00     0.010 A 
ATOM     81  C   UNL A   1      49.818  26.669  30.851  1.00  0.00     0.020 A 
ATOM     82  C   UNL A   1      50.129  27.842  28.745  1.00  0.00     0.020 A 
ATOM     83  C   UNL A   1      50.646  27.105  29.812  1.00  0.00     0.054 A 
BRANCH  83  84
ATOM     84  S   UNL A   1      52.406  26.675  29.869  1.00  0.00     0.124 S 
ATOM     85  O   UNL A   1      52.618  26.075  28.554  1.00  0.00    -0.237 OA
ATOM     86  O   UNL A   1      53.041  27.974  30.075  1.00  0.00    -0.237 OA
ATOM     87  O   UNL A   1      52.504  25.750  30.996  1.00  0.00    -0.744 OA
ENDBRANCH  83  84
ENDBRANCH  57  78
ENDBRANCH  31  32
ENDBRANCH  24  26
ENDBRANCH  23  24
ENDBRANCH   1  23
TORSDOF 18
ENDMDL
MODEL 2
REMARK VINA RESULT:      -9.9      1.366      2.127
REMARK SMILES CC(C)C[C@H](NC(=O)c1cc(Cl)nnc1Cl)C(=O)OCCOC(=O)c1ccc(-c2c3nc(c(-c4ccc(S(=O)(=O)[O-])cc4)c4ccc([nH]4)c(-c4ccc(S(=O)(=O)[O-])cc4)c4nc(c(-c5ccc(S(=O)(=O)[O-])cc5)c5ccc2[nH]5)C=C4)C=C3)cc1
REMARK SMILES IDX 21 1 20 2 19 3 17 4 18 5 5 6 4 7 2 8 1 9 3 10 6 11 7 12 8 14
REMARK SMILES IDX 9 15 10 16 15 17 11 18 14 19 16 20 12 21 13 22 22 23 23 24
REMARK SMILES IDX 24 25 25 26 26 27 84 28 27 29 83 30 28 31 29 32 30 33 77 34
REMARK SMILES IDX 31 35 82 36 76 37 78 38 32 39 81 40 75 41 74 42 33 44 63 45
REMARK SMILES IDX 44 46 62 47 45 48 48 49 61 50 79 51 46 52 47 53 60 55 80 56
REMARK SMILES IDX 49 57 34 58 35 59 43 60 36 61 42 62 37 63 38 64 39 65 40 66
REMARK SMILES IDX 41 67 64 68 65 69 73 70 66 71 72 72 67 73 68 74 69 75 70 76
REMARK SMILES IDX 71 77 50 78 51 79 59 80 52 81 58 82 53 83 54 84 55 85 56 86
REMARK SMILES IDX 57 87
REMARK H PARENT 6 13 78 43 48 54
REMARK Flexibility Score: inf
ROOT
ATOM      1  C   UNL A   1      32.993  31.200  27.202  1.00  0.00     0.275 C 
ENDROOT
BRANCH   1   2
ATOM      2  C   UNL A   1      31.798  30.412  26.652  1.00  0.00     0.274 C 
BRANCH   2   3
ATOM      3  O   UNL A   1      32.204  29.153  26.086  1.00  0.00    -0.461 OA
BRANCH   3   4
ATOM      4  C   UNL A   1      31.645  28.032  26.630  1.00  0.00     0.328 C 
ATOM      5  O   UNL A   1      31.185  27.966  27.762  1.00  0.00    -0.250 OA
BRANCH   4   6
ATOM      6  C   UNL A   1      31.689  26.837  25.658  1.00  0.00     0.192 C 
BRANCH   6   7
ATOM      7  C   UNL A   1      32.010  27.292  24.221  1.00  0.00     0.040 C 
BRANCH   7   8
ATOM      8  C   UNL A   1      33.315  26.804  23.552  1.00  0.00    -0.015 C 
ATOM      9  C   UNL A   1      34.060  25.769  24.408  1.00  0.00     0.007 C 
ATOM     10  C   UNL A   1      32.972  26.142  22.210  1.00  0.00     0.007 C 
ENDBRANCH   7   8
ENDBRANCH   6   7
BRANCH   6  11
ATOM     11  N   UNL A   1      30.523  25.955  25.889  1.00  0.00    -0.338 N 
ATOM     12  C   UNL A   1      30.420  24.665  26.328  1.00  0.00     0.255 C 
ATOM     13  H   UNL A   1      29.658  26.378  25.687  1.00  0.00     0.164 HD
ATOM     14  O   UNL A   1      29.433  24.273  26.942  1.00  0.00    -0.269 OA
BRANCH  12  15
ATOM     15  C   UNL A   1      31.362  23.661  25.868  1.00  0.00     0.082 A 
ATOM     16  C   UNL A   1      32.219  23.131  26.833  1.00  0.00     0.060 A 
ATOM     17  C   UNL A   1      31.451  23.239  24.558  1.00  0.00     0.164 A 
ATOM     18  C   UNL A   1      33.089  22.150  26.432  1.00  0.00     0.152 A 
ATOM     19  N   UNL A   1      32.316  22.263  24.207  1.00  0.00    -0.136 NA
ATOM     20  Cl  UNL A   1      30.442  23.791  23.293  1.00  0.00    -0.059 Cl
ATOM     21  Cl  UNL A   1      34.148  21.389  27.538  1.00  0.00    -0.060 Cl
ATOM     22  N   UNL A   1      33.142  21.705  25.162  1.00  0.00    -0.137 NA
ENDBRANCH  12  15
ENDBRANCH   6  11
ENDBRANCH   4   6
ENDBRANCH   3   4
ENDBRANCH   2   3
ENDBRANCH   1   2
BRANCH   1  23
ATOM     23  O   UNL A   1      33.873  30.382  27.994  1.00  0.00    -0.458 OA
BRANCH  23  24
ATOM     24  C   UNL A   1      34.727  31.065  28.793  1.00  0.00     0.338 C 
ATOM     25  O   UNL A   1      34.444  31.978  29.553  1.00  0.00    -0.246 OA
BRANCH  24  26
ATOM     26  C   UNL A   1      36.059  30.440  28.757  1.00  0.00     0.060 A 
ATOM     27  C   UNL A   1      36.650  30.085  29.973  1.00  0.00     0.016 A 
ATOM     28  C   UNL A   1      36.755  30.288  27.559  1.00  0.00     0.016 A 
ATOM     29  C   UNL A   1      37.951  29.605  30.008  1.00  0.00     0.010 A 
ATOM     30  C   UNL A   1      38.070  29.814  27.593  1.00  0.00     0.010 A 
ATOM     31  C   UNL A   1      38.678  29.496  28.819  1.00  0.00    -0.014 A 
BRANCH  31  32
ATOM     32  C   UNL A   1      40.116  29.160  28.884  1.00  0.00     0.031 A 
ATOM     33  C   UNL A   1      41.081  30.198  29.380  1.00  0.00     0.074 A 
ATOM     34  C   UNL A   1      40.538  27.922  28.572  1.00  0.00     0.049 A 
ATOM     35  N   UNL A   1      42.385  30.150  29.429  1.00  0.00    -0.248 NA
ATOM     36  C   UNL A   1      40.502  31.449  29.902  1.00  0.00     0.031 C 
ATOM     37  C   UNL A   1      39.675  26.801  28.193  1.00  0.00     0.029 A 
ATOM     38  N   UNL A   1      41.804  27.398  28.539  1.00  0.00    -0.354 N 
ATOM     39  C   UNL A   1      42.785  31.362  29.976  1.00  0.00     0.074 A 
ATOM     40  C   UNL A   1      41.589  32.132  30.236  1.00  0.00     0.031 C 
ATOM     41  C   UNL A   1      40.439  25.717  27.977  1.00  0.00     0.029 A 
ATOM     42  C   UNL A   1      41.844  26.081  28.150  1.00  0.00     0.049 A 
ATOM     43  H   UNL A   1      42.608  27.916  28.771  1.00  0.00     0.167 HD
ATOM     44  C   UNL A   1      44.041  31.791  30.237  1.00  0.00     0.031 A 
ATOM     45  C   UNL A   1      42.897  25.270  27.933  1.00  0.00     0.031 A 
ATOM     46  C   UNL A   1      45.225  31.020  29.975  1.00  0.00     0.049 A 
ATOM     47  C   UNL A   1      44.288  25.818  28.110  1.00  0.00     0.074 A 
ATOM     48  C   UNL A   1      46.546  31.385  30.160  1.00  0.00     0.029 A 
ATOM     49  N   UNL A   1      45.229  29.725  29.482  1.00  0.00    -0.354 N 
ATOM     50  N   UNL A   1      44.657  27.001  28.538  1.00  0.00    -0.248 NA
ATOM     51  C   UNL A   1      45.402  24.926  27.757  1.00  0.00     0.031 C 
ATOM     52  C   UNL A   1      47.354  30.320  29.746  1.00  0.00     0.029 A 
ATOM     53  C   UNL A   1      46.532  29.279  29.345  1.00  0.00     0.049 A 
ATOM     54  H   UNL A   1      44.426  29.200  29.262  1.00  0.00     0.167 HD
ATOM     55  C   UNL A   1      46.047  26.991  28.522  1.00  0.00     0.074 A 
ATOM     56  C   UNL A   1      46.452  25.681  28.051  1.00  0.00     0.031 C 
ATOM     57  C   UNL A   1      46.910  27.975  28.868  1.00  0.00     0.031 A 
BRANCH  44  58
ATOM     58  C   UNL A   1      44.211  33.166  30.815  1.00  0.00    -0.014 A 
ATOM     59  C   UNL A   1      44.286  34.293  29.980  1.00  0.00     0.010 A 
ATOM     60  C   UNL A   1      44.195  33.340  32.211  1.00  0.00     0.010 A 
ATOM     61  C   UNL A   1      44.333  35.576  30.533  1.00  0.00     0.020 A 
ATOM     62  C   UNL A   1      44.226  34.620  32.767  1.00  0.00     0.020 A 
ATOM     63  C   UNL A   1      44.290  35.731  31.923  1.00  0.00     0.054 A 
BRANCH  63  64
ATOM     64  S   UNL A   1      44.283  37.412  32.606  1.00  0.00     0.124 S 
ATOM     65  O   UNL A   1      45.617  37.509  33.195  1.00  0.00    -0.237 OA
ATOM     66  O   UNL A   1      44.059  38.231  31.418  1.00  0.00    -0.237 OA
ATOM     67  O   UNL A   1      43.183  37.393  33.568  1.00  0.00    -0.744 OA
ENDBRANCH  63  64
ENDBRANCH  44  58
BRANCH  45  68
ATOM     68  C   UNL A   1      42.683  23.868  27.493  1.00  0.00    -0.014 A 
ATOM     69  C   UNL A   1      42.668  23.548  26.124  1.00  0.00     0.010 A 
ATOM     70  C   UNL A   1      42.493  22.845  28.439  1.00  0.00     0.010 A 
ATOM     71  C   UNL A   1      42.461  22.229  25.709  1.00  0.00     0.020 A 
ATOM     72  C   UNL A   1      42.307  21.522  28.028  1.00  0.00     0.020 A 
ATOM     73  C   UNL A   1      42.289  21.223  26.665  1.00  0.00     0.054 A 
BRANCH  73  74
ATOM     74  S   UNL A   1      42.056  19.517  26.096  1.00  0.00     0.124 S 
ATOM     75  O   UNL A   1      42.539  18.743  27.235  1.00  0.00    -0.237 OA
ATOM     76  O   UNL A   1      40.615  19.464  25.861  1.00  0.00    -0.237 OA
ATOM     77  O   UNL A   1      42.880  19.439  24.892  1.00  0.00    -0.744 OA
ENDBRANCH  73  74
ENDBRANCH  45  68
BRANCH  57  78
ATOM     78  C   UNL A   1      48.379  27.675  28.772  1.00  0.00    -0.014 A 
ATOM     79  C   UNL A   1      49.025  26.911  29.758  1.00  0.00     0.010 A 
ATOM     80  C   UNL A   1      49.102  28.103  27.644  1.00  0.00     0.010 A 
ATOM     81  C   UNL A   1      50.379  26.593  29.625  1.00  0.00     0.020 A 
ATOM     82  C   UNL A   1      50.451  27.769  27.499  1.00  0.00     0.020 A 
ATOM     83  C   UNL A   1      51.082  27.021  28.495  1.00  0.00     0.054 A 
BRANCH  83  84
ATOM     84  S   UNL A   1      52.829  26.563  28.338  1.00  0.00     0.124 S 
ATOM     85  O   UNL A   1      53.164  26.161  29.702  1.00  0.00    -0.237 OA
ATOM     86  O   UNL A   1      52.784  25.481  27.358  1.00  0.00    -0.237 OA
ATOM     87  O   UNL A   1      53.473  27.791  27.877  1.00  0.00    -0.744 OA
ENDBRANCH  83  84
ENDBRANCH  57  78
ENDBRANCH  31  32
ENDBRANCH  24  26
ENDBRANCH  23  24
ENDBRANCH   1  23
TORSDOF 18
ENDMDL
MODEL 3
REMARK VINA RESULT:      -9.8      5.829     11.256
REMARK SMILES CC(C)C[C@H](NC(=O)c1cc(Cl)nnc1Cl)C(=O)OCCOC(=O)c1ccc(-c2c3nc(c(-c4ccc(S(=O)(=O)[O-])cc4)c4ccc([nH]4)c(-c4ccc(S(=O)(=O)[O-])cc4)c4nc(c(-c5ccc(S(=O)(=O)[O-])cc5)c5ccc2[nH]5)C=C4)C=C3)cc1
REMARK SMILES IDX 21 1 20 2 19 3 17 4 18 5 5 6 4 7 2 8 1 9 3 10 6 11 7 12 8 14
REMARK SMILES IDX 9 15 10 16 15 17 11 18 14 19 16 20 12 21 13 22 22 23 23 24
REMARK SMILES IDX 24 25 25 26 26 27 84 28 27 29 83 30 28 31 29 32 30 33 77 34
REMARK SMILES IDX 31 35 82 36 76 37 78 38 32 39 81 40 75 41 74 42 33 44 63 45
REMARK SMILES IDX 44 46 62 47 45 48 48 49 61 50 79 51 46 52 47 53 60 55 80 56
REMARK SMILES IDX 49 57 34 58 35 59 43 60 36 61 42 62 37 63 38 64 39 65 40 66
REMARK SMILES IDX 41 67 64 68 65 69 73 70 66 71 72 72 67 73 68 74 69 75 70 76
REMARK SMILES IDX 71 77 50 78 51 79 59 80 52 81 58 82 53 83 54 84 55 85 56 86
REMARK SMILES IDX 57 87
REMARK H PARENT 6 13 78 43 48 54
REMARK Flexibility Score: inf
ROOT
ATOM      1  C   UNL A   1      43.832  25.298  24.906  1.00  0.00     0.275 C 
ENDROOT
BRANCH   1   2
ATOM      2  C   UNL A   1      45.245  25.703  25.342  1.00  0.00     0.274 C 
BRANCH   2   3
ATOM      3  O   UNL A   1      46.165  24.599  25.259  1.00  0.00    -0.461 OA
BRANCH   3   4
ATOM      4  C   UNL A   1      46.370  23.889  26.408  1.00  0.00     0.328 C 
ATOM      5  O   UNL A   1      47.424  23.866  27.030  1.00  0.00    -0.250 OA
BRANCH   4   6
ATOM      6  C   UNL A   1      45.121  23.086  26.818  1.00  0.00     0.192 C 
BRANCH   6   7
ATOM      7  C   UNL A   1      44.947  23.060  28.349  1.00  0.00     0.040 C 
BRANCH   7   8
ATOM      8  C   UNL A   1      43.956  24.045  29.009  1.00  0.00    -0.015 C 
ATOM      9  C   UNL A   1      42.697  23.342  29.537  1.00  0.00     0.007 C 
ATOM     10  C   UNL A   1      44.646  24.725  30.200  1.00  0.00     0.007 C 
ENDBRANCH   7   8
ENDBRANCH   6   7
BRANCH   6  11
ATOM     11  N   UNL A   1      45.072  21.811  26.067  1.00  0.00    -0.338 N 
ATOM     12  C   UNL A   1      44.049  21.144  25.456  1.00  0.00     0.255 C 
ATOM     13  H   UNL A   1      45.943  21.357  25.996  1.00  0.00     0.164 HD
ATOM     14  O   UNL A   1      44.244  20.425  24.480  1.00  0.00    -0.269 OA
BRANCH  12  15
ATOM     15  C   UNL A   1      42.745  21.070  26.089  1.00  0.00     0.082 A 
ATOM     16  C   UNL A   1      41.965  22.225  26.029  1.00  0.00     0.060 A 
ATOM     17  C   UNL A   1      42.273  19.950  26.740  1.00  0.00     0.164 A 
ATOM     18  C   UNL A   1      40.711  22.168  26.583  1.00  0.00     0.152 A 
ATOM     19  N   UNL A   1      41.029  19.933  27.265  1.00  0.00    -0.136 NA
ATOM     20  Cl  UNL A   1      43.121  18.470  26.859  1.00  0.00    -0.059 Cl
ATOM     21  Cl  UNL A   1      39.645  23.503  26.520  1.00  0.00    -0.060 Cl
ATOM     22  N   UNL A   1      40.233  21.057  27.177  1.00  0.00    -0.137 NA
ENDBRANCH  12  15
ENDBRANCH   6  11
ENDBRANCH   4   6
ENDBRANCH   3   4
ENDBRANCH   2   3
ENDBRANCH   1   2
BRANCH   1  23
ATOM     23  O   UNL A   1      42.910  25.242  26.012  1.00  0.00    -0.458 OA
BRANCH  23  24
ATOM     24  C   UNL A   1      41.970  26.217  26.024  1.00  0.00     0.338 C 
ATOM     25  O   UNL A   1      41.152  26.454  25.149  1.00  0.00    -0.246 OA
BRANCH  24  26
ATOM     26  C   UNL A   1      41.944  26.873  27.341  1.00  0.00     0.060 A 
ATOM     27  C   UNL A   1      40.998  26.436  28.273  1.00  0.00     0.016 A 
ATOM     28  C   UNL A   1      42.772  27.959  27.626  1.00  0.00     0.016 A 
ATOM     29  C   UNL A   1      40.847  27.098  29.483  1.00  0.00     0.010 A 
ATOM     30  C   UNL A   1      42.614  28.632  28.841  1.00  0.00     0.010 A 
ATOM     31  C   UNL A   1      41.634  28.218  29.760  1.00  0.00    -0.014 A 
BRANCH  31  32
ATOM     32  C   UNL A   1      41.342  29.022  30.965  1.00  0.00     0.031 A 
ATOM     33  C   UNL A   1      40.190  29.983  30.934  1.00  0.00     0.074 A 
ATOM     34  C   UNL A   1      42.055  28.840  32.091  1.00  0.00     0.049 A 
ATOM     35  N   UNL A   1      39.817  30.849  31.838  1.00  0.00    -0.248 NA
ATOM     36  C   UNL A   1      39.336  29.958  29.732  1.00  0.00     0.031 C 
ATOM     37  C   UNL A   1      43.119  27.850  32.272  1.00  0.00     0.029 A 
ATOM     38  N   UNL A   1      41.978  29.476  33.303  1.00  0.00    -0.354 N 
ATOM     39  C   UNL A   1      38.694  31.477  31.315  1.00  0.00     0.074 A 
ATOM     40  C   UNL A   1      38.447  30.903  30.011  1.00  0.00     0.031 C 
ATOM     41  C   UNL A   1      43.587  27.938  33.528  1.00  0.00     0.029 A 
ATOM     42  C   UNL A   1      42.895  29.023  34.220  1.00  0.00     0.049 A 
ATOM     43  H   UNL A   1      41.328  30.189  33.497  1.00  0.00     0.167 HD
ATOM     44  C   UNL A   1      37.937  32.447  31.877  1.00  0.00     0.031 A 
ATOM     45  C   UNL A   1      43.161  29.455  35.468  1.00  0.00     0.031 A 
ATOM     46  C   UNL A   1      38.190  33.013  33.174  1.00  0.00     0.049 A 
ATOM     47  C   UNL A   1      42.387  30.622  36.017  1.00  0.00     0.074 A 
ATOM     48  C   UNL A   1      37.509  34.034  33.813  1.00  0.00     0.029 A 
ATOM     49  N   UNL A   1      39.194  32.599  34.034  1.00  0.00    -0.354 N 
ATOM     50  N   UNL A   1      41.387  31.274  35.474  1.00  0.00    -0.248 NA
ATOM     51  C   UNL A   1      42.789  31.122  37.339  1.00  0.00     0.031 C 
ATOM     52  C   UNL A   1      38.125  34.261  35.048  1.00  0.00     0.029 A 
ATOM     53  C   UNL A   1      39.160  33.352  35.194  1.00  0.00     0.049 A 
ATOM     54  H   UNL A   1      39.836  31.876  33.847  1.00  0.00     0.167 HD
ATOM     55  C   UNL A   1      41.028  32.251  36.396  1.00  0.00     0.074 A 
ATOM     56  C   UNL A   1      41.913  32.099  37.534  1.00  0.00     0.031 C 
ATOM     57  C   UNL A   1      40.054  33.187  36.309  1.00  0.00     0.031 A 
BRANCH  44  58
ATOM     58  C   UNL A   1      36.777  32.983  31.090  1.00  0.00    -0.014 A 
ATOM     59  C   UNL A   1      35.456  32.748  31.506  1.00  0.00     0.010 A 
ATOM     60  C   UNL A   1      37.015  33.814  29.980  1.00  0.00     0.010 A 
ATOM     61  C   UNL A   1      34.389  33.344  30.828  1.00  0.00     0.020 A 
ATOM     62  C   UNL A   1      35.953  34.423  29.310  1.00  0.00     0.020 A 
ATOM     63  C   UNL A   1      34.646  34.189  29.741  1.00  0.00     0.054 A 
BRANCH  63  64
ATOM     64  S   UNL A   1      33.243  35.002  28.927  1.00  0.00     0.124 S 
ATOM     65  O   UNL A   1      32.798  33.975  27.987  1.00  0.00    -0.237 OA
ATOM     66  O   UNL A   1      32.342  35.264  30.045  1.00  0.00    -0.237 OA
ATOM     67  O   UNL A   1      33.837  36.187  28.312  1.00  0.00    -0.744 OA
ENDBRANCH  63  64
ENDBRANCH  44  58
BRANCH  45  68
ATOM     68  C   UNL A   1      44.230  28.806  36.271  1.00  0.00    -0.014 A 
ATOM     69  C   UNL A   1      45.541  29.311  36.247  1.00  0.00     0.010 A 
ATOM     70  C   UNL A   1      43.942  27.681  37.064  1.00  0.00     0.010 A 
ATOM     71  C   UNL A   1      46.548  28.697  36.998  1.00  0.00     0.020 A 
ATOM     72  C   UNL A   1      44.941  27.078  37.833  1.00  0.00     0.020 A 
ATOM     73  C   UNL A   1      46.239  27.589  37.792  1.00  0.00     0.054 A 
BRANCH  73  74
ATOM     74  S   UNL A   1      47.560  26.836  38.781  1.00  0.00     0.124 S 
ATOM     75  O   UNL A   1      46.951  25.577  39.201  1.00  0.00    -0.237 OA
ATOM     76  O   UNL A   1      48.645  26.720  37.811  1.00  0.00    -0.237 OA
ATOM     77  O   UNL A   1      47.788  27.807  39.849  1.00  0.00    -0.744 OA
ENDBRANCH  73  74
ENDBRANCH  45  68
BRANCH  57  78
ATOM     78  C   UNL A   1      39.874  34.111  37.480  1.00  0.00    -0.014 A 
ATOM     79  C   UNL A   1      39.070  33.744  38.572  1.00  0.00     0.010 A 
ATOM     80  C   UNL A   1      40.577  35.329  37.517  1.00  0.00     0.010 A 
ATOM     81  C   UNL A   1      38.958  34.590  39.677  1.00  0.00     0.020 A 
ATOM     82  C   UNL A   1      40.482  36.168  38.631  1.00  0.00     0.020 A 
ATOM     83  C   UNL A   1      39.668  35.794  39.701  1.00  0.00     0.054 A 
BRANCH  83  84
ATOM     84  S   UNL A   1      39.526  36.854  41.166  1.00  0.00     0.124 S 
ATOM     85  O   UNL A   1      38.701  36.039  42.055  1.00  0.00    -0.237 OA
ATOM     86  O   UNL A   1      40.919  37.013  41.575  1.00  0.00    -0.237 OA
ATOM     87  O   UNL A   1      38.885  38.065  40.661  1.00  0.00    -0.744 OA
ENDBRANCH  83  84
ENDBRANCH  57  78
ENDBRANCH  31  32
ENDBRANCH  24  26
ENDBRANCH  23  24
ENDBRANCH   1  23
TORSDOF 18
ENDMDL
