MODEL 1
REMARK VINA RESULT:     -14.4      0.000      0.000
REMARK SMILES Cc1c(CC(=O)OCCOC(=O)c2ccc(-c3c4nc(c(-c5ccc(S(=O)(=O)[O-])cc5)c5ccc([nH]5)c(-c5ccc(S(=O)(=O)[O-])cc5)c5nc(c(-c6ccc(S(=O)(=O)[O-])cc6)c6ccc3[nH]6)C=C5)C=C4)cc2)cc(-c2ccccc2)cc1-c1ccccc1
REMARK SMILES IDX 9 1 8 2 7 3 5 4 6 5 4 6 3 7 1 8 2 9 82 10 73 11 81 12 74 13
REMARK SMILES IDX 83 14 84 15 88 16 85 17 87 18 86 19 75 20 76 21 80 22 77 23
REMARK SMILES IDX 79 24 78 25 10 26 11 27 12 28 13 29 14 30 72 31 15 32 71 33
REMARK SMILES IDX 16 34 17 35 18 36 65 37 19 38 70 39 64 40 66 41 20 42 69 43
REMARK SMILES IDX 63 44 62 45 21 47 51 48 32 49 50 50 33 51 36 52 49 53 67 54
REMARK SMILES IDX 34 55 35 56 48 58 68 59 37 60 22 61 23 62 31 63 24 64 30 65
REMARK SMILES IDX 25 66 26 67 27 68 28 69 29 70 52 71 53 72 61 73 54 74 60 75
REMARK SMILES IDX 55 76 56 77 57 78 58 79 59 80 38 81 39 82 47 83 40 84 46 85
REMARK SMILES IDX 41 86 42 87 43 88 44 89 45 90
REMARK H PARENT 66 46 36 57
REMARK Flexibility Score: inf
ROOT
ATOM      1  C   UNL A   1      35.162  33.312  30.080  1.00  0.00     0.275 C 
ENDROOT
BRANCH   1   2
ATOM      2  C   UNL A   1      34.279  34.310  29.331  1.00  0.00     0.274 C 
BRANCH   2   3
ATOM      3  O   UNL A   1      34.225  33.911  27.953  1.00  0.00    -0.462 OA
BRANCH   3   4
ATOM      4  C   UNL A   1      33.099  33.075  27.569  1.00  0.00     0.310 C 
ATOM      5  O   UNL A   1      32.110  33.872  27.546  1.00  0.00    -0.252 OA
BRANCH   4   6
ATOM      6  C   UNL A   1      33.222  30.958  27.124  1.00  0.00     0.158 C 
BRANCH   6   7
ATOM      7  C   UNL A   1      32.414  29.879  26.042  1.00  0.00    -0.033 A 
ATOM      8  C   UNL A   1      33.892  27.902  26.726  1.00  0.00     0.045 C 
ATOM      9  C   UNL A   1      32.845  28.535  25.839  1.00  0.00    -0.039 A 
ATOM     10  C   UNL A   1      32.235  27.771  24.808  1.00  0.00    -0.015 A 
ATOM     11  C   UNL A   1      31.208  30.272  25.429  1.00  0.00     0.013 A 
ATOM     12  C   UNL A   1      31.234  28.355  24.010  1.00  0.00     0.017 A 
ATOM     13  C   UNL A   1      30.711  29.606  24.310  1.00  0.00    -0.017 A 
BRANCH  10  14
ATOM     14  C   UNL A   1      32.607  26.381  24.511  1.00  0.00    -0.018 A 
ATOM     15  C   UNL A   1      33.658  26.098  23.627  1.00  0.00     0.009 A 
ATOM     16  C   UNL A   1      31.905  25.311  25.089  1.00  0.00     0.009 A 
ATOM     17  C   UNL A   1      34.010  24.778  23.344  1.00  0.00     0.001 A 
ATOM     18  C   UNL A   1      32.268  23.992  24.818  1.00  0.00     0.001 A 
ATOM     19  C   UNL A   1      33.321  23.727  23.946  1.00  0.00     0.000 A 
ENDBRANCH  10  14
BRANCH  13  20
ATOM     20  C   UNL A   1      29.763  30.296  23.433  1.00  0.00    -0.018 A 
ATOM     21  C   UNL A   1      29.016  31.371  23.944  1.00  0.00     0.009 A 
ATOM     22  C   UNL A   1      29.521  29.887  22.121  1.00  0.00     0.009 A 
ATOM     23  C   UNL A   1      27.997  31.968  23.205  1.00  0.00     0.001 A 
ATOM     24  C   UNL A   1      28.524  30.508  21.362  1.00  0.00     0.001 A 
ATOM     25  C   UNL A   1      27.751  31.533  21.909  1.00  0.00     0.000 A 
ENDBRANCH  13  20
ENDBRANCH   6   7
ENDBRANCH   4   6
ENDBRANCH   3   4
ENDBRANCH   2   3
ENDBRANCH   1   2
BRANCH   1  26
ATOM     26  O   UNL A   1      35.648  32.188  29.304  1.00  0.00    -0.458 OA
BRANCH  26  27
ATOM     27  C   UNL A   1      36.943  31.800  29.155  1.00  0.00     0.338 C 
ATOM     28  O   UNL A   1      37.873  32.588  29.155  1.00  0.00    -0.246 OA
BRANCH  27  29
ATOM     29  C   UNL A   1      37.178  30.382  28.794  1.00  0.00     0.060 A 
ATOM     30  C   UNL A   1      37.071  29.233  30.182  1.00  0.00     0.016 A 
ATOM     31  C   UNL A   1      38.228  30.000  27.380  1.00  0.00     0.016 A 
ATOM     32  C   UNL A   1      38.231  27.832  30.280  1.00  0.00     0.010 A 
ATOM     33  C   UNL A   1      39.356  28.595  27.466  1.00  0.00     0.010 A 
ATOM     34  C   UNL A   1      39.427  27.593  28.971  1.00  0.00    -0.014 A 
BRANCH  34  35
ATOM     35  C   UNL A   1      40.773  27.102  29.228  1.00  0.00     0.031 A 
ATOM     36  C   UNL A   1      41.081  25.722  28.844  1.00  0.00     0.074 A 
ATOM     37  C   UNL A   1      41.745  28.000  29.531  1.00  0.00     0.049 A 
ATOM     38  N   UNL A   1      42.137  25.103  29.223  1.00  0.00    -0.248 NA
ATOM     39  C   UNL A   1      40.191  24.879  28.050  1.00  0.00     0.031 C 
ATOM     40  C   UNL A   1      43.193  27.851  29.403  1.00  0.00     0.029 A 
ATOM     41  N   UNL A   1      41.638  29.251  30.128  1.00  0.00    -0.354 N 
ATOM     42  C   UNL A   1      42.254  23.993  28.425  1.00  0.00     0.074 A 
ATOM     43  C   UNL A   1      40.950  23.796  27.855  1.00  0.00     0.031 C 
ATOM     44  C   UNL A   1      43.796  28.787  30.163  1.00  0.00     0.029 A 
ATOM     45  C   UNL A   1      42.760  29.476  30.915  1.00  0.00     0.049 A 
ATOM     46  H   UNL A   1      40.888  29.877  30.013  1.00  0.00     0.167 HD
ATOM     47  C   UNL A   1      43.500  23.487  28.218  1.00  0.00     0.031 A 
ATOM     48  C   UNL A   1      42.653  29.546  32.277  1.00  0.00     0.031 A 
ATOM     49  C   UNL A   1      44.471  24.129  29.114  1.00  0.00     0.049 A 
ATOM     50  C   UNL A   1      43.266  28.311  32.931  1.00  0.00     0.074 A 
ATOM     51  C   UNL A   1      45.500  25.038  28.950  1.00  0.00     0.029 A 
ATOM     52  N   UNL A   1      44.186  24.130  30.474  1.00  0.00    -0.354 N 
ATOM     53  N   UNL A   1      43.815  27.330  32.261  1.00  0.00    -0.248 NA
ATOM     54  C   UNL A   1      43.274  28.043  34.367  1.00  0.00     0.031 C 
ATOM     55  C   UNL A   1      45.775  25.627  30.230  1.00  0.00     0.029 A 
ATOM     56  C   UNL A   1      44.957  25.033  31.177  1.00  0.00     0.049 A 
ATOM     57  H   UNL A   1      43.508  23.550  30.890  1.00  0.00     0.167 HD
ATOM     58  C   UNL A   1      44.189  26.315  33.093  1.00  0.00     0.074 A 
ATOM     59  C   UNL A   1      43.815  26.808  34.412  1.00  0.00     0.031 C 
ATOM     60  C   UNL A   1      44.743  25.153  32.623  1.00  0.00     0.031 A 
BRANCH  47  61
ATOM     61  C   UNL A   1      43.863  22.558  27.085  1.00  0.00    -0.014 A 
ATOM     62  C   UNL A   1      43.042  21.445  26.823  1.00  0.00     0.010 A 
ATOM     63  C   UNL A   1      45.031  22.665  26.297  1.00  0.00     0.010 A 
ATOM     64  C   UNL A   1      43.369  20.495  25.840  1.00  0.00     0.020 A 
ATOM     65  C   UNL A   1      45.357  21.740  25.295  1.00  0.00     0.020 A 
ATOM     66  C   UNL A   1      44.526  20.652  25.079  1.00  0.00     0.054 A 
BRANCH  66  67
ATOM     67  S   UNL A   1      44.935  19.417  23.818  1.00  0.00     0.124 S 
ATOM     68  O   UNL A   1      44.087  18.292  24.199  1.00  0.00    -0.237 OA
ATOM     69  O   UNL A   1      44.568  20.098  22.580  1.00  0.00    -0.237 OA
ATOM     70  O   UNL A   1      46.370  19.199  24.000  1.00  0.00    -0.744 OA
ENDBRANCH  66  67
ENDBRANCH  47  61
BRANCH  48  71
ATOM     71  C   UNL A   1      41.472  30.354  32.743  1.00  0.00    -0.014 A 
ATOM     72  C   UNL A   1      40.286  29.634  33.031  1.00  0.00     0.010 A 
ATOM     73  C   UNL A   1      41.586  31.653  33.268  1.00  0.00     0.010 A 
ATOM     74  C   UNL A   1      39.329  30.121  33.932  1.00  0.00     0.020 A 
ATOM     75  C   UNL A   1      40.614  32.155  34.164  1.00  0.00     0.020 A 
ATOM     76  C   UNL A   1      39.517  31.366  34.526  1.00  0.00     0.054 A 
BRANCH  76  77
ATOM     77  S   UNL A   1      38.400  31.844  35.888  1.00  0.00     0.124 S 
ATOM     78  O   UNL A   1      39.135  32.927  36.531  1.00  0.00    -0.237 OA
ATOM     79  O   UNL A   1      37.190  32.242  35.175  1.00  0.00    -0.237 OA
ATOM     80  O   UNL A   1      38.281  30.620  36.678  1.00  0.00    -0.744 OA
ENDBRANCH  76  77
ENDBRANCH  48  71
BRANCH  60  81
ATOM     81  C   UNL A   1      45.101  23.965  33.492  1.00  0.00    -0.014 A 
ATOM     82  C   UNL A   1      44.163  23.028  33.942  1.00  0.00     0.010 A 
ATOM     83  C   UNL A   1      46.426  23.808  33.971  1.00  0.00     0.010 A 
ATOM     84  C   UNL A   1      44.549  21.937  34.735  1.00  0.00     0.020 A 
ATOM     85  C   UNL A   1      46.821  22.744  34.778  1.00  0.00     0.020 A 
ATOM     86  C   UNL A   1      45.879  21.795  35.135  1.00  0.00     0.054 A 
BRANCH  86  87
ATOM     87  S   UNL A   1      46.356  20.393  36.169  1.00  0.00     0.124 S 
ATOM     88  O   UNL A   1      45.895  19.253  35.383  1.00  0.00    -0.237 OA
ATOM     89  O   UNL A   1      47.805  20.559  36.250  1.00  0.00    -0.237 OA
ATOM     90  O   UNL A   1      45.633  20.617  37.419  1.00  0.00    -0.744 OA
ENDBRANCH  86  87
ENDBRANCH  60  81
ENDBRANCH  34  35
ENDBRANCH  27  29
ENDBRANCH  26  27
ENDBRANCH   1  26
TORSDOF 17
ENDMDL
MODEL 2
REMARK VINA RESULT:     -13.5      0.664      3.046
REMARK SMILES Cc1c(CC(=O)OCCOC(=O)c2ccc(-c3c4nc(c(-c5ccc(S(=O)(=O)[O-])cc5)c5ccc([nH]5)c(-c5ccc(S(=O)(=O)[O-])cc5)c5nc(c(-c6ccc(S(=O)(=O)[O-])cc6)c6ccc3[nH]6)C=C5)C=C4)cc2)cc(-c2ccccc2)cc1-c1ccccc1
REMARK SMILES IDX 9 1 8 2 7 3 5 4 6 5 4 6 3 7 1 8 2 9 82 10 73 11 81 12 74 13
REMARK SMILES IDX 83 14 84 15 88 16 85 17 87 18 86 19 75 20 76 21 80 22 77 23
REMARK SMILES IDX 79 24 78 25 10 26 11 27 12 28 13 29 14 30 72 31 15 32 71 33
REMARK SMILES IDX 16 34 17 35 18 36 65 37 19 38 70 39 64 40 66 41 20 42 69 43
REMARK SMILES IDX 63 44 62 45 21 47 51 48 32 49 50 50 33 51 36 52 49 53 67 54
REMARK SMILES IDX 34 55 35 56 48 58 68 59 37 60 22 61 23 62 31 63 24 64 30 65
REMARK SMILES IDX 25 66 26 67 27 68 28 69 29 70 52 71 53 72 61 73 54 74 60 75
REMARK SMILES IDX 55 76 56 77 57 78 58 79 59 80 38 81 39 82 47 83 40 84 46 85
REMARK SMILES IDX 41 86 42 87 43 88 44 89 45 90
REMARK H PARENT 66 46 36 57
REMARK Flexibility Score: inf
ROOT
ATOM      1  C   UNL A   1      35.419  33.261  30.602  1.00  0.00     0.275 C 
ENDROOT
BRANCH   1   2
ATOM      2  C   UNL A   1      34.480  34.189  29.831  1.00  0.00     0.274 C 
BRANCH   2   3
ATOM      3  O   UNL A   1      34.538  33.828  28.442  1.00  0.00    -0.462 OA
BRANCH   3   4
ATOM      4  C   UNL A   1      33.422  33.050  27.932  1.00  0.00     0.310 C 
ATOM      5  O   UNL A   1      32.451  33.869  27.912  1.00  0.00    -0.252 OA
BRANCH   4   6
ATOM      6  C   UNL A   1      33.532  30.970  27.335  1.00  0.00     0.158 C 
BRANCH   6   7
ATOM      7  C   UNL A   1      32.831  30.012  26.079  1.00  0.00    -0.033 A 
ATOM      8  C   UNL A   1      30.966  31.717  25.661  1.00  0.00     0.045 C 
ATOM      9  C   UNL A   1      31.606  30.367  25.441  1.00  0.00    -0.039 A 
ATOM     10  C   UNL A   1      31.010  29.439  24.543  1.00  0.00    -0.015 A 
ATOM     11  C   UNL A   1      33.537  28.911  25.557  1.00  0.00     0.013 A 
ATOM     12  C   UNL A   1      31.632  28.197  24.314  1.00  0.00     0.017 A 
ATOM     13  C   UNL A   1      32.897  27.920  24.816  1.00  0.00    -0.017 A 
BRANCH  10  14
ATOM     14  C   UNL A   1      29.749  29.701  23.838  1.00  0.00    -0.018 A 
ATOM     15  C   UNL A   1      29.291  31.014  23.658  1.00  0.00     0.009 A 
ATOM     16  C   UNL A   1      28.968  28.641  23.348  1.00  0.00     0.009 A 
ATOM     17  C   UNL A   1      28.092  31.262  22.989  1.00  0.00     0.001 A 
ATOM     18  C   UNL A   1      27.778  28.890  22.665  1.00  0.00     0.001 A 
ATOM     19  C   UNL A   1      27.341  30.200  22.486  1.00  0.00     0.000 A 
ENDBRANCH  10  14
BRANCH  13  20
ATOM     20  C   UNL A   1      33.517  26.599  24.704  1.00  0.00    -0.018 A 
ATOM     21  C   UNL A   1      34.044  25.991  25.857  1.00  0.00     0.009 A 
ATOM     22  C   UNL A   1      33.668  25.942  23.483  1.00  0.00     0.009 A 
ATOM     23  C   UNL A   1      34.773  24.806  25.788  1.00  0.00     0.001 A 
ATOM     24  C   UNL A   1      34.368  24.733  23.414  1.00  0.00     0.001 A 
ATOM     25  C   UNL A   1      34.936  24.177  24.561  1.00  0.00     0.000 A 
ENDBRANCH  13  20
ENDBRANCH   6   7
ENDBRANCH   4   6
ENDBRANCH   3   4
ENDBRANCH   2   3
ENDBRANCH   1   2
BRANCH   1  26
ATOM     26  O   UNL A   1      35.803  32.040  29.922  1.00  0.00    -0.458 OA
BRANCH  26  27
ATOM     27  C   UNL A   1      36.999  31.778  29.330  1.00  0.00     0.338 C 
ATOM     28  O   UNL A   1      37.782  32.655  29.006  1.00  0.00    -0.246 OA
BRANCH  27  29
ATOM     29  C   UNL A   1      37.242  30.379  28.905  1.00  0.00     0.060 A 
ATOM     30  C   UNL A   1      37.131  29.168  30.239  1.00  0.00     0.016 A 
ATOM     31  C   UNL A   1      38.304  30.066  27.483  1.00  0.00     0.016 A 
ATOM     32  C   UNL A   1      38.296  27.768  30.282  1.00  0.00     0.010 A 
ATOM     33  C   UNL A   1      39.438  28.663  27.513  1.00  0.00     0.010 A 
ATOM     34  C   UNL A   1      39.502  27.593  28.972  1.00  0.00    -0.014 A 
BRANCH  34  35
ATOM     35  C   UNL A   1      40.848  27.096  29.215  1.00  0.00     0.031 A 
ATOM     36  C   UNL A   1      41.137  25.705  28.862  1.00  0.00     0.074 A 
ATOM     37  C   UNL A   1      41.834  27.993  29.477  1.00  0.00     0.049 A 
ATOM     38  N   UNL A   1      42.194  25.085  29.236  1.00  0.00    -0.248 NA
ATOM     39  C   UNL A   1      40.224  24.850  28.106  1.00  0.00     0.031 C 
ATOM     40  C   UNL A   1      43.278  27.827  29.326  1.00  0.00     0.029 A 
ATOM     41  N   UNL A   1      41.749  29.260  30.043  1.00  0.00    -0.354 N 
ATOM     42  C   UNL A   1      42.286  23.954  28.465  1.00  0.00     0.074 A 
ATOM     43  C   UNL A   1      40.969  23.755  27.925  1.00  0.00     0.031 C 
ATOM     44  C   UNL A   1      43.904  28.776  30.050  1.00  0.00     0.029 A 
ATOM     45  C   UNL A   1      42.889  29.494  30.803  1.00  0.00     0.049 A 
ATOM     46  H   UNL A   1      41.003  29.889  29.926  1.00  0.00     0.167 HD
ATOM     47  C   UNL A   1      43.523  23.431  28.247  1.00  0.00     0.031 A 
ATOM     48  C   UNL A   1      42.808  29.600  32.164  1.00  0.00     0.031 A 
ATOM     49  C   UNL A   1      44.517  24.087  29.108  1.00  0.00     0.049 A 
ATOM     50  C   UNL A   1      43.423  28.376  32.839  1.00  0.00     0.074 A 
ATOM     51  C   UNL A   1      45.551  24.982  28.901  1.00  0.00     0.029 A 
ATOM     52  N   UNL A   1      44.258  24.125  30.472  1.00  0.00    -0.354 N 
ATOM     53  N   UNL A   1      43.950  27.374  32.184  1.00  0.00    -0.248 NA
ATOM     54  C   UNL A   1      43.456  28.145  34.280  1.00  0.00     0.031 C 
ATOM     55  C   UNL A   1      45.855  25.600  30.160  1.00  0.00     0.029 A 
ATOM     56  C   UNL A   1      45.050  25.039  31.138  1.00  0.00     0.049 A 
ATOM     57  H   UNL A   1      43.583  23.563  30.916  1.00  0.00     0.167 HD
ATOM     58  C   UNL A   1      44.330  26.376  33.035  1.00  0.00     0.074 A 
ATOM     59  C   UNL A   1      43.986  26.906  34.346  1.00  0.00     0.031 C 
ATOM     60  C   UNL A   1      44.865  25.198  32.583  1.00  0.00     0.031 A 
BRANCH  47  61
ATOM     61  C   UNL A   1      43.856  22.471  27.132  1.00  0.00    -0.014 A 
ATOM     62  C   UNL A   1      43.042  21.338  26.938  1.00  0.00     0.010 A 
ATOM     63  C   UNL A   1      44.991  22.567  26.296  1.00  0.00     0.010 A 
ATOM     64  C   UNL A   1      43.345  20.361  25.975  1.00  0.00     0.020 A 
ATOM     65  C   UNL A   1      45.292  21.614  25.313  1.00  0.00     0.020 A 
ATOM     66  C   UNL A   1      44.469  20.508  25.165  1.00  0.00     0.054 A 
BRANCH  66  67
ATOM     67  S   UNL A   1      44.848  19.238  23.930  1.00  0.00     0.124 S 
ATOM     68  O   UNL A   1      43.928  18.165  24.296  1.00  0.00    -0.237 OA
ATOM     69  O   UNL A   1      44.556  19.923  22.675  1.00  0.00    -0.237 OA
ATOM     70  O   UNL A   1      46.263  18.944  24.158  1.00  0.00    -0.744 OA
ENDBRANCH  66  67
ENDBRANCH  47  61
BRANCH  48  71
ATOM     71  C   UNL A   1      41.643  30.430  32.632  1.00  0.00    -0.014 A 
ATOM     72  C   UNL A   1      40.507  29.723  33.097  1.00  0.00     0.010 A 
ATOM     73  C   UNL A   1      41.759  31.784  32.995  1.00  0.00     0.010 A 
ATOM     74  C   UNL A   1      39.610  30.290  34.012  1.00  0.00     0.020 A 
ATOM     75  C   UNL A   1      40.846  32.365  33.905  1.00  0.00     0.020 A 
ATOM     76  C   UNL A   1      39.806  31.599  34.444  1.00  0.00     0.054 A 
BRANCH  76  77
ATOM     77  S   UNL A   1      38.787  32.207  35.830  1.00  0.00     0.124 S 
ATOM     78  O   UNL A   1      37.470  31.664  35.514  1.00  0.00    -0.237 OA
ATOM     79  O   UNL A   1      39.450  31.617  36.988  1.00  0.00    -0.237 OA
ATOM     80  O   UNL A   1      38.899  33.661  35.724  1.00  0.00    -0.744 OA
ENDBRANCH  76  77
ENDBRANCH  48  71
BRANCH  60  81
ATOM     81  C   UNL A   1      45.229  24.029  33.476  1.00  0.00    -0.014 A 
ATOM     82  C   UNL A   1      46.478  23.893  34.096  1.00  0.00     0.010 A 
ATOM     83  C   UNL A   1      44.322  22.952  33.645  1.00  0.00     0.010 A 
ATOM     84  C   UNL A   1      46.761  22.797  34.925  1.00  0.00     0.020 A 
ATOM     85  C   UNL A   1      44.597  21.847  34.445  1.00  0.00     0.020 A 
ATOM     86  C   UNL A   1      45.812  21.788  35.105  1.00  0.00     0.054 A 
BRANCH  86  87
ATOM     87  S   UNL A   1      46.200  20.376  36.162  1.00  0.00     0.124 S 
ATOM     88  O   UNL A   1      47.617  20.158  35.886  1.00  0.00    -0.237 OA
ATOM     89  O   UNL A   1      45.889  20.902  37.489  1.00  0.00    -0.237 OA
ATOM     90  O   UNL A   1      45.306  19.324  35.685  1.00  0.00    -0.744 OA
ENDBRANCH  86  87
ENDBRANCH  60  81
ENDBRANCH  34  35
ENDBRANCH  27  29
ENDBRANCH  26  27
ENDBRANCH   1  26
TORSDOF 17
ENDMDL
MODEL 3
REMARK VINA RESULT:     -13.1      1.461      2.123
REMARK SMILES Cc1c(CC(=O)OCCOC(=O)c2ccc(-c3c4nc(c(-c5ccc(S(=O)(=O)[O-])cc5)c5ccc([nH]5)c(-c5ccc(S(=O)(=O)[O-])cc5)c5nc(c(-c6ccc(S(=O)(=O)[O-])cc6)c6ccc3[nH]6)C=C5)C=C4)cc2)cc(-c2ccccc2)cc1-c1ccccc1
REMARK SMILES IDX 9 1 8 2 7 3 5 4 6 5 4 6 3 7 1 8 2 9 82 10 73 11 81 12 74 13
REMARK SMILES IDX 83 14 84 15 88 16 85 17 87 18 86 19 75 20 76 21 80 22 77 23
REMARK SMILES IDX 79 24 78 25 10 26 11 27 12 28 13 29 14 30 72 31 15 32 71 33
REMARK SMILES IDX 16 34 17 35 18 36 65 37 19 38 70 39 64 40 66 41 20 42 69 43
REMARK SMILES IDX 63 44 62 45 21 47 51 48 32 49 50 50 33 51 36 52 49 53 67 54
REMARK SMILES IDX 34 55 35 56 48 58 68 59 37 60 22 61 23 62 31 63 24 64 30 65
REMARK SMILES IDX 25 66 26 67 27 68 28 69 29 70 52 71 53 72 61 73 54 74 60 75
REMARK SMILES IDX 55 76 56 77 57 78 58 79 59 80 38 81 39 82 47 83 40 84 46 85
REMARK SMILES IDX 41 86 42 87 43 88 44 89 45 90
REMARK H PARENT 66 46 36 57
REMARK Flexibility Score: inf
ROOT
ATOM      1  C   UNL A   1      34.008  34.735  30.585  1.00  0.00     0.275 C 
ENDROOT
BRANCH   1   2
ATOM      2  C   UNL A   1      33.336  35.045  29.247  1.00  0.00     0.274 C 
BRANCH   2   3
ATOM      3  O   UNL A   1      33.885  34.160  28.258  1.00  0.00    -0.462 OA
BRANCH   3   4
ATOM      4  C   UNL A   1      32.952  33.237  27.633  1.00  0.00     0.310 C 
ATOM      5  O   UNL A   1      31.919  33.940  27.404  1.00  0.00    -0.252 OA
BRANCH   4   6
ATOM      6  C   UNL A   1      33.371  31.154  27.205  1.00  0.00     0.158 C 
BRANCH   6   7
ATOM      7  C   UNL A   1      32.679  29.945  26.181  1.00  0.00    -0.033 A 
ATOM      8  C   UNL A   1      34.443  28.210  26.844  1.00  0.00     0.045 C 
ATOM      9  C   UNL A   1      33.285  28.669  25.989  1.00  0.00    -0.039 A 
ATOM     10  C   UNL A   1      32.747  27.799  25.001  1.00  0.00    -0.015 A 
ATOM     11  C   UNL A   1      31.407  30.151  25.611  1.00  0.00     0.013 A 
ATOM     12  C   UNL A   1      31.644  28.219  24.233  1.00  0.00     0.017 A 
ATOM     13  C   UNL A   1      30.965  29.393  24.529  1.00  0.00    -0.017 A 
BRANCH  10  14
ATOM     14  C   UNL A   1      33.297  26.467  24.718  1.00  0.00    -0.018 A 
ATOM     15  C   UNL A   1      33.614  25.589  25.764  1.00  0.00     0.009 A 
ATOM     16  C   UNL A   1      33.535  26.056  23.396  1.00  0.00     0.009 A 
ATOM     17  C   UNL A   1      34.137  24.324  25.494  1.00  0.00     0.001 A 
ATOM     18  C   UNL A   1      34.043  24.786  23.126  1.00  0.00     0.001 A 
ATOM     19  C   UNL A   1      34.343  23.921  24.176  1.00  0.00     0.000 A 
ENDBRANCH  10  14
BRANCH  13  20
ATOM     20  C   UNL A   1      29.897  29.921  23.678  1.00  0.00    -0.018 A 
ATOM     21  C   UNL A   1      29.476  29.173  22.565  1.00  0.00     0.009 A 
ATOM     22  C   UNL A   1      29.320  31.174  23.889  1.00  0.00     0.009 A 
ATOM     23  C   UNL A   1      28.572  29.689  21.639  1.00  0.00     0.001 A 
ATOM     24  C   UNL A   1      28.384  31.681  22.981  1.00  0.00     0.001 A 
ATOM     25  C   UNL A   1      28.025  30.948  21.849  1.00  0.00     0.000 A 
ENDBRANCH  13  20
ENDBRANCH   6   7
ENDBRANCH   4   6
ENDBRANCH   3   4
ENDBRANCH   2   3
ENDBRANCH   1   2
BRANCH   1  26
ATOM     26  O   UNL A   1      34.442  33.366  30.775  1.00  0.00    -0.458 OA
BRANCH  26  27
ATOM     27  C   UNL A   1      35.719  32.934  30.959  1.00  0.00     0.338 C 
ATOM     28  O   UNL A   1      36.566  33.601  31.530  1.00  0.00    -0.246 OA
BRANCH  27  29
ATOM     29  C   UNL A   1      36.109  31.686  30.262  1.00  0.00     0.060 A 
ATOM     30  C   UNL A   1      36.126  30.221  31.316  1.00  0.00     0.016 A 
ATOM     31  C   UNL A   1      37.200  31.786  28.830  1.00  0.00     0.016 A 
ATOM     32  C   UNL A   1      37.433  28.971  31.096  1.00  0.00     0.010 A 
ATOM     33  C   UNL A   1      38.475  30.532  28.597  1.00  0.00     0.010 A 
ATOM     34  C   UNL A   1      38.652  29.196  29.806  1.00  0.00    -0.014 A 
BRANCH  34  35
ATOM     35  C   UNL A   1      40.043  28.802  29.972  1.00  0.00     0.031 A 
ATOM     36  C   UNL A   1      40.438  27.476  29.492  1.00  0.00     0.074 A 
ATOM     37  C   UNL A   1      40.955  29.756  30.287  1.00  0.00     0.049 A 
ATOM     38  N   UNL A   1      41.557  26.923  29.785  1.00  0.00    -0.248 NA
ATOM     39  C   UNL A   1      39.579  26.610  28.688  1.00  0.00     0.031 C 
ATOM     40  C   UNL A   1      42.402  29.732  30.087  1.00  0.00     0.029 A 
ATOM     41  N   UNL A   1      40.780  30.958  30.963  1.00  0.00    -0.354 N 
ATOM     42  C   UNL A   1      41.721  25.873  28.917  1.00  0.00     0.074 A 
ATOM     43  C   UNL A   1      40.409  25.605  28.395  1.00  0.00     0.031 C 
ATOM     44  C   UNL A   1      42.967  30.669  30.875  1.00  0.00     0.029 A 
ATOM     45  C   UNL A   1      41.918  31.228  31.712  1.00  0.00     0.049 A 
ATOM     46  H   UNL A   1      39.978  31.527  30.919  1.00  0.00     0.167 HD
ATOM     47  C   UNL A   1      42.990  25.482  28.625  1.00  0.00     0.031 A 
ATOM     48  C   UNL A   1      41.872  31.211  33.079  1.00  0.00     0.031 A 
ATOM     49  C   UNL A   1      43.951  26.149  29.516  1.00  0.00     0.049 A 
ATOM     50  C   UNL A   1      42.611  29.994  33.630  1.00  0.00     0.074 A 
ATOM     51  C   UNL A   1      44.897  27.145  29.362  1.00  0.00     0.029 A 
ATOM     52  N   UNL A   1      43.733  26.048  30.884  1.00  0.00    -0.354 N 
ATOM     53  N   UNL A   1      43.202  29.101  32.878  1.00  0.00    -0.248 NA
ATOM     54  C   UNL A   1      42.710  29.646  35.044  1.00  0.00     0.031 C 
ATOM     55  C   UNL A   1      45.187  27.680  30.662  1.00  0.00     0.029 A 
ATOM     56  C   UNL A   1      44.465  26.969  31.606  1.00  0.00     0.049 A 
ATOM     57  H   UNL A   1      43.124  25.393  31.293  1.00  0.00     0.167 HD
ATOM     58  C   UNL A   1      43.693  28.073  33.629  1.00  0.00     0.074 A 
ATOM     59  C   UNL A   1      43.346  28.458  34.990  1.00  0.00     0.031 C 
ATOM     60  C   UNL A   1      44.313  26.988  33.064  1.00  0.00     0.031 A 
BRANCH  47  61
ATOM     61  C   UNL A   1      43.369  24.653  27.422  1.00  0.00    -0.014 A 
ATOM     62  C   UNL A   1      43.985  23.402  27.621  1.00  0.00     0.010 A 
ATOM     63  C   UNL A   1      43.232  25.069  26.080  1.00  0.00     0.010 A 
ATOM     64  C   UNL A   1      44.441  22.620  26.546  1.00  0.00     0.020 A 
ATOM     65  C   UNL A   1      43.657  24.288  24.996  1.00  0.00     0.020 A 
ATOM     66  C   UNL A   1      44.270  23.068  25.238  1.00  0.00     0.054 A 
BRANCH  66  67
ATOM     67  S   UNL A   1      44.865  22.049  23.864  1.00  0.00     0.124 S 
ATOM     68  O   UNL A   1      46.301  22.316  23.878  1.00  0.00    -0.237 OA
ATOM     69  O   UNL A   1      44.466  20.705  24.272  1.00  0.00    -0.237 OA
ATOM     70  O   UNL A   1      44.151  22.579  22.703  1.00  0.00    -0.744 OA
ENDBRANCH  66  67
ENDBRANCH  47  61
BRANCH  48  71
ATOM     71  C   UNL A   1      40.656  31.893  33.646  1.00  0.00    -0.014 A 
ATOM     72  C   UNL A   1      39.523  31.075  33.880  1.00  0.00     0.010 A 
ATOM     73  C   UNL A   1      40.704  33.138  34.296  1.00  0.00     0.010 A 
ATOM     74  C   UNL A   1      38.560  31.409  34.842  1.00  0.00     0.020 A 
ATOM     75  C   UNL A   1      39.725  33.486  35.255  1.00  0.00     0.020 A 
ATOM     76  C   UNL A   1      38.686  32.598  35.555  1.00  0.00     0.054 A 
BRANCH  76  77
ATOM     77  S   UNL A   1      37.575  32.867  36.978  1.00  0.00     0.124 S 
ATOM     78  O   UNL A   1      36.397  33.453  36.350  1.00  0.00    -0.237 OA
ATOM     79  O   UNL A   1      37.404  31.515  37.501  1.00  0.00    -0.237 OA
ATOM     80  O   UNL A   1      38.335  33.774  37.838  1.00  0.00    -0.744 OA
ENDBRANCH  76  77
ENDBRANCH  48  71
BRANCH  60  81
ATOM     81  C   UNL A   1      44.804  25.785  33.843  1.00  0.00    -0.014 A 
ATOM     82  C   UNL A   1      44.001  25.061  34.731  1.00  0.00     0.010 A 
ATOM     83  C   UNL A   1      46.166  25.396  33.766  1.00  0.00     0.010 A 
ATOM     84  C   UNL A   1      44.501  23.945  35.419  1.00  0.00     0.020 A 
ATOM     85  C   UNL A   1      46.684  24.305  34.459  1.00  0.00     0.020 A 
ATOM     86  C   UNL A   1      45.836  23.566  35.266  1.00  0.00     0.054 A 
BRANCH  86  87
ATOM     87  S   UNL A   1      46.468  22.137  36.171  1.00  0.00     0.124 S 
ATOM     88  O   UNL A   1      46.641  22.671  37.519  1.00  0.00    -0.237 OA
ATOM     89  O   UNL A   1      45.382  21.175  36.008  1.00  0.00    -0.237 OA
ATOM     90  O   UNL A   1      47.708  21.800  35.475  1.00  0.00    -0.744 OA
ENDBRANCH  86  87
ENDBRANCH  60  81
ENDBRANCH  34  35
ENDBRANCH  27  29
ENDBRANCH  26  27
ENDBRANCH   1  26
TORSDOF 17
ENDMDL
