MODEL 1
REMARK VINA RESULT:     -13.2      0.000      0.000
REMARK SMILES Cc1ccc(S(=O)(=O)n2cc(C(=O)C(=O)NCC(=O)OCCOC(=O)c3ccc(-c4c5nc(c(-c6ccc(S(=O)(=O)[O-])cc6)c6ccc([nH]6)c(-c6ccc(S(=O)(=O)[O-])cc6)c6nc(c(-c7ccc(S(=O)(=O)[O-])cc7)c7ccc4[nH]7)C=C6)C=C5)cc3)c3ccccc32)cc1
REMARK SMILES IDX 21 1 20 2 18 3 19 4 17 5 16 6 14 7 15 8 12 10 13 11 11 12
REMARK SMILES IDX 9 13 10 14 91 15 86 16 90 17 87 18 89 19 88 20 6 21 7 22
REMARK SMILES IDX 8 23 5 24 1 25 2 26 3 27 93 28 4 29 92 30 22 31 23 32 24 33
REMARK SMILES IDX 25 34 26 35 27 36 85 37 28 38 84 39 29 40 30 41 31 42 78 43
REMARK SMILES IDX 32 44 83 45 77 46 79 47 33 48 82 49 76 50 75 51 34 53 64 54
REMARK SMILES IDX 45 55 63 56 46 57 49 58 62 59 80 60 47 61 48 62 61 64 81 65
REMARK SMILES IDX 50 66 35 67 36 68 44 69 37 70 43 71 38 72 39 73 40 74 41 75
REMARK SMILES IDX 42 76 65 77 66 78 74 79 67 80 73 81 68 82 69 83 70 84 71 85
REMARK SMILES IDX 72 86 51 87 52 88 60 89 53 90 59 91 54 92 55 93 56 94 57 95
REMARK SMILES IDX 58 96
REMARK H PARENT 16 9 79 52 49 63
REMARK Flexibility Score: inf
ROOT
ATOM      1  C   UNL A   1      42.090  21.307  27.685  1.00  0.00     0.274 C 
ENDROOT
BRANCH   1   2
ATOM      2  O   UNL A   1      40.743  20.825  27.648  1.00  0.00    -0.461 OA
BRANCH   2   3
ATOM      3  C   UNL A   1      40.359  20.357  26.436  1.00  0.00     0.325 C 
ATOM      4  O   UNL A   1      40.830  19.364  25.893  1.00  0.00    -0.250 OA
BRANCH   3   5
ATOM      5  C   UNL A   1      39.220  21.166  25.835  1.00  0.00     0.239 C 
BRANCH   5   6
ATOM      6  N   UNL A   1      38.910  22.466  26.399  1.00  0.00    -0.338 N 
ATOM      7  C   UNL A   1      37.821  23.211  25.997  1.00  0.00     0.292 C 
ATOM      8  O   UNL A   1      37.570  24.337  26.402  1.00  0.00    -0.265 OA
ATOM      9  H   UNL A   1      39.501  22.831  27.096  1.00  0.00     0.164 HD
BRANCH   7  10
ATOM     10  C   UNL A   1      36.916  22.554  24.943  1.00  0.00     0.252 C 
ATOM     11  O   UNL A   1      37.413  21.704  24.210  1.00  0.00    -0.283 OA
BRANCH  10  12
ATOM     12  C   UNL A   1      35.555  23.048  24.761  1.00  0.00     0.054 A 
ATOM     13  N   UNL A   1      33.775  24.045  23.875  1.00  0.00    -0.240 N 
ATOM     14  C   UNL A   1      35.086  23.720  23.650  1.00  0.00     0.117 A 
ATOM     15  C   UNL A   1      33.340  23.562  25.093  1.00  0.00     0.065 A 
ATOM     16  C   UNL A   1      34.452  22.932  25.674  1.00  0.00     0.012 A 
ATOM     17  C   UNL A   1      32.107  23.652  25.764  1.00  0.00     0.028 A 
ATOM     18  C   UNL A   1      34.304  22.348  26.952  1.00  0.00     0.011 A 
ATOM     19  C   UNL A   1      31.999  23.081  27.036  1.00  0.00     0.002 A 
ATOM     20  C   UNL A   1      33.079  22.432  27.621  1.00  0.00     0.001 A 
BRANCH  13  21
ATOM     21  S   UNL A   1      32.930  25.175  22.922  1.00  0.00     0.268 S 
ATOM     22  O   UNL A   1      31.655  24.585  22.619  1.00  0.00    -0.201 OA
ATOM     23  O   UNL A   1      33.863  25.572  21.868  1.00  0.00    -0.201 OA
BRANCH  21  24
ATOM     24  C   UNL A   1      32.654  26.604  23.936  1.00  0.00     0.088 A 
ATOM     25  C   UNL A   1      32.283  30.273  26.146  1.00  0.00     0.044 C 
ATOM     26  C   UNL A   1      32.401  28.974  25.406  1.00  0.00    -0.051 A 
ATOM     27  C   UNL A   1      33.646  28.339  25.297  1.00  0.00     0.005 A 
ATOM     28  C   UNL A   1      31.280  28.388  24.810  1.00  0.00     0.005 A 
ATOM     29  C   UNL A   1      33.775  27.161  24.561  1.00  0.00     0.022 A 
ATOM     30  C   UNL A   1      31.401  27.202  24.084  1.00  0.00     0.022 A 
ENDBRANCH  21  24
ENDBRANCH  13  21
ENDBRANCH  10  12
ENDBRANCH   7  10
ENDBRANCH   5   6
ENDBRANCH   3   5
ENDBRANCH   2   3
ENDBRANCH   1   2
BRANCH   1  31
ATOM     31  C   UNL A   1      42.143  22.709  28.312  1.00  0.00     0.275 C 
BRANCH  31  32
ATOM     32  O   UNL A   1      41.038  23.632  28.107  1.00  0.00    -0.458 OA
BRANCH  32  33
ATOM     33  C   UNL A   1      41.108  24.594  27.145  1.00  0.00     0.338 C 
ATOM     34  O   UNL A   1      41.450  24.382  25.990  1.00  0.00    -0.246 OA
BRANCH  33  35
ATOM     35  C   UNL A   1      40.378  25.816  27.591  1.00  0.00     0.060 A 
ATOM     36  C   UNL A   1      39.728  25.853  28.835  1.00  0.00     0.016 A 
ATOM     37  C   UNL A   1      40.704  26.998  26.944  1.00  0.00     0.016 A 
ATOM     38  C   UNL A   1      39.575  27.074  29.507  1.00  0.00     0.010 A 
ATOM     39  C   UNL A   1      40.775  28.135  27.697  1.00  0.00     0.010 A 
ATOM     40  C   UNL A   1      40.185  28.205  28.968  1.00  0.00    -0.014 A 
BRANCH  40  41
ATOM     41  C   UNL A   1      40.209  29.549  29.554  1.00  0.00     0.031 A 
ATOM     42  C   UNL A   1      39.113  30.534  29.400  1.00  0.00     0.074 A 
ATOM     43  C   UNL A   1      41.290  29.774  30.339  1.00  0.00     0.049 A 
ATOM     44  N   UNL A   1      39.225  31.784  29.685  1.00  0.00    -0.248 NA
ATOM     45  C   UNL A   1      37.775  30.214  28.913  1.00  0.00     0.031 C 
ATOM     46  C   UNL A   1      41.632  30.860  31.238  1.00  0.00     0.029 A 
ATOM     47  N   UNL A   1      42.470  29.029  30.278  1.00  0.00    -0.354 N 
ATOM     48  C   UNL A   1      37.963  32.348  29.690  1.00  0.00     0.074 A 
ATOM     49  C   UNL A   1      37.091  31.342  29.150  1.00  0.00     0.031 C 
ATOM     50  C   UNL A   1      42.977  30.898  31.362  1.00  0.00     0.029 A 
ATOM     51  C   UNL A   1      43.530  29.900  30.446  1.00  0.00     0.049 A 
ATOM     52  H   UNL A   1      42.534  28.057  30.139  1.00  0.00     0.167 HD
ATOM     53  C   UNL A   1      37.795  33.565  30.279  1.00  0.00     0.031 A 
ATOM     54  C   UNL A   1      44.287  30.141  29.332  1.00  0.00     0.031 A 
ATOM     55  C   UNL A   1      39.095  34.128  30.622  1.00  0.00     0.049 A 
ATOM     56  C   UNL A   1      44.099  31.577  28.911  1.00  0.00     0.074 A 
ATOM     57  C   UNL A   1      39.845  34.094  31.785  1.00  0.00     0.029 A 
ATOM     58  N   UNL A   1      39.974  34.437  29.588  1.00  0.00    -0.354 N 
ATOM     59  N   UNL A   1      42.983  32.252  29.038  1.00  0.00    -0.248 NA
ATOM     60  C   UNL A   1      45.220  32.398  28.477  1.00  0.00     0.031 C 
ATOM     61  C   UNL A   1      41.212  34.221  31.412  1.00  0.00     0.029 A 
ATOM     62  C   UNL A   1      41.281  34.361  30.033  1.00  0.00     0.049 A 
ATOM     63  H   UNL A   1      39.703  34.676  28.673  1.00  0.00     0.167 HD
ATOM     64  C   UNL A   1      43.256  33.582  28.859  1.00  0.00     0.074 A 
ATOM     65  C   UNL A   1      44.658  33.617  28.466  1.00  0.00     0.031 C 
ATOM     66  C   UNL A   1      42.384  34.602  29.118  1.00  0.00     0.031 A 
BRANCH  53  67
ATOM     67  C   UNL A   1      36.480  34.110  30.787  1.00  0.00    -0.014 A 
ATOM     68  C   UNL A   1      35.421  34.268  29.864  1.00  0.00     0.010 A 
ATOM     69  C   UNL A   1      36.219  34.525  32.108  1.00  0.00     0.010 A 
ATOM     70  C   UNL A   1      34.191  34.840  30.216  1.00  0.00     0.020 A 
ATOM     71  C   UNL A   1      34.988  35.112  32.474  1.00  0.00     0.020 A 
ATOM     72  C   UNL A   1      33.982  35.269  31.522  1.00  0.00     0.054 A 
BRANCH  72  73
ATOM     73  S   UNL A   1      32.381  36.013  31.938  1.00  0.00     0.124 S 
ATOM     74  O   UNL A   1      32.767  37.157  32.763  1.00  0.00    -0.237 OA
ATOM     75  O   UNL A   1      31.836  36.345  30.624  1.00  0.00    -0.237 OA
ATOM     76  O   UNL A   1      31.676  34.950  32.650  1.00  0.00    -0.744 OA
ENDBRANCH  72  73
ENDBRANCH  53  67
BRANCH  54  77
ATOM     77  C   UNL A   1      44.443  28.929  28.438  1.00  0.00    -0.014 A 
ATOM     78  C   UNL A   1      44.142  29.101  27.061  1.00  0.00     0.010 A 
ATOM     79  C   UNL A   1      45.186  27.789  28.798  1.00  0.00     0.010 A 
ATOM     80  C   UNL A   1      44.682  28.264  26.074  1.00  0.00     0.020 A 
ATOM     81  C   UNL A   1      45.707  26.923  27.806  1.00  0.00     0.020 A 
ATOM     82  C   UNL A   1      45.490  27.195  26.451  1.00  0.00     0.054 A 
BRANCH  82  83
ATOM     83  S   UNL A   1      46.382  26.295  25.139  1.00  0.00     0.124 S 
ATOM     84  O   UNL A   1      47.617  25.905  25.812  1.00  0.00    -0.237 OA
ATOM     85  O   UNL A   1      45.466  25.195  24.831  1.00  0.00    -0.237 OA
ATOM     86  O   UNL A   1      46.530  27.284  24.076  1.00  0.00    -0.744 OA
ENDBRANCH  82  83
ENDBRANCH  54  77
BRANCH  66  87
ATOM     87  C   UNL A   1      42.573  36.003  28.606  1.00  0.00    -0.014 A 
ATOM     88  C   UNL A   1      42.055  36.435  27.376  1.00  0.00     0.010 A 
ATOM     89  C   UNL A   1      43.154  36.980  29.447  1.00  0.00     0.010 A 
ATOM     90  C   UNL A   1      42.203  37.757  26.956  1.00  0.00     0.020 A 
ATOM     91  C   UNL A   1      43.247  38.317  29.065  1.00  0.00     0.020 A 
ATOM     92  C   UNL A   1      42.803  38.688  27.801  1.00  0.00     0.054 A 
BRANCH  92  93
ATOM     93  S   UNL A   1      42.947  40.402  27.254  1.00  0.00     0.124 S 
ATOM     94  O   UNL A   1      41.547  40.764  27.049  1.00  0.00    -0.237 OA
ATOM     95  O   UNL A   1      43.603  41.050  28.388  1.00  0.00    -0.237 OA
ATOM     96  O   UNL A   1      43.757  40.310  26.043  1.00  0.00    -0.744 OA
ENDBRANCH  92  93
ENDBRANCH  66  87
ENDBRANCH  40  41
ENDBRANCH  33  35
ENDBRANCH  32  33
ENDBRANCH  31  32
ENDBRANCH   1  31
TORSDOF 19
ENDMDL
MODEL 2
REMARK VINA RESULT:     -13.2      4.614     11.594
REMARK SMILES Cc1ccc(S(=O)(=O)n2cc(C(=O)C(=O)NCC(=O)OCCOC(=O)c3ccc(-c4c5nc(c(-c6ccc(S(=O)(=O)[O-])cc6)c6ccc([nH]6)c(-c6ccc(S(=O)(=O)[O-])cc6)c6nc(c(-c7ccc(S(=O)(=O)[O-])cc7)c7ccc4[nH]7)C=C6)C=C5)cc3)c3ccccc32)cc1
REMARK SMILES IDX 21 1 20 2 18 3 19 4 17 5 16 6 14 7 15 8 12 10 13 11 11 12
REMARK SMILES IDX 9 13 10 14 91 15 86 16 90 17 87 18 89 19 88 20 6 21 7 22
REMARK SMILES IDX 8 23 5 24 1 25 2 26 3 27 93 28 4 29 92 30 22 31 23 32 24 33
REMARK SMILES IDX 25 34 26 35 27 36 85 37 28 38 84 39 29 40 30 41 31 42 78 43
REMARK SMILES IDX 32 44 83 45 77 46 79 47 33 48 82 49 76 50 75 51 34 53 64 54
REMARK SMILES IDX 45 55 63 56 46 57 49 58 62 59 80 60 47 61 48 62 61 64 81 65
REMARK SMILES IDX 50 66 35 67 36 68 44 69 37 70 43 71 38 72 39 73 40 74 41 75
REMARK SMILES IDX 42 76 65 77 66 78 74 79 67 80 73 81 68 82 69 83 70 84 71 85
REMARK SMILES IDX 72 86 51 87 52 88 60 89 53 90 59 91 54 92 55 93 56 94 57 95
REMARK SMILES IDX 58 96
REMARK H PARENT 16 9 79 52 49 63
REMARK Flexibility Score: inf
ROOT
ATOM      1  C   UNL A   1      33.544  30.831  26.918  1.00  0.00     0.274 C 
ENDROOT
BRANCH   1   2
ATOM      2  O   UNL A   1      32.603  29.771  26.726  1.00  0.00    -0.461 OA
BRANCH   2   3
ATOM      3  C   UNL A   1      32.451  29.396  25.432  1.00  0.00     0.325 C 
ATOM      4  O   UNL A   1      33.351  28.959  24.725  1.00  0.00    -0.250 OA
BRANCH   3   5
ATOM      5  C   UNL A   1      31.011  29.518  24.958  1.00  0.00     0.239 C 
BRANCH   5   6
ATOM      6  N   UNL A   1      30.755  29.880  23.577  1.00  0.00    -0.338 N 
ATOM      7  C   UNL A   1      30.064  29.060  22.710  1.00  0.00     0.292 C 
ATOM      8  O   UNL A   1      29.890  29.304  21.524  1.00  0.00    -0.265 OA
ATOM      9  H   UNL A   1      31.088  30.745  23.247  1.00  0.00     0.164 HD
BRANCH   7  10
ATOM     10  C   UNL A   1      29.530  27.751  23.312  1.00  0.00     0.252 C 
ATOM     11  O   UNL A   1      28.348  27.711  23.640  1.00  0.00    -0.283 OA
BRANCH  10  12
ATOM     12  C   UNL A   1      30.459  26.661  23.591  1.00  0.00     0.054 A 
ATOM     13  N   UNL A   1      31.601  25.091  24.677  1.00  0.00    -0.240 N 
ATOM     14  C   UNL A   1      30.614  26.030  24.810  1.00  0.00     0.117 A 
ATOM     15  C   UNL A   1      32.077  25.043  23.382  1.00  0.00     0.065 A 
ATOM     16  C   UNL A   1      31.373  26.032  22.678  1.00  0.00     0.012 A 
ATOM     17  C   UNL A   1      33.081  24.272  22.767  1.00  0.00     0.028 A 
ATOM     18  C   UNL A   1      31.666  26.224  21.309  1.00  0.00     0.011 A 
ATOM     19  C   UNL A   1      33.361  24.500  21.416  1.00  0.00     0.002 A 
ATOM     20  C   UNL A   1      32.660  25.457  20.694  1.00  0.00     0.001 A 
BRANCH  13  21
ATOM     21  S   UNL A   1      32.347  24.343  26.012  1.00  0.00     0.268 S 
ATOM     22  O   UNL A   1      31.357  24.276  27.051  1.00  0.00    -0.201 OA
ATOM     23  O   UNL A   1      33.612  25.053  26.200  1.00  0.00    -0.201 OA
BRANCH  21  24
ATOM     24  C   UNL A   1      32.749  22.686  25.520  1.00  0.00     0.088 A 
ATOM     25  C   UNL A   1      33.912  18.626  24.720  1.00  0.00     0.044 C 
ATOM     26  C   UNL A   1      33.507  20.049  24.961  1.00  0.00    -0.051 A 
ATOM     27  C   UNL A   1      34.474  21.008  25.292  1.00  0.00     0.005 A 
ATOM     28  C   UNL A   1      32.165  20.434  24.871  1.00  0.00     0.005 A 
ATOM     29  C   UNL A   1      34.098  22.321  25.575  1.00  0.00     0.022 A 
ATOM     30  C   UNL A   1      31.785  21.750  25.140  1.00  0.00     0.022 A 
ENDBRANCH  21  24
ENDBRANCH  13  21
ENDBRANCH  10  12
ENDBRANCH   7  10
ENDBRANCH   5   6
ENDBRANCH   3   5
ENDBRANCH   2   3
ENDBRANCH   1   2
BRANCH   1  31
ATOM     31  C   UNL A   1      34.766  30.330  27.705  1.00  0.00     0.275 C 
BRANCH  31  32
ATOM     32  O   UNL A   1      35.864  31.242  27.985  1.00  0.00    -0.458 OA
BRANCH  32  33
ATOM     33  C   UNL A   1      36.729  30.991  29.008  1.00  0.00     0.338 C 
ATOM     34  O   UNL A   1      36.613  31.459  30.131  1.00  0.00    -0.246 OA
BRANCH  33  35
ATOM     35  C   UNL A   1      37.585  29.816  28.676  1.00  0.00     0.060 A 
ATOM     36  C   UNL A   1      38.388  29.812  27.524  1.00  0.00     0.016 A 
ATOM     37  C   UNL A   1      37.863  28.943  29.717  1.00  0.00     0.016 A 
ATOM     38  C   UNL A   1      39.573  29.063  27.501  1.00  0.00     0.010 A 
ATOM     39  C   UNL A   1      39.122  28.418  29.786  1.00  0.00     0.010 A 
ATOM     40  C   UNL A   1      39.980  28.435  28.677  1.00  0.00    -0.014 A 
BRANCH  40  41
ATOM     41  C   UNL A   1      41.218  27.676  28.879  1.00  0.00     0.031 A 
ATOM     42  C   UNL A   1      41.385  26.256  28.495  1.00  0.00     0.074 A 
ATOM     43  C   UNL A   1      42.237  28.428  29.363  1.00  0.00     0.049 A 
ATOM     44  N   UNL A   1      42.359  25.513  28.890  1.00  0.00    -0.248 NA
ATOM     45  C   UNL A   1      40.474  25.522  27.621  1.00  0.00     0.031 C 
ATOM     46  C   UNL A   1      43.650  28.152  29.544  1.00  0.00     0.029 A 
ATOM     47  N   UNL A   1      42.065  29.651  30.015  1.00  0.00    -0.354 N 
ATOM     48  C   UNL A   1      42.361  24.353  28.138  1.00  0.00     0.074 A 
ATOM     49  C   UNL A   1      41.133  24.378  27.393  1.00  0.00     0.031 C 
ATOM     50  C   UNL A   1      44.118  28.970  30.512  1.00  0.00     0.029 A 
ATOM     51  C   UNL A   1      42.977  29.709  31.053  1.00  0.00     0.049 A 
ATOM     52  H   UNL A   1      41.412  30.347  29.778  1.00  0.00     0.167 HD
ATOM     53  C   UNL A   1      43.477  23.572  28.147  1.00  0.00     0.031 A 
ATOM     54  C   UNL A   1      42.455  29.603  32.312  1.00  0.00     0.031 A 
ATOM     55  C   UNL A   1      44.408  24.058  29.159  1.00  0.00     0.049 A 
ATOM     56  C   UNL A   1      42.913  28.304  32.927  1.00  0.00     0.074 A 
ATOM     57  C   UNL A   1      45.481  24.929  29.092  1.00  0.00     0.029 A 
ATOM     58  N   UNL A   1      44.019  24.002  30.493  1.00  0.00    -0.354 N 
ATOM     59  N   UNL A   1      43.112  27.193  32.262  1.00  0.00    -0.248 NA
ATOM     60  C   UNL A   1      43.347  28.229  34.315  1.00  0.00     0.031 C 
ATOM     61  C   UNL A   1      45.624  25.524  30.377  1.00  0.00     0.029 A 
ATOM     62  C   UNL A   1      44.659  24.990  31.219  1.00  0.00     0.049 A 
ATOM     63  H   UNL A   1      43.380  23.353  30.867  1.00  0.00     0.167 HD
ATOM     64  C   UNL A   1      43.816  26.329  33.058  1.00  0.00     0.074 A 
ATOM     65  C   UNL A   1      43.899  27.005  34.346  1.00  0.00     0.031 C 
ATOM     66  C   UNL A   1      44.380  25.158  32.636  1.00  0.00     0.031 A 
BRANCH  53  67
ATOM     67  C   UNL A   1      43.842  22.567  27.078  1.00  0.00    -0.014 A 
ATOM     68  C   UNL A   1      42.945  21.504  26.827  1.00  0.00     0.010 A 
ATOM     69  C   UNL A   1      45.034  22.565  26.327  1.00  0.00     0.010 A 
ATOM     70  C   UNL A   1      43.228  20.476  25.918  1.00  0.00     0.020 A 
ATOM     71  C   UNL A   1      45.335  21.531  25.415  1.00  0.00     0.020 A 
ATOM     72  C   UNL A   1      44.429  20.490  25.219  1.00  0.00     0.054 A 
BRANCH  72  73
ATOM     73  S   UNL A   1      44.765  19.137  24.056  1.00  0.00     0.124 S 
ATOM     74  O   UNL A   1      43.846  18.094  24.509  1.00  0.00    -0.237 OA
ATOM     75  O   UNL A   1      44.438  19.742  22.767  1.00  0.00    -0.237 OA
ATOM     76  O   UNL A   1      46.181  18.844  24.261  1.00  0.00    -0.744 OA
ENDBRANCH  72  73
ENDBRANCH  53  67
BRANCH  54  77
ATOM     77  C   UNL A   1      41.103  30.268  32.460  1.00  0.00    -0.014 A 
ATOM     78  C   UNL A   1      40.081  29.515  33.098  1.00  0.00     0.010 A 
ATOM     79  C   UNL A   1      40.903  31.656  32.343  1.00  0.00     0.010 A 
ATOM     80  C   UNL A   1      38.987  30.132  33.723  1.00  0.00     0.020 A 
ATOM     81  C   UNL A   1      39.784  32.279  32.945  1.00  0.00     0.020 A 
ATOM     82  C   UNL A   1      38.861  31.518  33.670  1.00  0.00     0.054 A 
BRANCH  82  83
ATOM     83  S   UNL A   1      37.581  32.298  34.710  1.00  0.00     0.124 S 
ATOM     84  O   UNL A   1      38.021  33.689  34.756  1.00  0.00    -0.237 OA
ATOM     85  O   UNL A   1      36.359  32.055  33.942  1.00  0.00    -0.237 OA
ATOM     86  O   UNL A   1      37.665  31.570  35.972  1.00  0.00    -0.744 OA
ENDBRANCH  82  83
ENDBRANCH  54  77
BRANCH  66  87
ATOM     87  C   UNL A   1      44.847  24.079  33.573  1.00  0.00    -0.014 A 
ATOM     88  C   UNL A   1      44.046  22.981  33.921  1.00  0.00     0.010 A 
ATOM     89  C   UNL A   1      46.193  24.066  34.007  1.00  0.00     0.010 A 
ATOM     90  C   UNL A   1      44.530  21.969  34.750  1.00  0.00     0.020 A 
ATOM     91  C   UNL A   1      46.706  23.027  34.781  1.00  0.00     0.020 A 
ATOM     92  C   UNL A   1      45.856  22.002  35.179  1.00  0.00     0.054 A 
BRANCH  92  93
ATOM     93  S   UNL A   1      46.473  20.662  36.217  1.00  0.00     0.124 S 
ATOM     94  O   UNL A   1      46.280  21.213  37.556  1.00  0.00    -0.237 OA
ATOM     95  O   UNL A   1      45.596  19.547  35.865  1.00  0.00    -0.237 OA
ATOM     96  O   UNL A   1      47.862  20.510  35.795  1.00  0.00    -0.744 OA
ENDBRANCH  92  93
ENDBRANCH  66  87
ENDBRANCH  40  41
ENDBRANCH  33  35
ENDBRANCH  32  33
ENDBRANCH  31  32
ENDBRANCH   1  31
TORSDOF 19
ENDMDL
MODEL 3
REMARK VINA RESULT:     -13.0      4.341     11.617
REMARK SMILES Cc1ccc(S(=O)(=O)n2cc(C(=O)C(=O)NCC(=O)OCCOC(=O)c3ccc(-c4c5nc(c(-c6ccc(S(=O)(=O)[O-])cc6)c6ccc([nH]6)c(-c6ccc(S(=O)(=O)[O-])cc6)c6nc(c(-c7ccc(S(=O)(=O)[O-])cc7)c7ccc4[nH]7)C=C6)C=C5)cc3)c3ccccc32)cc1
REMARK SMILES IDX 21 1 20 2 18 3 19 4 17 5 16 6 14 7 15 8 12 10 13 11 11 12
REMARK SMILES IDX 9 13 10 14 91 15 86 16 90 17 87 18 89 19 88 20 6 21 7 22
REMARK SMILES IDX 8 23 5 24 1 25 2 26 3 27 93 28 4 29 92 30 22 31 23 32 24 33
REMARK SMILES IDX 25 34 26 35 27 36 85 37 28 38 84 39 29 40 30 41 31 42 78 43
REMARK SMILES IDX 32 44 83 45 77 46 79 47 33 48 82 49 76 50 75 51 34 53 64 54
REMARK SMILES IDX 45 55 63 56 46 57 49 58 62 59 80 60 47 61 48 62 61 64 81 65
REMARK SMILES IDX 50 66 35 67 36 68 44 69 37 70 43 71 38 72 39 73 40 74 41 75
REMARK SMILES IDX 42 76 65 77 66 78 74 79 67 80 73 81 68 82 69 83 70 84 71 85
REMARK SMILES IDX 72 86 51 87 52 88 60 89 53 90 59 91 54 92 55 93 56 94 57 95
REMARK SMILES IDX 58 96
REMARK H PARENT 16 9 79 52 49 63
REMARK Flexibility Score: inf
ROOT
ATOM      1  C   UNL A   1      34.251  33.010  29.648  1.00  0.00     0.274 C 
ENDROOT
BRANCH   1   2
ATOM      2  O   UNL A   1      34.281  32.919  28.221  1.00  0.00    -0.461 OA
BRANCH   2   3
ATOM      3  C   UNL A   1      33.072  32.676  27.659  1.00  0.00     0.325 C 
ATOM      4  O   UNL A   1      32.199  33.520  27.495  1.00  0.00    -0.250 OA
BRANCH   3   5
ATOM      5  C   UNL A   1      32.931  31.237  27.187  1.00  0.00     0.239 C 
BRANCH   5   6
ATOM      6  N   UNL A   1      34.130  30.465  26.921  1.00  0.00    -0.338 N 
ATOM      7  C   UNL A   1      34.115  29.093  26.778  1.00  0.00     0.292 C 
ATOM      8  O   UNL A   1      35.114  28.407  26.621  1.00  0.00    -0.265 OA
ATOM      9  H   UNL A   1      34.988  30.940  26.841  1.00  0.00     0.164 HD
BRANCH   7  10
ATOM     10  C   UNL A   1      32.731  28.429  26.864  1.00  0.00     0.252 C 
ATOM     11  O   UNL A   1      32.215  28.322  27.972  1.00  0.00    -0.283 OA
BRANCH  10  12
ATOM     12  C   UNL A   1      32.147  27.838  25.665  1.00  0.00     0.054 A 
ATOM     13  N   UNL A   1      31.653  26.379  24.060  1.00  0.00    -0.240 N 
ATOM     14  C   UNL A   1      32.336  26.539  25.235  1.00  0.00     0.117 A 
ATOM     15  C   UNL A   1      30.969  27.528  23.717  1.00  0.00     0.065 A 
ATOM     16  C   UNL A   1      31.271  28.467  24.715  1.00  0.00     0.012 A 
ATOM     17  C   UNL A   1      30.157  27.857  22.615  1.00  0.00     0.028 A 
ATOM     18  C   UNL A   1      30.712  29.761  24.616  1.00  0.00     0.011 A 
ATOM     19  C   UNL A   1      29.636  29.151  22.536  1.00  0.00     0.002 A 
ATOM     20  C   UNL A   1      29.902  30.090  23.526  1.00  0.00     0.001 A 
BRANCH  13  21
ATOM     21  S   UNL A   1      31.906  25.054  23.020  1.00  0.00     0.268 S 
ATOM     22  O   UNL A   1      32.445  25.586  21.800  1.00  0.00    -0.201 OA
ATOM     23  O   UNL A   1      30.655  24.297  23.043  1.00  0.00    -0.201 OA
BRANCH  21  24
ATOM     24  C   UNL A   1      33.144  24.032  23.776  1.00  0.00     0.088 A 
ATOM     25  C   UNL A   1      35.965  21.220  25.392  1.00  0.00     0.044 C 
ATOM     26  C   UNL A   1      34.986  22.224  24.860  1.00  0.00    -0.051 A 
ATOM     27  C   UNL A   1      33.612  22.036  25.057  1.00  0.00     0.005 A 
ATOM     28  C   UNL A   1      35.429  23.346  24.153  1.00  0.00     0.005 A 
ATOM     29  C   UNL A   1      32.692  22.934  24.515  1.00  0.00     0.022 A 
ATOM     30  C   UNL A   1      34.514  24.255  23.620  1.00  0.00     0.022 A 
ENDBRANCH  21  24
ENDBRANCH  13  21
ENDBRANCH  10  12
ENDBRANCH   7  10
ENDBRANCH   5   6
ENDBRANCH   3   5
ENDBRANCH   2   3
ENDBRANCH   1   2
BRANCH   1  31
ATOM     31  C   UNL A   1      35.185  31.961  30.274  1.00  0.00     0.275 C 
BRANCH  31  32
ATOM     32  O   UNL A   1      35.858  30.996  29.420  1.00  0.00    -0.458 OA
BRANCH  32  33
ATOM     33  C   UNL A   1      37.079  31.278  28.884  1.00  0.00     0.338 C 
ATOM     34  O   UNL A   1      37.567  32.398  28.848  1.00  0.00    -0.246 OA
BRANCH  33  35
ATOM     35  C   UNL A   1      37.858  30.020  28.698  1.00  0.00     0.060 A 
ATOM     36  C   UNL A   1      38.534  29.762  27.494  1.00  0.00     0.016 A 
ATOM     37  C   UNL A   1      38.218  29.342  29.854  1.00  0.00     0.016 A 
ATOM     38  C   UNL A   1      39.686  28.963  27.498  1.00  0.00     0.010 A 
ATOM     39  C   UNL A   1      39.459  28.775  29.897  1.00  0.00     0.010 A 
ATOM     40  C   UNL A   1      40.196  28.543  28.725  1.00  0.00    -0.014 A 
BRANCH  40  41
ATOM     41  C   UNL A   1      41.424  27.773  28.946  1.00  0.00     0.031 A 
ATOM     42  C   UNL A   1      41.595  26.361  28.533  1.00  0.00     0.074 A 
ATOM     43  C   UNL A   1      42.431  28.508  29.475  1.00  0.00     0.049 A 
ATOM     44  N   UNL A   1      42.554  25.605  28.938  1.00  0.00    -0.248 NA
ATOM     45  C   UNL A   1      40.707  25.653  27.616  1.00  0.00     0.031 C 
ATOM     46  C   UNL A   1      43.837  28.221  29.691  1.00  0.00     0.029 A 
ATOM     47  N   UNL A   1      42.247  29.717  30.151  1.00  0.00    -0.354 N 
ATOM     48  C   UNL A   1      42.572  24.463  28.160  1.00  0.00     0.074 A 
ATOM     49  C   UNL A   1      41.366  24.511  27.380  1.00  0.00     0.031 C 
ATOM     50  C   UNL A   1      44.281  29.013  30.691  1.00  0.00     0.029 A 
ATOM     51  C   UNL A   1      43.129  29.745  31.216  1.00  0.00     0.049 A 
ATOM     52  H   UNL A   1      41.603  30.421  29.912  1.00  0.00     0.167 HD
ATOM     53  C   UNL A   1      43.684  23.676  28.182  1.00  0.00     0.031 A 
ATOM     54  C   UNL A   1      42.569  29.613  32.457  1.00  0.00     0.031 A 
ATOM     55  C   UNL A   1      44.588  24.133  29.231  1.00  0.00     0.049 A 
ATOM     56  C   UNL A   1      43.004  28.298  33.054  1.00  0.00     0.074 A 
ATOM     57  C   UNL A   1      45.666  25.000  29.216  1.00  0.00     0.029 A 
ATOM     58  N   UNL A   1      44.160  24.048  30.553  1.00  0.00    -0.354 N 
ATOM     59  N   UNL A   1      43.217  27.201  32.369  1.00  0.00    -0.248 NA
ATOM     60  C   UNL A   1      43.398  28.187  34.452  1.00  0.00     0.031 C 
ATOM     61  C   UNL A   1      45.774  25.563  30.518  1.00  0.00     0.029 A 
ATOM     62  C   UNL A   1      44.783  25.015  31.319  1.00  0.00     0.049 A 
ATOM     63  H   UNL A   1      43.508  23.393  30.892  1.00  0.00     0.167 HD
ATOM     64  C   UNL A   1      43.894  26.315  33.165  1.00  0.00     0.074 A 
ATOM     65  C   UNL A   1      43.943  26.960  34.470  1.00  0.00     0.031 C 
ATOM     66  C   UNL A   1      44.465  25.151  32.731  1.00  0.00     0.031 A 
BRANCH  53  67
ATOM     67  C   UNL A   1      44.075  22.694  27.101  1.00  0.00    -0.014 A 
ATOM     68  C   UNL A   1      43.127  21.724  26.705  1.00  0.00     0.010 A 
ATOM     69  C   UNL A   1      45.333  22.626  26.471  1.00  0.00     0.010 A 
ATOM     70  C   UNL A   1      43.418  20.719  25.773  1.00  0.00     0.020 A 
ATOM     71  C   UNL A   1      45.643  21.614  25.537  1.00  0.00     0.020 A 
ATOM     72  C   UNL A   1      44.682  20.663  25.197  1.00  0.00     0.054 A 
BRANCH  72  73
ATOM     73  S   UNL A   1      45.026  19.343  24.000  1.00  0.00     0.124 S 
ATOM     74  O   UNL A   1      46.484  19.255  24.035  1.00  0.00    -0.237 OA
ATOM     75  O   UNL A   1      44.317  18.203  24.577  1.00  0.00    -0.237 OA
ATOM     76  O   UNL A   1      44.467  19.851  22.750  1.00  0.00    -0.744 OA
ENDBRANCH  72  73
ENDBRANCH  53  67
BRANCH  54  77
ATOM     77  C   UNL A   1      41.217  30.281  32.582  1.00  0.00    -0.014 A 
ATOM     78  C   UNL A   1      40.173  29.519  33.170  1.00  0.00     0.010 A 
ATOM     79  C   UNL A   1      41.028  31.673  32.494  1.00  0.00     0.010 A 
ATOM     80  C   UNL A   1      39.064  30.126  33.778  1.00  0.00     0.020 A 
ATOM     81  C   UNL A   1      39.894  32.287  33.078  1.00  0.00     0.020 A 
ATOM     82  C   UNL A   1      38.946  31.513  33.756  1.00  0.00     0.054 A 
BRANCH  82  83
ATOM     83  S   UNL A   1      37.639  32.274  34.777  1.00  0.00     0.124 S 
ATOM     84  O   UNL A   1      36.456  32.118  33.937  1.00  0.00    -0.237 OA
ATOM     85  O   UNL A   1      37.661  31.446  35.985  1.00  0.00    -0.237 OA
ATOM     86  O   UNL A   1      38.100  33.646  34.966  1.00  0.00    -0.744 OA
ENDBRANCH  82  83
ENDBRANCH  54  77
BRANCH  66  87
ATOM     87  C   UNL A   1      44.900  24.048  33.655  1.00  0.00    -0.014 A 
ATOM     88  C   UNL A   1      44.044  23.007  34.045  1.00  0.00     0.010 A 
ATOM     89  C   UNL A   1      46.259  23.949  34.032  1.00  0.00     0.010 A 
ATOM     90  C   UNL A   1      44.496  21.969  34.860  1.00  0.00     0.020 A 
ATOM     91  C   UNL A   1      46.735  22.882  34.791  1.00  0.00     0.020 A 
ATOM     92  C   UNL A   1      45.838  21.917  35.233  1.00  0.00     0.054 A 
BRANCH  92  93
ATOM     93  S   UNL A   1      46.410  20.544  36.254  1.00  0.00     0.124 S 
ATOM     94  O   UNL A   1      45.962  19.391  35.477  1.00  0.00    -0.237 OA
ATOM     95  O   UNL A   1      47.856  20.750  36.294  1.00  0.00    -0.237 OA
ATOM     96  O   UNL A   1      45.722  20.750  37.525  1.00  0.00    -0.744 OA
ENDBRANCH  92  93
ENDBRANCH  66  87
ENDBRANCH  40  41
ENDBRANCH  33  35
ENDBRANCH  32  33
ENDBRANCH  31  32
ENDBRANCH   1  31
TORSDOF 19
ENDMDL
