MODEL 1
REMARK VINA RESULT:     -11.2      0.000      0.000
REMARK SMILES CS(=O)(=O)c1ccc(/C=C(/C(=O)OCCOC(=O)c2ccc(-c3c4nc(c(-c5ccc(S(=O)(=O)[O-])cc5)c5ccc([nH]5)c(-c5ccc(S(=O)(=O)[O-])cc5)c5nc(c(-c6ccc(S(=O)(=O)[O-])cc6)c6ccc3[nH]6)C=C5)C=C4)cc2)c2ccc(F)cc2)cc1
REMARK SMILES IDX 15 1 14 2 13 3 11 4 12 5 10 6 9 7 8 8 5 9 6 10 87 11 7 12
REMARK SMILES IDX 86 13 2 14 1 15 3 16 4 17 79 18 80 19 85 20 81 21 84 22
REMARK SMILES IDX 82 23 83 24 16 25 17 26 18 27 19 28 20 29 78 30 21 31 77 32
REMARK SMILES IDX 22 33 23 34 24 35 71 36 25 37 76 38 70 39 72 40 26 41 75 42
REMARK SMILES IDX 69 43 68 44 27 46 57 47 38 48 56 49 39 50 42 51 55 52 73 53
REMARK SMILES IDX 40 54 41 55 54 57 74 58 43 59 28 60 29 61 37 62 30 63 36 64
REMARK SMILES IDX 31 65 32 66 33 67 34 68 35 69 58 70 59 71 67 72 60 73 66 74
REMARK SMILES IDX 61 75 62 76 63 77 64 78 65 79 44 80 45 81 53 82 46 83 52 84
REMARK SMILES IDX 47 85 48 86 49 87 50 88 51 89
REMARK H PARENT 72 45 42 56
REMARK Flexibility Score: inf
ROOT
ATOM      1  C   UNL A   1      32.984  28.364  26.293  1.00  0.00     0.275 C 
ENDROOT
BRANCH   1   2
ATOM      2  C   UNL A   1      32.731  26.871  26.097  1.00  0.00     0.275 C 
BRANCH   2   3
ATOM      3  O   UNL A   1      32.221  26.608  24.772  1.00  0.00    -0.458 OA
BRANCH   3   4
ATOM      4  C   UNL A   1      33.099  26.010  23.926  1.00  0.00     0.338 C 
ATOM      5  O   UNL A   1      33.682  26.560  23.002  1.00  0.00    -0.246 OA
BRANCH   4   6
ATOM      6  C   UNL A   1      33.314  24.572  24.268  1.00  0.00     0.067 C 
ATOM      7  C   UNL A   1      32.252  23.735  24.221  1.00  0.00     0.024 C 
BRANCH   7   8
ATOM      8  C   UNL A   1      32.256  22.250  24.219  1.00  0.00    -0.025 A 
ATOM      9  C   UNL A   1      32.601  19.467  24.022  1.00  0.00     0.067 A 
ATOM     10  C   UNL A   1      32.674  20.084  25.264  1.00  0.00     0.021 A 
ATOM     11  C   UNL A   1      32.290  20.208  22.882  1.00  0.00     0.021 A 
ATOM     12  C   UNL A   1      32.451  21.458  25.357  1.00  0.00     0.009 A 
ATOM     13  C   UNL A   1      32.125  21.595  22.984  1.00  0.00     0.009 A 
BRANCH   9  14
ATOM     14  S   UNL A   1      32.940  17.731  23.907  1.00  0.00     0.175 S 
ATOM     15  C   UNL A   1      34.665  17.594  24.297  1.00  0.00     0.163 C 
ATOM     16  O   UNL A   1      32.750  17.351  22.524  1.00  0.00    -0.224 OA
ATOM     17  O   UNL A   1      32.203  17.069  24.972  1.00  0.00    -0.224 OA
ENDBRANCH   9  14
ENDBRANCH   7   8
BRANCH   6  18
ATOM     18  C   UNL A   1      34.702  24.107  24.456  1.00  0.00    -0.011 A 
ATOM     19  C   UNL A   1      35.317  24.267  25.711  1.00  0.00     0.012 A 
ATOM     20  C   UNL A   1      35.383  23.431  23.435  1.00  0.00     0.012 A 
ATOM     21  C   UNL A   1      36.572  23.706  25.956  1.00  0.00     0.040 A 
ATOM     22  C   UNL A   1      36.645  22.885  23.680  1.00  0.00     0.040 A 
ATOM     23  C   UNL A   1      37.220  23.014  24.939  1.00  0.00     0.123 A 
ATOM     24  F   UNL A   1      38.415  22.463  25.179  1.00  0.00    -0.207 F 
ENDBRANCH   6  18
ENDBRANCH   4   6
ENDBRANCH   3   4
ENDBRANCH   2   3
ENDBRANCH   1   2
BRANCH   1  25
ATOM     25  O   UNL A   1      33.736  28.580  27.501  1.00  0.00    -0.458 OA
BRANCH  25  26
ATOM     26  C   UNL A   1      34.151  29.849  27.718  1.00  0.00     0.338 C 
ATOM     27  O   UNL A   1      33.480  30.867  27.638  1.00  0.00    -0.246 OA
BRANCH  26  28
ATOM     28  C   UNL A   1      35.570  29.864  28.120  1.00  0.00     0.060 A 
ATOM     29  C   UNL A   1      36.551  30.184  27.189  1.00  0.00     0.016 A 
ATOM     30  C   UNL A   1      35.940  29.392  29.380  1.00  0.00     0.016 A 
ATOM     31  C   UNL A   1      37.886  29.894  27.467  1.00  0.00     0.010 A 
ATOM     32  C   UNL A   1      37.297  29.223  29.693  1.00  0.00     0.010 A 
ATOM     33  C   UNL A   1      38.294  29.412  28.720  1.00  0.00    -0.014 A 
BRANCH  33  34
ATOM     34  C   UNL A   1      39.730  29.064  28.984  1.00  0.00     0.031 A 
ATOM     35  C   UNL A   1      40.657  30.053  29.662  1.00  0.00     0.074 A 
ATOM     36  C   UNL A   1      40.224  27.852  28.651  1.00  0.00     0.049 A 
ATOM     37  N   UNL A   1      41.964  30.021  29.773  1.00  0.00    -0.248 NA
ATOM     38  C   UNL A   1      40.043  31.242  30.278  1.00  0.00     0.031 C 
ATOM     39  C   UNL A   1      39.466  26.758  28.039  1.00  0.00     0.029 A 
ATOM     40  N   UNL A   1      41.487  27.325  28.801  1.00  0.00    -0.354 N 
ATOM     41  C   UNL A   1      42.330  31.215  30.388  1.00  0.00     0.074 A 
ATOM     42  C   UNL A   1      41.107  31.947  30.640  1.00  0.00     0.031 C 
ATOM     43  C   UNL A   1      40.245  25.673  27.948  1.00  0.00     0.029 A 
ATOM     44  C   UNL A   1      41.597  26.025  28.362  1.00  0.00     0.049 A 
ATOM     45  H   UNL A   1      42.239  27.830  29.186  1.00  0.00     0.167 HD
ATOM     46  C   UNL A   1      43.570  31.666  30.704  1.00  0.00     0.031 A 
ATOM     47  C   UNL A   1      42.666  25.213  28.241  1.00  0.00     0.031 A 
ATOM     48  C   UNL A   1      44.782  30.907  30.527  1.00  0.00     0.049 A 
ATOM     49  C   UNL A   1      44.030  25.734  28.580  1.00  0.00     0.074 A 
ATOM     50  C   UNL A   1      46.082  31.277  30.831  1.00  0.00     0.029 A 
ATOM     51  N   UNL A   1      44.844  29.615  30.028  1.00  0.00    -0.354 N 
ATOM     52  N   UNL A   1      44.365  26.909  29.055  1.00  0.00    -0.248 NA
ATOM     53  C   UNL A   1      45.162  24.833  28.331  1.00  0.00     0.031 C 
ATOM     54  C   UNL A   1      46.934  30.224  30.479  1.00  0.00     0.029 A 
ATOM     55  C   UNL A   1      46.160  29.180  30.002  1.00  0.00     0.049 A 
ATOM     56  H   UNL A   1      44.069  29.085  29.735  1.00  0.00     0.167 HD
ATOM     57  C   UNL A   1      45.751  26.891  29.153  1.00  0.00     0.074 A 
ATOM     58  C   UNL A   1      46.188  25.579  28.719  1.00  0.00     0.031 C 
ATOM     59  C   UNL A   1      46.586  27.881  29.553  1.00  0.00     0.031 A 
BRANCH  46  60
ATOM     60  C   UNL A   1      43.697  33.074  31.232  1.00  0.00    -0.014 A 
ATOM     61  C   UNL A   1      43.812  33.346  32.606  1.00  0.00     0.010 A 
ATOM     62  C   UNL A   1      43.769  34.142  30.317  1.00  0.00     0.010 A 
ATOM     63  C   UNL A   1      43.959  34.663  33.056  1.00  0.00     0.020 A 
ATOM     64  C   UNL A   1      43.943  35.456  30.760  1.00  0.00     0.020 A 
ATOM     65  C   UNL A   1      44.020  35.710  32.129  1.00  0.00     0.054 A 
BRANCH  65  66
ATOM     66  S   UNL A   1      44.238  37.406  32.736  1.00  0.00     0.124 S 
ATOM     67  O   UNL A   1      45.338  37.247  33.684  1.00  0.00    -0.237 OA
ATOM     68  O   UNL A   1      44.562  38.146  31.518  1.00  0.00    -0.237 OA
ATOM     69  O   UNL A   1      42.944  37.731  33.333  1.00  0.00    -0.744 OA
ENDBRANCH  65  66
ENDBRANCH  46  60
BRANCH  47  70
ATOM     70  C   UNL A   1      42.484  23.841  27.688  1.00  0.00    -0.014 A 
ATOM     71  C   UNL A   1      42.691  23.584  26.324  1.00  0.00     0.010 A 
ATOM     72  C   UNL A   1      42.148  22.775  28.544  1.00  0.00     0.010 A 
ATOM     73  C   UNL A   1      42.575  22.282  25.825  1.00  0.00     0.020 A 
ATOM     74  C   UNL A   1      42.064  21.469  28.057  1.00  0.00     0.020 A 
ATOM     75  C   UNL A   1      42.271  21.232  26.698  1.00  0.00     0.054 A 
BRANCH  75  76
ATOM     76  S   UNL A   1      42.220  19.535  26.057  1.00  0.00     0.124 S 
ATOM     77  O   UNL A   1      43.143  19.610  24.929  1.00  0.00    -0.237 OA
ATOM     78  O   UNL A   1      42.677  18.747  27.199  1.00  0.00    -0.237 OA
ATOM     79  O   UNL A   1      40.814  19.347  25.706  1.00  0.00    -0.744 OA
ENDBRANCH  75  76
ENDBRANCH  47  70
BRANCH  59  80
ATOM     80  C   UNL A   1      48.059  27.577  29.548  1.00  0.00    -0.014 A 
ATOM     81  C   UNL A   1      48.848  27.844  28.416  1.00  0.00     0.010 A 
ATOM     82  C   UNL A   1      48.665  27.039  30.698  1.00  0.00     0.010 A 
ATOM     83  C   UNL A   1      50.214  27.547  28.421  1.00  0.00     0.020 A 
ATOM     84  C   UNL A   1      50.035  26.762  30.714  1.00  0.00     0.020 A 
ATOM     85  C   UNL A   1      50.798  27.003  29.568  1.00  0.00     0.054 A 
BRANCH  85  86
ATOM     86  S   UNL A   1      52.576  26.649  29.561  1.00  0.00     0.124 S 
ATOM     87  O   UNL A   1      52.710  25.744  30.699  1.00  0.00    -0.237 OA
ATOM     88  O   UNL A   1      52.779  26.041  28.248  1.00  0.00    -0.237 OA
ATOM     89  O   UNL A   1      53.192  27.963  29.733  1.00  0.00    -0.744 OA
ENDBRANCH  85  86
ENDBRANCH  59  80
ENDBRANCH  33  34
ENDBRANCH  26  28
ENDBRANCH  25  26
ENDBRANCH   1  25
TORSDOF 17
ENDMDL
MODEL 2
REMARK VINA RESULT:     -10.8      2.603      3.114
REMARK SMILES CS(=O)(=O)c1ccc(/C=C(/C(=O)OCCOC(=O)c2ccc(-c3c4nc(c(-c5ccc(S(=O)(=O)[O-])cc5)c5ccc([nH]5)c(-c5ccc(S(=O)(=O)[O-])cc5)c5nc(c(-c6ccc(S(=O)(=O)[O-])cc6)c6ccc3[nH]6)C=C5)C=C4)cc2)c2ccc(F)cc2)cc1
REMARK SMILES IDX 15 1 14 2 13 3 11 4 12 5 10 6 9 7 8 8 5 9 6 10 87 11 7 12
REMARK SMILES IDX 86 13 2 14 1 15 3 16 4 17 79 18 80 19 85 20 81 21 84 22
REMARK SMILES IDX 82 23 83 24 16 25 17 26 18 27 19 28 20 29 78 30 21 31 77 32
REMARK SMILES IDX 22 33 23 34 24 35 71 36 25 37 76 38 70 39 72 40 26 41 75 42
REMARK SMILES IDX 69 43 68 44 27 46 57 47 38 48 56 49 39 50 42 51 55 52 73 53
REMARK SMILES IDX 40 54 41 55 54 57 74 58 43 59 28 60 29 61 37 62 30 63 36 64
REMARK SMILES IDX 31 65 32 66 33 67 34 68 35 69 58 70 59 71 67 72 60 73 66 74
REMARK SMILES IDX 61 75 62 76 63 77 64 78 65 79 44 80 45 81 53 82 46 83 52 84
REMARK SMILES IDX 47 85 48 86 49 87 50 88 51 89
REMARK H PARENT 72 45 42 56
REMARK Flexibility Score: inf
ROOT
ATOM      1  C   UNL A   1      33.289  28.952  25.147  1.00  0.00     0.275 C 
ENDROOT
BRANCH   1   2
ATOM      2  C   UNL A   1      33.791  28.118  23.970  1.00  0.00     0.275 C 
BRANCH   2   3
ATOM      3  O   UNL A   1      32.966  26.949  23.782  1.00  0.00    -0.458 OA
BRANCH   3   4
ATOM      4  C   UNL A   1      33.447  26.042  22.893  1.00  0.00     0.338 C 
ATOM      5  O   UNL A   1      33.821  26.292  21.755  1.00  0.00    -0.246 OA
BRANCH   4   6
ATOM      6  C   UNL A   1      33.509  24.668  23.474  1.00  0.00     0.067 C 
ATOM      7  C   UNL A   1      32.418  23.874  23.363  1.00  0.00     0.024 C 
BRANCH   7   8
ATOM      8  C   UNL A   1      32.327  22.408  23.579  1.00  0.00    -0.025 A 
ATOM      9  C   UNL A   1      32.493  19.609  23.795  1.00  0.00     0.067 A 
ATOM     10  C   UNL A   1      32.604  20.397  24.934  1.00  0.00     0.021 A 
ATOM     11  C   UNL A   1      32.232  20.194  22.556  1.00  0.00     0.021 A 
ATOM     12  C   UNL A   1      32.470  21.781  24.823  1.00  0.00     0.009 A 
ATOM     13  C   UNL A   1      32.156  21.588  22.452  1.00  0.00     0.009 A 
BRANCH   9  14
ATOM     14  S   UNL A   1      32.721  17.858  23.940  1.00  0.00     0.175 S 
ATOM     15  C   UNL A   1      34.407  17.675  24.455  1.00  0.00     0.163 C 
ATOM     16  O   UNL A   1      32.582  17.301  22.612  1.00  0.00    -0.224 OA
ATOM     17  O   UNL A   1      31.882  17.397  25.036  1.00  0.00    -0.224 OA
ENDBRANCH   9  14
ENDBRANCH   7   8
BRANCH   6  18
ATOM     18  C   UNL A   1      34.813  24.185  23.968  1.00  0.00    -0.011 A 
ATOM     19  C   UNL A   1      35.206  24.490  25.285  1.00  0.00     0.012 A 
ATOM     20  C   UNL A   1      35.623  23.355  23.182  1.00  0.00     0.012 A 
ATOM     21  C   UNL A   1      36.363  23.925  25.822  1.00  0.00     0.040 A 
ATOM     22  C   UNL A   1      36.789  22.804  23.719  1.00  0.00     0.040 A 
ATOM     23  C   UNL A   1      37.139  23.081  25.036  1.00  0.00     0.123 A 
ATOM     24  F   UNL A   1      38.239  22.526  25.557  1.00  0.00    -0.207 F 
ENDBRANCH   6  18
ENDBRANCH   4   6
ENDBRANCH   3   4
ENDBRANCH   2   3
ENDBRANCH   1   2
BRANCH   1  25
ATOM     25  O   UNL A   1      34.220  28.870  26.240  1.00  0.00    -0.458 OA
BRANCH  25  26
ATOM     26  C   UNL A   1      34.257  29.941  27.065  1.00  0.00     0.338 C 
ATOM     27  O   UNL A   1      33.392  30.792  27.205  1.00  0.00    -0.246 OA
BRANCH  26  28
ATOM     28  C   UNL A   1      35.508  29.947  27.845  1.00  0.00     0.060 A 
ATOM     29  C   UNL A   1      36.718  30.205  27.213  1.00  0.00     0.016 A 
ATOM     30  C   UNL A   1      35.499  29.525  29.175  1.00  0.00     0.016 A 
ATOM     31  C   UNL A   1      37.915  29.902  27.862  1.00  0.00     0.010 A 
ATOM     32  C   UNL A   1      36.711  29.344  29.861  1.00  0.00     0.010 A 
ATOM     33  C   UNL A   1      37.943  29.469  29.197  1.00  0.00    -0.014 A 
BRANCH  33  34
ATOM     34  C   UNL A   1      39.238  29.106  29.863  1.00  0.00     0.031 A 
ATOM     35  C   UNL A   1      39.680  29.802  31.136  1.00  0.00     0.074 A 
ATOM     36  C   UNL A   1      40.028  28.131  29.362  1.00  0.00     0.049 A 
ATOM     37  N   UNL A   1      40.852  29.783  31.725  1.00  0.00    -0.248 NA
ATOM     38  C   UNL A   1      38.687  30.643  31.825  1.00  0.00     0.031 C 
ATOM     39  C   UNL A   1      39.738  27.320  28.178  1.00  0.00     0.029 A 
ATOM     40  N   UNL A   1      41.234  27.638  29.804  1.00  0.00    -0.354 N 
ATOM     41  C   UNL A   1      40.762  30.670  32.795  1.00  0.00     0.074 A 
ATOM     42  C   UNL A   1      39.415  31.202  32.783  1.00  0.00     0.031 C 
ATOM     43  C   UNL A   1      40.684  26.382  28.038  1.00  0.00     0.029 A 
ATOM     44  C   UNL A   1      41.722  26.606  29.035  1.00  0.00     0.049 A 
ATOM     45  H   UNL A   1      41.703  27.989  30.594  1.00  0.00     0.167 HD
ATOM     46  C   UNL A   1      41.712  31.017  33.697  1.00  0.00     0.031 A 
ATOM     47  C   UNL A   1      42.896  25.944  29.072  1.00  0.00     0.031 A 
ATOM     48  C   UNL A   1      43.028  30.431  33.760  1.00  0.00     0.049 A 
ATOM     49  C   UNL A   1      43.941  26.352  30.066  1.00  0.00     0.074 A 
ATOM     50  C   UNL A   1      44.054  30.710  34.648  1.00  0.00     0.029 A 
ATOM     51  N   UNL A   1      43.491  29.428  32.923  1.00  0.00    -0.354 N 
ATOM     52  N   UNL A   1      43.874  27.273  30.997  1.00  0.00    -0.248 NA
ATOM     53  C   UNL A   1      45.233  25.659  29.989  1.00  0.00     0.031 C 
ATOM     54  C   UNL A   1      45.150  29.904  34.323  1.00  0.00     0.029 A 
ATOM     55  C   UNL A   1      44.790  29.088  33.264  1.00  0.00     0.049 A 
ATOM     56  H   UNL A   1      42.973  29.017  32.194  1.00  0.00     0.167 HD
ATOM     57  C   UNL A   1      45.120  27.276  31.611  1.00  0.00     0.074 A 
ATOM     58  C   UNL A   1      45.909  26.243  30.969  1.00  0.00     0.031 C 
ATOM     59  C   UNL A   1      45.573  28.073  32.609  1.00  0.00     0.031 A 
BRANCH  46  60
ATOM     60  C   UNL A   1      41.394  32.125  34.670  1.00  0.00    -0.014 A 
ATOM     61  C   UNL A   1      41.569  33.480  34.340  1.00  0.00     0.010 A 
ATOM     62  C   UNL A   1      40.843  31.794  35.924  1.00  0.00     0.010 A 
ATOM     63  C   UNL A   1      41.233  34.480  35.259  1.00  0.00     0.020 A 
ATOM     64  C   UNL A   1      40.481  32.791  36.835  1.00  0.00     0.020 A 
ATOM     65  C   UNL A   1      40.695  34.129  36.502  1.00  0.00     0.054 A 
BRANCH  65  66
ATOM     66  S   UNL A   1      40.243  35.446  37.666  1.00  0.00     0.124 S 
ATOM     67  O   UNL A   1      41.439  35.534  38.501  1.00  0.00    -0.237 OA
ATOM     68  O   UNL A   1      40.008  36.588  36.785  1.00  0.00    -0.237 OA
ATOM     69  O   UNL A   1      39.053  34.925  38.335  1.00  0.00    -0.744 OA
ENDBRANCH  65  66
ENDBRANCH  46  60
BRANCH  47  70
ATOM     70  C   UNL A   1      43.167  24.876  28.069  1.00  0.00    -0.014 A 
ATOM     71  C   UNL A   1      43.793  25.180  26.849  1.00  0.00     0.010 A 
ATOM     72  C   UNL A   1      42.838  23.537  28.356  1.00  0.00     0.010 A 
ATOM     73  C   UNL A   1      44.095  24.162  25.938  1.00  0.00     0.020 A 
ATOM     74  C   UNL A   1      43.169  22.515  27.465  1.00  0.00     0.020 A 
ATOM     75  C   UNL A   1      43.790  22.835  26.257  1.00  0.00     0.054 A 
BRANCH  75  76
ATOM     76  S   UNL A   1      44.276  21.516  25.111  1.00  0.00     0.124 S 
ATOM     77  O   UNL A   1      43.262  20.499  25.372  1.00  0.00    -0.237 OA
ATOM     78  O   UNL A   1      44.192  22.175  23.810  1.00  0.00    -0.237 OA
ATOM     79  O   UNL A   1      45.631  21.177  25.540  1.00  0.00    -0.744 OA
ENDBRANCH  75  76
ENDBRANCH  47  70
BRANCH  59  80
ATOM     80  C   UNL A   1      46.986  27.853  33.073  1.00  0.00    -0.014 A 
ATOM     81  C   UNL A   1      48.040  28.640  32.577  1.00  0.00     0.010 A 
ATOM     82  C   UNL A   1      47.260  26.864  34.035  1.00  0.00     0.010 A 
ATOM     83  C   UNL A   1      49.351  28.419  33.009  1.00  0.00     0.020 A 
ATOM     84  C   UNL A   1      48.566  26.655  34.485  1.00  0.00     0.020 A 
ATOM     85  C   UNL A   1      49.606  27.424  33.956  1.00  0.00     0.054 A 
BRANCH  85  86
ATOM     86  S   UNL A   1      51.311  27.170  34.521  1.00  0.00     0.124 S 
ATOM     87  O   UNL A   1      51.758  26.081  33.656  1.00  0.00    -0.237 OA
ATOM     88  O   UNL A   1      51.932  28.468  34.267  1.00  0.00    -0.237 OA
ATOM     89  O   UNL A   1      51.161  26.824  35.932  1.00  0.00    -0.744 OA
ENDBRANCH  85  86
ENDBRANCH  59  80
ENDBRANCH  33  34
ENDBRANCH  26  28
ENDBRANCH  25  26
ENDBRANCH   1  25
TORSDOF 17
ENDMDL
MODEL 3
REMARK VINA RESULT:     -10.7      3.660      9.563
REMARK SMILES CS(=O)(=O)c1ccc(/C=C(/C(=O)OCCOC(=O)c2ccc(-c3c4nc(c(-c5ccc(S(=O)(=O)[O-])cc5)c5ccc([nH]5)c(-c5ccc(S(=O)(=O)[O-])cc5)c5nc(c(-c6ccc(S(=O)(=O)[O-])cc6)c6ccc3[nH]6)C=C5)C=C4)cc2)c2ccc(F)cc2)cc1
REMARK SMILES IDX 15 1 14 2 13 3 11 4 12 5 10 6 9 7 8 8 5 9 6 10 87 11 7 12
REMARK SMILES IDX 86 13 2 14 1 15 3 16 4 17 79 18 80 19 85 20 81 21 84 22
REMARK SMILES IDX 82 23 83 24 16 25 17 26 18 27 19 28 20 29 78 30 21 31 77 32
REMARK SMILES IDX 22 33 23 34 24 35 71 36 25 37 76 38 70 39 72 40 26 41 75 42
REMARK SMILES IDX 69 43 68 44 27 46 57 47 38 48 56 49 39 50 42 51 55 52 73 53
REMARK SMILES IDX 40 54 41 55 54 57 74 58 43 59 28 60 29 61 37 62 30 63 36 64
REMARK SMILES IDX 31 65 32 66 33 67 34 68 35 69 58 70 59 71 67 72 60 73 66 74
REMARK SMILES IDX 61 75 62 76 63 77 64 78 65 79 44 80 45 81 53 82 46 83 52 84
REMARK SMILES IDX 47 85 48 86 49 87 50 88 51 89
REMARK H PARENT 72 45 42 56
REMARK Flexibility Score: inf
ROOT
ATOM      1  C   UNL A   1      36.081  22.551  25.670  1.00  0.00     0.275 C 
ENDROOT
BRANCH   1   2
ATOM      2  C   UNL A   1      34.884  23.117  26.432  1.00  0.00     0.275 C 
BRANCH   2   3
ATOM      3  O   UNL A   1      34.220  24.136  25.656  1.00  0.00    -0.458 OA
BRANCH   3   4
ATOM      4  C   UNL A   1      32.929  24.377  26.006  1.00  0.00     0.338 C 
ATOM      5  O   UNL A   1      32.259  23.689  26.763  1.00  0.00    -0.246 OA
BRANCH   4   6
ATOM      6  C   UNL A   1      32.404  25.627  25.381  1.00  0.00     0.067 C 
ATOM      7  C   UNL A   1      31.645  25.517  24.265  1.00  0.00     0.024 C 
BRANCH   7   8
ATOM      8  C   UNL A   1      30.776  26.548  23.644  1.00  0.00    -0.025 A 
ATOM      9  C   UNL A   1      29.070  28.629  22.828  1.00  0.00     0.067 A 
ATOM     10  C   UNL A   1      30.418  28.670  22.492  1.00  0.00     0.021 A 
ATOM     11  C   UNL A   1      28.545  27.530  23.508  1.00  0.00     0.021 A 
ATOM     12  C   UNL A   1      31.245  27.608  22.858  1.00  0.00     0.009 A 
ATOM     13  C   UNL A   1      29.400  26.498  23.917  1.00  0.00     0.009 A 
BRANCH   9  14
ATOM     14  S   UNL A   1      28.041  30.009  22.408  1.00  0.00     0.175 S 
ATOM     15  C   UNL A   1      28.944  31.422  22.984  1.00  0.00     0.163 C 
ATOM     16  O   UNL A   1      26.829  29.888  23.188  1.00  0.00    -0.224 OA
ATOM     17  O   UNL A   1      27.991  30.092  20.957  1.00  0.00    -0.224 OA
ENDBRANCH   9  14
ENDBRANCH   7   8
BRANCH   6  18
ATOM     18  C   UNL A   1      32.582  26.894  26.115  1.00  0.00    -0.011 A 
ATOM     19  C   UNL A   1      33.778  27.619  25.958  1.00  0.00     0.012 A 
ATOM     20  C   UNL A   1      31.547  27.432  26.893  1.00  0.00     0.012 A 
ATOM     21  C   UNL A   1      33.911  28.887  26.524  1.00  0.00     0.040 A 
ATOM     22  C   UNL A   1      31.692  28.696  27.470  1.00  0.00     0.040 A 
ATOM     23  C   UNL A   1      32.864  29.416  27.269  1.00  0.00     0.123 A 
ATOM     24  F   UNL A   1      32.986  30.639  27.798  1.00  0.00    -0.207 F 
ENDBRANCH   6  18
ENDBRANCH   4   6
ENDBRANCH   3   4
ENDBRANCH   2   3
ENDBRANCH   1   2
BRANCH   1  25
ATOM     25  O   UNL A   1      37.154  23.509  25.659  1.00  0.00    -0.458 OA
BRANCH  25  26
ATOM     26  C   UNL A   1      38.389  23.013  25.898  1.00  0.00     0.338 C 
ATOM     27  O   UNL A   1      38.826  21.926  25.553  1.00  0.00    -0.246 OA
BRANCH  26  28
ATOM     28  C   UNL A   1      39.207  24.000  26.628  1.00  0.00     0.060 A 
ATOM     29  C   UNL A   1      39.259  23.965  28.017  1.00  0.00     0.016 A 
ATOM     30  C   UNL A   1      39.785  25.068  25.941  1.00  0.00     0.016 A 
ATOM     31  C   UNL A   1      39.757  25.064  28.716  1.00  0.00     0.010 A 
ATOM     32  C   UNL A   1      40.397  26.111  26.654  1.00  0.00     0.010 A 
ATOM     33  C   UNL A   1      40.339  26.158  28.058  1.00  0.00    -0.014 A 
BRANCH  33  34
ATOM     34  C   UNL A   1      40.829  27.350  28.827  1.00  0.00     0.031 A 
ATOM     35  C   UNL A   1      42.227  27.376  29.414  1.00  0.00     0.074 A 
ATOM     36  C   UNL A   1      40.049  28.441  28.990  1.00  0.00     0.049 A 
ATOM     37  N   UNL A   1      42.743  28.210  30.285  1.00  0.00    -0.248 NA
ATOM     38  C   UNL A   1      43.159  26.320  28.985  1.00  0.00     0.031 C 
ATOM     39  C   UNL A   1      38.698  28.614  28.451  1.00  0.00     0.029 A 
ATOM     40  N   UNL A   1      40.291  29.628  29.643  1.00  0.00    -0.354 N 
ATOM     41  C   UNL A   1      44.019  27.731  30.571  1.00  0.00     0.074 A 
ATOM     42  C   UNL A   1      44.206  26.539  29.770  1.00  0.00     0.031 C 
ATOM     43  C   UNL A   1      38.268  29.855  28.717  1.00  0.00     0.029 A 
ATOM     44  C   UNL A   1      39.248  30.523  29.563  1.00  0.00     0.049 A 
ATOM     45  H   UNL A   1      41.129  29.818  30.122  1.00  0.00     0.167 HD
ATOM     46  C   UNL A   1      44.945  28.229  31.427  1.00  0.00     0.031 A 
ATOM     47  C   UNL A   1      39.057  31.723  30.146  1.00  0.00     0.031 A 
ATOM     48  C   UNL A   1      44.794  29.457  32.166  1.00  0.00     0.049 A 
ATOM     49  C   UNL A   1      40.084  32.251  31.102  1.00  0.00     0.074 A 
ATOM     50  C   UNL A   1      45.685  30.048  33.046  1.00  0.00     0.029 A 
ATOM     51  N   UNL A   1      43.695  30.299  32.089  1.00  0.00    -0.354 N 
ATOM     52  N   UNL A   1      41.235  31.724  31.444  1.00  0.00    -0.248 NA
ATOM     53  C   UNL A   1      39.769  33.515  31.780  1.00  0.00     0.031 C 
ATOM     54  C   UNL A   1      45.108  31.227  33.533  1.00  0.00     0.029 A 
ATOM     55  C   UNL A   1      43.879  31.395  32.917  1.00  0.00     0.049 A 
ATOM     56  H   UNL A   1      42.901  30.142  31.530  1.00  0.00     0.167 HD
ATOM     57  C   UNL A   1      41.778  32.590  32.385  1.00  0.00     0.074 A 
ATOM     58  C   UNL A   1      40.846  33.689  32.534  1.00  0.00     0.031 C 
ATOM     59  C   UNL A   1      42.940  32.474  33.073  1.00  0.00     0.031 A 
BRANCH  46  60
ATOM     60  C   UNL A   1      46.199  27.422  31.662  1.00  0.00    -0.014 A 
ATOM     61  C   UNL A   1      47.398  27.696  30.982  1.00  0.00     0.010 A 
ATOM     62  C   UNL A   1      46.184  26.407  32.638  1.00  0.00     0.010 A 
ATOM     63  C   UNL A   1      48.549  26.945  31.249  1.00  0.00     0.020 A 
ATOM     64  C   UNL A   1      47.338  25.672  32.927  1.00  0.00     0.020 A 
ATOM     65  C   UNL A   1      48.510  25.935  32.217  1.00  0.00     0.054 A 
BRANCH  65  66
ATOM     66  S   UNL A   1      50.022  24.994  32.564  1.00  0.00     0.124 S 
ATOM     67  O   UNL A   1      50.941  26.048  32.987  1.00  0.00    -0.237 OA
ATOM     68  O   UNL A   1      49.596  24.074  33.616  1.00  0.00    -0.237 OA
ATOM     69  O   UNL A   1      50.341  24.367  31.283  1.00  0.00    -0.744 OA
ENDBRANCH  65  66
ENDBRANCH  46  60
BRANCH  47  70
ATOM     70  C   UNL A   1      37.787  32.463  29.899  1.00  0.00    -0.014 A 
ATOM     71  C   UNL A   1      37.689  33.389  28.848  1.00  0.00     0.010 A 
ATOM     72  C   UNL A   1      36.654  32.205  30.694  1.00  0.00     0.010 A 
ATOM     73  C   UNL A   1      36.476  34.036  28.588  1.00  0.00     0.020 A 
ATOM     74  C   UNL A   1      35.433  32.823  30.417  1.00  0.00     0.020 A 
ATOM     75  C   UNL A   1      35.354  33.741  29.369  1.00  0.00     0.054 A 
BRANCH  75  76
ATOM     76  S   UNL A   1      33.764  34.513  28.960  1.00  0.00     0.124 S 
ATOM     77  O   UNL A   1      33.197  33.556  28.016  1.00  0.00    -0.237 OA
ATOM     78  O   UNL A   1      33.101  34.590  30.260  1.00  0.00    -0.237 OA
ATOM     79  O   UNL A   1      34.149  35.803  28.392  1.00  0.00    -0.744 OA
ENDBRANCH  75  76
ENDBRANCH  47  70
BRANCH  59  80
ATOM     80  C   UNL A   1      43.271  33.572  34.045  1.00  0.00    -0.014 A 
ATOM     81  C   UNL A   1      42.840  33.508  35.382  1.00  0.00     0.010 A 
ATOM     82  C   UNL A   1      44.042  34.670  33.623  1.00  0.00     0.010 A 
ATOM     83  C   UNL A   1      43.145  34.540  36.273  1.00  0.00     0.020 A 
ATOM     84  C   UNL A   1      44.369  35.693  34.518  1.00  0.00     0.020 A 
ATOM     85  C   UNL A   1      43.904  35.629  35.834  1.00  0.00     0.054 A 
BRANCH  85  86
ATOM     86  S   UNL A   1      44.310  36.945  37.014  1.00  0.00     0.124 S 
ATOM     87  O   UNL A   1      43.297  36.747  38.048  1.00  0.00    -0.237 OA
ATOM     88  O   UNL A   1      45.679  36.619  37.404  1.00  0.00    -0.237 OA
ATOM     89  O   UNL A   1      44.168  38.169  36.229  1.00  0.00    -0.744 OA
ENDBRANCH  85  86
ENDBRANCH  59  80
ENDBRANCH  33  34
ENDBRANCH  26  28
ENDBRANCH  25  26
ENDBRANCH   1  25
TORSDOF 17
ENDMDL
