MODEL 1
REMARK VINA RESULT:     -10.4      0.000      0.000
REMARK SMILES O=C(OCCOC(=O)[C@]1(NC(=O)C2CCN(C(=O)C3CC3)CC2)CCCc2ccccc21)c1ccc(-c2c3nc(c(-c4ccc(S(=O)(=O)[O-])cc4)c4ccc([nH]4)c(-c4ccc(S(=O)(=O)[O-])cc4)c4nc(c(-c5ccc(S(=O)(=O)[O-])cc5)c5ccc2[nH]5)C=C4)C=C3)cc1
REMARK SMILES IDX 4 1 3 2 2 3 1 4 33 5 34 6 92 7 35 8 91 9 36 10 37 11 38 12
REMARK SMILES IDX 85 13 39 14 90 15 84 16 86 17 40 18 89 19 83 20 82 21 41 23
REMARK SMILES IDX 71 24 52 25 70 26 53 27 56 28 69 29 87 30 54 31 55 32 68 34
REMARK SMILES IDX 88 35 57 36 42 37 43 38 51 39 44 40 50 41 45 42 46 43 47 44
REMARK SMILES IDX 48 45 49 46 72 47 73 48 81 49 74 50 80 51 75 52 76 53 77 54
REMARK SMILES IDX 78 55 79 56 58 57 59 58 67 59 60 60 66 61 61 62 62 63 63 64
REMARK SMILES IDX 64 65 65 66 5 67 6 68 7 69 8 70 9 71 24 72 32 73 25 74 27 75
REMARK SMILES IDX 31 76 26 77 28 78 30 79 29 80 10 81 11 82 12 84 13 85 14 86
REMARK SMILES IDX 23 87 15 88 22 89 16 90 17 91 18 92 19 93 20 94 21 95
REMARK H PARENT 86 22 56 33 10 83
REMARK Flexibility Score: inf
ROOT
ATOM      1  C   UNL A   1      47.486  38.373  25.241  1.00  0.00     0.275 C 
ENDROOT
BRANCH   1   2
ATOM      2  O   UNL A   1      47.260  37.121  25.911  1.00  0.00    -0.458 OA
BRANCH   2   3
ATOM      3  C   UNL A   1      48.221  36.215  25.683  1.00  0.00     0.338 C 
ATOM      4  O   UNL A   1      48.964  36.301  24.728  1.00  0.00    -0.246 OA
BRANCH   3   5
ATOM      5  C   UNL A   1      47.844  35.014  26.505  1.00  0.00     0.060 A 
ATOM      6  C   UNL A   1      48.695  34.998  28.035  1.00  0.00     0.016 A 
ATOM      7  C   UNL A   1      46.548  33.850  26.131  1.00  0.00     0.016 A 
ATOM      8  C   UNL A   1      48.231  33.816  29.246  1.00  0.00     0.010 A 
ATOM      9  C   UNL A   1      45.957  32.616  27.262  1.00  0.00     0.010 A 
ATOM     10  C   UNL A   1      46.778  32.466  28.863  1.00  0.00    -0.014 A 
BRANCH  10  11
ATOM     11  C   UNL A   1      46.355  31.006  29.354  1.00  0.00     0.031 A 
ATOM     12  C   UNL A   1      44.900  30.743  29.654  1.00  0.00     0.074 A 
ATOM     13  C   UNL A   1      47.206  29.965  29.301  1.00  0.00     0.049 A 
ATOM     14  N   UNL A   1      44.148  29.766  29.229  1.00  0.00    -0.248 NA
ATOM     15  C   UNL A   1      44.174  31.738  30.468  1.00  0.00     0.031 C 
ATOM     16  C   UNL A   1      48.646  30.092  29.295  1.00  0.00     0.029 A 
ATOM     17  N   UNL A   1      46.968  28.694  28.821  1.00  0.00    -0.354 N 
ATOM     18  C   UNL A   1      42.863  30.065  29.667  1.00  0.00     0.074 A 
ATOM     19  C   UNL A   1      42.921  31.315  30.380  1.00  0.00     0.031 C 
ATOM     20  C   UNL A   1      49.150  29.128  28.514  1.00  0.00     0.029 A 
ATOM     21  C   UNL A   1      48.075  28.220  28.125  1.00  0.00     0.049 A 
ATOM     22  H   UNL A   1      46.131  28.192  28.953  1.00  0.00     0.167 HD
ATOM     23  C   UNL A   1      41.747  29.320  29.511  1.00  0.00     0.031 A 
ATOM     24  C   UNL A   1      48.177  27.211  27.231  1.00  0.00     0.031 A 
ATOM     25  C   UNL A   1      41.804  27.993  28.963  1.00  0.00     0.049 A 
ATOM     26  C   UNL A   1      46.941  26.372  27.068  1.00  0.00     0.074 A 
ATOM     27  C   UNL A   1      40.815  27.033  28.905  1.00  0.00     0.029 A 
ATOM     28  N   UNL A   1      42.960  27.423  28.442  1.00  0.00    -0.354 N 
ATOM     29  N   UNL A   1      45.705  26.654  27.418  1.00  0.00    -0.248 NA
ATOM     30  C   UNL A   1      47.127  25.032  26.506  1.00  0.00     0.031 C 
ATOM     31  C   UNL A   1      41.404  25.849  28.447  1.00  0.00     0.029 A 
ATOM     32  C   UNL A   1      42.729  26.103  28.113  1.00  0.00     0.049 A 
ATOM     33  H   UNL A   1      43.817  27.891  28.326  1.00  0.00     0.167 HD
ATOM     34  C   UNL A   1      44.980  25.492  27.202  1.00  0.00     0.074 A 
ATOM     35  C   UNL A   1      45.896  24.546  26.588  1.00  0.00     0.031 C 
ATOM     36  C   UNL A   1      43.695  25.204  27.532  1.00  0.00     0.031 A 
BRANCH  23  37
ATOM     37  C   UNL A   1      40.462  29.845  30.090  1.00  0.00    -0.014 A 
ATOM     38  C   UNL A   1      40.084  29.591  31.423  1.00  0.00     0.010 A 
ATOM     39  C   UNL A   1      39.610  30.615  29.279  1.00  0.00     0.010 A 
ATOM     40  C   UNL A   1      38.876  30.093  31.925  1.00  0.00     0.020 A 
ATOM     41  C   UNL A   1      38.415  31.135  29.780  1.00  0.00     0.020 A 
ATOM     42  C   UNL A   1      38.051  30.866  31.100  1.00  0.00     0.054 A 
BRANCH  42  43
ATOM     43  S   UNL A   1      36.509  31.535  31.783  1.00  0.00     0.124 S 
ATOM     44  O   UNL A   1      36.080  30.458  32.674  1.00  0.00    -0.237 OA
ATOM     45  O   UNL A   1      36.959  32.756  32.445  1.00  0.00    -0.237 OA
ATOM     46  O   UNL A   1      35.667  31.740  30.607  1.00  0.00    -0.744 OA
ENDBRANCH  42  43
ENDBRANCH  23  37
BRANCH  24  47
ATOM     47  C   UNL A   1      49.475  26.871  26.556  1.00  0.00    -0.014 A 
ATOM     48  C   UNL A   1      49.829  27.345  25.275  1.00  0.00     0.010 A 
ATOM     49  C   UNL A   1      50.390  26.024  27.210  1.00  0.00     0.010 A 
ATOM     50  C   UNL A   1      51.061  26.992  24.691  1.00  0.00     0.020 A 
ATOM     51  C   UNL A   1      51.640  25.729  26.672  1.00  0.00     0.020 A 
ATOM     52  C   UNL A   1      51.964  26.197  25.403  1.00  0.00     0.054 A 
BRANCH  52  53
ATOM     53  S   UNL A   1      53.572  25.772  24.679  1.00  0.00     0.124 S 
ATOM     54  O   UNL A   1      53.457  26.333  23.337  1.00  0.00    -0.237 OA
ATOM     55  O   UNL A   1      54.511  26.443  25.572  1.00  0.00    -0.237 OA
ATOM     56  O   UNL A   1      53.599  24.312  24.746  1.00  0.00    -0.744 OA
ENDBRANCH  52  53
ENDBRANCH  24  47
BRANCH  36  57
ATOM     57  C   UNL A   1      43.230  23.812  27.228  1.00  0.00    -0.014 A 
ATOM     58  C   UNL A   1      43.182  22.822  28.227  1.00  0.00     0.010 A 
ATOM     59  C   UNL A   1      42.803  23.508  25.925  1.00  0.00     0.010 A 
ATOM     60  C   UNL A   1      42.767  21.531  27.908  1.00  0.00     0.020 A 
ATOM     61  C   UNL A   1      42.347  22.231  25.615  1.00  0.00     0.020 A 
ATOM     62  C   UNL A   1      42.353  21.245  26.603  1.00  0.00     0.054 A 
BRANCH  62  63
ATOM     63  S   UNL A   1      41.803  19.566  26.214  1.00  0.00     0.124 S 
ATOM     64  O   UNL A   1      42.586  19.261  25.020  1.00  0.00    -0.237 OA
ATOM     65  O   UNL A   1      42.172  18.825  27.417  1.00  0.00    -0.237 OA
ATOM     66  O   UNL A   1      40.366  19.715  25.994  1.00  0.00    -0.744 OA
ENDBRANCH  62  63
ENDBRANCH  36  57
ENDBRANCH  10  11
ENDBRANCH   3   5
ENDBRANCH   2   3
ENDBRANCH   1   2
BRANCH   1  67
ATOM     67  C   UNL A   1      46.557  39.614  25.549  1.00  0.00     0.274 C 
BRANCH  67  68
ATOM     68  O   UNL A   1      45.716  39.506  26.733  1.00  0.00    -0.460 OA
BRANCH  68  69
ATOM     69  C   UNL A   1      44.850  40.496  27.116  1.00  0.00     0.336 C 
ATOM     70  O   UNL A   1      45.189  41.673  27.186  1.00  0.00    -0.249 OA
BRANCH  69  71
ATOM     71  C   UNL A   1      43.381  39.939  27.540  1.00  0.00     0.164 C 
ATOM     72  C   UNL A   1      43.264  40.554  29.009  1.00  0.00     0.046 C 
ATOM     73  C   UNL A   1      43.291  38.180  27.663  1.00  0.00    -0.008 A 
ATOM     74  C   UNL A   1      44.274  40.113  30.040  1.00  0.00     0.008 C 
ATOM     75  C   UNL A   1      43.582  37.773  29.421  1.00  0.00    -0.042 A 
ATOM     76  C   UNL A   1      42.938  36.591  26.450  1.00  0.00     0.007 A 
ATOM     77  C   UNL A   1      43.915  38.739  30.522  1.00  0.00     0.036 C 
ATOM     78  C   UNL A   1      43.531  36.072  29.935  1.00  0.00     0.004 A 
ATOM     79  C   UNL A   1      42.959  34.914  27.118  1.00  0.00     0.000 A 
ATOM     80  C   UNL A   1      43.235  34.710  28.838  1.00  0.00     0.000 A 
BRANCH  71  81
ATOM     81  N   UNL A   1      42.089  40.712  26.989  1.00  0.00    -0.336 N 
ATOM     82  C   UNL A   1      41.553  41.248  25.844  1.00  0.00     0.224 C 
ATOM     83  H   UNL A   1      41.459  40.851  27.732  1.00  0.00     0.164 HD
ATOM     84  O   UNL A   1      40.376  41.617  25.860  1.00  0.00    -0.275 OA
BRANCH  82  85
ATOM     85  C   UNL A   1      42.383  41.387  24.594  1.00  0.00     0.082 C 
ATOM     86  C   UNL A   1      43.616  42.265  24.789  1.00  0.00     0.035 C 
ATOM     87  C   UNL A   1      41.636  41.641  23.256  1.00  0.00     0.035 C 
ATOM     88  C   UNL A   1      43.354  43.700  24.349  1.00  0.00     0.120 C 
ATOM     89  C   UNL A   1      41.601  43.095  22.806  1.00  0.00     0.120 C 
ATOM     90  N   UNL A   1      42.922  43.673  22.952  1.00  0.00    -0.342 N 
ATOM     91  C   UNL A   1      43.895  43.902  21.979  1.00  0.00     0.225 C 
ATOM     92  O   UNL A   1      44.961  44.441  22.282  1.00  0.00    -0.275 OA
BRANCH  91  93
ATOM     93  C   UNL A   1      43.788  43.501  20.541  1.00  0.00     0.079 C 
ATOM     94  C   UNL A   1      42.856  43.982  19.469  1.00  0.00     0.014 C 
ATOM     95  C   UNL A   1      44.319  44.330  19.404  1.00  0.00     0.014 C 
ENDBRANCH  91  93
ENDBRANCH  82  85
ENDBRANCH  71  81
ENDBRANCH  69  71
ENDBRANCH  68  69
ENDBRANCH  67  68
ENDBRANCH   1  67
TORSDOF 17
ENDMDL
MODEL 2
REMARK VINA RESULT:     -10.4      6.883     14.338
REMARK SMILES O=C(OCCOC(=O)[C@]1(NC(=O)C2CCN(C(=O)C3CC3)CC2)CCCc2ccccc21)c1ccc(-c2c3nc(c(-c4ccc(S(=O)(=O)[O-])cc4)c4ccc([nH]4)c(-c4ccc(S(=O)(=O)[O-])cc4)c4nc(c(-c5ccc(S(=O)(=O)[O-])cc5)c5ccc2[nH]5)C=C4)C=C3)cc1
REMARK SMILES IDX 4 1 3 2 2 3 1 4 33 5 34 6 92 7 35 8 91 9 36 10 37 11 38 12
REMARK SMILES IDX 85 13 39 14 90 15 84 16 86 17 40 18 89 19 83 20 82 21 41 23
REMARK SMILES IDX 71 24 52 25 70 26 53 27 56 28 69 29 87 30 54 31 55 32 68 34
REMARK SMILES IDX 88 35 57 36 42 37 43 38 51 39 44 40 50 41 45 42 46 43 47 44
REMARK SMILES IDX 48 45 49 46 72 47 73 48 81 49 74 50 80 51 75 52 76 53 77 54
REMARK SMILES IDX 78 55 79 56 58 57 59 58 67 59 60 60 66 61 61 62 62 63 63 64
REMARK SMILES IDX 64 65 65 66 5 67 6 68 7 69 8 70 9 71 24 72 32 73 25 74 27 75
REMARK SMILES IDX 31 76 26 77 28 78 30 79 29 80 10 81 11 82 12 84 13 85 14 86
REMARK SMILES IDX 23 87 15 88 22 89 16 90 17 91 18 92 19 93 20 94 21 95
REMARK H PARENT 86 22 56 33 10 83
REMARK Flexibility Score: inf
ROOT
ATOM      1  C   UNL A   1      43.314  26.470  25.436  1.00  0.00     0.275 C 
ENDROOT
BRANCH   1   2
ATOM      2  O   UNL A   1      41.907  26.757  25.370  1.00  0.00    -0.458 OA
BRANCH   2   3
ATOM      3  C   UNL A   1      41.618  28.050  25.576  1.00  0.00     0.338 C 
ATOM      4  O   UNL A   1      42.038  28.921  24.843  1.00  0.00    -0.246 OA
BRANCH   3   5
ATOM      5  C   UNL A   1      41.147  28.135  27.001  1.00  0.00     0.060 A 
ATOM      6  C   UNL A   1      39.991  26.871  27.365  1.00  0.00     0.016 A 
ATOM      7  C   UNL A   1      41.804  29.209  28.262  1.00  0.00     0.016 A 
ATOM      8  C   UNL A   1      39.492  26.639  29.031  1.00  0.00     0.010 A 
ATOM      9  C   UNL A   1      41.410  29.080  29.988  1.00  0.00     0.010 A 
ATOM     10  C   UNL A   1      40.197  27.841  30.494  1.00  0.00    -0.014 A 
BRANCH  10  11
ATOM     11  C   UNL A   1      39.738  28.348  31.937  1.00  0.00     0.031 A 
ATOM     12  C   UNL A   1      40.736  28.290  33.068  1.00  0.00     0.074 A 
ATOM     13  C   UNL A   1      38.584  29.013  32.123  1.00  0.00     0.049 A 
ATOM     14  N   UNL A   1      41.067  29.233  33.907  1.00  0.00    -0.248 NA
ATOM     15  C   UNL A   1      41.516  27.048  33.236  1.00  0.00     0.031 C 
ATOM     16  C   UNL A   1      37.443  28.921  31.240  1.00  0.00     0.029 A 
ATOM     17  N   UNL A   1      38.374  30.172  32.840  1.00  0.00    -0.354 N 
ATOM     18  C   UNL A   1      42.127  28.722  34.646  1.00  0.00     0.074 A 
ATOM     19  C   UNL A   1      42.400  27.394  34.161  1.00  0.00     0.031 C 
ATOM     20  C   UNL A   1      36.850  30.121  31.192  1.00  0.00     0.029 A 
ATOM     21  C   UNL A   1      37.469  30.997  32.181  1.00  0.00     0.049 A 
ATOM     22  H   UNL A   1      38.805  30.385  33.700  1.00  0.00     0.167 HD
ATOM     23  C   UNL A   1      42.776  29.315  35.671  1.00  0.00     0.031 A 
ATOM     24  C   UNL A   1      37.228  32.320  32.327  1.00  0.00     0.031 A 
ATOM     25  C   UNL A   1      42.318  30.557  36.228  1.00  0.00     0.049 A 
ATOM     26  C   UNL A   1      37.938  32.978  33.477  1.00  0.00     0.074 A 
ATOM     27  C   UNL A   1      42.733  31.203  37.374  1.00  0.00     0.029 A 
ATOM     28  N   UNL A   1      41.271  31.302  35.695  1.00  0.00    -0.354 N 
ATOM     29  N   UNL A   1      38.978  32.545  34.154  1.00  0.00    -0.248 NA
ATOM     30  C   UNL A   1      37.371  34.238  33.963  1.00  0.00     0.031 C 
ATOM     31  C   UNL A   1      41.865  32.279  37.590  1.00  0.00     0.029 A 
ATOM     32  C   UNL A   1      40.985  32.371  36.519  1.00  0.00     0.049 A 
ATOM     33  H   UNL A   1      40.804  31.097  34.854  1.00  0.00     0.167 HD
ATOM     34  C   UNL A   1      39.136  33.434  35.206  1.00  0.00     0.074 A 
ATOM     35  C   UNL A   1      38.153  34.486  35.005  1.00  0.00     0.031 C 
ATOM     36  C   UNL A   1      39.970  33.366  36.275  1.00  0.00     0.031 A 
BRANCH  23  37
ATOM     37  C   UNL A   1      43.890  28.553  36.335  1.00  0.00    -0.014 A 
ATOM     38  C   UNL A   1      45.246  28.825  36.066  1.00  0.00     0.010 A 
ATOM     39  C   UNL A   1      43.572  27.539  37.255  1.00  0.00     0.010 A 
ATOM     40  C   UNL A   1      46.255  28.090  36.701  1.00  0.00     0.020 A 
ATOM     41  C   UNL A   1      44.575  26.818  37.906  1.00  0.00     0.020 A 
ATOM     42  C   UNL A   1      45.912  27.093  37.621  1.00  0.00     0.054 A 
BRANCH  42  43
ATOM     43  S   UNL A   1      47.238  26.178  38.457  1.00  0.00     0.124 S 
ATOM     44  O   UNL A   1      46.507  25.063  39.055  1.00  0.00    -0.237 OA
ATOM     45  O   UNL A   1      48.125  25.827  37.353  1.00  0.00    -0.237 OA
ATOM     46  O   UNL A   1      47.781  27.145  39.408  1.00  0.00    -0.744 OA
ENDBRANCH  42  43
ENDBRANCH  23  37
BRANCH  24  47
ATOM     47  C   UNL A   1      36.217  33.045  31.485  1.00  0.00    -0.014 A 
ATOM     48  C   UNL A   1      34.903  33.319  31.918  1.00  0.00     0.010 A 
ATOM     49  C   UNL A   1      36.574  33.463  30.189  1.00  0.00     0.010 A 
ATOM     50  C   UNL A   1      33.997  34.002  31.084  1.00  0.00     0.020 A 
ATOM     51  C   UNL A   1      35.709  34.203  29.386  1.00  0.00     0.020 A 
ATOM     52  C   UNL A   1      34.414  34.451  29.828  1.00  0.00     0.054 A 
BRANCH  52  53
ATOM     53  S   UNL A   1      33.270  35.371  28.762  1.00  0.00     0.124 S 
ATOM     54  O   UNL A   1      34.181  36.226  28.006  1.00  0.00    -0.237 OA
ATOM     55  O   UNL A   1      32.617  34.308  28.003  1.00  0.00    -0.237 OA
ATOM     56  O   UNL A   1      32.404  36.067  29.712  1.00  0.00    -0.744 OA
ENDBRANCH  52  53
ENDBRANCH  24  47
BRANCH  36  57
ATOM     57  C   UNL A   1      39.837  34.463  37.289  1.00  0.00    -0.014 A 
ATOM     58  C   UNL A   1      39.020  34.314  38.425  1.00  0.00     0.010 A 
ATOM     59  C   UNL A   1      40.575  35.644  37.111  1.00  0.00     0.010 A 
ATOM     60  C   UNL A   1      38.900  35.360  39.337  1.00  0.00     0.020 A 
ATOM     61  C   UNL A   1      40.490  36.673  38.044  1.00  0.00     0.020 A 
ATOM     62  C   UNL A   1      39.636  36.533  39.139  1.00  0.00     0.054 A 
BRANCH  62  63
ATOM     63  S   UNL A   1      39.476  37.873  40.344  1.00  0.00     0.124 S 
ATOM     64  O   UNL A   1      38.173  38.434  39.999  1.00  0.00    -0.237 OA
ATOM     65  O   UNL A   1      39.540  37.162  41.618  1.00  0.00    -0.237 OA
ATOM     66  O   UNL A   1      40.621  38.734  40.057  1.00  0.00    -0.744 OA
ENDBRANCH  62  63
ENDBRANCH  36  57
ENDBRANCH  10  11
ENDBRANCH   3   5
ENDBRANCH   2   3
ENDBRANCH   1   2
BRANCH   1  67
ATOM     67  C   UNL A   1      43.930  25.833  26.745  1.00  0.00     0.274 C 
BRANCH  67  68
ATOM     68  O   UNL A   1      44.495  26.769  27.708  1.00  0.00    -0.460 OA
BRANCH  68  69
ATOM     69  C   UNL A   1      45.379  26.383  28.681  1.00  0.00     0.336 C 
ATOM     70  O   UNL A   1      45.360  25.261  29.178  1.00  0.00    -0.249 OA
BRANCH  69  71
ATOM     71  C   UNL A   1      46.379  27.577  29.152  1.00  0.00     0.164 C 
ATOM     72  C   UNL A   1      46.364  27.344  30.731  1.00  0.00     0.046 C 
ATOM     73  C   UNL A   1      45.763  29.198  28.822  1.00  0.00    -0.008 A 
ATOM     74  C   UNL A   1      45.048  27.491  31.454  1.00  0.00     0.008 C 
ATOM     75  C   UNL A   1      44.927  29.751  30.351  1.00  0.00    -0.042 A 
ATOM     76  C   UNL A   1      45.767  30.541  27.299  1.00  0.00     0.007 A 
ATOM     77  C   UNL A   1      44.733  28.949  31.606  1.00  0.00     0.036 C 
ATOM     78  C   UNL A   1      44.206  31.374  30.403  1.00  0.00     0.004 A 
ATOM     79  C   UNL A   1      44.953  32.140  27.495  1.00  0.00     0.000 A 
ATOM     80  C   UNL A   1      44.217  32.512  29.042  1.00  0.00     0.000 A 
BRANCH  71  81
ATOM     81  N   UNL A   1      47.959  27.340  29.015  1.00  0.00    -0.336 N 
ATOM     82  C   UNL A   1      49.009  27.501  28.144  1.00  0.00     0.224 C 
ATOM     83  H   UNL A   1      48.295  26.939  29.848  1.00  0.00     0.164 HD
ATOM     84  O   UNL A   1      50.155  27.323  28.562  1.00  0.00    -0.275 OA
BRANCH  82  85
ATOM     85  C   UNL A   1      48.766  27.883  26.706  1.00  0.00     0.082 C 
ATOM     86  C   UNL A   1      47.886  26.884  25.962  1.00  0.00     0.035 C 
ATOM     87  C   UNL A   1      49.981  28.390  25.880  1.00  0.00     0.035 C 
ATOM     88  C   UNL A   1      48.723  25.876  25.183  1.00  0.00     0.120 C 
ATOM     89  C   UNL A   1      50.627  27.343  24.982  1.00  0.00     0.120 C 
ATOM     90  N   UNL A   1      49.593  26.619  24.271  1.00  0.00    -0.342 N 
ATOM     91  C   UNL A   1      49.154  26.773  22.956  1.00  0.00     0.225 C 
ATOM     92  O   UNL A   1      48.277  26.036  22.503  1.00  0.00    -0.275 OA
BRANCH  91  93
ATOM     93  C   UNL A   1      49.635  27.824  22.005  1.00  0.00     0.079 C 
ATOM     94  C   UNL A   1      50.941  27.943  21.274  1.00  0.00     0.014 C 
ATOM     95  C   UNL A   1      49.678  27.639  20.513  1.00  0.00     0.014 C 
ENDBRANCH  91  93
ENDBRANCH  82  85
ENDBRANCH  71  81
ENDBRANCH  69  71
ENDBRANCH  68  69
ENDBRANCH  67  68
ENDBRANCH   1  67
TORSDOF 17
ENDMDL
MODEL 3
REMARK VINA RESULT:     -10.2      5.772     17.126
REMARK SMILES O=C(OCCOC(=O)[C@]1(NC(=O)C2CCN(C(=O)C3CC3)CC2)CCCc2ccccc21)c1ccc(-c2c3nc(c(-c4ccc(S(=O)(=O)[O-])cc4)c4ccc([nH]4)c(-c4ccc(S(=O)(=O)[O-])cc4)c4nc(c(-c5ccc(S(=O)(=O)[O-])cc5)c5ccc2[nH]5)C=C4)C=C3)cc1
REMARK SMILES IDX 4 1 3 2 2 3 1 4 33 5 34 6 92 7 35 8 91 9 36 10 37 11 38 12
REMARK SMILES IDX 85 13 39 14 90 15 84 16 86 17 40 18 89 19 83 20 82 21 41 23
REMARK SMILES IDX 71 24 52 25 70 26 53 27 56 28 69 29 87 30 54 31 55 32 68 34
REMARK SMILES IDX 88 35 57 36 42 37 43 38 51 39 44 40 50 41 45 42 46 43 47 44
REMARK SMILES IDX 48 45 49 46 72 47 73 48 81 49 74 50 80 51 75 52 76 53 77 54
REMARK SMILES IDX 78 55 79 56 58 57 59 58 67 59 60 60 66 61 61 62 62 63 63 64
REMARK SMILES IDX 64 65 65 66 5 67 6 68 7 69 8 70 9 71 24 72 32 73 25 74 27 75
REMARK SMILES IDX 31 76 26 77 28 78 30 79 29 80 10 81 11 82 12 84 13 85 14 86
REMARK SMILES IDX 23 87 15 88 22 89 16 90 17 91 18 92 19 93 20 94 21 95
REMARK H PARENT 86 22 56 33 10 83
REMARK Flexibility Score: inf
ROOT
ATOM      1  C   UNL A   1      44.921  32.424  27.038  1.00  0.00     0.275 C 
ENDROOT
BRANCH   1   2
ATOM      2  O   UNL A   1      45.380  32.821  25.735  1.00  0.00    -0.458 OA
BRANCH   2   3
ATOM      3  C   UNL A   1      44.452  33.472  25.019  1.00  0.00     0.338 C 
ATOM      4  O   UNL A   1      44.153  33.121  23.897  1.00  0.00    -0.246 OA
BRANCH   3   5
ATOM      5  C   UNL A   1      44.299  34.812  25.683  1.00  0.00     0.060 A 
ATOM      6  C   UNL A   1      42.624  35.141  26.072  1.00  0.00     0.016 A 
ATOM      7  C   UNL A   1      45.623  35.870  26.232  1.00  0.00     0.016 A 
ATOM      8  C   UNL A   1      42.247  36.541  27.060  1.00  0.00     0.010 A 
ATOM      9  C   UNL A   1      45.398  37.303  27.254  1.00  0.00     0.010 A 
ATOM     10  C   UNL A   1      43.712  37.778  27.694  1.00  0.00    -0.014 A 
BRANCH  10  11
ATOM     11  C   UNL A   1      43.867  39.305  28.137  1.00  0.00     0.031 A 
ATOM     12  C   UNL A   1      44.856  39.639  29.227  1.00  0.00     0.074 A 
ATOM     13  C   UNL A   1      43.313  40.309  27.433  1.00  0.00     0.049 A 
ATOM     14  N   UNL A   1      45.788  40.551  29.225  1.00  0.00    -0.248 NA
ATOM     15  C   UNL A   1      44.853  38.799  30.441  1.00  0.00     0.031 C 
ATOM     16  C   UNL A   1      42.170  40.155  26.562  1.00  0.00     0.029 A 
ATOM     17  N   UNL A   1      43.897  41.492  27.032  1.00  0.00    -0.354 N 
ATOM     18  C   UNL A   1      46.513  40.349  30.393  1.00  0.00     0.074 A 
ATOM     19  C   UNL A   1      45.931  39.226  31.083  1.00  0.00     0.031 C 
ATOM     20  C   UNL A   1      42.325  40.974  25.514  1.00  0.00     0.029 A 
ATOM     21  C   UNL A   1      43.485  41.830  25.747  1.00  0.00     0.049 A 
ATOM     22  H   UNL A   1      44.519  42.024  27.580  1.00  0.00     0.167 HD
ATOM     23  C   UNL A   1      47.550  41.081  30.855  1.00  0.00     0.031 A 
ATOM     24  C   UNL A   1      44.031  42.683  24.852  1.00  0.00     0.031 A 
ATOM     25  C   UNL A   1      47.947  42.303  30.213  1.00  0.00     0.049 A 
ATOM     26  C   UNL A   1      45.175  43.509  25.369  1.00  0.00     0.074 A 
ATOM     27  C   UNL A   1      48.842  43.261  30.643  1.00  0.00     0.029 A 
ATOM     28  N   UNL A   1      47.397  42.763  29.021  1.00  0.00    -0.354 N 
ATOM     29  N   UNL A   1      45.915  43.308  26.437  1.00  0.00    -0.248 NA
ATOM     30  C   UNL A   1      45.479  44.740  24.635  1.00  0.00     0.031 C 
ATOM     31  C   UNL A   1      48.752  44.347  29.765  1.00  0.00     0.029 A 
ATOM     32  C   UNL A   1      47.888  44.018  28.728  1.00  0.00     0.049 A 
ATOM     33  H   UNL A   1      46.752  42.266  28.469  1.00  0.00     0.167 HD
ATOM     34  C   UNL A   1      46.714  44.435  26.556  1.00  0.00     0.074 A 
ATOM     35  C   UNL A   1      46.441  45.256  25.388  1.00  0.00     0.031 C 
ATOM     36  C   UNL A   1      47.552  44.796  27.561  1.00  0.00     0.031 A 
BRANCH  23  37
ATOM     37  C   UNL A   1      48.170  40.678  32.165  1.00  0.00    -0.014 A 
ATOM     38  C   UNL A   1      49.295  39.833  32.231  1.00  0.00     0.010 A 
ATOM     39  C   UNL A   1      47.613  41.161  33.362  1.00  0.00     0.010 A 
ATOM     40  C   UNL A   1      49.840  39.476  33.472  1.00  0.00     0.020 A 
ATOM     41  C   UNL A   1      48.165  40.824  34.600  1.00  0.00     0.020 A 
ATOM     42  C   UNL A   1      49.273  39.978  34.648  1.00  0.00     0.054 A 
BRANCH  42  43
ATOM     43  S   UNL A   1      50.019  39.530  36.241  1.00  0.00     0.124 S 
ATOM     44  O   UNL A   1      51.377  40.050  36.096  1.00  0.00    -0.237 OA
ATOM     45  O   UNL A   1      49.174  40.239  37.197  1.00  0.00    -0.237 OA
ATOM     46  O   UNL A   1      49.912  38.074  36.278  1.00  0.00    -0.744 OA
ENDBRANCH  42  43
ENDBRANCH  23  37
BRANCH  24  47
ATOM     47  C   UNL A   1      43.444  42.888  23.484  1.00  0.00    -0.014 A 
ATOM     48  C   UNL A   1      42.063  43.061  23.253  1.00  0.00     0.010 A 
ATOM     49  C   UNL A   1      44.296  42.892  22.364  1.00  0.00     0.010 A 
ATOM     50  C   UNL A   1      41.569  43.249  21.947  1.00  0.00     0.020 A 
ATOM     51  C   UNL A   1      43.825  43.149  21.078  1.00  0.00     0.020 A 
ATOM     52  C   UNL A   1      42.460  43.305  20.870  1.00  0.00     0.054 A 
BRANCH  52  53
ATOM     53  S   UNL A   1      41.840  43.590  19.189  1.00  0.00     0.124 S 
ATOM     54  O   UNL A   1      42.399  42.453  18.464  1.00  0.00    -0.237 OA
ATOM     55  O   UNL A   1      40.392  43.577  19.376  1.00  0.00    -0.237 OA
ATOM     56  O   UNL A   1      42.402  44.893  18.836  1.00  0.00    -0.744 OA
ENDBRANCH  52  53
ENDBRANCH  24  47
BRANCH  36  57
ATOM     57  C   UNL A   1      48.218  46.132  27.420  1.00  0.00    -0.014 A 
ATOM     58  C   UNL A   1      49.412  46.281  26.692  1.00  0.00     0.010 A 
ATOM     59  C   UNL A   1      47.610  47.257  28.001  1.00  0.00     0.010 A 
ATOM     60  C   UNL A   1      50.018  47.532  26.599  1.00  0.00     0.020 A 
ATOM     61  C   UNL A   1      48.190  48.514  27.872  1.00  0.00     0.020 A 
ATOM     62  C   UNL A   1      49.402  48.640  27.190  1.00  0.00     0.054 A 
BRANCH  62  63
ATOM     63  S   UNL A   1      50.199  50.258  27.043  1.00  0.00     0.124 S 
ATOM     64  O   UNL A   1      49.848  50.643  25.679  1.00  0.00    -0.237 OA
ATOM     65  O   UNL A   1      49.552  51.027  28.103  1.00  0.00    -0.237 OA
ATOM     66  O   UNL A   1      51.614  49.967  27.264  1.00  0.00    -0.744 OA
ENDBRANCH  62  63
ENDBRANCH  36  57
ENDBRANCH  10  11
ENDBRANCH   3   5
ENDBRANCH   2   3
ENDBRANCH   1   2
BRANCH   1  67
ATOM     67  C   UNL A   1      43.790  31.328  27.177  1.00  0.00     0.274 C 
BRANCH  67  68
ATOM     68  O   UNL A   1      44.004  30.089  26.444  1.00  0.00    -0.460 OA
BRANCH  68  69
ATOM     69  C   UNL A   1      43.935  28.857  27.040  1.00  0.00     0.336 C 
ATOM     70  O   UNL A   1      43.763  28.721  28.247  1.00  0.00    -0.249 OA
BRANCH  69  71
ATOM     71  C   UNL A   1      44.184  27.626  26.005  1.00  0.00     0.164 C 
ATOM     72  C   UNL A   1      42.881  27.763  25.092  1.00  0.00     0.046 C 
ATOM     73  C   UNL A   1      44.166  26.034  26.769  1.00  0.00    -0.008 A 
ATOM     74  C   UNL A   1      41.536  27.585  25.752  1.00  0.00     0.008 C 
ATOM     75  C   UNL A   1      42.462  25.398  26.588  1.00  0.00    -0.042 A 
ATOM     76  C   UNL A   1      45.465  24.787  27.706  1.00  0.00     0.007 A 
ATOM     77  C   UNL A   1      41.293  26.124  25.985  1.00  0.00     0.036 C 
ATOM     78  C   UNL A   1      42.071  23.782  27.216  1.00  0.00     0.004 A 
ATOM     79  C   UNL A   1      44.903  23.188  28.325  1.00  0.00     0.000 A 
ATOM     80  C   UNL A   1      43.233  22.729  28.045  1.00  0.00     0.000 A 
BRANCH  71  81
ATOM     81  N   UNL A   1      45.202  27.854  24.788  1.00  0.00    -0.336 N 
ATOM     82  C   UNL A   1      46.461  27.522  24.349  1.00  0.00     0.224 C 
ATOM     83  H   UNL A   1      44.776  28.438  24.120  1.00  0.00     0.164 HD
ATOM     84  O   UNL A   1      46.778  27.809  23.193  1.00  0.00    -0.275 OA
BRANCH  82  85
ATOM     85  C   UNL A   1      47.436  26.824  25.262  1.00  0.00     0.082 C 
ATOM     86  C   UNL A   1      47.872  27.685  26.443  1.00  0.00     0.035 C 
ATOM     87  C   UNL A   1      48.596  26.026  24.603  1.00  0.00     0.035 C 
ATOM     88  C   UNL A   1      49.190  28.394  26.160  1.00  0.00     0.120 C 
ATOM     89  C   UNL A   1      49.928  26.761  24.545  1.00  0.00     0.120 C 
ATOM     90  N   UNL A   1      50.190  27.378  25.830  1.00  0.00    -0.342 N 
ATOM     91  C   UNL A   1      51.024  26.947  26.862  1.00  0.00     0.225 C 
ATOM     92  O   UNL A   1      51.152  27.625  27.882  1.00  0.00    -0.275 OA
BRANCH  91  93
ATOM     93  C   UNL A   1      51.785  25.658  26.873  1.00  0.00     0.079 C 
ATOM     94  C   UNL A   1      52.459  24.923  25.752  1.00  0.00     0.014 C 
ATOM     95  C   UNL A   1      53.286  25.578  26.826  1.00  0.00     0.014 C 
ENDBRANCH  91  93
ENDBRANCH  82  85
ENDBRANCH  71  81
ENDBRANCH  69  71
ENDBRANCH  68  69
ENDBRANCH  67  68
ENDBRANCH   1  67
TORSDOF 17
ENDMDL
