MODEL 1
REMARK VINA RESULT:     -11.4      0.000      0.000
REMARK SMILES Nc1c(C(=O)OCCOC(=O)c2ccc(-c3c4nc(c(-c5ccc(S(=O)(=O)[O-])cc5)c5ccc([nH]5)c(-c5ccc(S(=O)(=O)[O-])cc5)c5nc(c(-c6ccc(S(=O)(=O)[O-])cc6)c6ccc3[nH]6)C=C5)C=C4)cc2)cccc1-c1cc(F)c(F)c(F)c1
REMARK SMILES IDX 8 1 7 2 6 3 4 4 5 5 3 6 2 7 75 8 72 9 74 10 73 11 1 12 76 15
REMARK SMILES IDX 77 16 84 17 78 18 82 19 79 20 80 21 83 22 81 23 9 24 10 25
REMARK SMILES IDX 11 26 12 27 13 28 71 29 14 30 70 31 15 32 16 33 17 34 64 35
REMARK SMILES IDX 18 36 69 37 63 38 65 39 19 40 68 41 62 42 61 43 20 45 50 46
REMARK SMILES IDX 31 47 49 48 32 49 35 50 48 51 66 52 33 53 34 54 47 56 67 57
REMARK SMILES IDX 36 58 21 59 22 60 30 61 23 62 29 63 24 64 25 65 26 66 27 67
REMARK SMILES IDX 28 68 51 69 52 70 60 71 53 72 59 73 54 74 55 75 56 76 57 77
REMARK SMILES IDX 58 78 37 79 38 80 46 81 39 82 45 83 40 84 41 85 42 86 43 87
REMARK SMILES IDX 44 88
REMARK H PARENT 1 13 1 14 65 44 35 55
REMARK Flexibility Score: inf
ROOT
ATOM      1  C   UNL A   1      33.428  28.489  26.144  1.00  0.00     0.275 C 
ENDROOT
BRANCH   1   2
ATOM      2  C   UNL A   1      33.617  26.985  25.951  1.00  0.00     0.275 C 
BRANCH   2   3
ATOM      3  O   UNL A   1      32.468  26.399  25.303  1.00  0.00    -0.458 OA
BRANCH   3   4
ATOM      4  C   UNL A   1      32.226  26.814  24.029  1.00  0.00     0.340 C 
ATOM      5  O   UNL A   1      33.010  26.759  23.099  1.00  0.00    -0.246 OA
BRANCH   4   6
ATOM      6  C   UNL A   1      30.819  27.274  23.864  1.00  0.00     0.083 A 
ATOM      7  C   UNL A   1      30.465  28.599  23.534  1.00  0.00     0.054 A 
ATOM      8  C   UNL A   1      29.099  28.878  23.249  1.00  0.00     0.006 A 
ATOM      9  C   UNL A   1      29.824  26.289  24.000  1.00  0.00     0.018 A 
ATOM     10  C   UNL A   1      28.122  27.889  23.489  1.00  0.00     0.011 A 
ATOM     11  C   UNL A   1      28.480  26.605  23.872  1.00  0.00     0.002 A 
BRANCH   7  12
ATOM     12  N   UNL A   1      31.447  29.577  23.298  1.00  0.00    -0.398 N 
ATOM     13  H   UNL A   1      31.407  30.129  22.485  1.00  0.00     0.156 HD
ATOM     14  H   UNL A   1      32.176  29.709  23.947  1.00  0.00     0.156 HD
ENDBRANCH   7  12
BRANCH   8  15
ATOM     15  C   UNL A   1      28.662  30.128  22.598  1.00  0.00    -0.010 A 
ATOM     16  C   UNL A   1      28.184  30.149  21.279  1.00  0.00     0.051 A 
ATOM     17  C   UNL A   1      28.806  31.353  23.278  1.00  0.00     0.051 A 
ATOM     18  C   UNL A   1      27.865  31.362  20.669  1.00  0.00     0.162 A 
ATOM     19  C   UNL A   1      28.476  32.553  22.655  1.00  0.00     0.162 A 
ATOM     20  F   UNL A   1      27.422  31.361  19.403  1.00  0.00    -0.204 F 
ATOM     21  C   UNL A   1      28.008  32.562  21.352  1.00  0.00     0.194 A 
ATOM     22  F   UNL A   1      28.625  33.702  23.329  1.00  0.00    -0.204 F 
ATOM     23  F   UNL A   1      27.703  33.722  20.754  1.00  0.00    -0.200 F 
ENDBRANCH   8  15
ENDBRANCH   4   6
ENDBRANCH   3   4
ENDBRANCH   2   3
ENDBRANCH   1   2
BRANCH   1  24
ATOM     24  O   UNL A   1      33.743  28.848  27.500  1.00  0.00    -0.458 OA
BRANCH  24  25
ATOM     25  C   UNL A   1      34.260  30.084  27.675  1.00  0.00     0.338 C 
ATOM     26  O   UNL A   1      33.696  31.156  27.530  1.00  0.00    -0.246 OA
BRANCH  25  27
ATOM     27  C   UNL A   1      35.645  29.964  28.151  1.00  0.00     0.060 A 
ATOM     28  C   UNL A   1      36.674  30.129  27.232  1.00  0.00     0.016 A 
ATOM     29  C   UNL A   1      35.928  29.559  29.452  1.00  0.00     0.016 A 
ATOM     30  C   UNL A   1      37.983  29.796  27.569  1.00  0.00     0.010 A 
ATOM     31  C   UNL A   1      37.259  29.326  29.822  1.00  0.00     0.010 A 
ATOM     32  C   UNL A   1      38.299  29.400  28.875  1.00  0.00    -0.014 A 
BRANCH  32  33
ATOM     33  C   UNL A   1      39.699  29.022  29.233  1.00  0.00     0.031 A 
ATOM     34  C   UNL A   1      40.572  29.988  29.996  1.00  0.00     0.074 A 
ATOM     35  C   UNL A   1      40.195  27.813  28.897  1.00  0.00     0.049 A 
ATOM     36  N   UNL A   1      41.856  29.924  30.247  1.00  0.00    -0.248 NA
ATOM     37  C   UNL A   1      39.919  31.192  30.535  1.00  0.00     0.031 C 
ATOM     38  C   UNL A   1      39.456  26.749  28.212  1.00  0.00     0.029 A 
ATOM     39  N   UNL A   1      41.440  27.267  29.101  1.00  0.00    -0.354 N 
ATOM     40  C   UNL A   1      42.175  31.107  30.905  1.00  0.00     0.074 A 
ATOM     41  C   UNL A   1      40.951  31.868  31.019  1.00  0.00     0.031 C 
ATOM     42  C   UNL A   1      40.242  25.668  28.097  1.00  0.00     0.029 A 
ATOM     43  C   UNL A   1      41.570  25.989  28.609  1.00  0.00     0.049 A 
ATOM     44  H   UNL A   1      42.170  27.745  29.555  1.00  0.00     0.167 HD
ATOM     45  C   UNL A   1      43.380  31.524  31.367  1.00  0.00     0.031 A 
ATOM     46  C   UNL A   1      42.641  25.175  28.533  1.00  0.00     0.031 A 
ATOM     47  C   UNL A   1      44.587  30.743  31.298  1.00  0.00     0.049 A 
ATOM     48  C   UNL A   1      43.972  25.667  29.023  1.00  0.00     0.074 A 
ATOM     49  C   UNL A   1      45.852  31.072  31.753  1.00  0.00     0.029 A 
ATOM     50  N   UNL A   1      44.678  29.471  30.754  1.00  0.00    -0.354 N 
ATOM     51  N   UNL A   1      44.269  26.816  29.585  1.00  0.00    -0.248 NA
ATOM     52  C   UNL A   1      45.118  24.765  28.849  1.00  0.00     0.031 C 
ATOM     53  C   UNL A   1      46.717  30.014  31.447  1.00  0.00     0.029 A 
ATOM     54  C   UNL A   1      45.979  29.006  30.848  1.00  0.00     0.049 A 
ATOM     55  H   UNL A   1      43.927  28.971  30.359  1.00  0.00     0.167 HD
ATOM     56  C   UNL A   1      45.635  26.769  29.839  1.00  0.00     0.074 A 
ATOM     57  C   UNL A   1      46.101  25.472  29.389  1.00  0.00     0.031 C 
ATOM     58  C   UNL A   1      46.430  27.717  30.390  1.00  0.00     0.031 A 
BRANCH  45  59
ATOM     59  C   UNL A   1      43.461  32.916  31.938  1.00  0.00    -0.014 A 
ATOM     60  C   UNL A   1      43.372  33.157  33.321  1.00  0.00     0.010 A 
ATOM     61  C   UNL A   1      43.651  34.005  31.066  1.00  0.00     0.010 A 
ATOM     62  C   UNL A   1      43.422  34.465  33.814  1.00  0.00     0.020 A 
ATOM     63  C   UNL A   1      43.728  35.310  31.558  1.00  0.00     0.020 A 
ATOM     64  C   UNL A   1      43.589  35.534  32.929  1.00  0.00     0.054 A 
BRANCH  64  65
ATOM     65  S   UNL A   1      43.648  37.221  33.593  1.00  0.00     0.124 S 
ATOM     66  O   UNL A   1      43.833  38.015  32.380  1.00  0.00    -0.237 OA
ATOM     67  O   UNL A   1      42.344  37.360  34.239  1.00  0.00    -0.237 OA
ATOM     68  O   UNL A   1      44.790  37.197  34.503  1.00  0.00    -0.744 OA
ENDBRANCH  64  65
ENDBRANCH  45  59
BRANCH  46  69
ATOM     69  C   UNL A   1      42.500  23.824  27.922  1.00  0.00    -0.014 A 
ATOM     70  C   UNL A   1      42.647  23.648  26.536  1.00  0.00     0.010 A 
ATOM     71  C   UNL A   1      42.254  22.700  28.732  1.00  0.00     0.010 A 
ATOM     72  C   UNL A   1      42.555  22.372  25.971  1.00  0.00     0.020 A 
ATOM     73  C   UNL A   1      42.190  21.420  28.174  1.00  0.00     0.020 A 
ATOM     74  C   UNL A   1      42.334  21.266  26.795  1.00  0.00     0.054 A 
BRANCH  74  75
ATOM     75  S   UNL A   1      42.302  19.609  26.053  1.00  0.00     0.124 S 
ATOM     76  O   UNL A   1      43.252  19.751  24.954  1.00  0.00    -0.237 OA
ATOM     77  O   UNL A   1      42.734  18.758  27.159  1.00  0.00    -0.237 OA
ATOM     78  O   UNL A   1      40.905  19.440  25.657  1.00  0.00    -0.744 OA
ENDBRANCH  74  75
ENDBRANCH  46  69
BRANCH  58  79
ATOM     79  C   UNL A   1      47.885  27.378  30.566  1.00  0.00    -0.014 A 
ATOM     80  C   UNL A   1      48.347  26.746  31.734  1.00  0.00     0.010 A 
ATOM     81  C   UNL A   1      48.794  27.658  29.530  1.00  0.00     0.010 A 
ATOM     82  C   UNL A   1      49.701  26.427  31.874  1.00  0.00     0.020 A 
ATOM     83  C   UNL A   1      50.143  27.319  29.657  1.00  0.00     0.020 A 
ATOM     84  C   UNL A   1      50.590  26.718  30.835  1.00  0.00     0.054 A 
BRANCH  84  85
ATOM     85  S   UNL A   1      52.336  26.260  31.023  1.00  0.00     0.124 S 
ATOM     86  O   UNL A   1      52.849  27.353  31.846  1.00  0.00    -0.237 OA
ATOM     87  O   UNL A   1      52.259  24.960  31.684  1.00  0.00    -0.237 OA
ATOM     88  O   UNL A   1      52.834  26.227  29.650  1.00  0.00    -0.744 OA
ENDBRANCH  84  85
ENDBRANCH  58  79
ENDBRANCH  32  33
ENDBRANCH  25  27
ENDBRANCH  24  25
ENDBRANCH   1  24
TORSDOF 16
ENDMDL
MODEL 2
REMARK VINA RESULT:     -11.2      5.992     12.259
REMARK SMILES Nc1c(C(=O)OCCOC(=O)c2ccc(-c3c4nc(c(-c5ccc(S(=O)(=O)[O-])cc5)c5ccc([nH]5)c(-c5ccc(S(=O)(=O)[O-])cc5)c5nc(c(-c6ccc(S(=O)(=O)[O-])cc6)c6ccc3[nH]6)C=C5)C=C4)cc2)cccc1-c1cc(F)c(F)c(F)c1
REMARK SMILES IDX 8 1 7 2 6 3 4 4 5 5 3 6 2 7 75 8 72 9 74 10 73 11 1 12 76 15
REMARK SMILES IDX 77 16 84 17 78 18 82 19 79 20 80 21 83 22 81 23 9 24 10 25
REMARK SMILES IDX 11 26 12 27 13 28 71 29 14 30 70 31 15 32 16 33 17 34 64 35
REMARK SMILES IDX 18 36 69 37 63 38 65 39 19 40 68 41 62 42 61 43 20 45 50 46
REMARK SMILES IDX 31 47 49 48 32 49 35 50 48 51 66 52 33 53 34 54 47 56 67 57
REMARK SMILES IDX 36 58 21 59 22 60 30 61 23 62 29 63 24 64 25 65 26 66 27 67
REMARK SMILES IDX 28 68 51 69 52 70 60 71 53 72 59 73 54 74 55 75 56 76 57 77
REMARK SMILES IDX 58 78 37 79 38 80 46 81 39 82 45 83 40 84 41 85 42 86 43 87
REMARK SMILES IDX 44 88
REMARK H PARENT 1 13 1 14 65 44 35 55
REMARK Flexibility Score: inf
ROOT
ATOM      1  C   UNL A   1      39.718  20.567  26.145  1.00  0.00     0.275 C 
ENDROOT
BRANCH   1   2
ATOM      2  C   UNL A   1      40.938  19.743  26.550  1.00  0.00     0.275 C 
BRANCH   2   3
ATOM      3  O   UNL A   1      41.860  19.608  25.448  1.00  0.00    -0.458 OA
BRANCH   3   4
ATOM      4  C   UNL A   1      43.070  19.060  25.746  1.00  0.00     0.340 C 
ATOM      5  O   UNL A   1      43.255  17.950  26.213  1.00  0.00    -0.246 OA
BRANCH   4   6
ATOM      6  C   UNL A   1      44.189  19.955  25.341  1.00  0.00     0.083 A 
ATOM      7  C   UNL A   1      44.220  21.339  25.617  1.00  0.00     0.054 A 
ATOM      8  C   UNL A   1      45.413  22.056  25.321  1.00  0.00     0.006 A 
ATOM      9  C   UNL A   1      45.277  19.337  24.699  1.00  0.00     0.018 A 
ATOM     10  C   UNL A   1      46.441  21.423  24.591  1.00  0.00     0.011 A 
ATOM     11  C   UNL A   1      46.371  20.075  24.272  1.00  0.00     0.002 A 
BRANCH   7  12
ATOM     12  N   UNL A   1      43.188  21.958  26.344  1.00  0.00    -0.398 N 
ATOM     13  H   UNL A   1      42.837  22.830  26.054  1.00  0.00     0.156 HD
ATOM     14  H   UNL A   1      42.817  21.519  27.144  1.00  0.00     0.156 HD
ENDBRANCH   7  12
BRANCH   8  15
ATOM     15  C   UNL A   1      45.676  23.409  25.843  1.00  0.00    -0.010 A 
ATOM     16  C   UNL A   1      46.122  23.624  27.157  1.00  0.00     0.051 A 
ATOM     17  C   UNL A   1      45.394  24.532  25.041  1.00  0.00     0.051 A 
ATOM     18  C   UNL A   1      46.275  24.923  27.641  1.00  0.00     0.162 A 
ATOM     19  C   UNL A   1      45.558  25.821  25.540  1.00  0.00     0.162 A 
ATOM     20  F   UNL A   1      46.688  25.105  28.904  1.00  0.00    -0.204 F 
ATOM     21  C   UNL A   1      45.995  26.020  26.839  1.00  0.00     0.194 A 
ATOM     22  F   UNL A   1      45.280  26.868  24.751  1.00  0.00    -0.204 F 
ATOM     23  F   UNL A   1      46.141  27.264  27.317  1.00  0.00    -0.200 F 
ENDBRANCH   8  15
ENDBRANCH   4   6
ENDBRANCH   3   4
ENDBRANCH   2   3
ENDBRANCH   1   2
BRANCH   1  24
ATOM     24  O   UNL A   1      39.935  21.950  26.473  1.00  0.00    -0.458 OA
BRANCH  24  25
ATOM     25  C   UNL A   1      38.971  22.808  26.071  1.00  0.00     0.338 C 
ATOM     26  O   UNL A   1      38.029  22.577  25.331  1.00  0.00    -0.246 OA
BRANCH  25  27
ATOM     27  C   UNL A   1      39.179  24.107  26.725  1.00  0.00     0.060 A 
ATOM     28  C   UNL A   1      39.845  25.102  26.018  1.00  0.00     0.016 A 
ATOM     29  C   UNL A   1      38.848  24.302  28.063  1.00  0.00     0.016 A 
ATOM     30  C   UNL A   1      40.275  26.258  26.662  1.00  0.00     0.010 A 
ATOM     31  C   UNL A   1      39.188  25.511  28.682  1.00  0.00     0.010 A 
ATOM     32  C   UNL A   1      39.943  26.488  28.004  1.00  0.00    -0.014 A 
BRANCH  32  33
ATOM     33  C   UNL A   1      40.423  27.717  28.702  1.00  0.00     0.031 A 
ATOM     34  C   UNL A   1      41.841  27.791  29.215  1.00  0.00     0.074 A 
ATOM     35  C   UNL A   1      39.609  28.779  28.870  1.00  0.00     0.049 A 
ATOM     36  N   UNL A   1      42.395  28.686  29.994  1.00  0.00    -0.248 NA
ATOM     37  C   UNL A   1      42.753  26.708  28.810  1.00  0.00     0.031 C 
ATOM     38  C   UNL A   1      38.232  28.882  28.379  1.00  0.00     0.029 A 
ATOM     39  N   UNL A   1      39.826  29.986  29.491  1.00  0.00    -0.354 N 
ATOM     40  C   UNL A   1      43.691  28.237  30.230  1.00  0.00     0.074 A 
ATOM     41  C   UNL A   1      43.842  26.992  29.508  1.00  0.00     0.031 C 
ATOM     42  C   UNL A   1      37.748  30.099  28.673  1.00  0.00     0.029 A 
ATOM     43  C   UNL A   1      38.738  30.828  29.457  1.00  0.00     0.049 A 
ATOM     44  H   UNL A   1      40.679  30.226  29.919  1.00  0.00     0.167 HD
ATOM     45  C   UNL A   1      44.663  28.806  30.984  1.00  0.00     0.031 A 
ATOM     46  C   UNL A   1      38.534  32.032  30.027  1.00  0.00     0.031 A 
ATOM     47  C   UNL A   1      44.526  30.069  31.661  1.00  0.00     0.049 A 
ATOM     48  C   UNL A   1      39.613  32.631  30.883  1.00  0.00     0.074 A 
ATOM     49  C   UNL A   1      45.461  30.736  32.435  1.00  0.00     0.029 A 
ATOM     50  N   UNL A   1      43.392  30.865  31.631  1.00  0.00    -0.354 N 
ATOM     51  N   UNL A   1      40.809  32.161  31.147  1.00  0.00    -0.248 NA
ATOM     52  C   UNL A   1      39.307  33.911  31.536  1.00  0.00     0.031 C 
ATOM     53  C   UNL A   1      44.876  31.917  32.908  1.00  0.00     0.029 A 
ATOM     54  C   UNL A   1      43.596  32.010  32.385  1.00  0.00     0.049 A 
ATOM     55  H   UNL A   1      42.564  30.649  31.145  1.00  0.00     0.167 HD
ATOM     56  C   UNL A   1      41.402  33.093  31.991  1.00  0.00     0.074 A 
ATOM     57  C   UNL A   1      40.441  34.163  32.175  1.00  0.00     0.031 C 
ATOM     58  C   UNL A   1      42.629  33.062  32.564  1.00  0.00     0.031 A 
BRANCH  45  59
ATOM     59  C   UNL A   1      45.944  28.033  31.164  1.00  0.00    -0.014 A 
ATOM     60  C   UNL A   1      46.056  26.987  32.098  1.00  0.00     0.010 A 
ATOM     61  C   UNL A   1      47.056  28.353  30.361  1.00  0.00     0.010 A 
ATOM     62  C   UNL A   1      47.269  26.311  32.259  1.00  0.00     0.020 A 
ATOM     63  C   UNL A   1      48.262  27.662  30.502  1.00  0.00     0.020 A 
ATOM     64  C   UNL A   1      48.368  26.659  31.467  1.00  0.00     0.054 A 
BRANCH  64  65
ATOM     65  S   UNL A   1      49.931  25.770  31.697  1.00  0.00     0.124 S 
ATOM     66  O   UNL A   1      50.882  26.868  31.851  1.00  0.00    -0.237 OA
ATOM     67  O   UNL A   1      49.682  24.984  32.904  1.00  0.00    -0.237 OA
ATOM     68  O   UNL A   1      50.071  24.991  30.469  1.00  0.00    -0.744 OA
ENDBRANCH  64  65
ENDBRANCH  45  59
BRANCH  46  69
ATOM     69  C   UNL A   1      37.229  32.726  29.840  1.00  0.00    -0.014 A 
ATOM     70  C   UNL A   1      36.217  32.615  30.807  1.00  0.00     0.010 A 
ATOM     71  C   UNL A   1      37.009  33.532  28.707  1.00  0.00     0.010 A 
ATOM     72  C   UNL A   1      35.008  33.301  30.648  1.00  0.00     0.020 A 
ATOM     73  C   UNL A   1      35.814  34.242  28.559  1.00  0.00     0.020 A 
ATOM     74  C   UNL A   1      34.818  34.115  29.528  1.00  0.00     0.054 A 
BRANCH  74  75
ATOM     75  S   UNL A   1      33.277  35.063  29.382  1.00  0.00     0.124 S 
ATOM     76  O   UNL A   1      33.767  36.376  28.975  1.00  0.00    -0.237 OA
ATOM     77  O   UNL A   1      32.541  34.318  28.364  1.00  0.00    -0.237 OA
ATOM     78  O   UNL A   1      32.706  34.995  30.726  1.00  0.00    -0.744 OA
ENDBRANCH  74  75
ENDBRANCH  46  69
BRANCH  58  79
ATOM     79  C   UNL A   1      43.017  34.234  33.424  1.00  0.00    -0.014 A 
ATOM     80  C   UNL A   1      42.849  34.198  34.819  1.00  0.00     0.010 A 
ATOM     81  C   UNL A   1      43.596  35.370  32.830  1.00  0.00     0.010 A 
ATOM     82  C   UNL A   1      43.226  35.292  35.604  1.00  0.00     0.020 A 
ATOM     83  C   UNL A   1      43.996  36.455  33.613  1.00  0.00     0.020 A 
ATOM     84  C   UNL A   1      43.795  36.414  34.994  1.00  0.00     0.054 A 
BRANCH  84  85
ATOM     85  S   UNL A   1      44.314  37.807  36.036  1.00  0.00     0.124 S 
ATOM     86  O   UNL A   1      45.720  37.497  36.278  1.00  0.00    -0.237 OA
ATOM     87  O   UNL A   1      44.064  38.962  35.177  1.00  0.00    -0.237 OA
ATOM     88  O   UNL A   1      43.443  37.708  37.204  1.00  0.00    -0.744 OA
ENDBRANCH  84  85
ENDBRANCH  58  79
ENDBRANCH  32  33
ENDBRANCH  25  27
ENDBRANCH  24  25
ENDBRANCH   1  24
TORSDOF 16
ENDMDL
MODEL 3
REMARK VINA RESULT:     -11.2      4.418      6.491
REMARK SMILES Nc1c(C(=O)OCCOC(=O)c2ccc(-c3c4nc(c(-c5ccc(S(=O)(=O)[O-])cc5)c5ccc([nH]5)c(-c5ccc(S(=O)(=O)[O-])cc5)c5nc(c(-c6ccc(S(=O)(=O)[O-])cc6)c6ccc3[nH]6)C=C5)C=C4)cc2)cccc1-c1cc(F)c(F)c(F)c1
REMARK SMILES IDX 8 1 7 2 6 3 4 4 5 5 3 6 2 7 75 8 72 9 74 10 73 11 1 12 76 15
REMARK SMILES IDX 77 16 84 17 78 18 82 19 79 20 80 21 83 22 81 23 9 24 10 25
REMARK SMILES IDX 11 26 12 27 13 28 71 29 14 30 70 31 15 32 16 33 17 34 64 35
REMARK SMILES IDX 18 36 69 37 63 38 65 39 19 40 68 41 62 42 61 43 20 45 50 46
REMARK SMILES IDX 31 47 49 48 32 49 35 50 48 51 66 52 33 53 34 54 47 56 67 57
REMARK SMILES IDX 36 58 21 59 22 60 30 61 23 62 29 63 24 64 25 65 26 66 27 67
REMARK SMILES IDX 28 68 51 69 52 70 60 71 53 72 59 73 54 74 55 75 56 76 57 77
REMARK SMILES IDX 58 78 37 79 38 80 46 81 39 82 45 83 40 84 41 85 42 86 43 87
REMARK SMILES IDX 44 88
REMARK H PARENT 1 13 1 14 65 44 35 55
REMARK Flexibility Score: inf
ROOT
ATOM      1  C   UNL A   1      33.146  31.736  27.112  1.00  0.00     0.275 C 
ENDROOT
BRANCH   1   2
ATOM      2  C   UNL A   1      32.357  32.951  27.594  1.00  0.00     0.275 C 
BRANCH   2   3
ATOM      3  O   UNL A   1      33.226  34.086  27.795  1.00  0.00    -0.458 OA
BRANCH   3   4
ATOM      4  C   UNL A   1      33.477  34.422  29.090  1.00  0.00     0.340 C 
ATOM      5  O   UNL A   1      32.666  34.870  29.881  1.00  0.00    -0.246 OA
BRANCH   4   6
ATOM      6  C   UNL A   1      34.876  34.087  29.478  1.00  0.00     0.083 A 
ATOM      7  C   UNL A   1      35.276  33.836  30.808  1.00  0.00     0.054 A 
ATOM      8  C   UNL A   1      36.602  33.370  31.033  1.00  0.00     0.006 A 
ATOM      9  C   UNL A   1      35.801  33.972  28.426  1.00  0.00     0.018 A 
ATOM     10  C   UNL A   1      37.526  33.361  29.966  1.00  0.00     0.011 A 
ATOM     11  C   UNL A   1      37.132  33.669  28.672  1.00  0.00     0.002 A 
BRANCH   7  12
ATOM     12  N   UNL A   1      34.347  33.849  31.863  1.00  0.00    -0.398 N 
ATOM     13  H   UNL A   1      33.396  34.026  31.679  1.00  0.00     0.156 HD
ATOM     14  H   UNL A   1      34.647  33.682  32.785  1.00  0.00     0.156 HD
ENDBRANCH   7  12
BRANCH   8  15
ATOM     15  C   UNL A   1      37.031  32.784  32.315  1.00  0.00    -0.010 A 
ATOM     16  C   UNL A   1      37.343  31.420  32.440  1.00  0.00     0.051 A 
ATOM     17  C   UNL A   1      37.049  33.583  33.475  1.00  0.00     0.051 A 
ATOM     18  C   UNL A   1      37.659  30.886  33.689  1.00  0.00     0.162 A 
ATOM     19  C   UNL A   1      37.373  33.033  34.712  1.00  0.00     0.162 A 
ATOM     20  F   UNL A   1      37.940  29.578  33.788  1.00  0.00    -0.204 F 
ATOM     21  C   UNL A   1      37.676  31.686  34.823  1.00  0.00     0.194 A 
ATOM     22  F   UNL A   1      37.381  33.820  35.796  1.00  0.00    -0.204 F 
ATOM     23  F   UNL A   1      37.976  31.160  36.019  1.00  0.00    -0.200 F 
ENDBRANCH   8  15
ENDBRANCH   4   6
ENDBRANCH   3   4
ENDBRANCH   2   3
ENDBRANCH   1   2
BRANCH   1  24
ATOM     24  O   UNL A   1      33.874  31.163  28.211  1.00  0.00    -0.458 OA
BRANCH  24  25
ATOM     25  C   UNL A   1      34.297  29.891  28.036  1.00  0.00     0.338 C 
ATOM     26  O   UNL A   1      33.651  28.939  27.631  1.00  0.00    -0.246 OA
BRANCH  25  27
ATOM     27  C   UNL A   1      35.730  29.812  28.354  1.00  0.00     0.060 A 
ATOM     28  C   UNL A   1      36.645  30.081  27.343  1.00  0.00     0.016 A 
ATOM     29  C   UNL A   1      36.170  29.347  29.589  1.00  0.00     0.016 A 
ATOM     30  C   UNL A   1      37.996  29.795  27.517  1.00  0.00     0.010 A 
ATOM     31  C   UNL A   1      37.542  29.159  29.800  1.00  0.00     0.010 A 
ATOM     32  C   UNL A   1      38.469  29.340  28.755  1.00  0.00    -0.014 A 
BRANCH  32  33
ATOM     33  C   UNL A   1      39.914  29.011  28.938  1.00  0.00     0.031 A 
ATOM     34  C   UNL A   1      40.857  30.040  29.514  1.00  0.00     0.074 A 
ATOM     35  C   UNL A   1      40.393  27.793  28.609  1.00  0.00     0.049 A 
ATOM     36  N   UNL A   1      42.164  30.016  29.589  1.00  0.00    -0.248 NA
ATOM     37  C   UNL A   1      40.251  31.263  30.066  1.00  0.00     0.031 C 
ATOM     38  C   UNL A   1      39.596  26.675  28.097  1.00  0.00     0.029 A 
ATOM     39  N   UNL A   1      41.668  27.285  28.671  1.00  0.00    -0.354 N 
ATOM     40  C   UNL A   1      42.538  31.244  30.125  1.00  0.00     0.074 A 
ATOM     41  C   UNL A   1      41.320  31.987  30.361  1.00  0.00     0.031 C 
ATOM     42  C   UNL A   1      40.389  25.603  27.939  1.00  0.00     0.029 A 
ATOM     43  C   UNL A   1      41.765  25.981  28.242  1.00  0.00     0.049 A 
ATOM     44  H   UNL A   1      42.440  27.804  28.991  1.00  0.00     0.167 HD
ATOM     45  C   UNL A   1      43.783  31.711  30.390  1.00  0.00     0.031 A 
ATOM     46  C   UNL A   1      42.837  25.185  28.067  1.00  0.00     0.031 A 
ATOM     47  C   UNL A   1      44.990  30.950  30.201  1.00  0.00     0.049 A 
ATOM     48  C   UNL A   1      44.209  25.732  28.338  1.00  0.00     0.074 A 
ATOM     49  C   UNL A   1      46.296  31.332  30.457  1.00  0.00     0.029 A 
ATOM     50  N   UNL A   1      45.040  29.649  29.726  1.00  0.00    -0.354 N 
ATOM     51  N   UNL A   1      44.548  26.918  28.785  1.00  0.00    -0.248 NA
ATOM     52  C   UNL A   1      45.345  24.842  28.061  1.00  0.00     0.031 C 
ATOM     53  C   UNL A   1      47.140  30.273  30.097  1.00  0.00     0.029 A 
ATOM     54  C   UNL A   1      46.355  29.216  29.667  1.00  0.00     0.049 A 
ATOM     55  H   UNL A   1      44.256  29.111  29.470  1.00  0.00     0.167 HD
ATOM     56  C   UNL A   1      45.937  26.914  28.850  1.00  0.00     0.074 A 
ATOM     57  C   UNL A   1      46.373  25.600  28.418  1.00  0.00     0.031 C 
ATOM     58  C   UNL A   1      46.774  27.909  29.229  1.00  0.00     0.031 A 
BRANCH  45  59
ATOM     59  C   UNL A   1      43.903  33.137  30.861  1.00  0.00    -0.014 A 
ATOM     60  C   UNL A   1      43.876  33.473  32.226  1.00  0.00     0.010 A 
ATOM     61  C   UNL A   1      44.068  34.163  29.909  1.00  0.00     0.010 A 
ATOM     62  C   UNL A   1      43.961  34.810  32.627  1.00  0.00     0.020 A 
ATOM     63  C   UNL A   1      44.179  35.497  30.307  1.00  0.00     0.020 A 
ATOM     64  C   UNL A   1      44.102  35.815  31.664  1.00  0.00     0.054 A 
BRANCH  64  65
ATOM     65  S   UNL A   1      44.207  37.542  32.208  1.00  0.00     0.124 S 
ATOM     66  O   UNL A   1      43.256  37.566  33.318  1.00  0.00    -0.237 OA
ATOM     67  O   UNL A   1      45.612  37.678  32.584  1.00  0.00    -0.237 OA
ATOM     68  O   UNL A   1      43.805  38.303  31.027  1.00  0.00    -0.744 OA
ENDBRANCH  64  65
ENDBRANCH  45  59
BRANCH  46  69
ATOM     69  C   UNL A   1      42.651  23.795  27.563  1.00  0.00    -0.014 A 
ATOM     70  C   UNL A   1      42.752  23.515  26.190  1.00  0.00     0.010 A 
ATOM     71  C   UNL A   1      42.408  22.740  28.461  1.00  0.00     0.010 A 
ATOM     72  C   UNL A   1      42.618  22.203  25.724  1.00  0.00     0.020 A 
ATOM     73  C   UNL A   1      42.303  21.424  28.003  1.00  0.00     0.020 A 
ATOM     74  C   UNL A   1      42.401  21.165  26.635  1.00  0.00     0.054 A 
BRANCH  74  75
ATOM     75  S   UNL A   1      42.313  19.460  26.020  1.00  0.00     0.124 S 
ATOM     76  O   UNL A   1      40.893  19.320  25.716  1.00  0.00    -0.237 OA
ATOM     77  O   UNL A   1      43.208  19.493  24.866  1.00  0.00    -0.237 OA
ATOM     78  O   UNL A   1      42.795  18.665  27.148  1.00  0.00    -0.744 OA
ENDBRANCH  74  75
ENDBRANCH  46  69
BRANCH  58  79
ATOM     79  C   UNL A   1      48.248  27.609  29.222  1.00  0.00    -0.014 A 
ATOM     80  C   UNL A   1      49.069  28.030  28.161  1.00  0.00     0.010 A 
ATOM     81  C   UNL A   1      48.825  26.933  30.312  1.00  0.00     0.010 A 
ATOM     82  C   UNL A   1      50.439  27.753  28.177  1.00  0.00     0.020 A 
ATOM     83  C   UNL A   1      50.197  26.675  30.343  1.00  0.00     0.020 A 
ATOM     84  C   UNL A   1      50.993  27.075  29.267  1.00  0.00     0.054 A 
BRANCH  84  85
ATOM     85  S   UNL A   1      52.780  26.760  29.286  1.00  0.00     0.124 S 
ATOM     86  O   UNL A   1      53.327  28.112  29.218  1.00  0.00    -0.237 OA
ATOM     87  O   UNL A   1      52.972  26.068  30.558  1.00  0.00    -0.237 OA
ATOM     88  O   UNL A   1      52.999  25.939  28.098  1.00  0.00    -0.744 OA
ENDBRANCH  84  85
ENDBRANCH  58  79
ENDBRANCH  32  33
ENDBRANCH  25  27
ENDBRANCH  24  25
ENDBRANCH   1  24
TORSDOF 16
ENDMDL
