MODEL 1
REMARK VINA RESULT:     -11.7      0.000      0.000
REMARK SMILES O=C(OCCOC(=O)c1ccc([S@@](=O)[C@H]2CCOC3(CCCC3)C2)cc1)c1ccc(-c2c3nc(c(-c4ccc(S(=O)(=O)[O-])cc4)c4ccc([nH]4)c(-c4ccc(S(=O)(=O)[O-])cc4)c4nc(c(-c5ccc(S(=O)(=O)[O-])cc5)c5ccc2[nH]5)C=C4)C=C3)cc1
REMARK SMILES IDX 4 1 3 2 2 3 1 4 27 5 28 6 86 7 29 8 85 9 30 10 31 11 32 12
REMARK SMILES IDX 79 13 33 14 84 15 78 16 80 17 34 18 83 19 77 20 76 21 35 23
REMARK SMILES IDX 65 24 46 25 64 26 47 27 50 28 63 29 81 30 48 31 49 32 62 34
REMARK SMILES IDX 82 35 51 36 36 37 37 38 45 39 38 40 44 41 39 42 40 43 41 44
REMARK SMILES IDX 42 45 43 46 66 47 67 48 75 49 68 50 74 51 69 52 70 53 71 54
REMARK SMILES IDX 72 55 73 56 52 57 53 58 61 59 54 60 60 61 55 62 56 63 57 64
REMARK SMILES IDX 58 65 59 66 5 67 6 68 7 69 8 70 9 71 10 72 26 73 11 74 25 75
REMARK SMILES IDX 12 76 13 77 14 78 15 79 16 80 24 81 17 82 19 83 18 84 20 85
REMARK SMILES IDX 23 86 21 87 22 88
REMARK H PARENT 80 22 50 33
REMARK Flexibility Score: inf
ROOT
ATOM      1  C   UNL A   1      43.257  23.535  26.238  1.00  0.00     0.275 C 
ENDROOT
BRANCH   1   2
ATOM      2  O   UNL A   1      42.271  24.400  25.648  1.00  0.00    -0.458 OA
BRANCH   2   3
ATOM      3  C   UNL A   1      42.105  25.738  25.759  1.00  0.00     0.338 C 
ATOM      4  O   UNL A   1      42.331  26.442  24.774  1.00  0.00    -0.246 OA
BRANCH   3   5
ATOM      5  C   UNL A   1      41.780  26.433  27.044  1.00  0.00     0.060 A 
ATOM      6  C   UNL A   1      40.738  26.110  27.918  1.00  0.00     0.016 A 
ATOM      7  C   UNL A   1      42.595  27.531  27.376  1.00  0.00     0.016 A 
ATOM      8  C   UNL A   1      40.554  26.807  29.116  1.00  0.00     0.010 A 
ATOM      9  C   UNL A   1      42.409  28.238  28.567  1.00  0.00     0.010 A 
ATOM     10  C   UNL A   1      41.384  27.878  29.447  1.00  0.00    -0.014 A 
BRANCH  10  11
ATOM     11  C   UNL A   1      41.049  28.718  30.618  1.00  0.00     0.031 A 
ATOM     12  C   UNL A   1      41.870  28.558  31.860  1.00  0.00     0.074 A 
ATOM     13  C   UNL A   1      40.081  29.651  30.555  1.00  0.00     0.049 A 
ATOM     14  N   UNL A   1      41.839  29.262  32.960  1.00  0.00    -0.248 NA
ATOM     15  C   UNL A   1      42.881  27.488  31.851  1.00  0.00     0.031 C 
ATOM     16  C   UNL A   1      39.295  29.966  29.366  1.00  0.00     0.029 A 
ATOM     17  N   UNL A   1      39.595  30.512  31.505  1.00  0.00    -0.354 N 
ATOM     18  C   UNL A   1      42.849  28.743  33.758  1.00  0.00     0.074 A 
ATOM     19  C   UNL A   1      43.430  27.627  33.047  1.00  0.00     0.031 C 
ATOM     20  C   UNL A   1      38.386  30.910  29.666  1.00  0.00     0.029 A 
ATOM     21  C   UNL A   1      38.551  31.293  31.063  1.00  0.00     0.049 A 
ATOM     22  H   UNL A   1      39.957  30.566  32.419  1.00  0.00     0.167 HD
ATOM     23  C   UNL A   1      43.277  29.178  34.965  1.00  0.00     0.031 A 
ATOM     24  C   UNL A   1      37.827  32.231  31.704  1.00  0.00     0.031 A 
ATOM     25  C   UNL A   1      42.658  30.254  35.686  1.00  0.00     0.049 A 
ATOM     26  C   UNL A   1      38.232  32.610  33.102  1.00  0.00     0.074 A 
ATOM     27  C   UNL A   1      42.992  30.768  36.925  1.00  0.00     0.029 A 
ATOM     28  N   UNL A   1      41.556  30.967  35.236  1.00  0.00    -0.354 N 
ATOM     29  N   UNL A   1      39.223  32.140  33.823  1.00  0.00    -0.248 NA
ATOM     30  C   UNL A   1      37.455  33.671  33.755  1.00  0.00     0.031 C 
ATOM     31  C   UNL A   1      42.056  31.758  37.247  1.00  0.00     0.029 A 
ATOM     32  C   UNL A   1      41.175  31.899  36.184  1.00  0.00     0.049 A 
ATOM     33  H   UNL A   1      41.110  30.830  34.369  1.00  0.00     0.167 HD
ATOM     34  C   UNL A   1      39.226  32.889  34.994  1.00  0.00     0.074 A 
ATOM     35  C   UNL A   1      38.128  33.831  34.888  1.00  0.00     0.031 C 
ATOM     36  C   UNL A   1      40.075  32.821  36.051  1.00  0.00     0.031 A 
BRANCH  23  37
ATOM     37  C   UNL A   1      44.442  28.444  35.568  1.00  0.00    -0.014 A 
ATOM     38  C   UNL A   1      44.240  27.332  36.409  1.00  0.00     0.010 A 
ATOM     39  C   UNL A   1      45.749  28.909  35.347  1.00  0.00     0.010 A 
ATOM     40  C   UNL A   1      45.319  26.742  37.070  1.00  0.00     0.020 A 
ATOM     41  C   UNL A   1      46.834  28.305  35.987  1.00  0.00     0.020 A 
ATOM     42  C   UNL A   1      46.608  27.242  36.866  1.00  0.00     0.054 A 
BRANCH  42  43
ATOM     43  S   UNL A   1      47.989  26.488  37.769  1.00  0.00     0.124 S 
ATOM     44  O   UNL A   1      49.144  27.042  37.067  1.00  0.00    -0.237 OA
ATOM     45  O   UNL A   1      47.788  26.977  39.130  1.00  0.00    -0.237 OA
ATOM     46  O   UNL A   1      47.777  25.053  37.588  1.00  0.00    -0.744 OA
ENDBRANCH  42  43
ENDBRANCH  23  37
BRANCH  24  47
ATOM     47  C   UNL A   1      36.695  32.907  31.012  1.00  0.00    -0.014 A 
ATOM     48  C   UNL A   1      35.408  32.919  31.577  1.00  0.00     0.010 A 
ATOM     49  C   UNL A   1      36.907  33.566  29.786  1.00  0.00     0.010 A 
ATOM     50  C   UNL A   1      34.352  33.564  30.923  1.00  0.00     0.020 A 
ATOM     51  C   UNL A   1      35.859  34.229  29.139  1.00  0.00     0.020 A 
ATOM     52  C   UNL A   1      34.585  34.219  29.711  1.00  0.00     0.054 A 
BRANCH  52  53
ATOM     53  S   UNL A   1      33.210  35.096  28.912  1.00  0.00     0.124 S 
ATOM     54  O   UNL A   1      33.887  36.244  28.316  1.00  0.00    -0.237 OA
ATOM     55  O   UNL A   1      32.708  34.097  27.971  1.00  0.00    -0.237 OA
ATOM     56  O   UNL A   1      32.311  35.404  30.021  1.00  0.00    -0.744 OA
ENDBRANCH  52  53
ENDBRANCH  24  47
BRANCH  36  57
ATOM     57  C   UNL A   1      39.874  33.819  37.155  1.00  0.00    -0.014 A 
ATOM     58  C   UNL A   1      40.367  35.131  37.055  1.00  0.00     0.010 A 
ATOM     59  C   UNL A   1      39.121  33.449  38.285  1.00  0.00     0.010 A 
ATOM     60  C   UNL A   1      40.136  36.049  38.082  1.00  0.00     0.020 A 
ATOM     61  C   UNL A   1      38.864  34.372  39.300  1.00  0.00     0.020 A 
ATOM     62  C   UNL A   1      39.386  35.663  39.198  1.00  0.00     0.054 A 
BRANCH  62  63
ATOM     63  S   UNL A   1      39.053  36.887  40.493  1.00  0.00     0.124 S 
ATOM     64  O   UNL A   1      38.131  36.162  41.363  1.00  0.00    -0.237 OA
ATOM     65  O   UNL A   1      40.380  37.134  41.051  1.00  0.00    -0.237 OA
ATOM     66  O   UNL A   1      38.470  38.011  39.766  1.00  0.00    -0.744 OA
ENDBRANCH  62  63
ENDBRANCH  36  57
ENDBRANCH  10  11
ENDBRANCH   3   5
ENDBRANCH   2   3
ENDBRANCH   1   2
BRANCH   1  67
ATOM     67  C   UNL A   1      42.919  22.042  26.191  1.00  0.00     0.275 C 
BRANCH  67  68
ATOM     68  O   UNL A   1      41.581  21.763  25.753  1.00  0.00    -0.458 OA
BRANCH  68  69
ATOM     69  C   UNL A   1      40.661  21.642  26.748  1.00  0.00     0.338 C 
ATOM     70  O   UNL A   1      40.878  21.264  27.888  1.00  0.00    -0.246 OA
BRANCH  69  71
ATOM     71  C   UNL A   1      39.347  22.160  26.301  1.00  0.00     0.060 A 
ATOM     72  C   UNL A   1      38.515  21.315  25.560  1.00  0.00     0.017 A 
ATOM     73  C   UNL A   1      38.933  23.465  26.570  1.00  0.00     0.017 A 
ATOM     74  C   UNL A   1      37.261  21.761  25.119  1.00  0.00     0.018 A 
ATOM     75  C   UNL A   1      37.676  23.904  26.122  1.00  0.00     0.018 A 
ATOM     76  C   UNL A   1      36.810  23.050  25.423  1.00  0.00     0.039 A 
BRANCH  76  77
ATOM     77  S   UNL A   1      35.315  23.757  24.698  1.00  0.00     0.056 S 
ATOM     78  O   UNL A   1      35.557  23.691  23.216  1.00  0.00    -0.254 OA
BRANCH  77  79
ATOM     79  C   UNL A   1      33.949  22.606  25.047  1.00  0.00     0.089 C 
ATOM     80  C   UNL A   1      32.626  23.259  25.410  1.00  0.00     0.046 C 
ATOM     81  C   UNL A   1      33.738  21.514  24.001  1.00  0.00     0.053 C 
ATOM     82  C   UNL A   1      31.662  22.192  25.897  1.00  0.00     0.162 C 
ATOM     83  C   UNL A   1      32.687  20.491  24.496  1.00  0.00     0.069 C 
ATOM     84  O   UNL A   1      31.491  21.173  24.917  1.00  0.00    -0.375 OA
ATOM     85  C   UNL A   1      32.248  19.518  23.373  1.00  0.00     0.035 C 
ATOM     86  C   UNL A   1      33.223  19.563  25.610  1.00  0.00     0.035 C 
ATOM     87  C   UNL A   1      32.474  18.103  23.901  1.00  0.00     0.003 C 
ATOM     88  C   UNL A   1      32.475  18.253  25.409  1.00  0.00     0.003 C 
ENDBRANCH  77  79
ENDBRANCH  76  77
ENDBRANCH  69  71
ENDBRANCH  68  69
ENDBRANCH  67  68
ENDBRANCH   1  67
TORSDOF 16
ENDMDL
MODEL 2
REMARK VINA RESULT:     -11.6      6.511     12.477
REMARK SMILES O=C(OCCOC(=O)c1ccc([S@@](=O)[C@H]2CCOC3(CCCC3)C2)cc1)c1ccc(-c2c3nc(c(-c4ccc(S(=O)(=O)[O-])cc4)c4ccc([nH]4)c(-c4ccc(S(=O)(=O)[O-])cc4)c4nc(c(-c5ccc(S(=O)(=O)[O-])cc5)c5ccc2[nH]5)C=C4)C=C3)cc1
REMARK SMILES IDX 4 1 3 2 2 3 1 4 27 5 28 6 86 7 29 8 85 9 30 10 31 11 32 12
REMARK SMILES IDX 79 13 33 14 84 15 78 16 80 17 34 18 83 19 77 20 76 21 35 23
REMARK SMILES IDX 65 24 46 25 64 26 47 27 50 28 63 29 81 30 48 31 49 32 62 34
REMARK SMILES IDX 82 35 51 36 36 37 37 38 45 39 38 40 44 41 39 42 40 43 41 44
REMARK SMILES IDX 42 45 43 46 66 47 67 48 75 49 68 50 74 51 69 52 70 53 71 54
REMARK SMILES IDX 72 55 73 56 52 57 53 58 61 59 54 60 60 61 55 62 56 63 57 64
REMARK SMILES IDX 58 65 59 66 5 67 6 68 7 69 8 70 9 71 10 72 26 73 11 74 25 75
REMARK SMILES IDX 12 76 13 77 14 78 15 79 16 80 24 81 17 82 19 83 18 84 20 85
REMARK SMILES IDX 23 86 21 87 22 88
REMARK H PARENT 80 22 50 33
REMARK Flexibility Score: inf
ROOT
ATOM      1  C   UNL A   1      34.783  32.180  29.509  1.00  0.00     0.275 C 
ENDROOT
BRANCH   1   2
ATOM      2  O   UNL A   1      35.609  31.304  30.295  1.00  0.00    -0.458 OA
BRANCH   2   3
ATOM      3  C   UNL A   1      36.793  31.537  30.907  1.00  0.00     0.338 C 
ATOM      4  O   UNL A   1      36.830  32.361  31.821  1.00  0.00    -0.246 OA
BRANCH   3   5
ATOM      5  C   UNL A   1      38.092  30.944  30.460  1.00  0.00     0.060 A 
ATOM      6  C   UNL A   1      39.201  30.678  31.268  1.00  0.00     0.016 A 
ATOM      7  C   UNL A   1      38.202  30.659  29.087  1.00  0.00     0.016 A 
ATOM      8  C   UNL A   1      40.353  30.082  30.747  1.00  0.00     0.010 A 
ATOM      9  C   UNL A   1      39.355  30.073  28.558  1.00  0.00     0.010 A 
ATOM     10  C   UNL A   1      40.441  29.780  29.388  1.00  0.00    -0.014 A 
BRANCH  10  11
ATOM     11  C   UNL A   1      41.736  29.334  28.828  1.00  0.00     0.031 A 
ATOM     12  C   UNL A   1      42.840  30.339  28.715  1.00  0.00     0.074 A 
ATOM     13  C   UNL A   1      41.947  28.047  28.494  1.00  0.00     0.049 A 
ATOM     14  N   UNL A   1      44.086  30.153  28.369  1.00  0.00    -0.248 NA
ATOM     15  C   UNL A   1      42.508  31.729  29.068  1.00  0.00     0.031 C 
ATOM     16  C   UNL A   1      40.981  26.966  28.665  1.00  0.00     0.029 A 
ATOM     17  N   UNL A   1      43.040  27.424  27.948  1.00  0.00    -0.354 N 
ATOM     18  C   UNL A   1      44.694  31.394  28.499  1.00  0.00     0.074 A 
ATOM     19  C   UNL A   1      43.670  32.336  28.889  1.00  0.00     0.031 C 
ATOM     20  C   UNL A   1      41.497  25.822  28.184  1.00  0.00     0.029 A 
ATOM     21  C   UNL A   1      42.848  26.083  27.703  1.00  0.00     0.049 A 
ATOM     22  H   UNL A   1      43.883  27.893  27.749  1.00  0.00     0.167 HD
ATOM     23  C   UNL A   1      45.998  31.715  28.337  1.00  0.00     0.031 A 
ATOM     24  C   UNL A   1      43.679  25.163  27.175  1.00  0.00     0.031 A 
ATOM     25  C   UNL A   1      46.996  30.783  27.897  1.00  0.00     0.049 A 
ATOM     26  C   UNL A   1      45.094  25.572  26.872  1.00  0.00     0.074 A 
ATOM     27  C   UNL A   1      48.343  30.999  27.678  1.00  0.00     0.029 A 
ATOM     28  N   UNL A   1      46.744  29.453  27.586  1.00  0.00    -0.354 N 
ATOM     29  N   UNL A   1      45.663  26.741  27.046  1.00  0.00    -0.248 NA
ATOM     30  C   UNL A   1      45.988  24.533  26.344  1.00  0.00     0.031 C 
ATOM     31  C   UNL A   1      48.896  29.812  27.182  1.00  0.00     0.029 A 
ATOM     32  C   UNL A   1      47.904  28.842  27.148  1.00  0.00     0.049 A 
ATOM     33  H   UNL A   1      45.868  29.011  27.666  1.00  0.00     0.167 HD
ATOM     34  C   UNL A   1      46.999  26.566  26.705  1.00  0.00     0.074 A 
ATOM     35  C   UNL A   1      47.145  25.180  26.300  1.00  0.00     0.031 C 
ATOM     36  C   UNL A   1      48.017  27.461  26.747  1.00  0.00     0.031 A 
BRANCH  23  37
ATOM     37  C   UNL A   1      46.374  33.145  28.605  1.00  0.00    -0.014 A 
ATOM     38  C   UNL A   1      46.743  33.568  29.897  1.00  0.00     0.010 A 
ATOM     39  C   UNL A   1      46.292  34.092  27.570  1.00  0.00     0.010 A 
ATOM     40  C   UNL A   1      46.959  34.922  30.162  1.00  0.00     0.020 A 
ATOM     41  C   UNL A   1      46.533  35.444  27.826  1.00  0.00     0.020 A 
ATOM     42  C   UNL A   1      46.838  35.854  29.127  1.00  0.00     0.054 A 
BRANCH  42  43
ATOM     43  S   UNL A   1      47.079  37.611  29.504  1.00  0.00     0.124 S 
ATOM     44  O   UNL A   1      45.723  38.136  29.369  1.00  0.00    -0.237 OA
ATOM     45  O   UNL A   1      47.606  37.578  30.866  1.00  0.00    -0.237 OA
ATOM     46  O   UNL A   1      48.026  38.056  28.484  1.00  0.00    -0.744 OA
ENDBRANCH  42  43
ENDBRANCH  23  37
BRANCH  24  47
ATOM     47  C   UNL A   1      43.209  23.767  26.957  1.00  0.00    -0.014 A 
ATOM     48  C   UNL A   1      42.819  23.327  25.680  1.00  0.00     0.010 A 
ATOM     49  C   UNL A   1      43.171  22.858  28.032  1.00  0.00     0.010 A 
ATOM     50  C   UNL A   1      42.387  22.011  25.484  1.00  0.00     0.020 A 
ATOM     51  C   UNL A   1      42.759  21.535  27.836  1.00  0.00     0.020 A 
ATOM     52  C   UNL A   1      42.364  21.122  26.563  1.00  0.00     0.054 A 
BRANCH  52  53
ATOM     53  S   UNL A   1      41.852  19.404  26.269  1.00  0.00     0.124 S 
ATOM     54  O   UNL A   1      40.413  19.545  26.073  1.00  0.00    -0.237 OA
ATOM     55  O   UNL A   1      42.623  19.049  25.079  1.00  0.00    -0.237 OA
ATOM     56  O   UNL A   1      42.255  18.714  27.492  1.00  0.00    -0.744 OA
ENDBRANCH  52  53
ENDBRANCH  24  47
BRANCH  36  57
ATOM     57  C   UNL A   1      49.386  26.958  26.385  1.00  0.00    -0.014 A 
ATOM     58  C   UNL A   1      50.164  26.229  27.300  1.00  0.00     0.010 A 
ATOM     59  C   UNL A   1      49.871  27.169  25.081  1.00  0.00     0.010 A 
ATOM     60  C   UNL A   1      51.419  25.744  26.925  1.00  0.00     0.020 A 
ATOM     61  C   UNL A   1      51.112  26.661  24.694  1.00  0.00     0.020 A 
ATOM     62  C   UNL A   1      51.885  25.963  25.624  1.00  0.00     0.054 A 
BRANCH  62  63
ATOM     63  S   UNL A   1      53.493  25.278  25.144  1.00  0.00     0.124 S 
ATOM     64  O   UNL A   1      54.408  26.037  25.991  1.00  0.00    -0.237 OA
ATOM     65  O   UNL A   1      53.353  23.864  25.480  1.00  0.00    -0.237 OA
ATOM     66  O   UNL A   1      53.579  25.567  23.715  1.00  0.00    -0.744 OA
ENDBRANCH  62  63
ENDBRANCH  36  57
ENDBRANCH  10  11
ENDBRANCH   3   5
ENDBRANCH   2   3
ENDBRANCH   1   2
BRANCH   1  67
ATOM     67  C   UNL A   1      34.782  31.893  28.005  1.00  0.00     0.275 C 
BRANCH  67  68
ATOM     68  O   UNL A   1      33.833  30.893  27.605  1.00  0.00    -0.458 OA
BRANCH  68  69
ATOM     69  C   UNL A   1      34.368  29.679  27.300  1.00  0.00     0.338 C 
ATOM     70  O   UNL A   1      35.345  29.170  27.824  1.00  0.00    -0.246 OA
BRANCH  69  71
ATOM     71  C   UNL A   1      33.518  28.977  26.311  1.00  0.00     0.060 A 
ATOM     72  C   UNL A   1      33.489  29.457  24.997  1.00  0.00     0.017 A 
ATOM     73  C   UNL A   1      32.731  27.878  26.655  1.00  0.00     0.017 A 
ATOM     74  C   UNL A   1      32.703  28.821  24.026  1.00  0.00     0.018 A 
ATOM     75  C   UNL A   1      31.945  27.248  25.676  1.00  0.00     0.018 A 
ATOM     76  C   UNL A   1      31.947  27.688  24.344  1.00  0.00     0.039 A 
BRANCH  76  77
ATOM     77  S   UNL A   1      30.747  26.965  23.204  1.00  0.00     0.056 S 
ATOM     78  O   UNL A   1      30.147  25.823  23.975  1.00  0.00    -0.254 OA
BRANCH  77  79
ATOM     79  C   UNL A   1      29.416  28.185  22.975  1.00  0.00     0.089 C 
ATOM     80  C   UNL A   1      28.046  27.752  23.467  1.00  0.00     0.046 C 
ATOM     81  C   UNL A   1      29.739  29.596  23.461  1.00  0.00     0.053 C 
ATOM     82  C   UNL A   1      27.008  28.759  23.001  1.00  0.00     0.162 C 
ATOM     83  C   UNL A   1      28.619  30.578  23.041  1.00  0.00     0.069 C 
ATOM     84  O   UNL A   1      27.335  30.070  23.448  1.00  0.00    -0.375 OA
ATOM     85  C   UNL A   1      28.768  31.958  23.730  1.00  0.00     0.035 C 
ATOM     86  C   UNL A   1      28.636  30.907  21.531  1.00  0.00     0.035 C 
ATOM     87  C   UNL A   1      28.790  33.006  22.620  1.00  0.00     0.003 C 
ATOM     88  C   UNL A   1      28.111  32.333  21.445  1.00  0.00     0.003 C 
ENDBRANCH  77  79
ENDBRANCH  76  77
ENDBRANCH  69  71
ENDBRANCH  68  69
ENDBRANCH  67  68
ENDBRANCH   1  67
TORSDOF 16
ENDMDL
MODEL 3
REMARK VINA RESULT:     -11.5      3.854      5.657
REMARK SMILES O=C(OCCOC(=O)c1ccc([S@@](=O)[C@H]2CCOC3(CCCC3)C2)cc1)c1ccc(-c2c3nc(c(-c4ccc(S(=O)(=O)[O-])cc4)c4ccc([nH]4)c(-c4ccc(S(=O)(=O)[O-])cc4)c4nc(c(-c5ccc(S(=O)(=O)[O-])cc5)c5ccc2[nH]5)C=C4)C=C3)cc1
REMARK SMILES IDX 4 1 3 2 2 3 1 4 27 5 28 6 86 7 29 8 85 9 30 10 31 11 32 12
REMARK SMILES IDX 79 13 33 14 84 15 78 16 80 17 34 18 83 19 77 20 76 21 35 23
REMARK SMILES IDX 65 24 46 25 64 26 47 27 50 28 63 29 81 30 48 31 49 32 62 34
REMARK SMILES IDX 82 35 51 36 36 37 37 38 45 39 38 40 44 41 39 42 40 43 41 44
REMARK SMILES IDX 42 45 43 46 66 47 67 48 75 49 68 50 74 51 69 52 70 53 71 54
REMARK SMILES IDX 72 55 73 56 52 57 53 58 61 59 54 60 60 61 55 62 56 63 57 64
REMARK SMILES IDX 58 65 59 66 5 67 6 68 7 69 8 70 9 71 10 72 26 73 11 74 25 75
REMARK SMILES IDX 12 76 13 77 14 78 15 79 16 80 24 81 17 82 19 83 18 84 20 85
REMARK SMILES IDX 23 86 21 87 22 88
REMARK H PARENT 80 22 50 33
REMARK Flexibility Score: inf
ROOT
ATOM      1  C   UNL A   1      37.664  21.261  24.897  1.00  0.00     0.275 C 
ENDROOT
BRANCH   1   2
ATOM      2  O   UNL A   1      38.057  22.408  25.669  1.00  0.00    -0.458 OA
BRANCH   2   3
ATOM      3  C   UNL A   1      39.265  22.748  26.175  1.00  0.00     0.338 C 
ATOM      4  O   UNL A   1      40.138  21.882  26.246  1.00  0.00    -0.246 OA
BRANCH   3   5
ATOM      5  C   UNL A   1      39.572  24.087  26.770  1.00  0.00     0.060 A 
ATOM      6  C   UNL A   1      40.298  25.114  26.162  1.00  0.00     0.016 A 
ATOM      7  C   UNL A   1      39.101  24.304  28.077  1.00  0.00     0.016 A 
ATOM      8  C   UNL A   1      40.488  26.344  26.800  1.00  0.00     0.010 A 
ATOM      9  C   UNL A   1      39.297  25.527  28.725  1.00  0.00     0.010 A 
ATOM     10  C   UNL A   1      39.995  26.558  28.087  1.00  0.00    -0.014 A 
BRANCH  10  11
ATOM     11  C   UNL A   1      40.376  27.789  28.813  1.00  0.00     0.031 A 
ATOM     12  C   UNL A   1      41.746  27.859  29.414  1.00  0.00     0.074 A 
ATOM     13  C   UNL A   1      39.548  28.849  28.876  1.00  0.00     0.049 A 
ATOM     14  N   UNL A   1      42.339  28.872  29.988  1.00  0.00    -0.248 NA
ATOM     15  C   UNL A   1      42.568  26.641  29.330  1.00  0.00     0.031 C 
ATOM     16  C   UNL A   1      38.239  28.930  28.235  1.00  0.00     0.029 A 
ATOM     17  N   UNL A   1      39.681  30.062  29.501  1.00  0.00    -0.354 N 
ATOM     18  C   UNL A   1      43.615  28.424  30.298  1.00  0.00     0.074 A 
ATOM     19  C   UNL A   1      43.690  27.033  29.911  1.00  0.00     0.031 C 
ATOM     20  C   UNL A   1      37.661  30.104  28.542  1.00  0.00     0.029 A 
ATOM     21  C   UNL A   1      38.578  30.875  29.373  1.00  0.00     0.049 A 
ATOM     22  H   UNL A   1      40.491  30.327  29.995  1.00  0.00     0.167 HD
ATOM     23  C   UNL A   1      44.646  29.118  30.831  1.00  0.00     0.031 A 
ATOM     24  C   UNL A   1      38.344  32.113  29.849  1.00  0.00     0.031 A 
ATOM     25  C   UNL A   1      44.546  30.484  31.261  1.00  0.00     0.049 A 
ATOM     26  C   UNL A   1      39.461  32.825  30.562  1.00  0.00     0.074 A 
ATOM     27  C   UNL A   1      45.516  31.284  31.833  1.00  0.00     0.029 A 
ATOM     28  N   UNL A   1      43.387  31.246  31.184  1.00  0.00    -0.354 N 
ATOM     29  N   UNL A   1      40.679  32.400  30.804  1.00  0.00    -0.248 NA
ATOM     30  C   UNL A   1      39.190  34.192  31.025  1.00  0.00     0.031 C 
ATOM     31  C   UNL A   1      44.929  32.514  32.152  1.00  0.00     0.029 A 
ATOM     32  C   UNL A   1      43.608  32.499  31.725  1.00  0.00     0.049 A 
ATOM     33  H   UNL A   1      42.534  30.940  30.800  1.00  0.00     0.167 HD
ATOM     34  C   UNL A   1      41.340  33.469  31.397  1.00  0.00     0.074 A 
ATOM     35  C   UNL A   1      40.380  34.553  31.488  1.00  0.00     0.031 C 
ATOM     36  C   UNL A   1      42.631  33.556  31.805  1.00  0.00     0.031 A 
BRANCH  23  37
ATOM     37  C   UNL A   1      45.940  28.372  31.002  1.00  0.00    -0.014 A 
ATOM     38  C   UNL A   1      46.223  27.677  32.194  1.00  0.00     0.010 A 
ATOM     39  C   UNL A   1      46.912  28.422  29.988  1.00  0.00     0.010 A 
ATOM     40  C   UNL A   1      47.480  27.102  32.394  1.00  0.00     0.020 A 
ATOM     41  C   UNL A   1      48.162  27.825  30.175  1.00  0.00     0.020 A 
ATOM     42  C   UNL A   1      48.446  27.193  31.389  1.00  0.00     0.054 A 
BRANCH  42  43
ATOM     43  S   UNL A   1      50.086  26.477  31.689  1.00  0.00     0.124 S 
ATOM     44  O   UNL A   1      50.570  26.258  30.328  1.00  0.00    -0.237 OA
ATOM     45  O   UNL A   1      50.766  27.533  32.434  1.00  0.00    -0.237 OA
ATOM     46  O   UNL A   1      49.799  25.265  32.453  1.00  0.00    -0.744 OA
ENDBRANCH  42  43
ENDBRANCH  23  37
BRANCH  24  47
ATOM     47  C   UNL A   1      37.027  32.769  29.617  1.00  0.00    -0.014 A 
ATOM     48  C   UNL A   1      36.112  32.944  30.670  1.00  0.00     0.010 A 
ATOM     49  C   UNL A   1      36.690  33.245  28.336  1.00  0.00     0.010 A 
ATOM     50  C   UNL A   1      34.881  33.568  30.444  1.00  0.00     0.020 A 
ATOM     51  C   UNL A   1      35.468  33.888  28.110  1.00  0.00     0.020 A 
ATOM     52  C   UNL A   1      34.568  34.040  29.167  1.00  0.00     0.054 A 
BRANCH  52  53
ATOM     53  S   UNL A   1      32.987  34.898  28.914  1.00  0.00     0.124 S 
ATOM     54  O   UNL A   1      32.418  34.889  30.258  1.00  0.00    -0.237 OA
ATOM     55  O   UNL A   1      33.417  36.202  28.416  1.00  0.00    -0.237 OA
ATOM     56  O   UNL A   1      32.298  34.061  27.935  1.00  0.00    -0.744 OA
ENDBRANCH  52  53
ENDBRANCH  24  47
BRANCH  36  57
ATOM     57  C   UNL A   1      43.090  34.879  32.349  1.00  0.00    -0.014 A 
ATOM     58  C   UNL A   1      43.722  35.828  31.529  1.00  0.00     0.010 A 
ATOM     59  C   UNL A   1      42.822  35.198  33.694  1.00  0.00     0.010 A 
ATOM     60  C   UNL A   1      44.107  37.065  32.053  1.00  0.00     0.020 A 
ATOM     61  C   UNL A   1      43.179  36.443  34.212  1.00  0.00     0.020 A 
ATOM     62  C   UNL A   1      43.833  37.364  33.391  1.00  0.00     0.054 A 
BRANCH  62  63
ATOM     63  S   UNL A   1      44.293  38.995  34.034  1.00  0.00     0.124 S 
ATOM     64  O   UNL A   1      43.079  39.768  33.792  1.00  0.00    -0.237 OA
ATOM     65  O   UNL A   1      44.591  38.715  35.436  1.00  0.00    -0.237 OA
ATOM     66  O   UNL A   1      45.447  39.374  33.222  1.00  0.00    -0.744 OA
ENDBRANCH  62  63
ENDBRANCH  36  57
ENDBRANCH  10  11
ENDBRANCH   3   5
ENDBRANCH   2   3
ENDBRANCH   1   2
BRANCH   1  67
ATOM     67  C   UNL A   1      36.257  20.734  25.190  1.00  0.00     0.275 C 
BRANCH  67  68
ATOM     68  O   UNL A   1      35.210  21.502  24.575  1.00  0.00    -0.458 OA
BRANCH  68  69
ATOM     69  C   UNL A   1      33.962  20.975  24.695  1.00  0.00     0.338 C 
ATOM     70  O   UNL A   1      33.683  19.788  24.757  1.00  0.00    -0.246 OA
BRANCH  69  71
ATOM     71  C   UNL A   1      32.963  22.054  24.872  1.00  0.00     0.060 A 
ATOM     72  C   UNL A   1      32.179  22.424  23.774  1.00  0.00     0.017 A 
ATOM     73  C   UNL A   1      32.802  22.727  26.084  1.00  0.00     0.017 A 
ATOM     74  C   UNL A   1      31.218  23.437  23.896  1.00  0.00     0.018 A 
ATOM     75  C   UNL A   1      31.838  23.742  26.196  1.00  0.00     0.018 A 
ATOM     76  C   UNL A   1      31.011  24.086  25.117  1.00  0.00     0.039 A 
BRANCH  76  77
ATOM     77  S   UNL A   1      29.955  25.543  25.280  1.00  0.00     0.056 S 
ATOM     78  O   UNL A   1      29.528  25.529  26.721  1.00  0.00    -0.254 OA
BRANCH  77  79
ATOM     79  C   UNL A   1      31.017  27.005  25.074  1.00  0.00     0.089 C 
ATOM     80  C   UNL A   1      30.585  27.974  23.986  1.00  0.00     0.046 C 
ATOM     81  C   UNL A   1      31.344  27.757  26.362  1.00  0.00     0.053 C 
ATOM     82  C   UNL A   1      31.679  29.006  23.774  1.00  0.00     0.162 C 
ATOM     83  C   UNL A   1      32.400  28.856  26.091  1.00  0.00     0.069 C 
ATOM     84  O   UNL A   1      31.982  29.684  24.989  1.00  0.00    -0.375 OA
ATOM     85  C   UNL A   1      32.570  29.811  27.299  1.00  0.00     0.035 C 
ATOM     86  C   UNL A   1      33.818  28.288  25.857  1.00  0.00     0.035 C 
ATOM     87  C   UNL A   1      34.054  29.811  27.657  1.00  0.00     0.003 C 
ATOM     88  C   UNL A   1      34.753  29.365  26.389  1.00  0.00     0.003 C 
ENDBRANCH  77  79
ENDBRANCH  76  77
ENDBRANCH  69  71
ENDBRANCH  68  69
ENDBRANCH  67  68
ENDBRANCH   1  67
TORSDOF 16
ENDMDL
