MODEL 1
REMARK VINA RESULT:     -11.6      0.000      0.000
REMARK SMILES O=C(OCCOC(=O)c1ccc(-c2ccn(C(F)F)c(=O)c2)cc1O)c1ccc(-c2c3nc(c(-c4ccc(S(=O)(=O)[O-])cc4)c4ccc([nH]4)c(-c4ccc(S(=O)(=O)[O-])cc4)c4nc(c(-c5ccc(S(=O)(=O)[O-])cc5)c5ccc2[nH]5)C=C4)C=C3)cc1
REMARK SMILES IDX 4 1 3 2 2 3 1 4 26 5 27 6 85 7 28 8 84 9 29 10 30 11 31 12
REMARK SMILES IDX 78 13 32 14 83 15 77 16 79 17 33 18 82 19 76 20 75 21 34 23
REMARK SMILES IDX 64 24 45 25 63 26 46 27 49 28 62 29 80 30 47 31 48 32 61 34
REMARK SMILES IDX 81 35 50 36 35 37 36 38 44 39 37 40 43 41 38 42 39 43 40 44
REMARK SMILES IDX 41 45 42 46 65 47 66 48 74 49 67 50 73 51 68 52 69 53 70 54
REMARK SMILES IDX 71 55 72 56 51 57 52 58 60 59 53 60 59 61 54 62 55 63 56 64
REMARK SMILES IDX 57 65 58 66 5 67 6 68 7 69 8 70 9 71 10 72 24 73 11 74 23 75
REMARK SMILES IDX 12 76 25 77 13 79 14 80 22 81 15 82 20 83 16 84 21 85 17 86
REMARK SMILES IDX 18 87 19 88
REMARK H PARENT 79 22 49 33 25 78
REMARK Flexibility Score: inf
ROOT
ATOM      1  C   UNL A   1      32.417  30.257  26.286  1.00  0.00     0.275 C 
ENDROOT
BRANCH   1   2
ATOM      2  O   UNL A   1      33.650  29.899  26.929  1.00  0.00    -0.458 OA
BRANCH   2   3
ATOM      3  C   UNL A   1      34.394  30.618  27.804  1.00  0.00     0.338 C 
ATOM      4  O   UNL A   1      34.033  31.756  28.097  1.00  0.00    -0.246 OA
BRANCH   3   5
ATOM      5  C   UNL A   1      35.734  30.159  28.279  1.00  0.00     0.060 A 
ATOM      6  C   UNL A   1      36.761  30.192  27.326  1.00  0.00     0.016 A 
ATOM      7  C   UNL A   1      36.055  29.726  29.568  1.00  0.00     0.016 A 
ATOM      8  C   UNL A   1      38.027  29.687  27.624  1.00  0.00     0.010 A 
ATOM      9  C   UNL A   1      37.326  29.215  29.867  1.00  0.00     0.010 A 
ATOM     10  C   UNL A   1      38.320  29.161  28.890  1.00  0.00    -0.014 A 
BRANCH  10  11
ATOM     11  C   UNL A   1      39.709  28.772  29.235  1.00  0.00     0.031 A 
ATOM     12  C   UNL A   1      40.673  29.688  29.933  1.00  0.00     0.074 A 
ATOM     13  C   UNL A   1      40.106  27.540  28.873  1.00  0.00     0.049 A 
ATOM     14  N   UNL A   1      41.790  29.383  30.545  1.00  0.00    -0.248 NA
ATOM     15  C   UNL A   1      40.349  31.117  29.980  1.00  0.00     0.031 C 
ATOM     16  C   UNL A   1      39.275  26.576  28.148  1.00  0.00     0.029 A 
ATOM     17  N   UNL A   1      41.297  26.892  29.052  1.00  0.00    -0.354 N 
ATOM     18  C   UNL A   1      42.236  30.557  31.140  1.00  0.00     0.074 A 
ATOM     19  C   UNL A   1      41.307  31.597  30.766  1.00  0.00     0.031 C 
ATOM     20  C   UNL A   1      39.976  25.453  27.959  1.00  0.00     0.029 A 
ATOM     21  C   UNL A   1      41.318  25.635  28.503  1.00  0.00     0.049 A 
ATOM     22  H   UNL A   1      42.064  27.288  29.526  1.00  0.00     0.167 HD
ATOM     23  C   UNL A   1      43.327  30.742  31.920  1.00  0.00     0.031 A 
ATOM     24  C   UNL A   1      42.308  24.727  28.426  1.00  0.00     0.031 A 
ATOM     25  C   UNL A   1      44.364  29.752  32.068  1.00  0.00     0.049 A 
ATOM     26  C   UNL A   1      43.612  25.033  29.095  1.00  0.00     0.074 A 
ATOM     27  C   UNL A   1      45.547  29.847  32.780  1.00  0.00     0.029 A 
ATOM     28  N   UNL A   1      44.392  28.532  31.405  1.00  0.00    -0.354 N 
ATOM     29  N   UNL A   1      43.933  26.083  29.814  1.00  0.00    -0.248 NA
ATOM     30  C   UNL A   1      44.683  24.043  28.951  1.00  0.00     0.031 C 
ATOM     31  C   UNL A   1      46.345  28.752  32.432  1.00  0.00     0.029 A 
ATOM     32  C   UNL A   1      45.619  27.920  31.591  1.00  0.00     0.049 A 
ATOM     33  H   UNL A   1      43.647  28.157  30.882  1.00  0.00     0.167 HD
ATOM     34  C   UNL A   1      45.243  25.875  30.224  1.00  0.00     0.074 A 
ATOM     35  C   UNL A   1      45.651  24.597  29.673  1.00  0.00     0.031 C 
ATOM     36  C   UNL A   1      46.029  26.672  30.990  1.00  0.00     0.031 A 
BRANCH  23  37
ATOM     37  C   UNL A   1      43.497  32.063  32.629  1.00  0.00    -0.014 A 
ATOM     38  C   UNL A   1      42.890  32.290  33.878  1.00  0.00     0.010 A 
ATOM     39  C   UNL A   1      44.151  33.133  31.989  1.00  0.00     0.010 A 
ATOM     40  C   UNL A   1      42.904  33.563  34.459  1.00  0.00     0.020 A 
ATOM     41  C   UNL A   1      44.181  34.406  32.573  1.00  0.00     0.020 A 
ATOM     42  C   UNL A   1      43.541  34.616  33.797  1.00  0.00     0.054 A 
BRANCH  42  43
ATOM     43  S   UNL A   1      43.513  36.268  34.553  1.00  0.00     0.124 S 
ATOM     44  O   UNL A   1      43.948  37.121  33.452  1.00  0.00    -0.237 OA
ATOM     45  O   UNL A   1      42.114  36.410  34.949  1.00  0.00    -0.237 OA
ATOM     46  O   UNL A   1      44.457  36.154  35.663  1.00  0.00    -0.744 OA
ENDBRANCH  42  43
ENDBRANCH  23  37
BRANCH  24  47
ATOM     47  C   UNL A   1      42.032  23.465  27.690  1.00  0.00    -0.014 A 
ATOM     48  C   UNL A   1      41.439  22.380  28.368  1.00  0.00     0.010 A 
ATOM     49  C   UNL A   1      42.555  23.266  26.404  1.00  0.00     0.010 A 
ATOM     50  C   UNL A   1      41.468  21.098  27.816  1.00  0.00     0.020 A 
ATOM     51  C   UNL A   1      42.555  21.988  25.833  1.00  0.00     0.020 A 
ATOM     52  C   UNL A   1      42.052  20.906  26.563  1.00  0.00     0.054 A 
BRANCH  52  53
ATOM     53  S   UNL A   1      42.204  19.214  25.929  1.00  0.00     0.124 S 
ATOM     54  O   UNL A   1      42.802  18.520  27.068  1.00  0.00    -0.237 OA
ATOM     55  O   UNL A   1      40.820  18.857  25.634  1.00  0.00    -0.237 OA
ATOM     56  O   UNL A   1      43.070  19.360  24.761  1.00  0.00    -0.744 OA
ENDBRANCH  52  53
ENDBRANCH  24  47
BRANCH  36  57
ATOM     57  C   UNL A   1      47.446  26.229  31.236  1.00  0.00    -0.014 A 
ATOM     58  C   UNL A   1      47.782  25.591  32.444  1.00  0.00     0.010 A 
ATOM     59  C   UNL A   1      48.468  26.569  30.331  1.00  0.00     0.010 A 
ATOM     60  C   UNL A   1      49.118  25.346  32.768  1.00  0.00     0.020 A 
ATOM     61  C   UNL A   1      49.803  26.294  30.637  1.00  0.00     0.020 A 
ATOM     62  C   UNL A   1      50.122  25.714  31.867  1.00  0.00     0.054 A 
BRANCH  62  63
ATOM     63  S   UNL A   1      51.852  25.437  32.328  1.00  0.00     0.124 S 
ATOM     64  O   UNL A   1      51.913  26.032  33.660  1.00  0.00    -0.237 OA
ATOM     65  O   UNL A   1      51.969  23.981  32.283  1.00  0.00    -0.237 OA
ATOM     66  O   UNL A   1      52.601  26.146  31.293  1.00  0.00    -0.744 OA
ENDBRANCH  62  63
ENDBRANCH  36  57
ENDBRANCH  10  11
ENDBRANCH   3   5
ENDBRANCH   2   3
ENDBRANCH   1   2
BRANCH   1  67
ATOM     67  C   UNL A   1      31.720  29.117  25.537  1.00  0.00     0.275 C 
BRANCH  67  68
ATOM     68  O   UNL A   1      32.365  27.837  25.650  1.00  0.00    -0.458 OA
BRANCH  68  69
ATOM     69  C   UNL A   1      31.747  26.936  26.466  1.00  0.00     0.342 C 
ATOM     70  O   UNL A   1      30.959  27.194  27.361  1.00  0.00    -0.246 OA
BRANCH  69  71
ATOM     71  C   UNL A   1      32.104  25.562  26.044  1.00  0.00     0.101 A 
ATOM     72  C   UNL A   1      33.427  25.313  25.651  1.00  0.00     0.020 A 
ATOM     73  C   UNL A   1      31.192  24.507  26.060  1.00  0.00     0.130 A 
ATOM     74  C   UNL A   1      33.856  24.001  25.387  1.00  0.00     0.010 A 
ATOM     75  C   UNL A   1      31.608  23.215  25.734  1.00  0.00     0.055 A 
ATOM     76  C   UNL A   1      32.954  22.932  25.458  1.00  0.00    -0.014 A 
BRANCH  73  77
ATOM     77  O   UNL A   1      29.878  24.649  26.413  1.00  0.00    -0.507 OA
ATOM     78  H   UNL A   1      29.640  24.721  27.316  1.00  0.00     0.293 HD
ENDBRANCH  73  77
BRANCH  76  79
ATOM     79  C   UNL A   1      33.368  21.514  25.311  1.00  0.00    -0.011 A 
ATOM     80  C   UNL A   1      34.754  21.125  25.118  1.00  0.00     0.027 A 
ATOM     81  C   UNL A   1      32.428  20.554  25.243  1.00  0.00     0.080 A 
ATOM     82  C   UNL A   1      35.079  19.862  24.814  1.00  0.00     0.095 A 
ATOM     83  C   UNL A   1      32.778  19.129  24.970  1.00  0.00     0.255 A 
ATOM     84  N   UNL A   1      34.114  18.879  24.717  1.00  0.00    -0.258 N 
ATOM     85  O   UNL A   1      31.882  18.292  25.004  1.00  0.00    -0.269 OA
BRANCH  84  86
ATOM     86  C   UNL A   1      34.476  17.525  24.379  1.00  0.00     0.451 C 
ATOM     87  F   UNL A   1      34.450  17.347  23.033  1.00  0.00    -0.185 F 
ATOM     88  F   UNL A   1      35.718  17.213  24.816  1.00  0.00    -0.185 F 
ENDBRANCH  84  86
ENDBRANCH  76  79
ENDBRANCH  69  71
ENDBRANCH  68  69
ENDBRANCH  67  68
ENDBRANCH   1  67
TORSDOF 17
ENDMDL
MODEL 2
REMARK VINA RESULT:     -11.4      4.239      6.437
REMARK SMILES O=C(OCCOC(=O)c1ccc(-c2ccn(C(F)F)c(=O)c2)cc1O)c1ccc(-c2c3nc(c(-c4ccc(S(=O)(=O)[O-])cc4)c4ccc([nH]4)c(-c4ccc(S(=O)(=O)[O-])cc4)c4nc(c(-c5ccc(S(=O)(=O)[O-])cc5)c5ccc2[nH]5)C=C4)C=C3)cc1
REMARK SMILES IDX 4 1 3 2 2 3 1 4 26 5 27 6 85 7 28 8 84 9 29 10 30 11 31 12
REMARK SMILES IDX 78 13 32 14 83 15 77 16 79 17 33 18 82 19 76 20 75 21 34 23
REMARK SMILES IDX 64 24 45 25 63 26 46 27 49 28 62 29 80 30 47 31 48 32 61 34
REMARK SMILES IDX 81 35 50 36 35 37 36 38 44 39 37 40 43 41 38 42 39 43 40 44
REMARK SMILES IDX 41 45 42 46 65 47 66 48 74 49 67 50 73 51 68 52 69 53 70 54
REMARK SMILES IDX 71 55 72 56 51 57 52 58 60 59 53 60 59 61 54 62 55 63 56 64
REMARK SMILES IDX 57 65 58 66 5 67 6 68 7 69 8 70 9 71 10 72 24 73 11 74 23 75
REMARK SMILES IDX 12 76 25 77 13 79 14 80 22 81 15 82 20 83 16 84 21 85 17 86
REMARK SMILES IDX 18 87 19 88
REMARK H PARENT 79 22 49 33 25 78
REMARK Flexibility Score: inf
ROOT
ATOM      1  C   UNL A   1      32.443  31.992  27.329  1.00  0.00     0.275 C 
ENDROOT
BRANCH   1   2
ATOM      2  O   UNL A   1      33.755  31.511  27.655  1.00  0.00    -0.458 OA
BRANCH   2   3
ATOM      3  C   UNL A   1      34.253  30.256  27.548  1.00  0.00     0.338 C 
ATOM      4  O   UNL A   1      33.480  29.326  27.324  1.00  0.00    -0.246 OA
BRANCH   3   5
ATOM      5  C   UNL A   1      35.672  29.927  27.878  1.00  0.00     0.060 A 
ATOM      6  C   UNL A   1      35.892  29.387  29.152  1.00  0.00     0.016 A 
ATOM      7  C   UNL A   1      36.779  30.090  27.040  1.00  0.00     0.016 A 
ATOM      8  C   UNL A   1      37.187  29.143  29.610  1.00  0.00     0.010 A 
ATOM      9  C   UNL A   1      38.081  29.847  27.502  1.00  0.00     0.010 A 
ATOM     10  C   UNL A   1      38.303  29.399  28.803  1.00  0.00    -0.014 A 
BRANCH  10  11
ATOM     11  C   UNL A   1      39.657  28.990  29.248  1.00  0.00     0.031 A 
ATOM     12  C   UNL A   1      40.573  29.883  30.035  1.00  0.00     0.074 A 
ATOM     13  C   UNL A   1      40.071  27.760  28.895  1.00  0.00     0.049 A 
ATOM     14  N   UNL A   1      41.636  29.555  30.726  1.00  0.00    -0.248 NA
ATOM     15  C   UNL A   1      40.258  31.314  30.083  1.00  0.00     0.031 C 
ATOM     16  C   UNL A   1      39.290  26.818  28.090  1.00  0.00     0.029 A 
ATOM     17  N   UNL A   1      41.239  27.097  29.153  1.00  0.00    -0.354 N 
ATOM     18  C   UNL A   1      42.045  30.715  31.376  1.00  0.00     0.074 A 
ATOM     19  C   UNL A   1      41.156  31.770  30.951  1.00  0.00     0.031 C 
ATOM     20  C   UNL A   1      39.994  25.692  27.934  1.00  0.00     0.029 A 
ATOM     21  C   UNL A   1      41.291  25.850  28.584  1.00  0.00     0.049 A 
ATOM     22  H   UNL A   1      41.970  27.477  29.693  1.00  0.00     0.167 HD
ATOM     23  C   UNL A   1      43.073  30.874  32.242  1.00  0.00     0.031 A 
ATOM     24  C   UNL A   1      42.276  24.934  28.567  1.00  0.00     0.031 A 
ATOM     25  C   UNL A   1      44.087  29.871  32.451  1.00  0.00     0.049 A 
ATOM     26  C   UNL A   1      43.526  25.214  29.341  1.00  0.00     0.074 A 
ATOM     27  C   UNL A   1      45.212  29.940  33.254  1.00  0.00     0.029 A 
ATOM     28  N   UNL A   1      44.155  28.662  31.770  1.00  0.00    -0.354 N 
ATOM     29  N   UNL A   1      43.800  26.247  30.102  1.00  0.00    -0.248 NA
ATOM     30  C   UNL A   1      44.596  24.216  29.261  1.00  0.00     0.031 C 
ATOM     31  C   UNL A   1      46.025  28.844  32.949  1.00  0.00     0.029 A 
ATOM     32  C   UNL A   1      45.359  28.035  32.039  1.00  0.00     0.049 A 
ATOM     33  H   UNL A   1      43.450  28.305  31.183  1.00  0.00     0.167 HD
ATOM     34  C   UNL A   1      45.073  26.019  30.608  1.00  0.00     0.074 A 
ATOM     35  C   UNL A   1      45.510  24.746  30.067  1.00  0.00     0.031 C 
ATOM     36  C   UNL A   1      45.804  26.794  31.448  1.00  0.00     0.031 A 
BRANCH  23  37
ATOM     37  C   UNL A   1      43.200  32.180  32.986  1.00  0.00    -0.014 A 
ATOM     38  C   UNL A   1      43.998  33.220  32.478  1.00  0.00     0.010 A 
ATOM     39  C   UNL A   1      42.632  32.325  34.267  1.00  0.00     0.010 A 
ATOM     40  C   UNL A   1      44.253  34.365  33.241  1.00  0.00     0.020 A 
ATOM     41  C   UNL A   1      42.871  33.476  35.029  1.00  0.00     0.020 A 
ATOM     42  C   UNL A   1      43.696  34.481  34.518  1.00  0.00     0.054 A 
BRANCH  42  43
ATOM     43  S   UNL A   1      44.072  35.958  35.506  1.00  0.00     0.124 S 
ATOM     44  O   UNL A   1      45.423  36.291  35.065  1.00  0.00    -0.237 OA
ATOM     45  O   UNL A   1      43.024  36.889  35.093  1.00  0.00    -0.237 OA
ATOM     46  O   UNL A   1      43.965  35.485  36.885  1.00  0.00    -0.744 OA
ENDBRANCH  42  43
ENDBRANCH  23  37
BRANCH  24  47
ATOM     47  C   UNL A   1      42.047  23.687  27.789  1.00  0.00    -0.014 A 
ATOM     48  C   UNL A   1      41.311  22.631  28.366  1.00  0.00     0.010 A 
ATOM     49  C   UNL A   1      42.738  23.465  26.588  1.00  0.00     0.010 A 
ATOM     50  C   UNL A   1      41.356  21.351  27.812  1.00  0.00     0.020 A 
ATOM     51  C   UNL A   1      42.757  22.190  26.011  1.00  0.00     0.020 A 
ATOM     52  C   UNL A   1      42.103  21.133  26.653  1.00  0.00     0.054 A 
BRANCH  52  53
ATOM     53  S   UNL A   1      42.262  19.436  26.033  1.00  0.00     0.124 S 
ATOM     54  O   UNL A   1      43.186  19.611  24.914  1.00  0.00    -0.237 OA
ATOM     55  O   UNL A   1      42.803  18.724  27.187  1.00  0.00    -0.237 OA
ATOM     56  O   UNL A   1      40.895  19.074  25.665  1.00  0.00    -0.744 OA
ENDBRANCH  52  53
ENDBRANCH  24  47
BRANCH  36  57
ATOM     57  C   UNL A   1      47.193  26.331  31.794  1.00  0.00    -0.014 A 
ATOM     58  C   UNL A   1      48.252  26.558  30.896  1.00  0.00     0.010 A 
ATOM     59  C   UNL A   1      47.421  25.552  32.943  1.00  0.00     0.010 A 
ATOM     60  C   UNL A   1      49.500  25.972  31.111  1.00  0.00     0.020 A 
ATOM     61  C   UNL A   1      48.679  24.992  33.179  1.00  0.00     0.020 A 
ATOM     62  C   UNL A   1      49.702  25.180  32.245  1.00  0.00     0.054 A 
BRANCH  62  63
ATOM     63  S   UNL A   1      51.313  24.384  32.479  1.00  0.00     0.124 S 
ATOM     64  O   UNL A   1      52.159  25.126  31.550  1.00  0.00    -0.237 OA
ATOM     65  O   UNL A   1      51.582  24.613  33.897  1.00  0.00    -0.237 OA
ATOM     66  O   UNL A   1      51.062  22.990  32.119  1.00  0.00    -0.744 OA
ENDBRANCH  62  63
ENDBRANCH  36  57
ENDBRANCH  10  11
ENDBRANCH   3   5
ENDBRANCH   2   3
ENDBRANCH   1   2
BRANCH   1  67
ATOM     67  C   UNL A   1      32.257  33.508  27.452  1.00  0.00     0.275 C 
BRANCH  67  68
ATOM     68  O   UNL A   1      33.460  34.242  27.736  1.00  0.00    -0.458 OA
BRANCH  68  69
ATOM     69  C   UNL A   1      33.483  34.896  28.933  1.00  0.00     0.342 C 
ATOM     70  O   UNL A   1      32.747  35.808  29.272  1.00  0.00    -0.246 OA
BRANCH  69  71
ATOM     71  C   UNL A   1      34.491  34.268  29.818  1.00  0.00     0.101 A 
ATOM     72  C   UNL A   1      34.266  34.296  31.202  1.00  0.00     0.020 A 
ATOM     73  C   UNL A   1      35.625  33.622  29.329  1.00  0.00     0.130 A 
ATOM     74  C   UNL A   1      35.109  33.587  32.074  1.00  0.00     0.010 A 
ATOM     75  C   UNL A   1      36.497  32.974  30.206  1.00  0.00     0.055 A 
ATOM     76  C   UNL A   1      36.219  32.890  31.579  1.00  0.00    -0.014 A 
BRANCH  73  77
ATOM     77  O   UNL A   1      35.942  33.553  28.000  1.00  0.00    -0.507 OA
ATOM     78  H   UNL A   1      36.826  33.691  27.721  1.00  0.00     0.293 HD
ENDBRANCH  73  77
BRANCH  76  79
ATOM     79  C   UNL A   1      37.075  32.025  32.428  1.00  0.00    -0.011 A 
ATOM     80  C   UNL A   1      38.225  32.539  33.150  1.00  0.00     0.027 A 
ATOM     81  C   UNL A   1      36.856  30.698  32.451  1.00  0.00     0.080 A 
ATOM     82  C   UNL A   1      39.079  31.710  33.765  1.00  0.00     0.095 A 
ATOM     83  C   UNL A   1      37.761  29.764  33.185  1.00  0.00     0.255 A 
ATOM     84  N   UNL A   1      38.873  30.344  33.768  1.00  0.00    -0.258 N 
ATOM     85  O   UNL A   1      37.457  28.577  33.236  1.00  0.00    -0.269 OA
BRANCH  84  86
ATOM     86  C   UNL A   1      39.805  29.462  34.424  1.00  0.00     0.451 C 
ATOM     87  F   UNL A   1      40.575  28.817  33.510  1.00  0.00    -0.185 F 
ATOM     88  F   UNL A   1      40.628  30.133  35.261  1.00  0.00    -0.185 F 
ENDBRANCH  84  86
ENDBRANCH  76  79
ENDBRANCH  69  71
ENDBRANCH  68  69
ENDBRANCH  67  68
ENDBRANCH   1  67
TORSDOF 17
ENDMDL
MODEL 3
REMARK VINA RESULT:     -11.3      4.292      6.666
REMARK SMILES O=C(OCCOC(=O)c1ccc(-c2ccn(C(F)F)c(=O)c2)cc1O)c1ccc(-c2c3nc(c(-c4ccc(S(=O)(=O)[O-])cc4)c4ccc([nH]4)c(-c4ccc(S(=O)(=O)[O-])cc4)c4nc(c(-c5ccc(S(=O)(=O)[O-])cc5)c5ccc2[nH]5)C=C4)C=C3)cc1
REMARK SMILES IDX 4 1 3 2 2 3 1 4 26 5 27 6 85 7 28 8 84 9 29 10 30 11 31 12
REMARK SMILES IDX 78 13 32 14 83 15 77 16 79 17 33 18 82 19 76 20 75 21 34 23
REMARK SMILES IDX 64 24 45 25 63 26 46 27 49 28 62 29 80 30 47 31 48 32 61 34
REMARK SMILES IDX 81 35 50 36 35 37 36 38 44 39 37 40 43 41 38 42 39 43 40 44
REMARK SMILES IDX 41 45 42 46 65 47 66 48 74 49 67 50 73 51 68 52 69 53 70 54
REMARK SMILES IDX 71 55 72 56 51 57 52 58 60 59 53 60 59 61 54 62 55 63 56 64
REMARK SMILES IDX 57 65 58 66 5 67 6 68 7 69 8 70 9 71 10 72 24 73 11 74 23 75
REMARK SMILES IDX 12 76 25 77 13 79 14 80 22 81 15 82 20 83 16 84 21 85 17 86
REMARK SMILES IDX 18 87 19 88
REMARK H PARENT 79 22 49 33 25 78
REMARK Flexibility Score: inf
ROOT
ATOM      1  C   UNL A   1      34.550  33.239  28.007  1.00  0.00     0.275 C 
ENDROOT
BRANCH   1   2
ATOM      2  O   UNL A   1      33.978  31.925  28.094  1.00  0.00    -0.458 OA
BRANCH   2   3
ATOM      3  C   UNL A   1      34.501  30.740  27.696  1.00  0.00     0.338 C 
ATOM      4  O   UNL A   1      33.796  29.964  27.054  1.00  0.00    -0.246 OA
BRANCH   3   5
ATOM      5  C   UNL A   1      35.833  30.256  28.168  1.00  0.00     0.060 A 
ATOM      6  C   UNL A   1      36.889  30.395  27.257  1.00  0.00     0.016 A 
ATOM      7  C   UNL A   1      36.121  29.702  29.418  1.00  0.00     0.016 A 
ATOM      8  C   UNL A   1      38.153  29.880  27.546  1.00  0.00     0.010 A 
ATOM      9  C   UNL A   1      37.390  29.181  29.708  1.00  0.00     0.010 A 
ATOM     10  C   UNL A   1      38.415  29.237  28.764  1.00  0.00    -0.014 A 
BRANCH  10  11
ATOM     11  C   UNL A   1      39.798  28.834  29.115  1.00  0.00     0.031 A 
ATOM     12  C   UNL A   1      40.775  29.747  29.799  1.00  0.00     0.074 A 
ATOM     13  C   UNL A   1      40.179  27.591  28.770  1.00  0.00     0.049 A 
ATOM     14  N   UNL A   1      41.888  29.436  30.415  1.00  0.00    -0.248 NA
ATOM     15  C   UNL A   1      40.469  31.181  29.825  1.00  0.00     0.031 C 
ATOM     16  C   UNL A   1      39.335  26.629  28.060  1.00  0.00     0.029 A 
ATOM     17  N   UNL A   1      41.361  26.930  28.959  1.00  0.00    -0.354 N 
ATOM     18  C   UNL A   1      42.349  30.613  30.994  1.00  0.00     0.074 A 
ATOM     19  C   UNL A   1      41.434  31.659  30.605  1.00  0.00     0.031 C 
ATOM     20  C   UNL A   1      40.021  25.494  27.886  1.00  0.00     0.029 A 
ATOM     21  C   UNL A   1      41.365  25.665  28.428  1.00  0.00     0.049 A 
ATOM     22  H   UNL A   1      42.133  27.323  29.428  1.00  0.00     0.167 HD
ATOM     23  C   UNL A   1      43.442  30.794  31.772  1.00  0.00     0.031 A 
ATOM     24  C   UNL A   1      42.343  24.744  28.365  1.00  0.00     0.031 A 
ATOM     25  C   UNL A   1      44.466  29.793  31.934  1.00  0.00     0.049 A 
ATOM     26  C   UNL A   1      43.650  25.042  29.030  1.00  0.00     0.074 A 
ATOM     27  C   UNL A   1      45.650  29.882  32.644  1.00  0.00     0.029 A 
ATOM     28  N   UNL A   1      44.477  28.563  31.289  1.00  0.00    -0.354 N 
ATOM     29  N   UNL A   1      43.986  26.097  29.733  1.00  0.00    -0.248 NA
ATOM     30  C   UNL A   1      44.708  24.036  28.899  1.00  0.00     0.031 C 
ATOM     31  C   UNL A   1      46.434  28.772  32.313  1.00  0.00     0.029 A 
ATOM     32  C   UNL A   1      45.696  27.938  31.484  1.00  0.00     0.049 A 
ATOM     33  H   UNL A   1      43.728  28.190  30.771  1.00  0.00     0.167 HD
ATOM     34  C   UNL A   1      45.293  25.878  30.146  1.00  0.00     0.074 A 
ATOM     35  C   UNL A   1      45.684  24.586  29.614  1.00  0.00     0.031 C 
ATOM     36  C   UNL A   1      46.090  26.675  30.901  1.00  0.00     0.031 A 
BRANCH  23  37
ATOM     37  C   UNL A   1      43.630  32.123  32.461  1.00  0.00    -0.014 A 
ATOM     38  C   UNL A   1      43.025  32.376  33.706  1.00  0.00     0.010 A 
ATOM     39  C   UNL A   1      44.299  33.175  31.806  1.00  0.00     0.010 A 
ATOM     40  C   UNL A   1      43.057  33.657  34.269  1.00  0.00     0.020 A 
ATOM     41  C   UNL A   1      44.346  34.455  32.372  1.00  0.00     0.020 A 
ATOM     42  C   UNL A   1      43.708  34.692  33.592  1.00  0.00     0.054 A 
BRANCH  42  43
ATOM     43  S   UNL A   1      43.702  36.355  34.323  1.00  0.00     0.124 S 
ATOM     44  O   UNL A   1      43.736  37.213  33.144  1.00  0.00    -0.237 OA
ATOM     45  O   UNL A   1      42.451  36.363  35.077  1.00  0.00    -0.237 OA
ATOM     46  O   UNL A   1      44.913  36.374  35.143  1.00  0.00    -0.744 OA
ENDBRANCH  42  43
ENDBRANCH  23  37
BRANCH  24  47
ATOM     47  C   UNL A   1      42.050  23.474  27.647  1.00  0.00    -0.014 A 
ATOM     48  C   UNL A   1      41.433  22.411  28.338  1.00  0.00     0.010 A 
ATOM     49  C   UNL A   1      42.579  23.245  26.368  1.00  0.00     0.010 A 
ATOM     50  C   UNL A   1      41.443  21.120  27.806  1.00  0.00     0.020 A 
ATOM     51  C   UNL A   1      42.561  21.959  25.818  1.00  0.00     0.020 A 
ATOM     52  C   UNL A   1      42.033  20.898  26.561  1.00  0.00     0.054 A 
BRANCH  52  53
ATOM     53  S   UNL A   1      42.160  19.193  25.956  1.00  0.00     0.124 S 
ATOM     54  O   UNL A   1      42.710  18.502  27.120  1.00  0.00    -0.237 OA
ATOM     55  O   UNL A   1      40.775  18.866  25.629  1.00  0.00    -0.237 OA
ATOM     56  O   UNL A   1      43.059  19.301  24.810  1.00  0.00    -0.744 OA
ENDBRANCH  52  53
ENDBRANCH  24  47
BRANCH  36  57
ATOM     57  C   UNL A   1      47.501  26.217  31.153  1.00  0.00    -0.014 A 
ATOM     58  C   UNL A   1      47.835  25.622  32.384  1.00  0.00     0.010 A 
ATOM     59  C   UNL A   1      48.521  26.501  30.227  1.00  0.00     0.010 A 
ATOM     60  C   UNL A   1      49.169  25.366  32.707  1.00  0.00     0.020 A 
ATOM     61  C   UNL A   1      49.853  26.215  30.534  1.00  0.00     0.020 A 
ATOM     62  C   UNL A   1      50.172  25.679  31.784  1.00  0.00     0.054 A 
BRANCH  62  63
ATOM     63  S   UNL A   1      51.901  25.390  32.243  1.00  0.00     0.124 S 
ATOM     64  O   UNL A   1      51.970  23.933  32.274  1.00  0.00    -0.237 OA
ATOM     65  O   UNL A   1      52.634  26.032  31.153  1.00  0.00    -0.237 OA
ATOM     66  O   UNL A   1      52.027  26.051  33.540  1.00  0.00    -0.744 OA
ENDBRANCH  62  63
ENDBRANCH  36  57
ENDBRANCH  10  11
ENDBRANCH   3   5
ENDBRANCH   2   3
ENDBRANCH   1   2
BRANCH   1  67
ATOM     67  C   UNL A   1      34.722  33.963  29.346  1.00  0.00     0.275 C 
BRANCH  67  68
ATOM     68  O   UNL A   1      35.726  33.405  30.210  1.00  0.00    -0.458 OA
BRANCH  68  69
ATOM     69  C   UNL A   1      35.274  32.918  31.401  1.00  0.00     0.342 C 
ATOM     70  O   UNL A   1      34.125  32.962  31.810  1.00  0.00    -0.246 OA
BRANCH  69  71
ATOM     71  C   UNL A   1      36.380  32.231  32.105  1.00  0.00     0.101 A 
ATOM     72  C   UNL A   1      36.165  30.922  32.559  1.00  0.00     0.020 A 
ATOM     73  C   UNL A   1      37.631  32.817  32.297  1.00  0.00     0.130 A 
ATOM     74  C   UNL A   1      37.225  30.172  33.097  1.00  0.00     0.010 A 
ATOM     75  C   UNL A   1      38.663  32.090  32.892  1.00  0.00     0.055 A 
ATOM     76  C   UNL A   1      38.497  30.741  33.239  1.00  0.00    -0.014 A 
BRANCH  73  77
ATOM     77  O   UNL A   1      37.937  34.092  31.905  1.00  0.00    -0.507 OA
ATOM     78  H   UNL A   1      38.566  34.592  32.386  1.00  0.00     0.293 HD
ENDBRANCH  73  77
BRANCH  76  79
ATOM     79  C   UNL A   1      39.683  29.968  33.684  1.00  0.00    -0.011 A 
ATOM     80  C   UNL A   1      40.062  28.706  33.073  1.00  0.00     0.027 A 
ATOM     81  C   UNL A   1      40.377  30.382  34.759  1.00  0.00     0.080 A 
ATOM     82  C   UNL A   1      41.027  27.946  33.606  1.00  0.00     0.095 A 
ATOM     83  C   UNL A   1      41.499  29.579  35.328  1.00  0.00     0.255 A 
ATOM     84  N   UNL A   1      41.724  28.355  34.726  1.00  0.00    -0.258 N 
ATOM     85  O   UNL A   1      42.144  30.054  36.257  1.00  0.00    -0.269 OA
BRANCH  84  86
ATOM     86  C   UNL A   1      42.754  27.522  35.296  1.00  0.00     0.451 C 
ATOM     87  F   UNL A   1      42.483  26.210  35.074  1.00  0.00    -0.185 F 
ATOM     88  F   UNL A   1      43.969  27.792  34.765  1.00  0.00    -0.185 F 
ENDBRANCH  84  86
ENDBRANCH  76  79
ENDBRANCH  69  71
ENDBRANCH  68  69
ENDBRANCH  67  68
ENDBRANCH   1  67
TORSDOF 17
ENDMDL
