MODEL 1
REMARK VINA RESULT:      -9.5      0.000      0.000
REMARK SMILES [NH3+][C@H](CSCc1ccco1)C(=O)OCCOC(=O)c1ccc(-c2c3nc(c(-c4ccc(S(=O)(=O)[O-])cc4)c4ccc([nH]4)c(-c4ccc(S(=O)(=O)[O-])cc4)c4nc(c(-c5ccc(S(=O)(=O)[O-])cc5)c5ccc2[nH]5)C=C4)C=C3)cc1
REMARK SMILES IDX 14 1 13 2 11 3 12 4 2 5 1 6 3 10 4 11 5 12 6 13 7 14 10 15
REMARK SMILES IDX 8 16 9 17 15 18 16 19 17 20 18 21 19 22 20 23 78 24 21 25
REMARK SMILES IDX 77 26 22 27 23 28 24 29 71 30 25 31 76 32 70 33 72 34 26 35
REMARK SMILES IDX 75 36 69 37 68 38 27 40 57 41 38 42 56 43 39 44 42 45 55 46
REMARK SMILES IDX 73 47 40 48 41 49 54 51 74 52 43 53 28 54 29 55 37 56 30 57
REMARK SMILES IDX 36 58 31 59 32 60 33 61 34 62 35 63 58 64 59 65 67 66 60 67
REMARK SMILES IDX 66 68 61 69 62 70 63 71 64 72 65 73 44 74 45 75 53 76 46 77
REMARK SMILES IDX 52 78 47 79 48 80 49 81 50 82 51 83
REMARK H PARENT 1 7 1 8 1 9 72 39 42 50
REMARK Flexibility Score: inf
ROOT
ATOM      1  C   UNL A   1      33.382  33.938  28.336  1.00  0.00     0.274 C 
ENDROOT
BRANCH   1   2
ATOM      2  O   UNL A   1      33.341  34.539  29.647  1.00  0.00    -0.458 OA
BRANCH   2   3
ATOM      3  C   UNL A   1      32.781  35.779  29.693  1.00  0.00     0.365 C 
ATOM      4  O   UNL A   1      32.275  36.335  28.721  1.00  0.00    -0.245 OA
BRANCH   3   5
ATOM      5  C   UNL A   1      32.859  36.451  31.072  1.00  0.00     0.301 C 
BRANCH   5   6
ATOM      6  N   UNL A   1      33.706  37.668  31.000  1.00  0.00    -0.345 N 
ATOM      7  H   UNL A   1      34.638  37.414  30.674  1.00  0.00     0.345 HD
ATOM      8  H   UNL A   1      33.772  38.092  31.925  1.00  0.00     0.345 HD
ATOM      9  H   UNL A   1      33.288  38.334  30.350  1.00  0.00     0.345 HD
ENDBRANCH   5   6
BRANCH   5  10
ATOM     10  C   UNL A   1      33.165  35.516  32.261  1.00  0.00     0.147 C 
BRANCH  10  11
ATOM     11  S   UNL A   1      34.178  36.238  33.621  1.00  0.00    -0.147 SA
BRANCH  11  12
ATOM     12  C   UNL A   1      35.102  34.781  34.201  1.00  0.00     0.145 C 
BRANCH  12  13
ATOM     13  C   UNL A   1      35.578  33.892  33.114  1.00  0.00     0.113 A 
ATOM     14  C   UNL A   1      36.514  34.060  32.118  1.00  0.00     0.046 A 
ATOM     15  O   UNL A   1      35.040  32.639  33.032  1.00  0.00    -0.468 OA
ATOM     16  C   UNL A   1      36.503  32.882  31.341  1.00  0.00     0.042 A 
ATOM     17  C   UNL A   1      35.597  32.043  31.945  1.00  0.00     0.195 A 
ENDBRANCH  12  13
ENDBRANCH  11  12
ENDBRANCH  10  11
ENDBRANCH   5  10
ENDBRANCH   3   5
ENDBRANCH   2   3
ENDBRANCH   1   2
BRANCH   1  18
ATOM     18  C   UNL A   1      34.557  32.972  28.149  1.00  0.00     0.275 C 
BRANCH  18  19
ATOM     19  O   UNL A   1      34.290  31.660  28.664  1.00  0.00    -0.458 OA
BRANCH  19  20
ATOM     20  C   UNL A   1      34.647  30.643  27.847  1.00  0.00     0.338 C 
ATOM     21  O   UNL A   1      34.006  30.159  26.932  1.00  0.00    -0.246 OA
BRANCH  20  22
ATOM     22  C   UNL A   1      35.982  30.176  28.203  1.00  0.00     0.060 A 
ATOM     23  C   UNL A   1      37.000  30.210  27.246  1.00  0.00     0.016 A 
ATOM     24  C   UNL A   1      36.190  29.640  29.473  1.00  0.00     0.016 A 
ATOM     25  C   UNL A   1      38.259  29.720  27.574  1.00  0.00     0.010 A 
ATOM     26  C   UNL A   1      37.457  29.178  29.807  1.00  0.00     0.010 A 
ATOM     27  C   UNL A   1      38.499  29.228  28.865  1.00  0.00    -0.014 A 
BRANCH  27  28
ATOM     28  C   UNL A   1      39.862  28.859  29.293  1.00  0.00     0.031 A 
ATOM     29  C   UNL A   1      40.775  29.889  29.879  1.00  0.00     0.074 A 
ATOM     30  C   UNL A   1      40.288  27.610  29.029  1.00  0.00     0.049 A 
ATOM     31  N   UNL A   1      42.053  29.805  30.131  1.00  0.00    -0.248 NA
ATOM     32  C   UNL A   1      40.174  31.192  30.210  1.00  0.00     0.031 C 
ATOM     33  C   UNL A   1      39.463  26.545  28.451  1.00  0.00     0.029 A 
ATOM     34  N   UNL A   1      41.524  27.037  29.171  1.00  0.00    -0.354 N 
ATOM     35  C   UNL A   1      42.423  31.050  30.623  1.00  0.00     0.074 A 
ATOM     36  C   UNL A   1      41.232  31.874  30.629  1.00  0.00     0.031 C 
ATOM     37  C   UNL A   1      40.222  25.456  28.263  1.00  0.00     0.029 A 
ATOM     38  C   UNL A   1      41.591  25.764  28.658  1.00  0.00     0.049 A 
ATOM     39  H   UNL A   1      42.286  27.490  29.598  1.00  0.00     0.167 HD
ATOM     40  C   UNL A   1      43.651  31.462  31.020  1.00  0.00     0.031 A 
ATOM     41  C   UNL A   1      42.648  24.951  28.479  1.00  0.00     0.031 A 
ATOM     42  C   UNL A   1      44.821  30.624  30.981  1.00  0.00     0.049 A 
ATOM     43  C   UNL A   1      44.003  25.435  28.905  1.00  0.00     0.074 A 
ATOM     44  C   UNL A   1      46.109  30.921  31.386  1.00  0.00     0.029 A 
ATOM     45  N   UNL A   1      44.843  29.323  30.495  1.00  0.00    -0.354 N 
ATOM     46  N   UNL A   1      44.333  26.602  29.408  1.00  0.00    -0.248 NA
ATOM     47  C   UNL A   1      45.122  24.501  28.749  1.00  0.00     0.031 C 
ATOM     48  C   UNL A   1      46.919  29.815  31.104  1.00  0.00     0.029 A 
ATOM     49  C   UNL A   1      46.126  28.811  30.568  1.00  0.00     0.049 A 
ATOM     50  H   UNL A   1      44.060  28.837  30.150  1.00  0.00     0.167 HD
ATOM     51  C   UNL A   1      45.700  26.539  29.644  1.00  0.00     0.074 A 
ATOM     52  C   UNL A   1      46.130  25.214  29.237  1.00  0.00     0.031 C 
ATOM     53  C   UNL A   1      46.522  27.488  30.151  1.00  0.00     0.031 A 
BRANCH  40  54
ATOM     54  C   UNL A   1      43.789  32.890  31.475  1.00  0.00    -0.014 A 
ATOM     55  C   UNL A   1      43.466  33.275  32.789  1.00  0.00     0.010 A 
ATOM     56  C   UNL A   1      44.249  33.867  30.572  1.00  0.00     0.010 A 
ATOM     57  C   UNL A   1      43.550  34.616  33.175  1.00  0.00     0.020 A 
ATOM     58  C   UNL A   1      44.356  35.205  30.961  1.00  0.00     0.020 A 
ATOM     59  C   UNL A   1      43.982  35.575  32.254  1.00  0.00     0.054 A 
BRANCH  59  60
ATOM     60  S   UNL A   1      44.063  37.313  32.772  1.00  0.00     0.124 S 
ATOM     61  O   UNL A   1      43.828  38.012  31.511  1.00  0.00    -0.237 OA
ATOM     62  O   UNL A   1      42.984  37.410  33.752  1.00  0.00    -0.237 OA
ATOM     63  O   UNL A   1      45.411  37.450  33.318  1.00  0.00    -0.744 OA
ENDBRANCH  59  60
ENDBRANCH  40  54
BRANCH  41  64
ATOM     64  C   UNL A   1      42.444  23.625  27.842  1.00  0.00    -0.014 A 
ATOM     65  C   UNL A   1      42.670  23.450  26.467  1.00  0.00     0.010 A 
ATOM     66  C   UNL A   1      42.117  22.505  28.630  1.00  0.00     0.010 A 
ATOM     67  C   UNL A   1      42.578  22.179  25.891  1.00  0.00     0.020 A 
ATOM     68  C   UNL A   1      42.047  21.230  28.063  1.00  0.00     0.020 A 
ATOM     69  C   UNL A   1      42.275  21.075  26.696  1.00  0.00     0.054 A 
BRANCH  69  70
ATOM     70  S   UNL A   1      42.258  19.422  25.946  1.00  0.00     0.124 S 
ATOM     71  O   UNL A   1      43.177  19.588  24.824  1.00  0.00    -0.237 OA
ATOM     72  O   UNL A   1      42.734  18.574  27.035  1.00  0.00    -0.237 OA
ATOM     73  O   UNL A   1      40.855  19.227  25.584  1.00  0.00    -0.744 OA
ENDBRANCH  69  70
ENDBRANCH  41  64
BRANCH  53  74
ATOM     74  C   UNL A   1      47.968  27.119  30.320  1.00  0.00    -0.014 A 
ATOM     75  C   UNL A   1      48.887  27.301  29.272  1.00  0.00     0.010 A 
ATOM     76  C   UNL A   1      48.424  26.660  31.569  1.00  0.00     0.010 A 
ATOM     77  C   UNL A   1      50.241  27.020  29.469  1.00  0.00     0.020 A 
ATOM     78  C   UNL A   1      49.779  26.398  31.775  1.00  0.00     0.020 A 
ATOM     79  C   UNL A   1      50.679  26.573  30.721  1.00  0.00     0.054 A 
BRANCH  79  80
ATOM     80  S   UNL A   1      52.451  26.287  30.976  1.00  0.00     0.124 S 
ATOM     81  O   UNL A   1      52.453  25.024  31.709  1.00  0.00    -0.237 OA
ATOM     82  O   UNL A   1      52.966  26.223  29.610  1.00  0.00    -0.237 OA
ATOM     83  O   UNL A   1      52.882  27.455  31.743  1.00  0.00    -0.744 OA
ENDBRANCH  79  80
ENDBRANCH  53  74
ENDBRANCH  27  28
ENDBRANCH  20  22
ENDBRANCH  19  20
ENDBRANCH  18  19
ENDBRANCH   1  18
TORSDOF 19
ENDMDL
MODEL 2
REMARK VINA RESULT:      -9.2      2.209      2.881
REMARK SMILES [NH3+][C@H](CSCc1ccco1)C(=O)OCCOC(=O)c1ccc(-c2c3nc(c(-c4ccc(S(=O)(=O)[O-])cc4)c4ccc([nH]4)c(-c4ccc(S(=O)(=O)[O-])cc4)c4nc(c(-c5ccc(S(=O)(=O)[O-])cc5)c5ccc2[nH]5)C=C4)C=C3)cc1
REMARK SMILES IDX 14 1 13 2 11 3 12 4 2 5 1 6 3 10 4 11 5 12 6 13 7 14 10 15
REMARK SMILES IDX 8 16 9 17 15 18 16 19 17 20 18 21 19 22 20 23 78 24 21 25
REMARK SMILES IDX 77 26 22 27 23 28 24 29 71 30 25 31 76 32 70 33 72 34 26 35
REMARK SMILES IDX 75 36 69 37 68 38 27 40 57 41 38 42 56 43 39 44 42 45 55 46
REMARK SMILES IDX 73 47 40 48 41 49 54 51 74 52 43 53 28 54 29 55 37 56 30 57
REMARK SMILES IDX 36 58 31 59 32 60 33 61 34 62 35 63 58 64 59 65 67 66 60 67
REMARK SMILES IDX 66 68 61 69 62 70 63 71 64 72 65 73 44 74 45 75 53 76 46 77
REMARK SMILES IDX 52 78 47 79 48 80 49 81 50 82 51 83
REMARK H PARENT 1 7 1 8 1 9 72 39 42 50
REMARK Flexibility Score: inf
ROOT
ATOM      1  C   UNL A   1      33.537  34.045  28.465  1.00  0.00     0.274 C 
ENDROOT
BRANCH   1   2
ATOM      2  O   UNL A   1      33.215  34.505  29.794  1.00  0.00    -0.458 OA
BRANCH   2   3
ATOM      3  C   UNL A   1      32.847  35.814  29.875  1.00  0.00     0.365 C 
ATOM      4  O   UNL A   1      32.507  36.488  28.906  1.00  0.00    -0.245 OA
BRANCH   3   5
ATOM      5  C   UNL A   1      32.919  36.397  31.294  1.00  0.00     0.301 C 
BRANCH   5   6
ATOM      6  N   UNL A   1      33.688  37.666  31.286  1.00  0.00    -0.345 N 
ATOM      7  H   UNL A   1      33.274  38.318  31.953  1.00  0.00     0.345 HD
ATOM      8  H   UNL A   1      33.663  38.074  30.352  1.00  0.00     0.345 HD
ATOM      9  H   UNL A   1      34.656  37.479  31.550  1.00  0.00     0.345 HD
ENDBRANCH   5   6
BRANCH   5  10
ATOM     10  C   UNL A   1      33.311  35.407  32.412  1.00  0.00     0.147 C 
BRANCH  10  11
ATOM     11  S   UNL A   1      35.093  35.377  32.881  1.00  0.00    -0.147 SA
BRANCH  11  12
ATOM     12  C   UNL A   1      35.627  33.781  32.190  1.00  0.00     0.145 C 
BRANCH  12  13
ATOM     13  C   UNL A   1      36.685  33.890  31.156  1.00  0.00     0.113 A 
ATOM     14  C   UNL A   1      36.780  33.411  29.868  1.00  0.00     0.046 A 
ATOM     15  O   UNL A   1      37.807  34.606  31.463  1.00  0.00    -0.468 OA
ATOM     16  C   UNL A   1      38.051  33.788  29.383  1.00  0.00     0.042 A 
ATOM     17  C   UNL A   1      38.633  34.524  30.387  1.00  0.00     0.195 A 
ENDBRANCH  12  13
ENDBRANCH  11  12
ENDBRANCH  10  11
ENDBRANCH   5  10
ENDBRANCH   3   5
ENDBRANCH   2   3
ENDBRANCH   1   2
BRANCH   1  18
ATOM     18  C   UNL A   1      33.562  32.518  28.342  1.00  0.00     0.275 C 
BRANCH  18  19
ATOM     19  O   UNL A   1      34.542  32.048  27.405  1.00  0.00    -0.458 OA
BRANCH  19  20
ATOM     20  C   UNL A   1      34.638  30.703  27.308  1.00  0.00     0.338 C 
ATOM     21  O   UNL A   1      33.863  29.936  26.769  1.00  0.00    -0.246 OA
BRANCH  20  22
ATOM     22  C   UNL A   1      35.866  30.252  27.954  1.00  0.00     0.060 A 
ATOM     23  C   UNL A   1      37.083  30.378  27.280  1.00  0.00     0.016 A 
ATOM     24  C   UNL A   1      35.782  29.641  29.205  1.00  0.00     0.016 A 
ATOM     25  C   UNL A   1      38.245  29.904  27.879  1.00  0.00     0.010 A 
ATOM     26  C   UNL A   1      36.949  29.195  29.813  1.00  0.00     0.010 A 
ATOM     27  C   UNL A   1      38.185  29.336  29.159  1.00  0.00    -0.014 A 
BRANCH  27  28
ATOM     28  C   UNL A   1      39.418  28.980  29.887  1.00  0.00     0.031 A 
ATOM     29  C   UNL A   1      39.917  29.849  30.998  1.00  0.00     0.074 A 
ATOM     30  C   UNL A   1      40.130  27.928  29.442  1.00  0.00     0.049 A 
ATOM     31  N   UNL A   1      41.066  29.810  31.618  1.00  0.00    -0.248 NA
ATOM     32  C   UNL A   1      39.012  30.913  31.462  1.00  0.00     0.031 C 
ATOM     33  C   UNL A   1      39.717  27.033  28.358  1.00  0.00     0.029 A 
ATOM     34  N   UNL A   1      41.362  27.460  29.814  1.00  0.00    -0.354 N 
ATOM     35  C   UNL A   1      41.040  30.859  32.526  1.00  0.00     0.074 A 
ATOM     36  C   UNL A   1      39.761  31.521  32.373  1.00  0.00     0.031 C 
ATOM     37  C   UNL A   1      40.691  26.138  28.134  1.00  0.00     0.029 A 
ATOM     38  C   UNL A   1      41.811  26.431  29.020  1.00  0.00     0.049 A 
ATOM     39  H   UNL A   1      41.873  27.821  30.573  1.00  0.00     0.167 HD
ATOM     40  C   UNL A   1      42.006  31.237  33.398  1.00  0.00     0.031 A 
ATOM     41  C   UNL A   1      43.010  25.823  28.977  1.00  0.00     0.031 A 
ATOM     42  C   UNL A   1      43.278  30.570  33.511  1.00  0.00     0.049 A 
ATOM     43  C   UNL A   1      44.073  26.270  29.936  1.00  0.00     0.074 A 
ATOM     44  C   UNL A   1      44.321  30.841  34.378  1.00  0.00     0.029 A 
ATOM     45  N   UNL A   1      43.681  29.502  32.719  1.00  0.00    -0.354 N 
ATOM     46  N   UNL A   1      44.022  27.239  30.820  1.00  0.00    -0.248 NA
ATOM     47  C   UNL A   1      45.348  25.545  29.900  1.00  0.00     0.031 C 
ATOM     48  C   UNL A   1      45.372  29.967  34.080  1.00  0.00     0.029 A 
ATOM     49  C   UNL A   1      44.966  29.117  33.061  1.00  0.00     0.049 A 
ATOM     50  H   UNL A   1      43.133  29.081  32.019  1.00  0.00     0.167 HD
ATOM     51  C   UNL A   1      45.254  27.233  31.459  1.00  0.00     0.074 A 
ATOM     52  C   UNL A   1      46.025  26.156  30.866  1.00  0.00     0.031 C 
ATOM     53  C   UNL A   1      45.707  28.042  32.447  1.00  0.00     0.031 A 
BRANCH  40  54
ATOM     54  C   UNL A   1      41.738  32.449  34.248  1.00  0.00    -0.014 A 
ATOM     55  C   UNL A   1      42.127  33.735  33.834  1.00  0.00     0.010 A 
ATOM     56  C   UNL A   1      41.083  32.299  35.486  1.00  0.00     0.010 A 
ATOM     57  C   UNL A   1      41.917  34.841  34.664  1.00  0.00     0.020 A 
ATOM     58  C   UNL A   1      40.850  33.405  36.308  1.00  0.00     0.020 A 
ATOM     59  C   UNL A   1      41.291  34.666  35.902  1.00  0.00     0.054 A 
BRANCH  59  60
ATOM     60  S   UNL A   1      41.047  36.112  36.972  1.00  0.00     0.124 S 
ATOM     61  O   UNL A   1      40.918  35.493  38.288  1.00  0.00    -0.237 OA
ATOM     62  O   UNL A   1      42.269  36.883  36.759  1.00  0.00    -0.237 OA
ATOM     63  O   UNL A   1      39.828  36.727  36.451  1.00  0.00    -0.744 OA
ENDBRANCH  59  60
ENDBRANCH  40  54
BRANCH  41  64
ATOM     64  C   UNL A   1      43.248  24.758  27.969  1.00  0.00    -0.014 A 
ATOM     65  C   UNL A   1      43.800  25.071  26.716  1.00  0.00     0.010 A 
ATOM     66  C   UNL A   1      43.014  23.409  28.297  1.00  0.00     0.010 A 
ATOM     67  C   UNL A   1      44.119  24.055  25.810  1.00  0.00     0.020 A 
ATOM     68  C   UNL A   1      43.352  22.390  27.403  1.00  0.00     0.020 A 
ATOM     69  C   UNL A   1      43.901  22.719  26.164  1.00  0.00     0.054 A 
BRANCH  69  70
ATOM     70  S   UNL A   1      44.413  21.412  25.012  1.00  0.00     0.124 S 
ATOM     71  O   UNL A   1      43.382  20.401  25.224  1.00  0.00    -0.237 OA
ATOM     72  O   UNL A   1      44.376  22.094  23.721  1.00  0.00    -0.237 OA
ATOM     73  O   UNL A   1      45.750  21.052  25.479  1.00  0.00    -0.744 OA
ENDBRANCH  69  70
ENDBRANCH  41  64
BRANCH  53  74
ATOM     74  C   UNL A   1      47.090  27.777  32.968  1.00  0.00    -0.014 A 
ATOM     75  C   UNL A   1      47.314  26.809  33.962  1.00  0.00     0.010 A 
ATOM     76  C   UNL A   1      48.185  28.449  32.397  1.00  0.00     0.010 A 
ATOM     77  C   UNL A   1      48.615  26.525  34.384  1.00  0.00     0.020 A 
ATOM     78  C   UNL A   1      49.487  28.152  32.801  1.00  0.00     0.020 A 
ATOM     79  C   UNL A   1      49.694  27.196  33.798  1.00  0.00     0.054 A 
BRANCH  79  80
ATOM     80  S   UNL A   1      51.378  26.756  34.307  1.00  0.00     0.124 S 
ATOM     81  O   UNL A   1      51.671  25.621  33.437  1.00  0.00    -0.237 OA
ATOM     82  O   UNL A   1      52.129  27.977  34.024  1.00  0.00    -0.237 OA
ATOM     83  O   UNL A   1      51.235  26.435  35.726  1.00  0.00    -0.744 OA
ENDBRANCH  79  80
ENDBRANCH  53  74
ENDBRANCH  27  28
ENDBRANCH  20  22
ENDBRANCH  19  20
ENDBRANCH  18  19
ENDBRANCH   1  18
TORSDOF 19
ENDMDL
MODEL 3
REMARK VINA RESULT:      -9.1      2.817      8.743
REMARK SMILES [NH3+][C@H](CSCc1ccco1)C(=O)OCCOC(=O)c1ccc(-c2c3nc(c(-c4ccc(S(=O)(=O)[O-])cc4)c4ccc([nH]4)c(-c4ccc(S(=O)(=O)[O-])cc4)c4nc(c(-c5ccc(S(=O)(=O)[O-])cc5)c5ccc2[nH]5)C=C4)C=C3)cc1
REMARK SMILES IDX 14 1 13 2 11 3 12 4 2 5 1 6 3 10 4 11 5 12 6 13 7 14 10 15
REMARK SMILES IDX 8 16 9 17 15 18 16 19 17 20 18 21 19 22 20 23 78 24 21 25
REMARK SMILES IDX 77 26 22 27 23 28 24 29 71 30 25 31 76 32 70 33 72 34 26 35
REMARK SMILES IDX 75 36 69 37 68 38 27 40 57 41 38 42 56 43 39 44 42 45 55 46
REMARK SMILES IDX 73 47 40 48 41 49 54 51 74 52 43 53 28 54 29 55 37 56 30 57
REMARK SMILES IDX 36 58 31 59 32 60 33 61 34 62 35 63 58 64 59 65 67 66 60 67
REMARK SMILES IDX 66 68 61 69 62 70 63 71 64 72 65 73 44 74 45 75 53 76 46 77
REMARK SMILES IDX 52 78 47 79 48 80 49 81 50 82 51 83
REMARK H PARENT 1 7 1 8 1 9 72 39 42 50
REMARK Flexibility Score: inf
ROOT
ATOM      1  C   UNL A   1      33.152  33.658  27.988  1.00  0.00     0.274 C 
ENDROOT
BRANCH   1   2
ATOM      2  O   UNL A   1      33.017  34.348  29.248  1.00  0.00    -0.458 OA
BRANCH   2   3
ATOM      3  C   UNL A   1      33.395  35.656  29.229  1.00  0.00     0.365 C 
ATOM      4  O   UNL A   1      34.118  36.145  28.365  1.00  0.00    -0.245 OA
BRANCH   3   5
ATOM      5  C   UNL A   1      32.859  36.478  30.411  1.00  0.00     0.301 C 
BRANCH   5   6
ATOM      6  N   UNL A   1      33.443  37.842  30.391  1.00  0.00    -0.345 N 
ATOM      7  H   UNL A   1      32.748  38.504  30.043  1.00  0.00     0.345 HD
ATOM      8  H   UNL A   1      34.260  37.854  29.781  1.00  0.00     0.345 HD
ATOM      9  H   UNL A   1      33.721  38.107  31.336  1.00  0.00     0.345 HD
ENDBRANCH   5   6
BRANCH   5  10
ATOM     10  C   UNL A   1      32.886  35.780  31.787  1.00  0.00     0.147 C 
BRANCH  10  11
ATOM     11  S   UNL A   1      33.840  36.635  33.112  1.00  0.00    -0.147 SA
BRANCH  11  12
ATOM     12  C   UNL A   1      34.866  35.279  33.758  1.00  0.00     0.145 C 
BRANCH  12  13
ATOM     13  C   UNL A   1      35.080  34.170  32.798  1.00  0.00     0.113 A 
ATOM     14  C   UNL A   1      34.567  32.893  32.721  1.00  0.00     0.046 A 
ATOM     15  O   UNL A   1      35.926  34.388  31.748  1.00  0.00    -0.468 OA
ATOM     16  C   UNL A   1      35.180  32.271  31.612  1.00  0.00     0.042 A 
ATOM     17  C   UNL A   1      35.990  33.226  31.046  1.00  0.00     0.195 A 
ENDBRANCH  12  13
ENDBRANCH  11  12
ENDBRANCH  10  11
ENDBRANCH   5  10
ENDBRANCH   3   5
ENDBRANCH   2   3
ENDBRANCH   1   2
BRANCH   1  18
ATOM     18  C   UNL A   1      34.313  32.658  27.965  1.00  0.00     0.275 C 
BRANCH  18  19
ATOM     19  O   UNL A   1      33.907  31.322  28.297  1.00  0.00    -0.458 OA
BRANCH  19  20
ATOM     20  C   UNL A   1      34.492  30.350  27.561  1.00  0.00     0.338 C 
ATOM     21  O   UNL A   1      34.042  29.780  26.585  1.00  0.00    -0.246 OA
BRANCH  20  22
ATOM     22  C   UNL A   1      35.816  30.058  28.099  1.00  0.00     0.060 A 
ATOM     23  C   UNL A   1      36.937  30.187  27.275  1.00  0.00     0.016 A 
ATOM     24  C   UNL A   1      35.921  29.588  29.408  1.00  0.00     0.016 A 
ATOM     25  C   UNL A   1      38.192  29.862  27.777  1.00  0.00     0.010 A 
ATOM     26  C   UNL A   1      37.179  29.293  29.916  1.00  0.00     0.010 A 
ATOM     27  C   UNL A   1      38.320  29.440  29.108  1.00  0.00    -0.014 A 
BRANCH  27  28
ATOM     28  C   UNL A   1      39.651  29.251  29.717  1.00  0.00     0.031 A 
ATOM     29  C   UNL A   1      40.545  28.146  29.251  1.00  0.00     0.074 A 
ATOM     30  C   UNL A   1      39.974  30.021  30.772  1.00  0.00     0.049 A 
ATOM     31  N   UNL A   1      41.651  27.705  29.786  1.00  0.00    -0.248 NA
ATOM     32  C   UNL A   1      40.132  27.432  28.032  1.00  0.00     0.031 C 
ATOM     33  C   UNL A   1      39.154  31.117  31.296  1.00  0.00     0.029 A 
ATOM     34  N   UNL A   1      41.052  29.975  31.616  1.00  0.00    -0.354 N 
ATOM     35  C   UNL A   1      42.057  26.641  28.990  1.00  0.00     0.074 A 
ATOM     36  C   UNL A   1      41.073  26.501  27.937  1.00  0.00     0.031 C 
ATOM     37  C   UNL A   1      39.745  31.623  32.388  1.00  0.00     0.029 A 
ATOM     38  C   UNL A   1      40.952  30.855  32.667  1.00  0.00     0.049 A 
ATOM     39  H   UNL A   1      41.820  29.374  31.484  1.00  0.00     0.167 HD
ATOM     40  C   UNL A   1      43.147  25.852  29.140  1.00  0.00     0.031 A 
ATOM     41  C   UNL A   1      41.721  30.996  33.762  1.00  0.00     0.031 A 
ATOM     42  C   UNL A   1      44.097  26.004  30.212  1.00  0.00     0.049 A 
ATOM     43  C   UNL A   1      42.912  30.097  33.920  1.00  0.00     0.074 A 
ATOM     44  C   UNL A   1      45.254  25.285  30.449  1.00  0.00     0.029 A 
ATOM     45  N   UNL A   1      43.987  26.936  31.236  1.00  0.00    -0.354 N 
ATOM     46  N   UNL A   1      43.308  29.120  33.138  1.00  0.00    -0.248 NA
ATOM     47  C   UNL A   1      43.761  30.318  35.096  1.00  0.00     0.031 C 
ATOM     48  C   UNL A   1      45.821  25.753  31.640  1.00  0.00     0.029 A 
ATOM     49  C   UNL A   1      45.043  26.797  32.119  1.00  0.00     0.049 A 
ATOM     50  H   UNL A   1      43.264  27.599  31.320  1.00  0.00     0.167 HD
ATOM     51  C   UNL A   1      44.464  28.616  33.719  1.00  0.00     0.074 A 
ATOM     52  C   UNL A   1      44.707  29.405  34.912  1.00  0.00     0.031 C 
ATOM     53  C   UNL A   1      45.253  27.597  33.302  1.00  0.00     0.031 A 
BRANCH  40  54
ATOM     54  C   UNL A   1      43.332  24.731  28.153  1.00  0.00    -0.014 A 
ATOM     55  C   UNL A   1      42.763  23.463  28.369  1.00  0.00     0.010 A 
ATOM     56  C   UNL A   1      44.090  24.948  26.987  1.00  0.00     0.010 A 
ATOM     57  C   UNL A   1      42.992  22.420  27.467  1.00  0.00     0.020 A 
ATOM     58  C   UNL A   1      44.302  23.915  26.070  1.00  0.00     0.020 A 
ATOM     59  C   UNL A   1      43.772  22.650  26.329  1.00  0.00     0.054 A 
BRANCH  59  60
ATOM     60  S   UNL A   1      44.074  21.276  25.182  1.00  0.00     0.124 S 
ATOM     61  O   UNL A   1      44.066  21.957  23.890  1.00  0.00    -0.237 OA
ATOM     62  O   UNL A   1      45.374  20.770  25.616  1.00  0.00    -0.237 OA
ATOM     63  O   UNL A   1      42.949  20.374  25.417  1.00  0.00    -0.744 OA
ENDBRANCH  59  60
ENDBRANCH  40  54
BRANCH  41  64
ATOM     64  C   UNL A   1      41.351  32.008  34.785  1.00  0.00    -0.014 A 
ATOM     65  C   UNL A   1      41.757  33.345  34.646  1.00  0.00     0.010 A 
ATOM     66  C   UNL A   1      40.503  31.656  35.852  1.00  0.00     0.010 A 
ATOM     67  C   UNL A   1      41.320  34.314  35.554  1.00  0.00     0.020 A 
ATOM     68  C   UNL A   1      40.046  32.626  36.748  1.00  0.00     0.020 A 
ATOM     69  C   UNL A   1      40.459  33.950  36.595  1.00  0.00     0.054 A 
BRANCH  69  70
ATOM     70  S   UNL A   1      39.826  35.241  37.703  1.00  0.00     0.124 S 
ATOM     71  O   UNL A   1      39.710  36.383  36.802  1.00  0.00    -0.237 OA
ATOM     72  O   UNL A   1      38.565  34.670  38.168  1.00  0.00    -0.237 OA
ATOM     73  O   UNL A   1      40.864  35.351  38.726  1.00  0.00    -0.744 OA
ENDBRANCH  69  70
ENDBRANCH  41  64
BRANCH  53  74
ATOM     74  C   UNL A   1      46.469  27.292  34.129  1.00  0.00    -0.014 A 
ATOM     75  C   UNL A   1      46.417  26.346  35.167  1.00  0.00     0.010 A 
ATOM     76  C   UNL A   1      47.694  27.903  33.809  1.00  0.00     0.010 A 
ATOM     77  C   UNL A   1      47.574  26.023  35.880  1.00  0.00     0.020 A 
ATOM     78  C   UNL A   1      48.856  27.566  34.506  1.00  0.00     0.020 A 
ATOM     79  C   UNL A   1      48.787  26.633  35.542  1.00  0.00     0.054 A 
BRANCH  79  80
ATOM     80  S   UNL A   1      50.290  26.141  36.431  1.00  0.00     0.124 S 
ATOM     81  O   UNL A   1      51.262  26.036  35.347  1.00  0.00    -0.237 OA
ATOM     82  O   UNL A   1      50.495  27.253  37.355  1.00  0.00    -0.237 OA
ATOM     83  O   UNL A   1      49.918  24.875  37.061  1.00  0.00    -0.744 OA
ENDBRANCH  79  80
ENDBRANCH  53  74
ENDBRANCH  27  28
ENDBRANCH  20  22
ENDBRANCH  19  20
ENDBRANCH  18  19
ENDBRANCH   1  18
TORSDOF 19
ENDMDL
