MODEL 1
REMARK VINA RESULT:      -9.8      0.000      0.000
REMARK SMILES CC1(C)C(C(=O)N2CCOC[C@H]2C(=O)OCCOC(=O)c2ccc(-c3c4nc(c(-c5ccc(S(=O)(=O)[O-])cc5)c5ccc([nH]5)c(-c5ccc(S(=O)(=O)[O-])cc5)c5nc(c(-c6ccc(S(=O)(=O)[O-])cc6)c6ccc3[nH]6)C=C5)C=C4)cc2)C1(C)C
REMARK SMILES IDX 17 1 16 2 15 3 13 4 14 5 12 6 7 7 8 8 9 9 11 10 10 11 5 12
REMARK SMILES IDX 6 13 4 14 1 15 2 16 3 17 81 18 82 19 83 20 18 21 19 22 20 23
REMARK SMILES IDX 21 24 22 25 80 26 23 27 79 28 24 29 25 30 26 31 73 32 27 33
REMARK SMILES IDX 78 34 72 35 74 36 28 37 77 38 71 39 70 40 29 42 59 43 40 44
REMARK SMILES IDX 58 45 41 46 44 47 57 48 75 49 42 50 43 51 56 53 76 54 45 55
REMARK SMILES IDX 30 56 31 57 39 58 32 59 38 60 33 61 34 62 35 63 36 64 37 65
REMARK SMILES IDX 60 66 61 67 69 68 62 69 68 70 63 71 64 72 65 73 66 74 67 75
REMARK SMILES IDX 46 76 47 77 55 78 48 79 54 80 49 81 50 82 51 83 52 84 53 85
REMARK H PARENT 74 41 44 52
REMARK Flexibility Score: inf
ROOT
ATOM      1  C   UNL A   1      33.802  32.863  28.076  1.00  0.00     0.275 C 
ENDROOT
BRANCH   1   2
ATOM      2  C   UNL A   1      34.074  34.051  28.995  1.00  0.00     0.274 C 
BRANCH   2   3
ATOM      3  O   UNL A   1      32.866  34.800  29.216  1.00  0.00    -0.460 OA
BRANCH   3   4
ATOM      4  C   UNL A   1      32.900  35.747  30.190  1.00  0.00     0.331 C 
ATOM      5  O   UNL A   1      33.111  36.938  29.982  1.00  0.00    -0.250 OA
BRANCH   4   6
ATOM      6  C   UNL A   1      32.812  35.168  31.611  1.00  0.00     0.221 C 
ATOM      7  N   UNL A   1      34.037  34.976  32.428  1.00  0.00    -0.324 N 
ATOM      8  C   UNL A   1      34.676  36.205  32.867  1.00  0.00     0.149 C 
ATOM      9  C   UNL A   1      33.651  37.162  33.502  1.00  0.00     0.181 C 
ATOM     10  C   UNL A   1      31.852  36.080  32.385  1.00  0.00     0.197 C 
ATOM     11  O   UNL A   1      32.479  37.341  32.690  1.00  0.00    -0.377 OA
BRANCH   7  12
ATOM     12  C   UNL A   1      34.393  33.673  32.737  1.00  0.00     0.227 C 
ATOM     13  O   UNL A   1      33.654  32.742  32.416  1.00  0.00    -0.275 OA
BRANCH  12  14
ATOM     14  C   UNL A   1      35.584  33.272  33.557  1.00  0.00     0.091 C 
ATOM     15  C   UNL A   1      37.474  32.180  34.940  1.00  0.00     0.012 C 
ATOM     16  C   UNL A   1      36.711  32.244  33.616  1.00  0.00    -0.017 C 
ATOM     17  C   UNL A   1      36.648  30.865  33.019  1.00  0.00     0.012 C 
ATOM     18  C   UNL A   1      36.905  33.476  32.743  1.00  0.00    -0.017 C 
ATOM     19  C   UNL A   1      37.838  34.591  33.160  1.00  0.00     0.012 C 
ATOM     20  C   UNL A   1      36.857  33.358  31.230  1.00  0.00     0.012 C 
ENDBRANCH  12  14
ENDBRANCH   7  12
ENDBRANCH   4   6
ENDBRANCH   3   4
ENDBRANCH   2   3
ENDBRANCH   1   2
BRANCH   1  21
ATOM     21  O   UNL A   1      35.032  32.266  27.635  1.00  0.00    -0.458 OA
BRANCH  21  22
ATOM     22  C   UNL A   1      35.112  30.922  27.796  1.00  0.00     0.338 C 
ATOM     23  O   UNL A   1      34.339  30.078  27.380  1.00  0.00    -0.246 OA
BRANCH  22  24
ATOM     24  C   UNL A   1      36.383  30.620  28.469  1.00  0.00     0.060 A 
ATOM     25  C   UNL A   1      36.431  29.543  29.353  1.00  0.00     0.016 A 
ATOM     26  C   UNL A   1      37.513  31.401  28.237  1.00  0.00     0.016 A 
ATOM     27  C   UNL A   1      37.616  29.227  30.008  1.00  0.00     0.010 A 
ATOM     28  C   UNL A   1      38.709  31.075  28.883  1.00  0.00     0.010 A 
ATOM     29  C   UNL A   1      38.769  29.982  29.767  1.00  0.00    -0.014 A 
BRANCH  29  30
ATOM     30  C   UNL A   1      40.044  29.618  30.424  1.00  0.00     0.031 A 
ATOM     31  C   UNL A   1      40.855  28.467  29.906  1.00  0.00     0.074 A 
ATOM     32  C   UNL A   1      40.459  30.324  31.493  1.00  0.00     0.049 A 
ATOM     33  N   UNL A   1      41.920  27.912  30.424  1.00  0.00    -0.248 NA
ATOM     34  C   UNL A   1      40.409  27.859  28.643  1.00  0.00     0.031 C 
ATOM     35  C   UNL A   1      39.781  31.499  32.046  1.00  0.00     0.029 A 
ATOM     36  N   UNL A   1      41.548  30.153  32.312  1.00  0.00    -0.354 N 
ATOM     37  C   UNL A   1      42.261  26.877  29.563  1.00  0.00     0.074 A 
ATOM     38  C   UNL A   1      41.281  26.871  28.498  1.00  0.00     0.031 C 
ATOM     39  C   UNL A   1      40.467  31.940  33.114  1.00  0.00     0.029 A 
ATOM     40  C   UNL A   1      41.594  31.045  33.356  1.00  0.00     0.049 A 
ATOM     41  H   UNL A   1      42.230  29.458  32.163  1.00  0.00     0.167 HD
ATOM     42  C   UNL A   1      43.299  26.012  29.661  1.00  0.00     0.031 A 
ATOM     43  C   UNL A   1      42.423  31.108  34.415  1.00  0.00     0.031 A 
ATOM     44  C   UNL A   1      44.263  26.030  30.729  1.00  0.00     0.049 A 
ATOM     45  C   UNL A   1      43.508  30.074  34.550  1.00  0.00     0.074 A 
ATOM     46  C   UNL A   1      45.358  25.203  30.915  1.00  0.00     0.029 A 
ATOM     47  N   UNL A   1      44.247  26.917  31.796  1.00  0.00    -0.354 N 
ATOM     48  N   UNL A   1      43.819  29.096  33.731  1.00  0.00    -0.248 NA
ATOM     49  C   UNL A   1      44.344  30.142  35.755  1.00  0.00     0.031 C 
ATOM     50  C   UNL A   1      45.969  25.552  32.124  1.00  0.00     0.029 A 
ATOM     51  C   UNL A   1      45.291  26.635  32.662  1.00  0.00     0.049 A 
ATOM     52  H   UNL A   1      43.592  27.640  31.919  1.00  0.00     0.167 HD
ATOM     53  C   UNL A   1      44.894  28.440  34.319  1.00  0.00     0.074 A 
ATOM     54  C   UNL A   1      45.196  29.148  35.547  1.00  0.00     0.031 C 
ATOM     55  C   UNL A   1      45.568  27.346  33.884  1.00  0.00     0.031 A 
BRANCH  42  56
ATOM     56  C   UNL A   1      43.425  24.947  28.603  1.00  0.00    -0.014 A 
ATOM     57  C   UNL A   1      42.758  23.716  28.722  1.00  0.00     0.010 A 
ATOM     58  C   UNL A   1      44.178  25.209  27.443  1.00  0.00     0.010 A 
ATOM     59  C   UNL A   1      42.863  22.755  27.711  1.00  0.00     0.020 A 
ATOM     60  C   UNL A   1      44.266  24.261  26.420  1.00  0.00     0.020 A 
ATOM     61  C   UNL A   1      43.617  23.033  26.566  1.00  0.00     0.054 A 
BRANCH  61  62
ATOM     62  S   UNL A   1      43.704  21.782  25.255  1.00  0.00     0.124 S 
ATOM     63  O   UNL A   1      42.639  20.862  25.644  1.00  0.00    -0.237 OA
ATOM     64  O   UNL A   1      43.447  22.564  24.049  1.00  0.00    -0.237 OA
ATOM     65  O   UNL A   1      45.059  21.250  25.372  1.00  0.00    -0.744 OA
ENDBRANCH  61  62
ENDBRANCH  42  56
BRANCH  43  66
ATOM     66  C   UNL A   1      42.224  32.149  35.461  1.00  0.00    -0.014 A 
ATOM     67  C   UNL A   1      42.959  33.345  35.434  1.00  0.00     0.010 A 
ATOM     68  C   UNL A   1      41.292  31.943  36.497  1.00  0.00     0.010 A 
ATOM     69  C   UNL A   1      42.782  34.307  36.434  1.00  0.00     0.020 A 
ATOM     70  C   UNL A   1      41.090  32.914  37.480  1.00  0.00     0.020 A 
ATOM     71  C   UNL A   1      41.848  34.086  37.451  1.00  0.00     0.054 A 
BRANCH  71  72
ATOM     72  S   UNL A   1      41.608  35.363  38.716  1.00  0.00     0.124 S 
ATOM     73  O   UNL A   1      40.964  34.610  39.789  1.00  0.00    -0.237 OA
ATOM     74  O   UNL A   1      42.975  35.804  38.984  1.00  0.00    -0.237 OA
ATOM     75  O   UNL A   1      40.762  36.351  38.050  1.00  0.00    -0.744 OA
ENDBRANCH  71  72
ENDBRANCH  43  66
BRANCH  55  76
ATOM     76  C   UNL A   1      46.706  26.855  34.739  1.00  0.00    -0.014 A 
ATOM     77  C   UNL A   1      48.004  27.370  34.576  1.00  0.00     0.010 A 
ATOM     78  C   UNL A   1      46.462  25.911  35.753  1.00  0.00     0.010 A 
ATOM     79  C   UNL A   1      49.045  26.930  35.399  1.00  0.00     0.020 A 
ATOM     80  C   UNL A   1      47.494  25.490  36.595  1.00  0.00     0.020 A 
ATOM     81  C   UNL A   1      48.782  25.994  36.405  1.00  0.00     0.054 A 
BRANCH  81  82
ATOM     82  S   UNL A   1      50.139  25.481  37.493  1.00  0.00     0.124 S 
ATOM     83  O   UNL A   1      49.714  24.143  37.899  1.00  0.00    -0.237 OA
ATOM     84  O   UNL A   1      51.299  25.530  36.605  1.00  0.00    -0.237 OA
ATOM     85  O   UNL A   1      50.131  26.485  38.554  1.00  0.00    -0.744 OA
ENDBRANCH  81  82
ENDBRANCH  55  76
ENDBRANCH  29  30
ENDBRANCH  22  24
ENDBRANCH  21  22
ENDBRANCH   1  21
TORSDOF 16
ENDMDL
MODEL 2
REMARK VINA RESULT:      -9.6      4.059     10.421
REMARK SMILES CC1(C)C(C(=O)N2CCOC[C@H]2C(=O)OCCOC(=O)c2ccc(-c3c4nc(c(-c5ccc(S(=O)(=O)[O-])cc5)c5ccc([nH]5)c(-c5ccc(S(=O)(=O)[O-])cc5)c5nc(c(-c6ccc(S(=O)(=O)[O-])cc6)c6ccc3[nH]6)C=C5)C=C4)cc2)C1(C)C
REMARK SMILES IDX 17 1 16 2 15 3 13 4 14 5 12 6 7 7 8 8 9 9 11 10 10 11 5 12
REMARK SMILES IDX 6 13 4 14 1 15 2 16 3 17 81 18 82 19 83 20 18 21 19 22 20 23
REMARK SMILES IDX 21 24 22 25 80 26 23 27 79 28 24 29 25 30 26 31 73 32 27 33
REMARK SMILES IDX 78 34 72 35 74 36 28 37 77 38 71 39 70 40 29 42 59 43 40 44
REMARK SMILES IDX 58 45 41 46 44 47 57 48 75 49 42 50 43 51 56 53 76 54 45 55
REMARK SMILES IDX 30 56 31 57 39 58 32 59 38 60 33 61 34 62 35 63 36 64 37 65
REMARK SMILES IDX 60 66 61 67 69 68 62 69 68 70 63 71 64 72 65 73 66 74 67 75
REMARK SMILES IDX 46 76 47 77 55 78 48 79 54 80 49 81 50 82 51 83 52 84 53 85
REMARK H PARENT 74 41 44 52
REMARK Flexibility Score: inf
ROOT
ATOM      1  C   UNL A   1      38.675  22.914  26.193  1.00  0.00     0.275 C 
ENDROOT
BRANCH   1   2
ATOM      2  C   UNL A   1      37.240  22.696  25.723  1.00  0.00     0.274 C 
BRANCH   2   3
ATOM      3  O   UNL A   1      36.818  23.779  24.877  1.00  0.00    -0.460 OA
BRANCH   3   4
ATOM      4  C   UNL A   1      35.988  23.468  23.848  1.00  0.00     0.331 C 
ATOM      5  O   UNL A   1      36.371  23.226  22.707  1.00  0.00    -0.250 OA
BRANCH   4   6
ATOM      6  C   UNL A   1      34.498  23.602  24.198  1.00  0.00     0.221 C 
ATOM      7  N   UNL A   1      33.853  24.938  24.260  1.00  0.00    -0.324 N 
ATOM      8  C   UNL A   1      33.706  25.604  22.977  1.00  0.00     0.149 C 
ATOM      9  C   UNL A   1      33.081  24.660  21.934  1.00  0.00     0.181 C 
ATOM     10  C   UNL A   1      33.739  22.744  23.179  1.00  0.00     0.197 C 
ATOM     11  O   UNL A   1      33.728  23.378  21.886  1.00  0.00    -0.377 OA
BRANCH   7  12
ATOM     12  C   UNL A   1      33.403  25.368  25.499  1.00  0.00     0.227 C 
ATOM     13  O   UNL A   1      32.663  24.646  26.167  1.00  0.00    -0.275 OA
BRANCH  12  14
ATOM     14  C   UNL A   1      33.648  26.728  26.084  1.00  0.00     0.091 C 
ATOM     15  C   UNL A   1      34.314  29.136  26.741  1.00  0.00     0.012 C 
ATOM     16  C   UNL A   1      33.658  28.210  25.716  1.00  0.00    -0.017 C 
ATOM     17  C   UNL A   1      33.905  28.751  24.335  1.00  0.00     0.012 C 
ATOM     18  C   UNL A   1      32.328  27.569  26.088  1.00  0.00    -0.017 C 
ATOM     19  C   UNL A   1      31.667  27.855  27.418  1.00  0.00     0.012 C 
ATOM     20  C   UNL A   1      31.284  27.296  25.021  1.00  0.00     0.012 C 
ENDBRANCH  12  14
ENDBRANCH   7  12
ENDBRANCH   4   6
ENDBRANCH   3   4
ENDBRANCH   2   3
ENDBRANCH   1   2
BRANCH   1  21
ATOM     21  O   UNL A   1      38.901  24.294  26.521  1.00  0.00    -0.458 OA
BRANCH  21  22
ATOM     22  C   UNL A   1      40.197  24.631  26.742  1.00  0.00     0.338 C 
ATOM     23  O   UNL A   1      41.183  24.203  26.170  1.00  0.00    -0.246 OA
BRANCH  22  24
ATOM     24  C   UNL A   1      40.221  25.718  27.730  1.00  0.00     0.060 A 
ATOM     25  C   UNL A   1      39.289  25.697  28.768  1.00  0.00     0.016 A 
ATOM     26  C   UNL A   1      41.149  26.752  27.628  1.00  0.00     0.016 A 
ATOM     27  C   UNL A   1      39.282  26.709  29.722  1.00  0.00     0.010 A 
ATOM     28  C   UNL A   1      41.152  27.762  28.595  1.00  0.00     0.010 A 
ATOM     29  C   UNL A   1      40.223  27.741  29.651  1.00  0.00    -0.014 A 
BRANCH  29  30
ATOM     30  C   UNL A   1      40.250  28.793  30.693  1.00  0.00     0.031 A 
ATOM     31  C   UNL A   1      41.199  28.680  31.849  1.00  0.00     0.074 A 
ATOM     32  C   UNL A   1      39.409  29.840  30.594  1.00  0.00     0.049 A 
ATOM     33  N   UNL A   1      41.277  29.420  32.924  1.00  0.00    -0.248 NA
ATOM     34  C   UNL A   1      42.188  27.593  31.790  1.00  0.00     0.031 C 
ATOM     35  C   UNL A   1      38.485  30.081  29.484  1.00  0.00     0.029 A 
ATOM     36  N   UNL A   1      39.188  30.894  31.445  1.00  0.00    -0.354 N 
ATOM     37  C   UNL A   1      42.308  28.878  33.681  1.00  0.00     0.074 A 
ATOM     38  C   UNL A   1      42.817  27.737  32.949  1.00  0.00     0.031 C 
ATOM     39  C   UNL A   1      37.796  31.209  29.723  1.00  0.00     0.029 A 
ATOM     40  C   UNL A   1      38.184  31.734  31.028  1.00  0.00     0.049 A 
ATOM     41  H   UNL A   1      39.701  31.035  32.274  1.00  0.00     0.167 HD
ATOM     42  C   UNL A   1      42.781  29.299  34.878  1.00  0.00     0.031 A 
ATOM     43  C   UNL A   1      37.608  32.782  31.647  1.00  0.00     0.031 A 
ATOM     44  C   UNL A   1      42.262  30.434  35.595  1.00  0.00     0.049 A 
ATOM     45  C   UNL A   1      38.087  33.166  33.021  1.00  0.00     0.074 A 
ATOM     46  C   UNL A   1      42.678  30.949  36.811  1.00  0.00     0.029 A 
ATOM     47  N   UNL A   1      41.210  31.229  35.164  1.00  0.00    -0.354 N 
ATOM     48  N   UNL A   1      39.061  32.644  33.729  1.00  0.00    -0.248 NA
ATOM     49  C   UNL A   1      37.383  34.272  33.685  1.00  0.00     0.031 C 
ATOM     50  C   UNL A   1      41.840  32.018  37.142  1.00  0.00     0.029 A 
ATOM     51  C   UNL A   1      40.940  32.208  36.105  1.00  0.00     0.049 A 
ATOM     52  H   UNL A   1      40.728  31.116  34.313  1.00  0.00     0.167 HD
ATOM     53  C   UNL A   1      39.093  33.364  34.917  1.00  0.00     0.074 A 
ATOM     54  C   UNL A   1      38.059  34.376  34.820  1.00  0.00     0.031 C 
ATOM     55  C   UNL A   1      39.900  33.200  35.994  1.00  0.00     0.031 A 
BRANCH  42  56
ATOM     56  C   UNL A   1      43.894  28.505  35.510  1.00  0.00    -0.014 A 
ATOM     57  C   UNL A   1      43.629  27.494  36.451  1.00  0.00     0.010 A 
ATOM     58  C   UNL A   1      45.224  28.735  35.110  1.00  0.00     0.010 A 
ATOM     59  C   UNL A   1      44.675  26.746  36.999  1.00  0.00     0.020 A 
ATOM     60  C   UNL A   1      46.270  27.973  35.637  1.00  0.00     0.020 A 
ATOM     61  C   UNL A   1      45.990  26.991  36.589  1.00  0.00     0.054 A 
BRANCH  61  62
ATOM     62  S   UNL A   1      47.324  25.980  37.290  1.00  0.00     0.124 S 
ATOM     63  O   UNL A   1      48.508  26.572  36.672  1.00  0.00    -0.237 OA
ATOM     64  O   UNL A   1      47.183  26.213  38.724  1.00  0.00    -0.237 OA
ATOM     65  O   UNL A   1      47.003  24.625  36.848  1.00  0.00    -0.744 OA
ENDBRANCH  61  62
ENDBRANCH  42  56
BRANCH  43  66
ATOM     66  C   UNL A   1      36.475  33.502  31.003  1.00  0.00    -0.014 A 
ATOM     67  C   UNL A   1      35.322  33.830  31.735  1.00  0.00     0.010 A 
ATOM     68  C   UNL A   1      36.545  33.861  29.643  1.00  0.00     0.010 A 
ATOM     69  C   UNL A   1      34.253  34.485  31.116  1.00  0.00     0.020 A 
ATOM     70  C   UNL A   1      35.493  34.543  29.029  1.00  0.00     0.020 A 
ATOM     71  C   UNL A   1      34.345  34.839  29.767  1.00  0.00     0.054 A 
BRANCH  71  72
ATOM     72  S   UNL A   1      32.961  35.722  28.993  1.00  0.00     0.124 S 
ATOM     73  O   UNL A   1      32.384  34.689  28.138  1.00  0.00    -0.237 OA
ATOM     74  O   UNL A   1      32.154  36.115  30.145  1.00  0.00    -0.237 OA
ATOM     75  O   UNL A   1      33.610  36.826  28.290  1.00  0.00    -0.744 OA
ENDBRANCH  71  72
ENDBRANCH  43  66
BRANCH  55  76
ATOM     76  C   UNL A   1      39.705  34.144  37.150  1.00  0.00    -0.014 A 
ATOM     77  C   UNL A   1      38.881  33.796  38.235  1.00  0.00     0.010 A 
ATOM     78  C   UNL A   1      40.397  35.369  37.177  1.00  0.00     0.010 A 
ATOM     79  C   UNL A   1      38.734  34.667  39.318  1.00  0.00     0.020 A 
ATOM     80  C   UNL A   1      40.275  36.229  38.270  1.00  0.00     0.020 A 
ATOM     81  C   UNL A   1      39.434  35.879  39.329  1.00  0.00     0.054 A 
BRANCH  81  82
ATOM     82  S   UNL A   1      39.269  36.965  40.770  1.00  0.00     0.124 S 
ATOM     83  O   UNL A   1      38.420  38.034  40.250  1.00  0.00    -0.237 OA
ATOM     84  O   UNL A   1      38.644  36.092  41.761  1.00  0.00    -0.237 OA
ATOM     85  O   UNL A   1      40.645  37.355  41.071  1.00  0.00    -0.744 OA
ENDBRANCH  81  82
ENDBRANCH  55  76
ENDBRANCH  29  30
ENDBRANCH  22  24
ENDBRANCH  21  22
ENDBRANCH   1  21
TORSDOF 16
ENDMDL
MODEL 3
REMARK VINA RESULT:      -9.4      4.659     10.577
REMARK SMILES CC1(C)C(C(=O)N2CCOC[C@H]2C(=O)OCCOC(=O)c2ccc(-c3c4nc(c(-c5ccc(S(=O)(=O)[O-])cc5)c5ccc([nH]5)c(-c5ccc(S(=O)(=O)[O-])cc5)c5nc(c(-c6ccc(S(=O)(=O)[O-])cc6)c6ccc3[nH]6)C=C5)C=C4)cc2)C1(C)C
REMARK SMILES IDX 17 1 16 2 15 3 13 4 14 5 12 6 7 7 8 8 9 9 11 10 10 11 5 12
REMARK SMILES IDX 6 13 4 14 1 15 2 16 3 17 81 18 82 19 83 20 18 21 19 22 20 23
REMARK SMILES IDX 21 24 22 25 80 26 23 27 79 28 24 29 25 30 26 31 73 32 27 33
REMARK SMILES IDX 78 34 72 35 74 36 28 37 77 38 71 39 70 40 29 42 59 43 40 44
REMARK SMILES IDX 58 45 41 46 44 47 57 48 75 49 42 50 43 51 56 53 76 54 45 55
REMARK SMILES IDX 30 56 31 57 39 58 32 59 38 60 33 61 34 62 35 63 36 64 37 65
REMARK SMILES IDX 60 66 61 67 69 68 62 69 68 70 63 71 64 72 65 73 66 74 67 75
REMARK SMILES IDX 46 76 47 77 55 78 48 79 54 80 49 81 50 82 51 83 52 84 53 85
REMARK H PARENT 74 41 44 52
REMARK Flexibility Score: inf
ROOT
ATOM      1  C   UNL A   1      32.277  29.474  26.944  1.00  0.00     0.275 C 
ENDROOT
BRANCH   1   2
ATOM      2  C   UNL A   1      32.302  29.778  25.449  1.00  0.00     0.274 C 
BRANCH   2   3
ATOM      3  O   UNL A   1      32.003  28.593  24.690  1.00  0.00    -0.460 OA
BRANCH   3   4
ATOM      4  C   UNL A   1      33.055  27.817  24.324  1.00  0.00     0.331 C 
ATOM      5  O   UNL A   1      34.224  28.192  24.339  1.00  0.00    -0.250 OA
BRANCH   4   6
ATOM      6  C   UNL A   1      32.641  26.462  23.729  1.00  0.00     0.221 C 
ATOM      7  N   UNL A   1      32.927  25.198  24.452  1.00  0.00    -0.324 N 
ATOM      8  C   UNL A   1      32.158  25.003  25.669  1.00  0.00     0.149 C 
ATOM      9  C   UNL A   1      30.659  25.248  25.418  1.00  0.00     0.181 C 
ATOM     10  C   UNL A   1      31.129  26.548  23.483  1.00  0.00     0.197 C 
ATOM     11  O   UNL A   1      30.405  26.482  24.726  1.00  0.00    -0.377 OA
BRANCH   7  12
ATOM     12  C   UNL A   1      33.827  24.322  23.864  1.00  0.00     0.227 C 
ATOM     13  O   UNL A   1      34.287  24.571  22.749  1.00  0.00    -0.275 OA
BRANCH  12  14
ATOM     14  C   UNL A   1      34.230  22.989  24.424  1.00  0.00     0.091 C 
ATOM     15  C   UNL A   1      35.144  20.646  25.016  1.00  0.00     0.012 C 
ATOM     16  C   UNL A   1      35.449  22.097  24.642  1.00  0.00    -0.017 C 
ATOM     17  C   UNL A   1      36.703  22.137  23.813  1.00  0.00     0.012 C 
ATOM     18  C   UNL A   1      35.150  23.175  25.676  1.00  0.00    -0.017 C 
ATOM     19  C   UNL A   1      34.589  22.820  27.034  1.00  0.00     0.012 C 
ATOM     20  C   UNL A   1      36.022  24.414  25.765  1.00  0.00     0.012 C 
ENDBRANCH  12  14
ENDBRANCH   7  12
ENDBRANCH   4   6
ENDBRANCH   3   4
ENDBRANCH   2   3
ENDBRANCH   1   2
BRANCH   1  21
ATOM     21  O   UNL A   1      33.607  29.268  27.447  1.00  0.00    -0.458 OA
BRANCH  21  22
ATOM     22  C   UNL A   1      34.241  30.386  27.878  1.00  0.00     0.338 C 
ATOM     23  O   UNL A   1      33.756  31.485  28.077  1.00  0.00    -0.246 OA
BRANCH  22  24
ATOM     24  C   UNL A   1      35.630  30.026  28.197  1.00  0.00     0.060 A 
ATOM     25  C   UNL A   1      36.580  30.063  27.176  1.00  0.00     0.016 A 
ATOM     26  C   UNL A   1      35.988  29.646  29.488  1.00  0.00     0.016 A 
ATOM     27  C   UNL A   1      37.904  29.728  27.439  1.00  0.00     0.010 A 
ATOM     28  C   UNL A   1      37.322  29.324  29.758  1.00  0.00     0.010 A 
ATOM     29  C   UNL A   1      38.288  29.371  28.736  1.00  0.00    -0.014 A 
BRANCH  29  30
ATOM     30  C   UNL A   1      39.705  29.063  29.031  1.00  0.00     0.031 A 
ATOM     31  C   UNL A   1      40.604  30.125  29.592  1.00  0.00     0.074 A 
ATOM     32  C   UNL A   1      40.177  27.827  28.781  1.00  0.00     0.049 A 
ATOM     33  N   UNL A   1      41.897  30.091  29.787  1.00  0.00    -0.248 NA
ATOM     34  C   UNL A   1      39.966  31.392  29.984  1.00  0.00     0.031 C 
ATOM     35  C   UNL A   1      39.380  26.701  28.290  1.00  0.00     0.029 A 
ATOM     36  N   UNL A   1      41.444  27.312  28.896  1.00  0.00    -0.354 N 
ATOM     37  C   UNL A   1      42.233  31.336  30.304  1.00  0.00     0.074 A 
ATOM     38  C   UNL A   1      41.011  32.108  30.379  1.00  0.00     0.031 C 
ATOM     39  C   UNL A   1      40.176  25.629  28.145  1.00  0.00     0.029 A 
ATOM     40  C   UNL A   1      41.547  26.009  28.471  1.00  0.00     0.049 A 
ATOM     41  H   UNL A   1      42.205  27.826  29.251  1.00  0.00     0.167 HD
ATOM     42  C   UNL A   1      43.454  31.787  30.678  1.00  0.00     0.031 A 
ATOM     43  C   UNL A   1      42.629  25.223  28.317  1.00  0.00     0.031 A 
ATOM     44  C   UNL A   1      44.660  31.006  30.595  1.00  0.00     0.049 A 
ATOM     45  C   UNL A   1      43.986  25.783  28.647  1.00  0.00     0.074 A 
ATOM     46  C   UNL A   1      45.947  31.368  30.957  1.00  0.00     0.029 A 
ATOM     47  N   UNL A   1      44.732  29.708  30.110  1.00  0.00    -0.354 N 
ATOM     48  N   UNL A   1      44.293  26.964  29.132  1.00  0.00    -0.248 NA
ATOM     49  C   UNL A   1      45.143  24.913  28.399  1.00  0.00     0.031 C 
ATOM     50  C   UNL A   1      46.804  30.310  30.638  1.00  0.00     0.029 A 
ATOM     51  C   UNL A   1      46.044  29.267  30.131  1.00  0.00     0.049 A 
ATOM     52  H   UNL A   1      43.963  29.179  29.799  1.00  0.00     0.167 HD
ATOM     53  C   UNL A   1      45.677  26.973  29.256  1.00  0.00     0.074 A 
ATOM     54  C   UNL A   1      46.144  25.672  28.821  1.00  0.00     0.031 C 
ATOM     55  C   UNL A   1      46.490  27.970  29.685  1.00  0.00     0.031 A 
BRANCH  42  56
ATOM     56  C   UNL A   1      43.554  33.204  31.178  1.00  0.00    -0.014 A 
ATOM     57  C   UNL A   1      43.377  33.514  32.538  1.00  0.00     0.010 A 
ATOM     58  C   UNL A   1      43.891  34.234  30.280  1.00  0.00     0.010 A 
ATOM     59  C   UNL A   1      43.508  34.832  32.985  1.00  0.00     0.020 A 
ATOM     60  C   UNL A   1      44.047  35.549  30.727  1.00  0.00     0.020 A 
ATOM     61  C   UNL A   1      43.842  35.842  32.077  1.00  0.00     0.054 A 
BRANCH  61  62
ATOM     62  S   UNL A   1      44.043  37.537  32.692  1.00  0.00     0.124 S 
ATOM     63  O   UNL A   1      43.808  38.326  31.485  1.00  0.00    -0.237 OA
ATOM     64  O   UNL A   1      43.005  37.631  33.714  1.00  0.00    -0.237 OA
ATOM     65  O   UNL A   1      45.414  37.565  33.196  1.00  0.00    -0.744 OA
ENDBRANCH  61  62
ENDBRANCH  42  56
BRANCH  43  66
ATOM     66  C   UNL A   1      42.483  23.847  27.768  1.00  0.00    -0.014 A 
ATOM     67  C   UNL A   1      42.341  23.634  26.387  1.00  0.00     0.010 A 
ATOM     68  C   UNL A   1      42.482  22.735  28.634  1.00  0.00     0.010 A 
ATOM     69  C   UNL A   1      42.181  22.340  25.883  1.00  0.00     0.020 A 
ATOM     70  C   UNL A   1      42.353  21.439  28.131  1.00  0.00     0.020 A 
ATOM     71  C   UNL A   1      42.188  21.250  26.758  1.00  0.00     0.054 A 
BRANCH  71  72
ATOM     72  S   UNL A   1      42.016  19.576  26.079  1.00  0.00     0.124 S 
ATOM     73  O   UNL A   1      40.583  19.506  25.807  1.00  0.00    -0.237 OA
ATOM     74  O   UNL A   1      42.882  19.621  24.903  1.00  0.00    -0.237 OA
ATOM     75  O   UNL A   1      42.491  18.717  27.160  1.00  0.00    -0.744 OA
ENDBRANCH  71  72
ENDBRANCH  43  66
BRANCH  55  76
ATOM     76  C   UNL A   1      47.968  27.688  29.716  1.00  0.00    -0.014 A 
ATOM     77  C   UNL A   1      48.549  27.001  30.796  1.00  0.00     0.010 A 
ATOM     78  C   UNL A   1      48.774  28.063  28.626  1.00  0.00     0.010 A 
ATOM     79  C   UNL A   1      49.917  26.715  30.797  1.00  0.00     0.020 A 
ATOM     80  C   UNL A   1      50.136  27.755  28.611  1.00  0.00     0.020 A 
ATOM     81  C   UNL A   1      50.702  27.093  29.702  1.00  0.00     0.054 A 
BRANCH  81  82
ATOM     82  S   UNL A   1      52.463  26.662  29.704  1.00  0.00     0.124 S 
ATOM     83  O   UNL A   1      53.096  27.968  29.868  1.00  0.00    -0.237 OA
ATOM     84  O   UNL A   1      52.572  25.762  30.850  1.00  0.00    -0.237 OA
ATOM     85  O   UNL A   1      52.667  26.030  28.402  1.00  0.00    -0.744 OA
ENDBRANCH  81  82
ENDBRANCH  55  76
ENDBRANCH  29  30
ENDBRANCH  22  24
ENDBRANCH  21  22
ENDBRANCH   1  21
TORSDOF 16
ENDMDL
