MODEL 1
REMARK VINA RESULT:     -10.7      0.000      0.000
REMARK SMILES CCn1nc(C)c(Br)c1C[C@H](C(=O)OCCOC(=O)c1ccc(-c2c3nc(c(-c4ccc(S(=O)(=O)[O-])cc4)c4ccc([nH]4)c(-c4ccc(S(=O)(=O)[O-])cc4)c4nc(c(-c5ccc(S(=O)(=O)[O-])cc5)c5ccc2[nH]5)C=C4)C=C3)cc1)c1ccc(F)cc1
REMARK SMILES IDX 15 1 14 2 12 3 13 4 11 5 10 6 9 7 3 8 4 9 5 10 7 11 6 12
REMARK SMILES IDX 8 13 2 14 1 15 80 16 81 17 86 18 82 19 85 20 83 21 84 22
REMARK SMILES IDX 16 23 17 24 18 25 19 26 20 27 21 28 79 29 22 30 78 31 23 32
REMARK SMILES IDX 24 33 25 34 72 35 26 36 77 37 71 38 73 39 27 40 76 41 70 42
REMARK SMILES IDX 69 43 28 45 58 46 39 47 57 48 40 49 43 50 56 51 74 52 41 53
REMARK SMILES IDX 42 54 55 56 75 57 44 58 29 59 30 60 38 61 31 62 37 63 32 64
REMARK SMILES IDX 33 65 34 66 35 67 36 68 59 69 60 70 68 71 61 72 67 73 62 74
REMARK SMILES IDX 63 75 64 76 65 77 66 78 45 79 46 80 54 81 47 82 53 83 48 84
REMARK SMILES IDX 49 85 50 86 51 87 52 88
REMARK H PARENT 73 44 43 55
REMARK Flexibility Score: inf
ROOT
ATOM      1  C   UNL A   1      36.367  20.441  25.164  1.00  0.00     0.274 C 
ENDROOT
BRANCH   1   2
ATOM      2  O   UNL A   1      35.537  21.488  24.620  1.00  0.00    -0.462 OA
BRANCH   2   3
ATOM      3  C   UNL A   1      34.608  22.053  25.454  1.00  0.00     0.313 C 
ATOM      4  O   UNL A   1      34.873  22.663  26.484  1.00  0.00    -0.252 OA
BRANCH   3   5
ATOM      5  C   UNL A   1      33.202  21.676  25.007  1.00  0.00     0.135 C 
BRANCH   5   6
ATOM      6  C   UNL A   1      32.903  22.670  23.842  1.00  0.00     0.077 C 
BRANCH   6   7
ATOM      7  C   UNL A   1      32.411  24.022  24.219  1.00  0.00     0.054 A 
ATOM      8  N   UNL A   1      32.701  25.174  23.533  1.00  0.00    -0.268 N 
ATOM      9  N   UNL A   1      32.457  26.290  24.250  1.00  0.00    -0.177 NA
ATOM     10  C   UNL A   1      31.849  25.831  25.355  1.00  0.00     0.074 A 
ATOM     11  C   UNL A   1      31.600  24.451  25.247  1.00  0.00     0.062 A 
ATOM     12  C   UNL A   1      31.595  26.737  26.501  1.00  0.00     0.070 C 
ATOM     13  Br  UNL A   1      30.570  23.419  26.427  1.00  0.00    -0.047 Br
BRANCH   8  14
ATOM     14  C   UNL A   1      33.133  25.289  22.151  1.00  0.00     0.141 C 
ATOM     15  C   UNL A   1      32.048  25.888  21.262  1.00  0.00     0.029 C 
ENDBRANCH   8  14
ENDBRANCH   6   7
ENDBRANCH   5   6
BRANCH   5  16
ATOM     16  C   UNL A   1      32.978  20.167  24.841  1.00  0.00    -0.033 A 
ATOM     17  C   UNL A   1      32.982  19.327  25.975  1.00  0.00     0.007 A 
ATOM     18  C   UNL A   1      32.811  19.546  23.594  1.00  0.00     0.007 A 
ATOM     19  C   UNL A   1      32.753  17.946  25.862  1.00  0.00     0.039 A 
ATOM     20  C   UNL A   1      32.525  18.180  23.480  1.00  0.00     0.039 A 
ATOM     21  C   UNL A   1      32.494  17.391  24.616  1.00  0.00     0.123 A 
ATOM     22  F   UNL A   1      32.254  16.078  24.506  1.00  0.00    -0.207 F 
ENDBRANCH   5  16
ENDBRANCH   3   5
ENDBRANCH   2   3
ENDBRANCH   1   2
BRANCH   1  23
ATOM     23  C   UNL A   1      37.821  20.499  24.697  1.00  0.00     0.275 C 
BRANCH  23  24
ATOM     24  O   UNL A   1      38.695  20.866  25.762  1.00  0.00    -0.458 OA
BRANCH  24  25
ATOM     25  C   UNL A   1      39.759  20.042  25.855  1.00  0.00     0.338 C 
ATOM     26  O   UNL A   1      39.801  18.856  25.569  1.00  0.00    -0.246 OA
BRANCH  25  27
ATOM     27  C   UNL A   1      40.899  20.736  26.438  1.00  0.00     0.060 A 
ATOM     28  C   UNL A   1      40.796  21.023  27.799  1.00  0.00     0.016 A 
ATOM     29  C   UNL A   1      41.783  21.408  25.596  1.00  0.00     0.016 A 
ATOM     30  C   UNL A   1      41.377  22.160  28.288  1.00  0.00     0.010 A 
ATOM     31  C   UNL A   1      42.385  22.541  26.087  1.00  0.00     0.010 A 
ATOM     32  C   UNL A   1      42.073  22.958  27.389  1.00  0.00    -0.014 A 
BRANCH  32  33
ATOM     33  C   UNL A   1      42.468  24.274  27.851  1.00  0.00     0.031 A 
ATOM     34  C   UNL A   1      41.408  25.306  27.725  1.00  0.00     0.074 A 
ATOM     35  C   UNL A   1      43.656  24.410  28.472  1.00  0.00     0.049 A 
ATOM     36  N   UNL A   1      41.504  26.527  27.310  1.00  0.00    -0.248 NA
ATOM     37  C   UNL A   1      40.022  24.870  27.992  1.00  0.00     0.031 C 
ATOM     38  C   UNL A   1      44.600  23.334  28.811  1.00  0.00     0.029 A 
ATOM     39  N   UNL A   1      44.165  25.482  29.138  1.00  0.00    -0.354 N 
ATOM     40  C   UNL A   1      40.227  27.067  27.448  1.00  0.00     0.074 A 
ATOM     41  C   UNL A   1      39.334  25.970  27.705  1.00  0.00     0.031 C 
ATOM     42  C   UNL A   1      45.336  23.725  29.871  1.00  0.00     0.029 A 
ATOM     43  C   UNL A   1      44.972  25.092  30.204  1.00  0.00     0.049 A 
ATOM     44  H   UNL A   1      43.984  26.419  28.897  1.00  0.00     0.167 HD
ATOM     45  C   UNL A   1      40.014  28.400  27.604  1.00  0.00     0.031 A 
ATOM     46  C   UNL A   1      45.152  25.768  31.368  1.00  0.00     0.031 A 
ATOM     47  C   UNL A   1      41.113  29.188  27.125  1.00  0.00     0.049 A 
ATOM     48  C   UNL A   1      44.703  27.169  31.143  1.00  0.00     0.074 A 
ATOM     49  C   UNL A   1      41.741  29.308  25.901  1.00  0.00     0.029 A 
ATOM     50  N   UNL A   1      41.971  29.733  28.052  1.00  0.00    -0.354 N 
ATOM     51  N   UNL A   1      45.291  27.998  30.324  1.00  0.00    -0.248 NA
ATOM     52  C   UNL A   1      43.326  27.508  31.482  1.00  0.00     0.031 C 
ATOM     53  C   UNL A   1      43.120  29.471  26.212  1.00  0.00     0.029 A 
ATOM     54  C   UNL A   1      43.245  29.495  27.602  1.00  0.00     0.049 A 
ATOM     55  H   UNL A   1      41.718  30.203  28.880  1.00  0.00     0.167 HD
ATOM     56  C   UNL A   1      44.258  28.710  29.726  1.00  0.00     0.074 A 
ATOM     57  C   UNL A   1      43.082  28.431  30.548  1.00  0.00     0.031 C 
ATOM     58  C   UNL A   1      44.375  29.226  28.466  1.00  0.00     0.031 A 
BRANCH  45  59
ATOM     59  C   UNL A   1      38.984  28.930  28.571  1.00  0.00    -0.014 A 
ATOM     60  C   UNL A   1      37.930  29.721  28.082  1.00  0.00     0.010 A 
ATOM     61  C   UNL A   1      39.188  28.921  29.969  1.00  0.00     0.010 A 
ATOM     62  C   UNL A   1      37.177  30.530  28.944  1.00  0.00     0.020 A 
ATOM     63  C   UNL A   1      38.415  29.684  30.840  1.00  0.00     0.020 A 
ATOM     64  C   UNL A   1      37.443  30.522  30.315  1.00  0.00     0.054 A 
BRANCH  64  65
ATOM     65  S   UNL A   1      36.582  31.683  31.401  1.00  0.00     0.124 S 
ATOM     66  O   UNL A   1      35.525  32.178  30.524  1.00  0.00    -0.237 OA
ATOM     67  O   UNL A   1      36.147  30.820  32.496  1.00  0.00    -0.237 OA
ATOM     68  O   UNL A   1      37.615  32.654  31.751  1.00  0.00    -0.744 OA
ENDBRANCH  64  65
ENDBRANCH  45  59
BRANCH  46  69
ATOM     69  C   UNL A   1      45.270  25.145  32.718  1.00  0.00    -0.014 A 
ATOM     70  C   UNL A   1      44.202  24.436  33.295  1.00  0.00     0.010 A 
ATOM     71  C   UNL A   1      46.522  25.066  33.369  1.00  0.00     0.010 A 
ATOM     72  C   UNL A   1      44.389  23.667  34.461  1.00  0.00     0.020 A 
ATOM     73  C   UNL A   1      46.712  24.324  34.538  1.00  0.00     0.020 A 
ATOM     74  C   UNL A   1      45.646  23.612  35.071  1.00  0.00     0.054 A 
BRANCH  74  75
ATOM     75  S   UNL A   1      45.914  22.528  36.503  1.00  0.00     0.124 S 
ATOM     76  O   UNL A   1      45.326  21.268  36.056  1.00  0.00    -0.237 OA
ATOM     77  O   UNL A   1      47.368  22.535  36.638  1.00  0.00    -0.237 OA
ATOM     78  O   UNL A   1      45.192  23.197  37.584  1.00  0.00    -0.744 OA
ENDBRANCH  74  75
ENDBRANCH  46  69
BRANCH  58  79
ATOM     79  C   UNL A   1      45.732  29.259  27.802  1.00  0.00    -0.014 A 
ATOM     80  C   UNL A   1      46.655  30.309  27.977  1.00  0.00     0.010 A 
ATOM     81  C   UNL A   1      46.163  28.095  27.139  1.00  0.00     0.010 A 
ATOM     82  C   UNL A   1      47.963  30.205  27.479  1.00  0.00     0.020 A 
ATOM     83  C   UNL A   1      47.469  27.977  26.659  1.00  0.00     0.020 A 
ATOM     84  C   UNL A   1      48.362  29.037  26.824  1.00  0.00     0.054 A 
BRANCH  84  85
ATOM     85  S   UNL A   1      50.072  28.886  26.237  1.00  0.00     0.124 S 
ATOM     86  O   UNL A   1      49.909  28.187  24.965  1.00  0.00    -0.237 OA
ATOM     87  O   UNL A   1      50.508  30.277  26.139  1.00  0.00    -0.237 OA
ATOM     88  O   UNL A   1      50.734  28.111  27.287  1.00  0.00    -0.744 OA
ENDBRANCH  84  85
ENDBRANCH  58  79
ENDBRANCH  32  33
ENDBRANCH  25  27
ENDBRANCH  24  25
ENDBRANCH  23  24
ENDBRANCH   1  23
TORSDOF 18
ENDMDL
MODEL 2
REMARK VINA RESULT:     -10.6      2.583      7.732
REMARK SMILES CCn1nc(C)c(Br)c1C[C@H](C(=O)OCCOC(=O)c1ccc(-c2c3nc(c(-c4ccc(S(=O)(=O)[O-])cc4)c4ccc([nH]4)c(-c4ccc(S(=O)(=O)[O-])cc4)c4nc(c(-c5ccc(S(=O)(=O)[O-])cc5)c5ccc2[nH]5)C=C4)C=C3)cc1)c1ccc(F)cc1
REMARK SMILES IDX 15 1 14 2 12 3 13 4 11 5 10 6 9 7 3 8 4 9 5 10 7 11 6 12
REMARK SMILES IDX 8 13 2 14 1 15 80 16 81 17 86 18 82 19 85 20 83 21 84 22
REMARK SMILES IDX 16 23 17 24 18 25 19 26 20 27 21 28 79 29 22 30 78 31 23 32
REMARK SMILES IDX 24 33 25 34 72 35 26 36 77 37 71 38 73 39 27 40 76 41 70 42
REMARK SMILES IDX 69 43 28 45 58 46 39 47 57 48 40 49 43 50 56 51 74 52 41 53
REMARK SMILES IDX 42 54 55 56 75 57 44 58 29 59 30 60 38 61 31 62 37 63 32 64
REMARK SMILES IDX 33 65 34 66 35 67 36 68 59 69 60 70 68 71 61 72 67 73 62 74
REMARK SMILES IDX 63 75 64 76 65 77 66 78 45 79 46 80 54 81 47 82 53 83 48 84
REMARK SMILES IDX 49 85 50 86 51 87 52 88
REMARK H PARENT 73 44 43 55
REMARK Flexibility Score: inf
ROOT
ATOM      1  C   UNL A   1      36.152  20.963  25.233  1.00  0.00     0.274 C 
ENDROOT
BRANCH   1   2
ATOM      2  O   UNL A   1      35.167  22.015  25.243  1.00  0.00    -0.462 OA
BRANCH   2   3
ATOM      3  C   UNL A   1      34.312  22.088  24.173  1.00  0.00     0.313 C 
ATOM      4  O   UNL A   1      34.573  22.633  23.106  1.00  0.00    -0.252 OA
BRANCH   3   5
ATOM      5  C   UNL A   1      32.944  21.540  24.555  1.00  0.00     0.135 C 
BRANCH   5   6
ATOM      6  C   UNL A   1      31.949  22.416  23.733  1.00  0.00     0.077 C 
BRANCH   6   7
ATOM      7  C   UNL A   1      31.705  23.799  24.222  1.00  0.00     0.054 A 
ATOM      8  N   UNL A   1      32.016  24.937  23.522  1.00  0.00    -0.268 N 
ATOM      9  N   UNL A   1      32.043  26.041  24.297  1.00  0.00    -0.177 NA
ATOM     10  C   UNL A   1      31.583  25.610  25.481  1.00  0.00     0.074 A 
ATOM     11  C   UNL A   1      31.145  24.276  25.387  1.00  0.00     0.062 A 
ATOM     12  C   UNL A   1      31.647  26.488  26.674  1.00  0.00     0.070 C 
ATOM     13  Br  UNL A   1      30.212  23.324  26.708  1.00  0.00    -0.047 Br
BRANCH   8  14
ATOM     14  C   UNL A   1      32.212  25.061  22.088  1.00  0.00     0.141 C 
ATOM     15  C   UNL A   1      31.731  26.408  21.560  1.00  0.00     0.029 C 
ENDBRANCH   8  14
ENDBRANCH   6   7
ENDBRANCH   5   6
BRANCH   5  16
ATOM     16  C   UNL A   1      32.854  20.008  24.541  1.00  0.00    -0.033 A 
ATOM     17  C   UNL A   1      32.911  19.289  25.754  1.00  0.00     0.007 A 
ATOM     18  C   UNL A   1      32.761  19.253  23.361  1.00  0.00     0.007 A 
ATOM     19  C   UNL A   1      32.804  17.889  25.779  1.00  0.00     0.039 A 
ATOM     20  C   UNL A   1      32.595  17.863  23.384  1.00  0.00     0.039 A 
ATOM     21  C   UNL A   1      32.614  17.192  24.594  1.00  0.00     0.123 A 
ATOM     22  F   UNL A   1      32.490  15.859  24.614  1.00  0.00    -0.207 F 
ENDBRANCH   5  16
ENDBRANCH   3   5
ENDBRANCH   2   3
ENDBRANCH   1   2
BRANCH   1  23
ATOM     23  C   UNL A   1      37.578  21.453  24.975  1.00  0.00     0.275 C 
BRANCH  23  24
ATOM     24  O   UNL A   1      38.150  22.027  26.148  1.00  0.00    -0.458 OA
BRANCH  24  25
ATOM     25  C   UNL A   1      39.473  21.782  26.241  1.00  0.00     0.338 C 
ATOM     26  O   UNL A   1      40.015  20.696  26.381  1.00  0.00    -0.246 OA
BRANCH  25  27
ATOM     27  C   UNL A   1      40.230  23.027  26.235  1.00  0.00     0.060 A 
ATOM     28  C   UNL A   1      41.471  22.978  26.868  1.00  0.00     0.016 A 
ATOM     29  C   UNL A   1      39.558  24.223  25.995  1.00  0.00     0.016 A 
ATOM     30  C   UNL A   1      41.939  24.093  27.508  1.00  0.00     0.010 A 
ATOM     31  C   UNL A   1      40.034  25.351  26.620  1.00  0.00     0.010 A 
ATOM     32  C   UNL A   1      41.149  25.234  27.461  1.00  0.00    -0.014 A 
BRANCH  32  33
ATOM     33  C   UNL A   1      41.521  26.324  28.341  1.00  0.00     0.031 A 
ATOM     34  C   UNL A   1      42.785  27.005  27.965  1.00  0.00     0.074 A 
ATOM     35  C   UNL A   1      40.647  26.711  29.292  1.00  0.00     0.049 A 
ATOM     36  N   UNL A   1      43.757  27.395  28.722  1.00  0.00    -0.248 NA
ATOM     37  C   UNL A   1      43.048  27.167  26.520  1.00  0.00     0.031 C 
ATOM     38  C   UNL A   1      39.289  26.189  29.505  1.00  0.00     0.029 A 
ATOM     39  N   UNL A   1      40.687  27.798  30.109  1.00  0.00    -0.354 N 
ATOM     40  C   UNL A   1      44.663  28.022  27.870  1.00  0.00     0.074 A 
ATOM     41  C   UNL A   1      44.262  27.706  26.526  1.00  0.00     0.031 C 
ATOM     42  C   UNL A   1      38.550  27.143  30.105  1.00  0.00     0.029 A 
ATOM     43  C   UNL A   1      39.410  28.279  30.391  1.00  0.00     0.049 A 
ATOM     44  H   UNL A   1      41.517  28.197  30.459  1.00  0.00     0.167 HD
ATOM     45  C   UNL A   1      45.530  28.976  28.303  1.00  0.00     0.031 A 
ATOM     46  C   UNL A   1      39.072  29.572  30.635  1.00  0.00     0.031 A 
ATOM     47  C   UNL A   1      45.759  28.902  29.717  1.00  0.00     0.049 A 
ATOM     48  C   UNL A   1      40.322  30.301  30.979  1.00  0.00     0.074 A 
ATOM     49  C   UNL A   1      46.235  27.915  30.558  1.00  0.00     0.029 A 
ATOM     50  N   UNL A   1      45.135  29.825  30.524  1.00  0.00    -0.354 N 
ATOM     51  N   UNL A   1      41.034  30.063  32.047  1.00  0.00    -0.248 NA
ATOM     52  C   UNL A   1      41.033  30.982  29.903  1.00  0.00     0.031 C 
ATOM     53  C   UNL A   1      45.465  28.045  31.747  1.00  0.00     0.029 A 
ATOM     54  C   UNL A   1      44.605  29.133  31.583  1.00  0.00     0.049 A 
ATOM     55  H   UNL A   1      45.079  30.796  30.369  1.00  0.00     0.167 HD
ATOM     56  C   UNL A   1      42.356  30.178  31.634  1.00  0.00     0.074 A 
ATOM     57  C   UNL A   1      42.290  30.838  30.332  1.00  0.00     0.031 C 
ATOM     58  C   UNL A   1      43.362  29.478  32.239  1.00  0.00     0.031 A 
BRANCH  45  59
ATOM     59  C   UNL A   1      45.821  30.211  27.488  1.00  0.00    -0.014 A 
ATOM     60  C   UNL A   1      47.149  30.659  27.375  1.00  0.00     0.010 A 
ATOM     61  C   UNL A   1      44.803  31.104  27.082  1.00  0.00     0.010 A 
ATOM     62  C   UNL A   1      47.434  31.967  26.960  1.00  0.00     0.020 A 
ATOM     63  C   UNL A   1      45.078  32.389  26.622  1.00  0.00     0.020 A 
ATOM     64  C   UNL A   1      46.393  32.829  26.610  1.00  0.00     0.054 A 
BRANCH  64  65
ATOM     65  S   UNL A   1      46.752  34.560  26.232  1.00  0.00     0.124 S 
ATOM     66  O   UNL A   1      48.153  34.664  26.628  1.00  0.00    -0.237 OA
ATOM     67  O   UNL A   1      46.491  34.625  24.796  1.00  0.00    -0.237 OA
ATOM     68  O   UNL A   1      45.806  35.296  27.067  1.00  0.00    -0.744 OA
ENDBRANCH  64  65
ENDBRANCH  45  59
BRANCH  46  69
ATOM     69  C   UNL A   1      37.827  30.242  30.160  1.00  0.00    -0.014 A 
ATOM     70  C   UNL A   1      37.002  30.964  31.038  1.00  0.00     0.010 A 
ATOM     71  C   UNL A   1      37.550  30.351  28.778  1.00  0.00     0.010 A 
ATOM     72  C   UNL A   1      35.957  31.774  30.550  1.00  0.00     0.020 A 
ATOM     73  C   UNL A   1      36.503  31.133  28.285  1.00  0.00     0.020 A 
ATOM     74  C   UNL A   1      35.719  31.858  29.174  1.00  0.00     0.054 A 
BRANCH  74  75
ATOM     75  S   UNL A   1      34.451  32.992  28.539  1.00  0.00     0.124 S 
ATOM     76  O   UNL A   1      33.972  33.638  29.758  1.00  0.00    -0.237 OA
ATOM     77  O   UNL A   1      35.214  33.843  27.629  1.00  0.00    -0.237 OA
ATOM     78  O   UNL A   1      33.487  32.105  27.890  1.00  0.00    -0.744 OA
ENDBRANCH  74  75
ENDBRANCH  46  69
BRANCH  58  79
ATOM     79  C   UNL A   1      43.088  28.768  33.545  1.00  0.00    -0.014 A 
ATOM     80  C   UNL A   1      42.137  27.738  33.684  1.00  0.00     0.010 A 
ATOM     81  C   UNL A   1      43.963  29.017  34.618  1.00  0.00     0.010 A 
ATOM     82  C   UNL A   1      42.050  26.998  34.872  1.00  0.00     0.020 A 
ATOM     83  C   UNL A   1      43.894  28.271  35.797  1.00  0.00     0.020 A 
ATOM     84  C   UNL A   1      42.931  27.269  35.922  1.00  0.00     0.054 A 
BRANCH  84  85
ATOM     85  S   UNL A   1      42.851  26.268  37.433  1.00  0.00     0.124 S 
ATOM     86  O   UNL A   1      41.426  26.290  37.752  1.00  0.00    -0.237 OA
ATOM     87  O   UNL A   1      43.378  24.976  36.998  1.00  0.00    -0.237 OA
ATOM     88  O   UNL A   1      43.705  26.990  38.376  1.00  0.00    -0.744 OA
ENDBRANCH  84  85
ENDBRANCH  58  79
ENDBRANCH  32  33
ENDBRANCH  25  27
ENDBRANCH  24  25
ENDBRANCH  23  24
ENDBRANCH   1  23
TORSDOF 18
ENDMDL
MODEL 3
REMARK VINA RESULT:     -10.3      4.907     10.089
REMARK SMILES CCn1nc(C)c(Br)c1C[C@H](C(=O)OCCOC(=O)c1ccc(-c2c3nc(c(-c4ccc(S(=O)(=O)[O-])cc4)c4ccc([nH]4)c(-c4ccc(S(=O)(=O)[O-])cc4)c4nc(c(-c5ccc(S(=O)(=O)[O-])cc5)c5ccc2[nH]5)C=C4)C=C3)cc1)c1ccc(F)cc1
REMARK SMILES IDX 15 1 14 2 12 3 13 4 11 5 10 6 9 7 3 8 4 9 5 10 7 11 6 12
REMARK SMILES IDX 8 13 2 14 1 15 80 16 81 17 86 18 82 19 85 20 83 21 84 22
REMARK SMILES IDX 16 23 17 24 18 25 19 26 20 27 21 28 79 29 22 30 78 31 23 32
REMARK SMILES IDX 24 33 25 34 72 35 26 36 77 37 71 38 73 39 27 40 76 41 70 42
REMARK SMILES IDX 69 43 28 45 58 46 39 47 57 48 40 49 43 50 56 51 74 52 41 53
REMARK SMILES IDX 42 54 55 56 75 57 44 58 29 59 30 60 38 61 31 62 37 63 32 64
REMARK SMILES IDX 33 65 34 66 35 67 36 68 59 69 60 70 68 71 61 72 67 73 62 74
REMARK SMILES IDX 63 75 64 76 65 77 66 78 45 79 46 80 54 81 47 82 53 83 48 84
REMARK SMILES IDX 49 85 50 86 51 87 52 88
REMARK H PARENT 73 44 43 55
REMARK Flexibility Score: inf
ROOT
ATOM      1  C   UNL A   1      31.782  29.038  26.795  1.00  0.00     0.274 C 
ENDROOT
BRANCH   1   2
ATOM      2  O   UNL A   1      32.042  27.906  25.940  1.00  0.00    -0.462 OA
BRANCH   2   3
ATOM      3  C   UNL A   1      31.000  27.048  25.695  1.00  0.00     0.313 C 
ATOM      4  O   UNL A   1      30.359  26.463  26.560  1.00  0.00    -0.252 OA
BRANCH   3   5
ATOM      5  C   UNL A   1      30.862  26.804  24.199  1.00  0.00     0.135 C 
BRANCH   5   6
ATOM      6  C   UNL A   1      30.530  25.283  24.098  1.00  0.00     0.077 C 
BRANCH   6   7
ATOM      7  C   UNL A   1      31.677  24.354  23.917  1.00  0.00     0.054 A 
ATOM      8  N   UNL A   1      31.940  23.278  24.728  1.00  0.00    -0.268 N 
ATOM      9  N   UNL A   1      33.200  22.815  24.594  1.00  0.00    -0.177 NA
ATOM     10  C   UNL A   1      33.689  23.516  23.560  1.00  0.00     0.074 A 
ATOM     11  C   UNL A   1      32.682  24.307  22.977  1.00  0.00     0.062 A 
ATOM     12  C   UNL A   1      35.130  23.443  23.220  1.00  0.00     0.070 C 
ATOM     13  Br  UNL A   1      32.824  25.271  21.373  1.00  0.00    -0.047 Br
BRANCH   8  14
ATOM     14  C   UNL A   1      31.007  22.580  25.594  1.00  0.00     0.141 C 
ATOM     15  C   UNL A   1      31.059  23.100  27.026  1.00  0.00     0.029 C 
ENDBRANCH   8  14
ENDBRANCH   6   7
ENDBRANCH   5   6
BRANCH   5  16
ATOM     16  C   UNL A   1      30.014  27.853  23.466  1.00  0.00    -0.033 A 
ATOM     17  C   UNL A   1      30.644  28.850  22.691  1.00  0.00     0.007 A 
ATOM     18  C   UNL A   1      28.615  27.911  23.556  1.00  0.00     0.007 A 
ATOM     19  C   UNL A   1      29.898  29.808  21.986  1.00  0.00     0.039 A 
ATOM     20  C   UNL A   1      27.863  28.826  22.809  1.00  0.00     0.039 A 
ATOM     21  C   UNL A   1      28.511  29.766  22.027  1.00  0.00     0.123 A 
ATOM     22  F   UNL A   1      27.794  30.664  21.339  1.00  0.00    -0.207 F 
ENDBRANCH   5  16
ENDBRANCH   3   5
ENDBRANCH   2   3
ENDBRANCH   1   2
BRANCH   1  23
ATOM     23  C   UNL A   1      32.809  30.162  26.661  1.00  0.00     0.275 C 
BRANCH  23  24
ATOM     24  O   UNL A   1      33.615  30.272  27.832  1.00  0.00    -0.458 OA
BRANCH  24  25
ATOM     25  C   UNL A   1      34.852  29.769  27.649  1.00  0.00     0.338 C 
ATOM     26  O   UNL A   1      35.189  28.913  26.845  1.00  0.00    -0.246 OA
BRANCH  25  27
ATOM     27  C   UNL A   1      35.785  30.327  28.618  1.00  0.00     0.060 A 
ATOM     28  C   UNL A   1      36.462  31.475  28.206  1.00  0.00     0.016 A 
ATOM     29  C   UNL A   1      36.244  29.520  29.656  1.00  0.00     0.016 A 
ATOM     30  C   UNL A   1      37.739  31.691  28.645  1.00  0.00     0.010 A 
ATOM     31  C   UNL A   1      37.520  29.743  30.114  1.00  0.00     0.010 A 
ATOM     32  C   UNL A   1      38.284  30.752  29.512  1.00  0.00    -0.014 A 
BRANCH  32  33
ATOM     33  C   UNL A   1      39.707  30.848  29.771  1.00  0.00     0.031 A 
ATOM     34  C   UNL A   1      40.506  29.738  29.194  1.00  0.00     0.074 A 
ATOM     35  C   UNL A   1      40.182  31.967  30.353  1.00  0.00     0.049 A 
ATOM     36  N   UNL A   1      41.474  29.068  29.727  1.00  0.00    -0.248 NA
ATOM     37  C   UNL A   1      40.079  29.228  27.875  1.00  0.00     0.031 C 
ATOM     38  C   UNL A   1      39.414  33.171  30.704  1.00  0.00     0.029 A 
ATOM     39  N   UNL A   1      41.471  32.363  30.537  1.00  0.00    -0.354 N 
ATOM     40  C   UNL A   1      41.904  28.185  28.739  1.00  0.00     0.074 A 
ATOM     41  C   UNL A   1      40.914  28.209  27.697  1.00  0.00     0.031 C 
ATOM     42  C   UNL A   1      40.251  34.227  30.713  1.00  0.00     0.029 A 
ATOM     43  C   UNL A   1      41.601  33.748  30.465  1.00  0.00     0.049 A 
ATOM     44  H   UNL A   1      42.221  31.746  30.701  1.00  0.00     0.167 HD
ATOM     45  C   UNL A   1      43.168  27.686  28.708  1.00  0.00     0.031 A 
ATOM     46  C   UNL A   1      42.687  34.434  30.025  1.00  0.00     0.031 A 
ATOM     47  C   UNL A   1      43.808  27.744  29.990  1.00  0.00     0.049 A 
ATOM     48  C   UNL A   1      43.843  33.498  30.050  1.00  0.00     0.074 A 
ATOM     49  C   UNL A   1      43.504  27.228  31.235  1.00  0.00     0.029 A 
ATOM     50  N   UNL A   1      44.746  28.727  30.202  1.00  0.00    -0.354 N 
ATOM     51  N   UNL A   1      44.343  32.987  31.143  1.00  0.00    -0.248 NA
ATOM     52  C   UNL A   1      44.157  32.766  28.828  1.00  0.00     0.031 C 
ATOM     53  C   UNL A   1      43.902  28.236  32.156  1.00  0.00     0.029 A 
ATOM     54  C   UNL A   1      44.473  29.280  31.426  1.00  0.00     0.049 A 
ATOM     55  H   UNL A   1      45.474  28.984  29.590  1.00  0.00     0.167 HD
ATOM     56  C   UNL A   1      44.668  31.676  30.814  1.00  0.00     0.074 A 
ATOM     57  C   UNL A   1      44.621  31.630  29.354  1.00  0.00     0.031 C 
ATOM     58  C   UNL A   1      44.666  30.678  31.748  1.00  0.00     0.031 A 
BRANCH  45  59
ATOM     59  C   UNL A   1      43.931  27.541  27.415  1.00  0.00    -0.014 A 
ATOM     60  C   UNL A   1      44.466  26.287  27.073  1.00  0.00     0.010 A 
ATOM     61  C   UNL A   1      44.389  28.658  26.681  1.00  0.00     0.010 A 
ATOM     62  C   UNL A   1      45.473  26.173  26.105  1.00  0.00     0.020 A 
ATOM     63  C   UNL A   1      45.354  28.550  25.683  1.00  0.00     0.020 A 
ATOM     64  C   UNL A   1      45.925  27.312  25.435  1.00  0.00     0.054 A 
BRANCH  64  65
ATOM     65  S   UNL A   1      47.332  27.186  24.306  1.00  0.00     0.124 S 
ATOM     66  O   UNL A   1      46.837  27.907  23.137  1.00  0.00    -0.237 OA
ATOM     67  O   UNL A   1      48.394  27.848  25.059  1.00  0.00    -0.237 OA
ATOM     68  O   UNL A   1      47.503  25.746  24.131  1.00  0.00    -0.744 OA
ENDBRANCH  64  65
ENDBRANCH  45  59
BRANCH  46  69
ATOM     69  C   UNL A   1      42.648  35.677  29.203  1.00  0.00    -0.014 A 
ATOM     70  C   UNL A   1      41.726  35.835  28.154  1.00  0.00     0.010 A 
ATOM     71  C   UNL A   1      43.391  36.818  29.585  1.00  0.00     0.010 A 
ATOM     72  C   UNL A   1      41.545  37.085  27.530  1.00  0.00     0.020 A 
ATOM     73  C   UNL A   1      43.235  38.057  28.958  1.00  0.00     0.020 A 
ATOM     74  C   UNL A   1      42.297  38.190  27.942  1.00  0.00     0.054 A 
BRANCH  74  75
ATOM     75  S   UNL A   1      41.979  39.826  27.220  1.00  0.00     0.124 S 
ATOM     76  O   UNL A   1      41.090  39.507  26.105  1.00  0.00    -0.237 OA
ATOM     77  O   UNL A   1      41.367  40.549  28.331  1.00  0.00    -0.237 OA
ATOM     78  O   UNL A   1      43.308  40.298  26.834  1.00  0.00    -0.744 OA
ENDBRANCH  74  75
ENDBRANCH  46  69
BRANCH  58  79
ATOM     79  C   UNL A   1      44.567  31.036  33.213  1.00  0.00    -0.014 A 
ATOM     80  C   UNL A   1      43.345  31.136  33.907  1.00  0.00     0.010 A 
ATOM     81  C   UNL A   1      45.761  31.077  33.956  1.00  0.00     0.010 A 
ATOM     82  C   UNL A   1      43.322  31.298  35.300  1.00  0.00     0.020 A 
ATOM     83  C   UNL A   1      45.745  31.217  35.346  1.00  0.00     0.020 A 
ATOM     84  C   UNL A   1      44.524  31.336  36.011  1.00  0.00     0.054 A 
BRANCH  84  85
ATOM     85  S   UNL A   1      44.484  31.486  37.819  1.00  0.00     0.124 S 
ATOM     86  O   UNL A   1      45.886  31.297  38.183  1.00  0.00    -0.237 OA
ATOM     87  O   UNL A   1      43.956  32.832  38.025  1.00  0.00    -0.237 OA
ATOM     88  O   UNL A   1      43.588  30.408  38.239  1.00  0.00    -0.744 OA
ENDBRANCH  84  85
ENDBRANCH  58  79
ENDBRANCH  32  33
ENDBRANCH  25  27
ENDBRANCH  24  25
ENDBRANCH  23  24
ENDBRANCH   1  23
TORSDOF 18
ENDMDL
