MODEL 1
REMARK VINA RESULT:     -11.3      0.000      0.000
REMARK SMILES Cc1ccc(-c2nn(CCC(=O)OCCOC(=O)c3ccc(-c4c5nc(c(-c6ccc(S(=O)(=O)[O-])cc6)c6ccc([nH]6)c(-c6ccc(S(=O)(=O)[O-])cc6)c6nc(c(-c7ccc(S(=O)(=O)[O-])cc7)c7ccc4[nH]7)C=C6)C=C5)cc3)c(=O)c3noc(C)c23)cc1C
REMARK SMILES IDX 14 1 13 2 11 3 12 4 10 5 9 6 8 7 6 8 7 9 86 10 81 11 84 12
REMARK SMILES IDX 79 13 82 14 83 15 85 16 80 17 5 18 1 19 2 20 3 21 88 22 4 23
REMARK SMILES IDX 87 24 89 25 15 26 16 27 17 28 18 29 19 30 20 31 78 32 21 33
REMARK SMILES IDX 77 34 22 35 23 36 24 37 71 38 25 39 76 40 70 41 72 42 26 43
REMARK SMILES IDX 75 44 69 45 68 46 27 48 57 49 38 50 56 51 39 52 42 53 55 54
REMARK SMILES IDX 73 55 40 56 41 57 54 59 74 60 43 61 28 62 29 63 37 64 30 65
REMARK SMILES IDX 36 66 31 67 32 68 33 69 34 70 35 71 58 72 59 73 67 74 60 75
REMARK SMILES IDX 66 76 61 77 62 78 63 79 64 80 65 81 44 82 45 83 53 84 46 85
REMARK SMILES IDX 52 86 47 87 48 88 49 89 50 90 51 91
REMARK H PARENT 72 47 42 58
REMARK Flexibility Score: inf
ROOT
ATOM      1  C   UNL A   1      37.360  21.574  24.652  1.00  0.00     0.274 C 
ENDROOT
BRANCH   1   2
ATOM      2  O   UNL A   1      35.967  21.896  24.494  1.00  0.00    -0.462 OA
BRANCH   2   3
ATOM      3  C   UNL A   1      35.648  22.809  23.551  1.00  0.00     0.307 C 
ATOM      4  O   UNL A   1      36.385  23.163  22.638  1.00  0.00    -0.252 OA
BRANCH   3   5
ATOM      5  C   UNL A   1      34.288  23.418  23.786  1.00  0.00     0.146 C 
BRANCH   5   6
ATOM      6  C   UNL A   1      34.010  24.676  22.965  1.00  0.00     0.160 C 
BRANCH   6   7
ATOM      7  N   UNL A   1      33.519  25.786  23.784  1.00  0.00    -0.227 N 
ATOM      8  C   UNL A   1      32.096  27.658  23.783  1.00  0.00     0.104 A 
ATOM      9  N   UNL A   1      32.556  26.603  23.171  1.00  0.00    -0.169 NA
ATOM     10  C   UNL A   1      32.648  28.044  25.051  1.00  0.00     0.078 A 
ATOM     11  C   UNL A   1      33.554  27.194  25.700  1.00  0.00     0.183 A 
ATOM     12  C   UNL A   1      32.509  29.109  25.909  1.00  0.00     0.143 A 
ATOM     13  C   UNL A   1      33.963  25.941  25.115  1.00  0.00     0.296 A 
ATOM     14  N   UNL A   1      33.980  27.701  26.861  1.00  0.00    -0.074 NA
ATOM     15  O   UNL A   1      33.319  28.909  26.990  1.00  0.00    -0.360 OA
ATOM     16  C   UNL A   1      31.736  30.361  25.940  1.00  0.00     0.091 C 
ATOM     17  O   UNL A   1      34.661  25.135  25.729  1.00  0.00    -0.265 OA
BRANCH   8  18
ATOM     18  C   UNL A   1      30.963  28.392  23.207  1.00  0.00     0.003 A 
ATOM     19  C   UNL A   1      27.763  30.491  21.245  1.00  0.00     0.044 C 
ATOM     20  C   UNL A   1      28.856  29.750  21.965  1.00  0.00    -0.048 A 
ATOM     21  C   UNL A   1      30.191  30.075  21.670  1.00  0.00     0.004 A 
ATOM     22  C   UNL A   1      28.579  28.748  22.920  1.00  0.00    -0.048 A 
ATOM     23  C   UNL A   1      31.241  29.402  22.288  1.00  0.00     0.011 A 
ATOM     24  C   UNL A   1      29.648  28.084  23.549  1.00  0.00     0.014 A 
ATOM     25  C   UNL A   1      27.184  28.332  23.297  1.00  0.00     0.044 C 
ENDBRANCH   8  18
ENDBRANCH   6   7
ENDBRANCH   5   6
ENDBRANCH   3   5
ENDBRANCH   2   3
ENDBRANCH   1   2
BRANCH   1  26
ATOM     26  C   UNL A   1      38.106  22.625  25.478  1.00  0.00     0.275 C 
BRANCH  26  27
ATOM     27  O   UNL A   1      38.579  22.069  26.720  1.00  0.00    -0.458 OA
BRANCH  27  28
ATOM     28  C   UNL A   1      39.921  21.937  26.795  1.00  0.00     0.338 C 
ATOM     29  O   UNL A   1      40.578  20.910  26.714  1.00  0.00    -0.246 OA
BRANCH  28  30
ATOM     30  C   UNL A   1      40.592  23.206  27.070  1.00  0.00     0.060 A 
ATOM     31  C   UNL A   1      40.061  24.159  27.944  1.00  0.00     0.016 A 
ATOM     32  C   UNL A   1      41.662  23.516  26.233  1.00  0.00     0.016 A 
ATOM     33  C   UNL A   1      40.601  25.451  27.958  1.00  0.00     0.010 A 
ATOM     34  C   UNL A   1      42.194  24.796  26.252  1.00  0.00     0.010 A 
ATOM     35  C   UNL A   1      41.670  25.775  27.109  1.00  0.00    -0.014 A 
BRANCH  35  36
ATOM     36  C   UNL A   1      42.303  27.110  27.179  1.00  0.00     0.031 A 
ATOM     37  C   UNL A   1      41.322  28.234  27.248  1.00  0.00     0.074 A 
ATOM     38  C   UNL A   1      43.530  27.320  27.708  1.00  0.00     0.049 A 
ATOM     39  N   UNL A   1      40.699  28.518  28.355  1.00  0.00    -0.248 NA
ATOM     40  C   UNL A   1      40.768  28.896  26.070  1.00  0.00     0.031 C 
ATOM     41  C   UNL A   1      44.216  26.370  28.592  1.00  0.00     0.029 A 
ATOM     42  N   UNL A   1      44.299  28.462  27.781  1.00  0.00    -0.354 N 
ATOM     43  C   UNL A   1      39.625  29.316  28.027  1.00  0.00     0.074 A 
ATOM     44  C   UNL A   1      39.732  29.565  26.605  1.00  0.00     0.031 C 
ATOM     45  C   UNL A   1      45.182  27.028  29.268  1.00  0.00     0.029 A 
ATOM     46  C   UNL A   1      45.297  28.393  28.757  1.00  0.00     0.049 A 
ATOM     47  H   UNL A   1      44.158  29.249  27.206  1.00  0.00     0.167 HD
ATOM     48  C   UNL A   1      38.683  29.681  28.935  1.00  0.00     0.031 A 
ATOM     49  C   UNL A   1      45.751  29.436  29.507  1.00  0.00     0.031 A 
ATOM     50  C   UNL A   1      38.850  29.148  30.256  1.00  0.00     0.049 A 
ATOM     51  C   UNL A   1      44.524  29.829  30.290  1.00  0.00     0.074 A 
ATOM     52  C   UNL A   1      38.399  28.056  30.968  1.00  0.00     0.029 A 
ATOM     53  N   UNL A   1      39.738  29.767  31.103  1.00  0.00    -0.354 N 
ATOM     54  N   UNL A   1      44.066  29.255  31.367  1.00  0.00    -0.248 NA
ATOM     55  C   UNL A   1      43.590  30.755  29.644  1.00  0.00     0.031 C 
ATOM     56  C   UNL A   1      39.372  27.836  31.993  1.00  0.00     0.029 A 
ATOM     57  C   UNL A   1      40.382  28.776  31.802  1.00  0.00     0.049 A 
ATOM     58  H   UNL A   1      39.886  30.736  31.191  1.00  0.00     0.167 HD
ATOM     59  C   UNL A   1      42.697  29.520  31.375  1.00  0.00     0.074 A 
ATOM     60  C   UNL A   1      42.475  30.470  30.301  1.00  0.00     0.031 C 
ATOM     61  C   UNL A   1      41.793  28.825  32.123  1.00  0.00     0.031 A 
BRANCH  48  62
ATOM     62  C   UNL A   1      37.618  30.664  28.665  1.00  0.00    -0.014 A 
ATOM     63  C   UNL A   1      37.900  32.013  28.937  1.00  0.00     0.010 A 
ATOM     64  C   UNL A   1      36.309  30.275  28.353  1.00  0.00     0.010 A 
ATOM     65  C   UNL A   1      36.877  32.957  28.957  1.00  0.00     0.020 A 
ATOM     66  C   UNL A   1      35.280  31.225  28.359  1.00  0.00     0.020 A 
ATOM     67  C   UNL A   1      35.569  32.553  28.687  1.00  0.00     0.054 A 
BRANCH  67  68
ATOM     68  S   UNL A   1      34.252  33.790  28.838  1.00  0.00     0.124 S 
ATOM     69  O   UNL A   1      33.937  33.731  30.263  1.00  0.00    -0.237 OA
ATOM     70  O   UNL A   1      34.920  35.009  28.391  1.00  0.00    -0.237 OA
ATOM     71  O   UNL A   1      33.206  33.292  27.947  1.00  0.00    -0.744 OA
ENDBRANCH  67  68
ENDBRANCH  48  62
BRANCH  49  72
ATOM     72  C   UNL A   1      46.589  30.474  28.816  1.00  0.00    -0.014 A 
ATOM     73  C   UNL A   1      46.811  30.363  27.427  1.00  0.00     0.010 A 
ATOM     74  C   UNL A   1      47.207  31.547  29.485  1.00  0.00     0.010 A 
ATOM     75  C   UNL A   1      47.507  31.349  26.718  1.00  0.00     0.020 A 
ATOM     76  C   UNL A   1      47.882  32.555  28.780  1.00  0.00     0.020 A 
ATOM     77  C   UNL A   1      48.009  32.459  27.395  1.00  0.00     0.054 A 
BRANCH  77  78
ATOM     78  S   UNL A   1      48.764  33.799  26.435  1.00  0.00     0.124 S 
ATOM     79  O   UNL A   1      49.893  33.125  25.799  1.00  0.00    -0.237 OA
ATOM     80  O   UNL A   1      47.679  34.189  25.540  1.00  0.00    -0.237 OA
ATOM     81  O   UNL A   1      49.116  34.792  27.446  1.00  0.00    -0.744 OA
ENDBRANCH  77  78
ENDBRANCH  49  72
BRANCH  61  82
ATOM     82  C   UNL A   1      42.344  27.896  33.160  1.00  0.00    -0.014 A 
ATOM     83  C   UNL A   1      41.731  27.822  34.420  1.00  0.00     0.010 A 
ATOM     84  C   UNL A   1      43.402  27.017  32.861  1.00  0.00     0.010 A 
ATOM     85  C   UNL A   1      42.124  26.850  35.342  1.00  0.00     0.020 A 
ATOM     86  C   UNL A   1      43.791  26.032  33.774  1.00  0.00     0.020 A 
ATOM     87  C   UNL A   1      43.136  25.945  35.005  1.00  0.00     0.054 A 
BRANCH  87  88
ATOM     88  S   UNL A   1      43.527  24.613  36.172  1.00  0.00     0.124 S 
ATOM     89  O   UNL A   1      42.302  23.819  36.171  1.00  0.00    -0.237 OA
ATOM     90  O   UNL A   1      44.686  23.977  35.547  1.00  0.00    -0.237 OA
ATOM     91  O   UNL A   1      43.812  25.313  37.422  1.00  0.00    -0.744 OA
ENDBRANCH  87  88
ENDBRANCH  61  82
ENDBRANCH  35  36
ENDBRANCH  28  30
ENDBRANCH  27  28
ENDBRANCH  26  27
ENDBRANCH   1  26
TORSDOF 17
ENDMDL
MODEL 2
REMARK VINA RESULT:     -11.2      2.830      8.228
REMARK SMILES Cc1ccc(-c2nn(CCC(=O)OCCOC(=O)c3ccc(-c4c5nc(c(-c6ccc(S(=O)(=O)[O-])cc6)c6ccc([nH]6)c(-c6ccc(S(=O)(=O)[O-])cc6)c6nc(c(-c7ccc(S(=O)(=O)[O-])cc7)c7ccc4[nH]7)C=C6)C=C5)cc3)c(=O)c3noc(C)c23)cc1C
REMARK SMILES IDX 14 1 13 2 11 3 12 4 10 5 9 6 8 7 6 8 7 9 86 10 81 11 84 12
REMARK SMILES IDX 79 13 82 14 83 15 85 16 80 17 5 18 1 19 2 20 3 21 88 22 4 23
REMARK SMILES IDX 87 24 89 25 15 26 16 27 17 28 18 29 19 30 20 31 78 32 21 33
REMARK SMILES IDX 77 34 22 35 23 36 24 37 71 38 25 39 76 40 70 41 72 42 26 43
REMARK SMILES IDX 75 44 69 45 68 46 27 48 57 49 38 50 56 51 39 52 42 53 55 54
REMARK SMILES IDX 73 55 40 56 41 57 54 59 74 60 43 61 28 62 29 63 37 64 30 65
REMARK SMILES IDX 36 66 31 67 32 68 33 69 34 70 35 71 58 72 59 73 67 74 60 75
REMARK SMILES IDX 66 76 61 77 62 78 63 79 64 80 65 81 44 82 45 83 53 84 46 85
REMARK SMILES IDX 52 86 47 87 48 88 49 89 50 90 51 91
REMARK H PARENT 72 47 42 58
REMARK Flexibility Score: inf
ROOT
ATOM      1  C   UNL A   1      34.725  32.203  29.769  1.00  0.00     0.274 C 
ENDROOT
BRANCH   1   2
ATOM      2  O   UNL A   1      34.559  31.193  28.758  1.00  0.00    -0.462 OA
BRANCH   2   3
ATOM      3  C   UNL A   1      33.616  31.413  27.816  1.00  0.00     0.307 C 
ATOM      4  O   UNL A   1      33.083  32.495  27.594  1.00  0.00    -0.252 OA
BRANCH   3   5
ATOM      5  C   UNL A   1      33.221  30.146  27.100  1.00  0.00     0.146 C 
BRANCH   5   6
ATOM      6  C   UNL A   1      31.998  30.288  26.194  1.00  0.00     0.160 C 
BRANCH   6   7
ATOM      7  N   UNL A   1      31.812  29.134  25.314  1.00  0.00    -0.227 N 
ATOM      8  C   UNL A   1      32.469  26.906  24.945  1.00  0.00     0.104 A 
ATOM      9  N   UNL A   1      32.509  27.974  25.690  1.00  0.00    -0.169 NA
ATOM     10  C   UNL A   1      31.789  26.943  23.680  1.00  0.00     0.078 A 
ATOM     11  C   UNL A   1      31.032  28.071  23.335  1.00  0.00     0.183 A 
ATOM     12  C   UNL A   1      31.635  26.091  22.613  1.00  0.00     0.143 A 
ATOM     13  C   UNL A   1      30.932  29.210  24.213  1.00  0.00     0.296 A 
ATOM     14  N   UNL A   1      30.473  27.953  22.126  1.00  0.00    -0.074 NA
ATOM     15  O   UNL A   1      30.855  26.703  21.674  1.00  0.00    -0.360 OA
ATOM     16  C   UNL A   1      32.092  24.740  22.251  1.00  0.00     0.091 C 
ATOM     17  O   UNL A   1      30.176  30.150  23.974  1.00  0.00    -0.265 OA
BRANCH   8  18
ATOM     18  C   UNL A   1      33.048  25.653  25.444  1.00  0.00     0.003 A 
ATOM     19  C   UNL A   1      34.506  21.835  26.784  1.00  0.00     0.044 C 
ATOM     20  C   UNL A   1      34.036  23.186  26.318  1.00  0.00    -0.048 A 
ATOM     21  C   UNL A   1      32.709  23.563  26.589  1.00  0.00     0.004 A 
ATOM     22  C   UNL A   1      34.884  24.076  25.623  1.00  0.00    -0.048 A 
ATOM     23  C   UNL A   1      32.216  24.791  26.156  1.00  0.00     0.011 A 
ATOM     24  C   UNL A   1      34.379  25.320  25.204  1.00  0.00     0.014 A 
ATOM     25  C   UNL A   1      36.315  23.756  25.287  1.00  0.00     0.044 C 
ENDBRANCH   8  18
ENDBRANCH   6   7
ENDBRANCH   5   6
ENDBRANCH   3   5
ENDBRANCH   2   3
ENDBRANCH   1   2
BRANCH   1  26
ATOM     26  C   UNL A   1      35.653  31.746  30.897  1.00  0.00     0.275 C 
BRANCH  26  27
ATOM     27  O   UNL A   1      36.947  32.369  30.790  1.00  0.00    -0.458 OA
BRANCH  27  28
ATOM     28  C   UNL A   1      37.433  32.431  29.532  1.00  0.00     0.338 C 
ATOM     29  O   UNL A   1      37.114  33.207  28.644  1.00  0.00    -0.246 OA
BRANCH  28  30
ATOM     30  C   UNL A   1      38.404  31.374  29.255  1.00  0.00     0.060 A 
ATOM     31  C   UNL A   1      39.661  31.335  29.865  1.00  0.00     0.016 A 
ATOM     32  C   UNL A   1      38.104  30.548  28.174  1.00  0.00     0.016 A 
ATOM     33  C   UNL A   1      40.637  30.466  29.363  1.00  0.00     0.010 A 
ATOM     34  C   UNL A   1      39.074  29.689  27.682  1.00  0.00     0.010 A 
ATOM     35  C   UNL A   1      40.348  29.639  28.268  1.00  0.00    -0.014 A 
BRANCH  35  36
ATOM     36  C   UNL A   1      41.344  28.657  27.787  1.00  0.00     0.031 A 
ATOM     37  C   UNL A   1      42.697  29.244  27.553  1.00  0.00     0.074 A 
ATOM     38  C   UNL A   1      41.277  27.336  28.071  1.00  0.00     0.049 A 
ATOM     39  N   UNL A   1      43.499  29.507  28.544  1.00  0.00    -0.248 NA
ATOM     40  C   UNL A   1      43.115  29.831  26.282  1.00  0.00     0.031 C 
ATOM     41  C   UNL A   1      40.469  26.771  29.158  1.00  0.00     0.029 A 
ATOM     42  N   UNL A   1      42.056  26.281  27.647  1.00  0.00    -0.354 N 
ATOM     43  C   UNL A   1      44.472  30.358  28.069  1.00  0.00     0.074 A 
ATOM     44  C   UNL A   1      44.224  30.495  26.650  1.00  0.00     0.031 C 
ATOM     45  C   UNL A   1      40.934  25.537  29.445  1.00  0.00     0.029 A 
ATOM     46  C   UNL A   1      41.954  25.156  28.470  1.00  0.00     0.049 A 
ATOM     47  H   UNL A   1      42.629  26.316  26.847  1.00  0.00     0.167 HD
ATOM     48  C   UNL A   1      45.393  30.939  28.881  1.00  0.00     0.031 A 
ATOM     49  C   UNL A   1      42.958  24.276  28.744  1.00  0.00     0.031 A 
ATOM     50  C   UNL A   1      45.264  30.647  30.280  1.00  0.00     0.049 A 
ATOM     51  C   UNL A   1      43.962  25.143  29.460  1.00  0.00     0.074 A 
ATOM     52  C   UNL A   1      44.662  31.222  31.379  1.00  0.00     0.029 A 
ATOM     53  N   UNL A   1      45.773  29.460  30.748  1.00  0.00    -0.354 N 
ATOM     54  N   UNL A   1      43.934  25.500  30.714  1.00  0.00    -0.248 NA
ATOM     55  C   UNL A   1      44.905  25.896  28.629  1.00  0.00     0.031 C 
ATOM     56  C   UNL A   1      44.448  30.152  32.305  1.00  0.00     0.029 A 
ATOM     57  C   UNL A   1      44.886  28.985  31.683  1.00  0.00     0.049 A 
ATOM     58  H   UNL A   1      46.613  29.031  30.467  1.00  0.00     0.167 HD
ATOM     59  C   UNL A   1      44.636  26.704  30.773  1.00  0.00     0.074 A 
ATOM     60  C   UNL A   1      45.229  26.876  29.460  1.00  0.00     0.031 C 
ATOM     61  C   UNL A   1      44.550  27.583  31.812  1.00  0.00     0.031 A 
BRANCH  48  62
ATOM     62  C   UNL A   1      46.545  31.717  28.392  1.00  0.00    -0.014 A 
ATOM     63  C   UNL A   1      46.317  33.059  28.045  1.00  0.00     0.010 A 
ATOM     64  C   UNL A   1      47.771  31.115  28.079  1.00  0.00     0.010 A 
ATOM     65  C   UNL A   1      47.278  33.778  27.339  1.00  0.00     0.020 A 
ATOM     66  C   UNL A   1      48.745  31.839  27.381  1.00  0.00     0.020 A 
ATOM     67  C   UNL A   1      48.479  33.157  26.993  1.00  0.00     0.054 A 
BRANCH  67  68
ATOM     68  S   UNL A   1      49.653  34.089  25.974  1.00  0.00     0.124 S 
ATOM     69  O   UNL A   1      50.443  33.025  25.362  1.00  0.00    -0.237 OA
ATOM     70  O   UNL A   1      48.767  34.817  25.070  1.00  0.00    -0.237 OA
ATOM     71  O   UNL A   1      50.368  34.918  26.942  1.00  0.00    -0.744 OA
ENDBRANCH  67  68
ENDBRANCH  48  62
BRANCH  49  72
ATOM     72  C   UNL A   1      43.388  23.351  27.642  1.00  0.00    -0.014 A 
ATOM     73  C   UNL A   1      44.741  23.343  27.241  1.00  0.00     0.010 A 
ATOM     74  C   UNL A   1      42.504  22.504  26.946  1.00  0.00     0.010 A 
ATOM     75  C   UNL A   1      45.214  22.439  26.282  1.00  0.00     0.020 A 
ATOM     76  C   UNL A   1      42.971  21.575  26.005  1.00  0.00     0.020 A 
ATOM     77  C   UNL A   1      44.330  21.534  25.695  1.00  0.00     0.054 A 
BRANCH  77  78
ATOM     78  S   UNL A   1      44.992  20.268  24.578  1.00  0.00     0.124 S 
ATOM     79  O   UNL A   1      44.328  19.058  25.053  1.00  0.00    -0.237 OA
ATOM     80  O   UNL A   1      44.558  20.752  23.270  1.00  0.00    -0.237 OA
ATOM     81  O   UNL A   1      46.433  20.325  24.809  1.00  0.00    -0.744 OA
ENDBRANCH  77  78
ENDBRANCH  49  72
BRANCH  61  82
ATOM     82  C   UNL A   1      43.853  27.105  33.048  1.00  0.00    -0.014 A 
ATOM     83  C   UNL A   1      44.571  26.387  34.016  1.00  0.00     0.010 A 
ATOM     84  C   UNL A   1      42.513  27.450  33.307  1.00  0.00     0.010 A 
ATOM     85  C   UNL A   1      43.985  26.074  35.244  1.00  0.00     0.020 A 
ATOM     86  C   UNL A   1      41.925  27.152  34.540  1.00  0.00     0.020 A 
ATOM     87  C   UNL A   1      42.673  26.480  35.508  1.00  0.00     0.054 A 
BRANCH  87  88
ATOM     88  S   UNL A   1      41.991  26.175  37.161  1.00  0.00     0.124 S 
ATOM     89  O   UNL A   1      41.587  24.774  37.085  1.00  0.00    -0.237 OA
ATOM     90  O   UNL A   1      43.134  26.451  38.030  1.00  0.00    -0.237 OA
ATOM     91  O   UNL A   1      40.893  27.132  37.271  1.00  0.00    -0.744 OA
ENDBRANCH  87  88
ENDBRANCH  61  82
ENDBRANCH  35  36
ENDBRANCH  28  30
ENDBRANCH  27  28
ENDBRANCH  26  27
ENDBRANCH   1  26
TORSDOF 17
ENDMDL
MODEL 3
REMARK VINA RESULT:     -11.1      4.434     10.005
REMARK SMILES Cc1ccc(-c2nn(CCC(=O)OCCOC(=O)c3ccc(-c4c5nc(c(-c6ccc(S(=O)(=O)[O-])cc6)c6ccc([nH]6)c(-c6ccc(S(=O)(=O)[O-])cc6)c6nc(c(-c7ccc(S(=O)(=O)[O-])cc7)c7ccc4[nH]7)C=C6)C=C5)cc3)c(=O)c3noc(C)c23)cc1C
REMARK SMILES IDX 14 1 13 2 11 3 12 4 10 5 9 6 8 7 6 8 7 9 86 10 81 11 84 12
REMARK SMILES IDX 79 13 82 14 83 15 85 16 80 17 5 18 1 19 2 20 3 21 88 22 4 23
REMARK SMILES IDX 87 24 89 25 15 26 16 27 17 28 18 29 19 30 20 31 78 32 21 33
REMARK SMILES IDX 77 34 22 35 23 36 24 37 71 38 25 39 76 40 70 41 72 42 26 43
REMARK SMILES IDX 75 44 69 45 68 46 27 48 57 49 38 50 56 51 39 52 42 53 55 54
REMARK SMILES IDX 73 55 40 56 41 57 54 59 74 60 43 61 28 62 29 63 37 64 30 65
REMARK SMILES IDX 36 66 31 67 32 68 33 69 34 70 35 71 58 72 59 73 67 74 60 75
REMARK SMILES IDX 66 76 61 77 62 78 63 79 64 80 65 81 44 82 45 83 53 84 46 85
REMARK SMILES IDX 52 86 47 87 48 88 49 89 50 90 51 91
REMARK H PARENT 72 47 42 58
REMARK Flexibility Score: inf
ROOT
ATOM      1  C   UNL A   1      38.903  27.792  28.572  1.00  0.00     0.274 C 
ENDROOT
BRANCH   1   2
ATOM      2  O   UNL A   1      39.976  27.584  27.637  1.00  0.00    -0.462 OA
BRANCH   2   3
ATOM      3  C   UNL A   1      40.462  26.328  27.527  1.00  0.00     0.307 C 
ATOM      4  O   UNL A   1      41.651  26.039  27.447  1.00  0.00    -0.252 OA
BRANCH   3   5
ATOM      5  C   UNL A   1      39.363  25.299  27.433  1.00  0.00     0.146 C 
BRANCH   5   6
ATOM      6  C   UNL A   1      39.852  23.877  27.162  1.00  0.00     0.160 C 
BRANCH   6   7
ATOM      7  N   UNL A   1      38.848  23.056  26.484  1.00  0.00    -0.227 N 
ATOM      8  C   UNL A   1      36.592  22.981  25.823  1.00  0.00     0.104 A 
ATOM      9  N   UNL A   1      37.581  23.645  26.353  1.00  0.00    -0.169 NA
ATOM     10  C   UNL A   1      36.772  21.603  25.460  1.00  0.00     0.078 A 
ATOM     11  C   UNL A   1      38.052  21.033  25.520  1.00  0.00     0.183 A 
ATOM     12  C   UNL A   1      35.969  20.586  25.002  1.00  0.00     0.143 A 
ATOM     13  C   UNL A   1      39.196  21.794  25.957  1.00  0.00     0.296 A 
ATOM     14  N   UNL A   1      38.048  19.745  25.161  1.00  0.00    -0.074 NA
ATOM     15  O   UNL A   1      36.733  19.467  24.835  1.00  0.00    -0.360 OA
ATOM     16  C   UNL A   1      34.545  20.419  24.669  1.00  0.00     0.091 C 
ATOM     17  O   UNL A   1      40.337  21.340  25.897  1.00  0.00    -0.265 OA
BRANCH   8  18
ATOM     18  C   UNL A   1      35.332  23.672  25.527  1.00  0.00     0.003 A 
ATOM     19  C   UNL A   1      31.648  25.574  24.380  1.00  0.00     0.044 C 
ATOM     20  C   UNL A   1      32.925  24.913  24.822  1.00  0.00    -0.048 A 
ATOM     21  C   UNL A   1      34.058  25.027  23.999  1.00  0.00     0.004 A 
ATOM     22  C   UNL A   1      33.015  24.188  26.031  1.00  0.00    -0.048 A 
ATOM     23  C   UNL A   1      35.257  24.412  24.348  1.00  0.00     0.011 A 
ATOM     24  C   UNL A   1      34.235  23.583  26.381  1.00  0.00     0.014 A 
ATOM     25  C   UNL A   1      31.855  24.011  26.972  1.00  0.00     0.044 C 
ENDBRANCH   8  18
ENDBRANCH   6   7
ENDBRANCH   5   6
ENDBRANCH   3   5
ENDBRANCH   2   3
ENDBRANCH   1   2
BRANCH   1  26
ATOM     26  C   UNL A   1      38.868  29.228  29.102  1.00  0.00     0.275 C 
BRANCH  26  27
ATOM     27  O   UNL A   1      40.176  29.830  29.058  1.00  0.00    -0.458 OA
BRANCH  27  28
ATOM     28  C   UNL A   1      40.775  29.946  30.263  1.00  0.00     0.338 C 
ATOM     29  O   UNL A   1      40.598  30.811  31.107  1.00  0.00    -0.246 OA
BRANCH  28  30
ATOM     30  C   UNL A   1      41.789  28.917  30.483  1.00  0.00     0.060 A 
ATOM     31  C   UNL A   1      41.995  28.324  31.733  1.00  0.00     0.016 A 
ATOM     32  C   UNL A   1      42.698  28.733  29.443  1.00  0.00     0.016 A 
ATOM     33  C   UNL A   1      43.145  27.555  31.944  1.00  0.00     0.010 A 
ATOM     34  C   UNL A   1      43.834  27.969  29.657  1.00  0.00     0.010 A 
ATOM     35  C   UNL A   1      44.071  27.375  30.906  1.00  0.00    -0.014 A 
BRANCH  35  36
ATOM     36  C   UNL A   1      45.244  26.492  31.094  1.00  0.00     0.031 A 
ATOM     37  C   UNL A   1      45.321  25.383  30.097  1.00  0.00     0.074 A 
ATOM     38  C   UNL A   1      46.401  26.910  31.654  1.00  0.00     0.049 A 
ATOM     39  N   UNL A   1      45.730  25.597  28.879  1.00  0.00    -0.248 NA
ATOM     40  C   UNL A   1      44.694  24.078  30.289  1.00  0.00     0.031 C 
ATOM     41  C   UNL A   1      46.781  28.320  31.798  1.00  0.00     0.029 A 
ATOM     42  N   UNL A   1      47.550  26.218  31.978  1.00  0.00    -0.354 N 
ATOM     43  C   UNL A   1      45.345  24.513  28.122  1.00  0.00     0.074 A 
ATOM     44  C   UNL A   1      44.747  23.572  29.046  1.00  0.00     0.031 C 
ATOM     45  C   UNL A   1      48.116  28.392  31.985  1.00  0.00     0.029 A 
ATOM     46  C   UNL A   1      48.664  27.045  32.138  1.00  0.00     0.049 A 
ATOM     47  H   UNL A   1      47.582  25.240  32.084  1.00  0.00     0.167 HD
ATOM     48  C   UNL A   1      45.494  24.476  26.773  1.00  0.00     0.031 A 
ATOM     49  C   UNL A   1      49.949  26.721  31.818  1.00  0.00     0.031 A 
ATOM     50  C   UNL A   1      46.041  25.659  26.173  1.00  0.00     0.049 A 
ATOM     51  C   UNL A   1      49.871  26.524  30.326  1.00  0.00     0.074 A 
ATOM     52  C   UNL A   1      45.557  26.811  25.590  1.00  0.00     0.029 A 
ATOM     53  N   UNL A   1      47.404  25.835  26.201  1.00  0.00    -0.354 N 
ATOM     54  N   UNL A   1      49.880  27.454  29.412  1.00  0.00    -0.248 NA
ATOM     55  C   UNL A   1      49.462  25.200  29.849  1.00  0.00     0.031 C 
ATOM     56  C   UNL A   1      46.600  27.780  25.728  1.00  0.00     0.029 A 
ATOM     57  C   UNL A   1      47.631  27.168  26.437  1.00  0.00     0.049 A 
ATOM     58  H   UNL A   1      48.087  25.138  26.077  1.00  0.00     0.167 HD
ATOM     59  C   UNL A   1      49.206  26.908  28.320  1.00  0.00     0.074 A 
ATOM     60  C   UNL A   1      49.000  25.509  28.646  1.00  0.00     0.031 C 
ATOM     61  C   UNL A   1      48.692  27.649  27.297  1.00  0.00     0.031 A 
BRANCH  48  62
ATOM     62  C   UNL A   1      45.251  23.277  25.951  1.00  0.00    -0.014 A 
ATOM     63  C   UNL A   1      44.047  22.583  26.162  1.00  0.00     0.010 A 
ATOM     64  C   UNL A   1      46.247  22.714  25.142  1.00  0.00     0.010 A 
ATOM     65  C   UNL A   1      43.861  21.314  25.621  1.00  0.00     0.020 A 
ATOM     66  C   UNL A   1      46.057  21.443  24.586  1.00  0.00     0.020 A 
ATOM     67  C   UNL A   1      44.876  20.742  24.853  1.00  0.00     0.054 A 
BRANCH  67  68
ATOM     68  S   UNL A   1      44.640  19.044  24.267  1.00  0.00     0.124 S 
ATOM     69  O   UNL A   1      44.471  19.234  22.829  1.00  0.00    -0.237 OA
ATOM     70  O   UNL A   1      45.886  18.400  24.675  1.00  0.00    -0.237 OA
ATOM     71  O   UNL A   1      43.447  18.594  24.981  1.00  0.00    -0.744 OA
ENDBRANCH  67  68
ENDBRANCH  48  62
BRANCH  49  72
ATOM     72  C   UNL A   1      50.648  25.719  32.691  1.00  0.00    -0.014 A 
ATOM     73  C   UNL A   1      49.888  24.953  33.601  1.00  0.00     0.010 A 
ATOM     74  C   UNL A   1      52.042  25.518  32.685  1.00  0.00     0.010 A 
ATOM     75  C   UNL A   1      50.474  23.943  34.374  1.00  0.00     0.020 A 
ATOM     76  C   UNL A   1      52.634  24.490  33.433  1.00  0.00     0.020 A 
ATOM     77  C   UNL A   1      51.841  23.694  34.258  1.00  0.00     0.054 A 
BRANCH  77  78
ATOM     78  S   UNL A   1      52.548  22.279  35.145  1.00  0.00     0.124 S 
ATOM     79  O   UNL A   1      51.402  21.382  35.259  1.00  0.00    -0.237 OA
ATOM     80  O   UNL A   1      53.603  21.840  34.237  1.00  0.00    -0.237 OA
ATOM     81  O   UNL A   1      53.016  22.859  36.401  1.00  0.00    -0.744 OA
ENDBRANCH  77  78
ENDBRANCH  49  72
BRANCH  61  82
ATOM     82  C   UNL A   1      49.087  29.092  27.240  1.00  0.00    -0.014 A 
ATOM     83  C   UNL A   1      50.307  29.453  26.647  1.00  0.00     0.010 A 
ATOM     84  C   UNL A   1      48.213  30.104  27.677  1.00  0.00     0.010 A 
ATOM     85  C   UNL A   1      50.620  30.798  26.437  1.00  0.00     0.020 A 
ATOM     86  C   UNL A   1      48.515  31.451  27.458  1.00  0.00     0.020 A 
ATOM     87  C   UNL A   1      49.712  31.788  26.821  1.00  0.00     0.054 A 
BRANCH  87  88
ATOM     88  S   UNL A   1      50.091  33.514  26.412  1.00  0.00     0.124 S 
ATOM     89  O   UNL A   1      48.795  34.169  26.564  1.00  0.00    -0.237 OA
ATOM     90  O   UNL A   1      51.091  33.865  27.419  1.00  0.00    -0.237 OA
ATOM     91  O   UNL A   1      50.596  33.449  25.043  1.00  0.00    -0.744 OA
ENDBRANCH  87  88
ENDBRANCH  61  82
ENDBRANCH  35  36
ENDBRANCH  28  30
ENDBRANCH  27  28
ENDBRANCH  26  27
ENDBRANCH   1  26
TORSDOF 17
ENDMDL
