MODEL 1
REMARK VINA RESULT:     -10.6      0.000      0.000
REMARK SMILES CCCc1cc(OC(F)(F)F)cc2c1O[C@@H](C(F)(F)F)C(C(=O)OCCOC(=O)c1ccc(-c3c4nc(c(-c5ccc(S(=O)(=O)[O-])cc5)c5ccc([nH]5)c(-c5ccc(S(=O)(=O)[O-])cc5)c5nc(c(-c6ccc(S(=O)(=O)[O-])cc6)c6ccc3[nH]6)C=C5)C=C4)cc1)=C2
REMARK SMILES IDX 26 1 25 2 24 3 22 4 23 5 21 6 4 7 5 8 14 9 6 10 13 11 15 12
REMARK SMILES IDX 12 13 90 14 16 15 3 16 2 17 1 18 7 19 8 20 9 21 10 22 11 23
REMARK SMILES IDX 17 24 18 25 19 26 20 27 27 28 28 29 29 30 30 31 31 32 89 33
REMARK SMILES IDX 32 34 88 35 33 36 34 37 35 38 82 39 36 40 87 41 81 42 83 43
REMARK SMILES IDX 37 44 86 45 80 46 79 47 38 49 68 50 49 51 67 52 50 53 53 54
REMARK SMILES IDX 66 55 84 56 51 57 52 58 65 60 85 61 54 62 39 63 40 64 48 65
REMARK SMILES IDX 41 66 47 67 42 68 43 69 44 70 45 71 46 72 69 73 70 74 78 75
REMARK SMILES IDX 71 76 77 77 72 78 73 79 74 80 75 81 76 82 55 83 56 84 64 85
REMARK SMILES IDX 57 86 63 87 58 88 59 89 60 90 61 91 62 92
REMARK H PARENT 83 48 53 59
REMARK Flexibility Score: inf
ROOT
ATOM      1  C   UNL A   1      32.237  30.919  26.979  1.00  0.00     0.275 C 
ENDROOT
BRANCH   1   2
ATOM      2  C   UNL A   1      31.612  29.864  26.062  1.00  0.00     0.275 C 
BRANCH   2   3
ATOM      3  O   UNL A   1      32.507  28.753  25.849  1.00  0.00    -0.459 OA
BRANCH   3   4
ATOM      4  C   UNL A   1      32.117  27.561  26.366  1.00  0.00     0.338 C 
ATOM      5  O   UNL A   1      31.396  27.416  27.337  1.00  0.00    -0.246 OA
BRANCH   4   6
ATOM      6  C   UNL A   1      32.646  26.425  25.579  1.00  0.00     0.087 C 
ATOM      7  C   UNL A   1      33.904  23.157  23.277  1.00  0.00    -0.002 A 
ATOM      8  C   UNL A   1      35.231  22.718  23.399  1.00  0.00     0.054 A 
ATOM      9  C   UNL A   1      33.468  24.182  24.134  1.00  0.00     0.131 A 
ATOM     10  C   UNL A   1      36.072  23.235  24.391  1.00  0.00     0.130 A 
ATOM     11  C   UNL A   1      34.324  24.775  25.069  1.00  0.00     0.021 A 
ATOM     12  O   UNL A   1      32.146  24.531  24.075  1.00  0.00    -0.475 OA
ATOM     13  C   UNL A   1      35.626  24.286  25.199  1.00  0.00     0.058 A 
ATOM     14  C   UNL A   1      33.828  25.871  25.903  1.00  0.00     0.027 C 
ATOM     15  C   UNL A   1      31.843  25.914  24.397  1.00  0.00     0.316 C 
BRANCH   7  16
ATOM     16  C   UNL A   1      32.982  22.635  22.191  1.00  0.00     0.039 C 
BRANCH  16  17
ATOM     17  C   UNL A   1      32.025  21.493  22.554  1.00  0.00     0.001 C 
ATOM     18  C   UNL A   1      32.522  20.649  23.719  1.00  0.00     0.004 C 
ENDBRANCH  16  17
ENDBRANCH   7  16
BRANCH  10  19
ATOM     19  O   UNL A   1      37.347  22.808  24.643  1.00  0.00    -0.406 OA
BRANCH  19  20
ATOM     20  C   UNL A   1      37.482  21.640  25.439  1.00  0.00     0.573 C 
ATOM     21  F   UNL A   1      38.503  21.747  26.318  1.00  0.00    -0.132 F 
ATOM     22  F   UNL A   1      36.339  21.375  26.106  1.00  0.00    -0.132 F 
ATOM     23  F   UNL A   1      37.746  20.591  24.628  1.00  0.00    -0.132 F 
ENDBRANCH  19  20
ENDBRANCH  10  19
BRANCH  15  24
ATOM     24  C   UNL A   1      30.308  26.040  24.433  1.00  0.00     0.430 C 
ATOM     25  F   UNL A   1      29.901  27.306  24.194  1.00  0.00    -0.167 F 
ATOM     26  F   UNL A   1      29.757  25.284  23.446  1.00  0.00    -0.167 F 
ATOM     27  F   UNL A   1      29.779  25.615  25.599  1.00  0.00    -0.167 F 
ENDBRANCH  15  24
ENDBRANCH   4   6
ENDBRANCH   3   4
ENDBRANCH   2   3
ENDBRANCH   1   2
BRANCH   1  28
ATOM     28  O   UNL A   1      33.642  30.678  27.180  1.00  0.00    -0.458 OA
BRANCH  28  29
ATOM     29  C   UNL A   1      34.334  31.725  27.692  1.00  0.00     0.338 C 
ATOM     30  O   UNL A   1      33.942  32.875  27.797  1.00  0.00    -0.246 OA
BRANCH  29  31
ATOM     31  C   UNL A   1      35.599  31.251  28.288  1.00  0.00     0.060 A 
ATOM     32  C   UNL A   1      35.564  30.024  28.958  1.00  0.00     0.016 A 
ATOM     33  C   UNL A   1      36.790  31.976  28.219  1.00  0.00     0.016 A 
ATOM     34  C   UNL A   1      36.724  29.476  29.498  1.00  0.00     0.010 A 
ATOM     35  C   UNL A   1      37.945  31.457  28.815  1.00  0.00     0.010 A 
ATOM     36  C   UNL A   1      37.918  30.202  29.449  1.00  0.00    -0.014 A 
BRANCH  36  37
ATOM     37  C   UNL A   1      39.109  29.702  30.170  1.00  0.00     0.031 A 
ATOM     38  C   UNL A   1      39.540  30.398  31.428  1.00  0.00     0.074 A 
ATOM     39  C   UNL A   1      39.788  28.634  29.714  1.00  0.00     0.049 A 
ATOM     40  N   UNL A   1      40.602  30.194  32.162  1.00  0.00    -0.248 NA
ATOM     41  C   UNL A   1      38.649  31.456  31.933  1.00  0.00     0.031 C 
ATOM     42  C   UNL A   1      39.404  27.816  28.564  1.00  0.00     0.029 A 
ATOM     43  N   UNL A   1      40.952  28.061  30.163  1.00  0.00    -0.354 N 
ATOM     44  C   UNL A   1      40.511  31.099  33.211  1.00  0.00     0.074 A 
ATOM     45  C   UNL A   1      39.292  31.853  33.022  1.00  0.00     0.031 C 
ATOM     46  C   UNL A   1      40.334  26.861  28.381  1.00  0.00     0.029 A 
ATOM     47  C   UNL A   1      41.396  27.029  29.371  1.00  0.00     0.049 A 
ATOM     48  H   UNL A   1      41.422  28.360  30.974  1.00  0.00     0.167 HD
ATOM     49  C   UNL A   1      41.377  31.294  34.234  1.00  0.00     0.031 A 
ATOM     50  C   UNL A   1      42.549  26.330  29.417  1.00  0.00     0.031 A 
ATOM     51  C   UNL A   1      42.614  30.578  34.386  1.00  0.00     0.049 A 
ATOM     52  C   UNL A   1      43.562  26.657  30.486  1.00  0.00     0.074 A 
ATOM     53  C   UNL A   1      43.584  30.734  35.358  1.00  0.00     0.029 A 
ATOM     54  N   UNL A   1      43.056  29.580  33.531  1.00  0.00    -0.354 N 
ATOM     55  N   UNL A   1      43.476  27.529  31.463  1.00  0.00    -0.248 NA
ATOM     56  C   UNL A   1      44.829  25.912  30.457  1.00  0.00     0.031 C 
ATOM     57  C   UNL A   1      44.640  29.866  35.061  1.00  0.00     0.029 A 
ATOM     58  C   UNL A   1      44.298  29.128  33.939  1.00  0.00     0.049 A 
ATOM     59  H   UNL A   1      42.561  29.244  32.750  1.00  0.00     0.167 HD
ATOM     60  C   UNL A   1      44.662  27.414  32.182  1.00  0.00     0.074 A 
ATOM     61  C   UNL A   1      45.449  26.389  31.529  1.00  0.00     0.031 C 
ATOM     62  C   UNL A   1      45.059  28.092  33.286  1.00  0.00     0.031 A 
BRANCH  49  63
ATOM     63  C   UNL A   1      41.042  32.375  35.222  1.00  0.00    -0.014 A 
ATOM     64  C   UNL A   1      41.473  33.699  35.030  1.00  0.00     0.010 A 
ATOM     65  C   UNL A   1      40.270  32.061  36.355  1.00  0.00     0.010 A 
ATOM     66  C   UNL A   1      41.172  34.683  35.976  1.00  0.00     0.020 A 
ATOM     67  C   UNL A   1      39.948  33.046  37.291  1.00  0.00     0.020 A 
ATOM     68  C   UNL A   1      40.417  34.347  37.105  1.00  0.00     0.054 A 
BRANCH  68  69
ATOM     69  S   UNL A   1      40.039  35.642  38.317  1.00  0.00     0.124 S 
ATOM     70  O   UNL A   1      41.308  35.762  39.033  1.00  0.00    -0.237 OA
ATOM     71  O   UNL A   1      39.686  36.781  37.474  1.00  0.00    -0.237 OA
ATOM     72  O   UNL A   1      38.938  35.080  39.095  1.00  0.00    -0.744 OA
ENDBRANCH  68  69
ENDBRANCH  49  63
BRANCH  50  73
ATOM     73  C   UNL A   1      42.836  25.292  28.390  1.00  0.00    -0.014 A 
ATOM     74  C   UNL A   1      43.464  25.629  27.178  1.00  0.00     0.010 A 
ATOM     75  C   UNL A   1      42.467  23.952  28.616  1.00  0.00     0.010 A 
ATOM     76  C   UNL A   1      43.701  24.650  26.206  1.00  0.00     0.020 A 
ATOM     77  C   UNL A   1      42.727  22.967  27.659  1.00  0.00     0.020 A 
ATOM     78  C   UNL A   1      43.331  23.326  26.453  1.00  0.00     0.054 A 
BRANCH  78  79
ATOM     79  S   UNL A   1      43.681  22.065  25.195  1.00  0.00     0.124 S 
ATOM     80  O   UNL A   1      42.674  21.052  25.493  1.00  0.00    -0.237 OA
ATOM     81  O   UNL A   1      43.489  22.801  23.946  1.00  0.00    -0.237 OA
ATOM     82  O   UNL A   1      45.062  21.678  25.474  1.00  0.00    -0.744 OA
ENDBRANCH  78  79
ENDBRANCH  50  73
BRANCH  62  83
ATOM     83  C   UNL A   1      46.380  27.723  33.906  1.00  0.00    -0.014 A 
ATOM     84  C   UNL A   1      47.566  28.385  33.546  1.00  0.00     0.010 A 
ATOM     85  C   UNL A   1      46.407  26.782  34.953  1.00  0.00     0.010 A 
ATOM     86  C   UNL A   1      48.757  28.111  34.224  1.00  0.00     0.020 A 
ATOM     87  C   UNL A   1      47.591  26.523  35.646  1.00  0.00     0.020 A 
ATOM     88  C   UNL A   1      48.761  27.188  35.275  1.00  0.00     0.054 A 
BRANCH  88  89
ATOM     89  S   UNL A   1      50.297  26.925  36.205  1.00  0.00     0.124 S 
ATOM     90  O   UNL A   1      51.050  28.138  35.899  1.00  0.00    -0.237 OA
ATOM     91  O   UNL A   1      49.823  26.810  37.582  1.00  0.00    -0.237 OA
ATOM     92  O   UNL A   1      50.840  25.694  35.635  1.00  0.00    -0.744 OA
ENDBRANCH  88  89
ENDBRANCH  62  83
ENDBRANCH  36  37
ENDBRANCH  29  31
ENDBRANCH  28  29
ENDBRANCH   1  28
TORSDOF 19
ENDMDL
MODEL 2
REMARK VINA RESULT:     -10.5      2.541      3.161
REMARK SMILES CCCc1cc(OC(F)(F)F)cc2c1O[C@@H](C(F)(F)F)C(C(=O)OCCOC(=O)c1ccc(-c3c4nc(c(-c5ccc(S(=O)(=O)[O-])cc5)c5ccc([nH]5)c(-c5ccc(S(=O)(=O)[O-])cc5)c5nc(c(-c6ccc(S(=O)(=O)[O-])cc6)c6ccc3[nH]6)C=C5)C=C4)cc1)=C2
REMARK SMILES IDX 26 1 25 2 24 3 22 4 23 5 21 6 4 7 5 8 14 9 6 10 13 11 15 12
REMARK SMILES IDX 12 13 90 14 16 15 3 16 2 17 1 18 7 19 8 20 9 21 10 22 11 23
REMARK SMILES IDX 17 24 18 25 19 26 20 27 27 28 28 29 29 30 30 31 31 32 89 33
REMARK SMILES IDX 32 34 88 35 33 36 34 37 35 38 82 39 36 40 87 41 81 42 83 43
REMARK SMILES IDX 37 44 86 45 80 46 79 47 38 49 68 50 49 51 67 52 50 53 53 54
REMARK SMILES IDX 66 55 84 56 51 57 52 58 65 60 85 61 54 62 39 63 40 64 48 65
REMARK SMILES IDX 41 66 47 67 42 68 43 69 44 70 45 71 46 72 69 73 70 74 78 75
REMARK SMILES IDX 71 76 77 77 72 78 73 79 74 80 75 81 76 82 55 83 56 84 64 85
REMARK SMILES IDX 57 86 63 87 58 88 59 89 60 90 61 91 62 92
REMARK H PARENT 83 48 53 59
REMARK Flexibility Score: inf
ROOT
ATOM      1  C   UNL A   1      32.495  30.052  27.071  1.00  0.00     0.275 C 
ENDROOT
BRANCH   1   2
ATOM      2  C   UNL A   1      32.296  29.885  25.562  1.00  0.00     0.275 C 
BRANCH   2   3
ATOM      3  O   UNL A   1      32.997  28.727  25.063  1.00  0.00    -0.459 OA
BRANCH   3   4
ATOM      4  C   UNL A   1      32.455  28.118  23.979  1.00  0.00     0.338 C 
ATOM      5  O   UNL A   1      31.823  28.676  23.099  1.00  0.00    -0.246 OA
BRANCH   4   6
ATOM      6  C   UNL A   1      32.752  26.668  23.960  1.00  0.00     0.087 C 
ATOM      7  C   UNL A   1      33.350  22.521  23.959  1.00  0.00    -0.002 A 
ATOM      8  C   UNL A   1      34.662  22.029  23.901  1.00  0.00     0.054 A 
ATOM      9  C   UNL A   1      33.171  23.911  24.068  1.00  0.00     0.131 A 
ATOM     10  C   UNL A   1      35.759  22.890  24.020  1.00  0.00     0.130 A 
ATOM     11  C   UNL A   1      34.257  24.793  24.095  1.00  0.00     0.021 A 
ATOM     12  O   UNL A   1      31.891  24.370  24.227  1.00  0.00    -0.475 OA
ATOM     13  C   UNL A   1      35.552  24.272  24.081  1.00  0.00     0.058 A 
ATOM     14  C   UNL A   1      34.009  26.234  24.163  1.00  0.00     0.027 C 
ATOM     15  C   UNL A   1      31.623  25.691  23.689  1.00  0.00     0.316 C 
BRANCH   7  16
ATOM     16  C   UNL A   1      32.144  21.613  23.801  1.00  0.00     0.039 C 
BRANCH  16  17
ATOM     17  C   UNL A   1      32.398  20.109  23.649  1.00  0.00     0.001 C 
ATOM     18  C   UNL A   1      32.480  19.381  24.983  1.00  0.00     0.004 C 
ENDBRANCH  16  17
ENDBRANCH   7  16
BRANCH  10  19
ATOM     19  O   UNL A   1      37.069  22.495  24.063  1.00  0.00    -0.406 OA
BRANCH  19  20
ATOM     20  C   UNL A   1      37.662  22.395  25.349  1.00  0.00     0.573 C 
ATOM     21  F   UNL A   1      36.813  21.860  26.254  1.00  0.00    -0.132 F 
ATOM     22  F   UNL A   1      38.793  21.661  25.304  1.00  0.00    -0.132 F 
ATOM     23  F   UNL A   1      37.987  23.637  25.774  1.00  0.00    -0.132 F 
ENDBRANCH  19  20
ENDBRANCH  10  19
BRANCH  15  24
ATOM     24  C   UNL A   1      30.194  26.070  24.121  1.00  0.00     0.430 C 
ATOM     25  F   UNL A   1      29.533  26.733  23.147  1.00  0.00    -0.167 F 
ATOM     26  F   UNL A   1      29.468  24.945  24.361  1.00  0.00    -0.167 F 
ATOM     27  F   UNL A   1      30.172  26.804  25.253  1.00  0.00    -0.167 F 
ENDBRANCH  15  24
ENDBRANCH   4   6
ENDBRANCH   3   4
ENDBRANCH   2   3
ENDBRANCH   1   2
BRANCH   1  28
ATOM     28  O   UNL A   1      33.816  29.649  27.478  1.00  0.00    -0.458 OA
BRANCH  28  29
ATOM     29  C   UNL A   1      34.566  30.630  28.036  1.00  0.00     0.338 C 
ATOM     30  O   UNL A   1      34.171  31.717  28.425  1.00  0.00    -0.246 OA
BRANCH  29  31
ATOM     31  C   UNL A   1      35.936  30.139  28.284  1.00  0.00     0.060 A 
ATOM     32  C   UNL A   1      36.214  29.655  29.566  1.00  0.00     0.016 A 
ATOM     33  C   UNL A   1      36.937  30.157  27.310  1.00  0.00     0.016 A 
ATOM     34  C   UNL A   1      37.463  29.120  29.868  1.00  0.00     0.010 A 
ATOM     35  C   UNL A   1      38.212  29.677  27.629  1.00  0.00     0.010 A 
ATOM     36  C   UNL A   1      38.477  29.149  28.905  1.00  0.00    -0.014 A 
BRANCH  36  37
ATOM     37  C   UNL A   1      39.849  28.739  29.276  1.00  0.00     0.031 A 
ATOM     38  C   UNL A   1      40.740  29.730  29.968  1.00  0.00     0.074 A 
ATOM     39  C   UNL A   1      40.290  27.497  29.008  1.00  0.00     0.049 A 
ATOM     40  N   UNL A   1      42.000  29.621  30.293  1.00  0.00    -0.248 NA
ATOM     41  C   UNL A   1      40.122  31.009  30.357  1.00  0.00     0.031 C 
ATOM     42  C   UNL A   1      39.484  26.419  28.435  1.00  0.00     0.029 A 
ATOM     43  N   UNL A   1      41.532  26.937  29.178  1.00  0.00    -0.354 N 
ATOM     44  C   UNL A   1      42.330  30.815  30.920  1.00  0.00     0.074 A 
ATOM     45  C   UNL A   1      41.139  31.636  30.932  1.00  0.00     0.031 C 
ATOM     46  C   UNL A   1      40.262  25.333  28.275  1.00  0.00     0.029 A 
ATOM     47  C   UNL A   1      41.626  25.655  28.693  1.00  0.00     0.049 A 
ATOM     48  H   UNL A   1      42.282  27.407  29.608  1.00  0.00     0.167 HD
ATOM     49  C   UNL A   1      43.526  31.200  31.427  1.00  0.00     0.031 A 
ATOM     50  C   UNL A   1      42.701  24.850  28.562  1.00  0.00     0.031 A 
ATOM     51  C   UNL A   1      44.718  30.401  31.363  1.00  0.00     0.049 A 
ATOM     52  C   UNL A   1      44.051  25.351  29.010  1.00  0.00     0.074 A 
ATOM     53  C   UNL A   1      45.991  30.718  31.803  1.00  0.00     0.029 A 
ATOM     54  N   UNL A   1      44.787  29.131  30.811  1.00  0.00    -0.354 N 
ATOM     55  N   UNL A   1      44.357  26.491  29.584  1.00  0.00    -0.248 NA
ATOM     56  C   UNL A   1      45.202  24.463  28.789  1.00  0.00     0.031 C 
ATOM     57  C   UNL A   1      46.841  29.660  31.469  1.00  0.00     0.029 A 
ATOM     58  C   UNL A   1      46.086  28.660  30.876  1.00  0.00     0.049 A 
ATOM     59  H   UNL A   1      44.025  28.638  30.430  1.00  0.00     0.167 HD
ATOM     60  C   UNL A   1      45.727  26.443  29.820  1.00  0.00     0.074 A 
ATOM     61  C   UNL A   1      46.192  25.163  29.329  1.00  0.00     0.031 C 
ATOM     62  C   UNL A   1      46.526  27.373  30.398  1.00  0.00     0.031 A 
BRANCH  49  63
ATOM     63  C   UNL A   1      43.608  32.575  32.027  1.00  0.00    -0.014 A 
ATOM     64  C   UNL A   1      43.873  33.703  31.232  1.00  0.00     0.010 A 
ATOM     65  C   UNL A   1      43.404  32.740  33.409  1.00  0.00     0.010 A 
ATOM     66  C   UNL A   1      43.971  34.969  31.816  1.00  0.00     0.020 A 
ATOM     67  C   UNL A   1      43.479  34.006  33.993  1.00  0.00     0.020 A 
ATOM     68  C   UNL A   1      43.781  35.111  33.195  1.00  0.00     0.054 A 
BRANCH  68  69
ATOM     69  S   UNL A   1      43.913  36.764  33.928  1.00  0.00     0.124 S 
ATOM     70  O   UNL A   1      44.462  37.542  32.819  1.00  0.00    -0.237 OA
ATOM     71  O   UNL A   1      42.530  37.071  34.283  1.00  0.00    -0.237 OA
ATOM     72  O   UNL A   1      44.816  36.572  35.059  1.00  0.00    -0.744 OA
ENDBRANCH  68  69
ENDBRANCH  49  63
BRANCH  50  73
ATOM     73  C   UNL A   1      42.559  23.509  27.930  1.00  0.00    -0.014 A 
ATOM     74  C   UNL A   1      42.011  22.429  28.643  1.00  0.00     0.010 A 
ATOM     75  C   UNL A   1      42.988  23.303  26.605  1.00  0.00     0.010 A 
ATOM     76  C   UNL A   1      41.911  21.165  28.049  1.00  0.00     0.020 A 
ATOM     77  C   UNL A   1      42.864  22.049  26.000  1.00  0.00     0.020 A 
ATOM     78  C   UNL A   1      42.339  20.984  26.732  1.00  0.00     0.054 A 
BRANCH  78  79
ATOM     79  S   UNL A   1      42.165  19.346  25.969  1.00  0.00     0.124 S 
ATOM     80  O   UNL A   1      42.986  19.483  24.769  1.00  0.00    -0.237 OA
ATOM     81  O   UNL A   1      42.695  18.457  27.001  1.00  0.00    -0.237 OA
ATOM     82  O   UNL A   1      40.728  19.228  25.734  1.00  0.00    -0.744 OA
ENDBRANCH  78  79
ENDBRANCH  50  73
BRANCH  62  83
ATOM     83  C   UNL A   1      47.981  27.036  30.589  1.00  0.00    -0.014 A 
ATOM     84  C   UNL A   1      48.964  27.520  29.709  1.00  0.00     0.010 A 
ATOM     85  C   UNL A   1      48.375  26.325  31.738  1.00  0.00     0.010 A 
ATOM     86  C   UNL A   1      50.318  27.297  29.977  1.00  0.00     0.020 A 
ATOM     87  C   UNL A   1      49.727  26.120  32.020  1.00  0.00     0.020 A 
ATOM     88  C   UNL A   1      50.691  26.606  31.135  1.00  0.00     0.054 A 
BRANCH  88  89
ATOM     89  S   UNL A   1      52.457  26.418  31.512  1.00  0.00     0.124 S 
ATOM     90  O   UNL A   1      53.081  26.826  30.257  1.00  0.00    -0.237 OA
ATOM     91  O   UNL A   1      52.644  27.335  32.634  1.00  0.00    -0.237 OA
ATOM     92  O   UNL A   1      52.591  25.002  31.844  1.00  0.00    -0.744 OA
ENDBRANCH  88  89
ENDBRANCH  62  83
ENDBRANCH  36  37
ENDBRANCH  29  31
ENDBRANCH  28  29
ENDBRANCH   1  28
TORSDOF 19
ENDMDL
MODEL 3
REMARK VINA RESULT:     -10.3      2.770      9.254
REMARK SMILES CCCc1cc(OC(F)(F)F)cc2c1O[C@@H](C(F)(F)F)C(C(=O)OCCOC(=O)c1ccc(-c3c4nc(c(-c5ccc(S(=O)(=O)[O-])cc5)c5ccc([nH]5)c(-c5ccc(S(=O)(=O)[O-])cc5)c5nc(c(-c6ccc(S(=O)(=O)[O-])cc6)c6ccc3[nH]6)C=C5)C=C4)cc1)=C2
REMARK SMILES IDX 26 1 25 2 24 3 22 4 23 5 21 6 4 7 5 8 14 9 6 10 13 11 15 12
REMARK SMILES IDX 12 13 90 14 16 15 3 16 2 17 1 18 7 19 8 20 9 21 10 22 11 23
REMARK SMILES IDX 17 24 18 25 19 26 20 27 27 28 28 29 29 30 30 31 31 32 89 33
REMARK SMILES IDX 32 34 88 35 33 36 34 37 35 38 82 39 36 40 87 41 81 42 83 43
REMARK SMILES IDX 37 44 86 45 80 46 79 47 38 49 68 50 49 51 67 52 50 53 53 54
REMARK SMILES IDX 66 55 84 56 51 57 52 58 65 60 85 61 54 62 39 63 40 64 48 65
REMARK SMILES IDX 41 66 47 67 42 68 43 69 44 70 45 71 46 72 69 73 70 74 78 75
REMARK SMILES IDX 71 76 77 77 72 78 73 79 74 80 75 81 76 82 55 83 56 84 64 85
REMARK SMILES IDX 57 86 63 87 58 88 59 89 60 90 61 91 62 92
REMARK H PARENT 83 48 53 59
REMARK Flexibility Score: inf
ROOT
ATOM      1  C   UNL A   1      38.746  23.115  26.120  1.00  0.00     0.275 C 
ENDROOT
BRANCH   1   2
ATOM      2  C   UNL A   1      37.431  23.894  26.016  1.00  0.00     0.275 C 
BRANCH   2   3
ATOM      3  O   UNL A   1      36.429  23.141  25.302  1.00  0.00    -0.459 OA
BRANCH   3   4
ATOM      4  C   UNL A   1      35.213  23.046  25.896  1.00  0.00     0.338 C 
ATOM      5  O   UNL A   1      34.889  22.195  26.706  1.00  0.00    -0.246 OA
BRANCH   4   6
ATOM      6  C   UNL A   1      34.310  24.139  25.472  1.00  0.00     0.087 C 
ATOM      7  C   UNL A   1      31.659  27.076  24.094  1.00  0.00    -0.002 A 
ATOM      8  C   UNL A   1      31.794  28.387  24.577  1.00  0.00     0.054 A 
ATOM      9  C   UNL A   1      32.621  26.128  24.481  1.00  0.00     0.131 A 
ATOM     10  C   UNL A   1      32.892  28.754  25.362  1.00  0.00     0.130 A 
ATOM     11  C   UNL A   1      33.675  26.458  25.341  1.00  0.00     0.021 A 
ATOM     12  O   UNL A   1      32.537  24.882  23.922  1.00  0.00    -0.475 OA
ATOM     13  C   UNL A   1      33.809  27.780  25.771  1.00  0.00     0.058 A 
ATOM     14  C   UNL A   1      34.621  25.418  25.749  1.00  0.00     0.027 C 
ATOM     15  C   UNL A   1      33.026  23.789  24.742  1.00  0.00     0.316 C 
BRANCH   7  16
ATOM     16  C   UNL A   1      30.462  26.645  23.266  1.00  0.00     0.039 C 
BRANCH  16  17
ATOM     17  C   UNL A   1      29.096  27.245  23.618  1.00  0.00     0.001 C 
ATOM     18  C   UNL A   1      28.780  28.507  22.829  1.00  0.00     0.004 C 
ENDBRANCH  16  17
ENDBRANCH   7  16
BRANCH  10  19
ATOM     19  O   UNL A   1      33.154  30.022  25.805  1.00  0.00    -0.406 OA
BRANCH  19  20
ATOM     20  C   UNL A   1      32.356  30.501  26.877  1.00  0.00     0.573 C 
ATOM     21  F   UNL A   1      33.068  31.268  27.731  1.00  0.00    -0.132 F 
ATOM     22  F   UNL A   1      31.299  31.203  26.416  1.00  0.00    -0.132 F 
ATOM     23  F   UNL A   1      31.882  29.441  27.572  1.00  0.00    -0.132 F 
ENDBRANCH  19  20
ENDBRANCH  10  19
BRANCH  15  24
ATOM     24  C   UNL A   1      32.994  22.522  23.866  1.00  0.00     0.430 C 
ATOM     25  F   UNL A   1      32.210  22.682  22.777  1.00  0.00    -0.167 F 
ATOM     26  F   UNL A   1      34.240  22.256  23.388  1.00  0.00    -0.167 F 
ATOM     27  F   UNL A   1      32.591  21.429  24.547  1.00  0.00    -0.167 F 
ENDBRANCH  15  24
ENDBRANCH   4   6
ENDBRANCH   3   4
ENDBRANCH   2   3
ENDBRANCH   1   2
BRANCH   1  28
ATOM     28  O   UNL A   1      39.482  23.477  27.304  1.00  0.00    -0.458 OA
BRANCH  28  29
ATOM     29  C   UNL A   1      40.470  24.383  27.108  1.00  0.00     0.338 C 
ATOM     30  O   UNL A   1      41.282  24.390  26.197  1.00  0.00    -0.246 OA
BRANCH  29  31
ATOM     31  C   UNL A   1      40.330  25.497  28.066  1.00  0.00     0.060 A 
ATOM     32  C   UNL A   1      41.367  26.434  28.103  1.00  0.00     0.016 A 
ATOM     33  C   UNL A   1      39.235  25.631  28.922  1.00  0.00     0.016 A 
ATOM     34  C   UNL A   1      41.289  27.547  28.936  1.00  0.00     0.010 A 
ATOM     35  C   UNL A   1      39.182  26.715  29.804  1.00  0.00     0.010 A 
ATOM     36  C   UNL A   1      40.204  27.682  29.809  1.00  0.00    -0.014 A 
BRANCH  36  37
ATOM     37  C   UNL A   1      40.202  28.768  30.812  1.00  0.00     0.031 A 
ATOM     38  C   UNL A   1      41.141  28.678  31.980  1.00  0.00     0.074 A 
ATOM     39  C   UNL A   1      39.383  29.826  30.676  1.00  0.00     0.049 A 
ATOM     40  N   UNL A   1      41.239  29.460  33.023  1.00  0.00    -0.248 NA
ATOM     41  C   UNL A   1      42.106  27.566  31.964  1.00  0.00     0.031 C 
ATOM     42  C   UNL A   1      38.505  30.073  29.532  1.00  0.00     0.029 A 
ATOM     43  N   UNL A   1      39.152  30.888  31.515  1.00  0.00    -0.354 N 
ATOM     44  C   UNL A   1      42.270  28.934  33.789  1.00  0.00     0.074 A 
ATOM     45  C   UNL A   1      42.769  27.768  33.094  1.00  0.00     0.031 C 
ATOM     46  C   UNL A   1      37.809  31.203  29.756  1.00  0.00     0.029 A 
ATOM     47  C   UNL A   1      38.161  31.731  31.073  1.00  0.00     0.049 A 
ATOM     48  H   UNL A   1      39.650  31.033  32.351  1.00  0.00     0.167 HD
ATOM     49  C   UNL A   1      42.749  29.376  34.977  1.00  0.00     0.031 A 
ATOM     50  C   UNL A   1      37.575  32.782  31.683  1.00  0.00     0.031 A 
ATOM     51  C   UNL A   1      42.213  30.504  35.688  1.00  0.00     0.049 A 
ATOM     52  C   UNL A   1      38.033  33.175  33.066  1.00  0.00     0.074 A 
ATOM     53  C   UNL A   1      42.593  31.003  36.920  1.00  0.00     0.029 A 
ATOM     54  N   UNL A   1      41.169  31.297  35.235  1.00  0.00    -0.354 N 
ATOM     55  N   UNL A   1      38.996  32.659  33.792  1.00  0.00    -0.248 NA
ATOM     56  C   UNL A   1      37.322  34.287  33.715  1.00  0.00     0.031 C 
ATOM     57  C   UNL A   1      41.744  32.068  37.237  1.00  0.00     0.029 A 
ATOM     58  C   UNL A   1      40.876  32.269  36.175  1.00  0.00     0.049 A 
ATOM     59  H   UNL A   1      40.707  31.185  34.374  1.00  0.00     0.167 HD
ATOM     60  C   UNL A   1      39.028  33.402  34.968  1.00  0.00     0.074 A 
ATOM     61  C   UNL A   1      37.989  34.404  34.857  1.00  0.00     0.031 C 
ATOM     62  C   UNL A   1      39.848  33.270  36.039  1.00  0.00     0.031 A 
BRANCH  49  63
ATOM     63  C   UNL A   1      43.862  28.587  35.606  1.00  0.00    -0.014 A 
ATOM     64  C   UNL A   1      43.596  27.512  36.471  1.00  0.00     0.010 A 
ATOM     65  C   UNL A   1      45.197  28.922  35.315  1.00  0.00     0.010 A 
ATOM     66  C   UNL A   1      44.647  26.809  37.066  1.00  0.00     0.020 A 
ATOM     67  C   UNL A   1      46.250  28.208  35.890  1.00  0.00     0.020 A 
ATOM     68  C   UNL A   1      45.969  27.167  36.776  1.00  0.00     0.054 A 
BRANCH  68  69
ATOM     69  S   UNL A   1      47.315  26.240  37.561  1.00  0.00     0.124 S 
ATOM     70  O   UNL A   1      47.255  26.729  38.937  1.00  0.00    -0.237 OA
ATOM     71  O   UNL A   1      46.904  24.851  37.371  1.00  0.00    -0.237 OA
ATOM     72  O   UNL A   1      48.500  26.644  36.809  1.00  0.00    -0.744 OA
ENDBRANCH  68  69
ENDBRANCH  49  63
BRANCH  50  73
ATOM     73  C   UNL A   1      36.455  33.504  31.019  1.00  0.00    -0.014 A 
ATOM     74  C   UNL A   1      36.611  34.057  29.737  1.00  0.00     0.010 A 
ATOM     75  C   UNL A   1      35.220  33.653  31.679  1.00  0.00     0.010 A 
ATOM     76  C   UNL A   1      35.562  34.760  29.135  1.00  0.00     0.020 A 
ATOM     77  C   UNL A   1      34.161  34.331  31.070  1.00  0.00     0.020 A 
ATOM     78  C   UNL A   1      34.344  34.893  29.806  1.00  0.00     0.054 A 
BRANCH  78  79
ATOM     79  S   UNL A   1      32.983  35.776  28.992  1.00  0.00     0.124 S 
ATOM     80  O   UNL A   1      33.695  36.812  28.250  1.00  0.00    -0.237 OA
ATOM     81  O   UNL A   1      32.365  34.729  28.181  1.00  0.00    -0.237 OA
ATOM     82  O   UNL A   1      32.168  36.253  30.107  1.00  0.00    -0.744 OA
ENDBRANCH  78  79
ENDBRANCH  50  73
BRANCH  62  83
ATOM     83  C   UNL A   1      39.706  34.259  37.164  1.00  0.00    -0.014 A 
ATOM     84  C   UNL A   1      38.933  33.966  38.300  1.00  0.00     0.010 A 
ATOM     85  C   UNL A   1      40.461  35.447  37.133  1.00  0.00     0.010 A 
ATOM     86  C   UNL A   1      38.916  34.846  39.386  1.00  0.00     0.020 A 
ATOM     87  C   UNL A   1      40.464  36.318  38.225  1.00  0.00     0.020 A 
ATOM     88  C   UNL A   1      39.689  36.013  39.345  1.00  0.00     0.054 A 
BRANCH  88  89
ATOM     89  S   UNL A   1      39.730  37.088  40.806  1.00  0.00     0.124 S 
ATOM     90  O   UNL A   1      41.108  36.930  41.262  1.00  0.00    -0.237 OA
ATOM     91  O   UNL A   1      39.398  38.398  40.251  1.00  0.00    -0.237 OA
ATOM     92  O   UNL A   1      38.714  36.516  41.686  1.00  0.00    -0.744 OA
ENDBRANCH  88  89
ENDBRANCH  62  83
ENDBRANCH  36  37
ENDBRANCH  29  31
ENDBRANCH  28  29
ENDBRANCH   1  28
TORSDOF 19
ENDMDL
