MODEL 1
REMARK VINA RESULT:     -10.9      0.000      0.000
REMARK SMILES CCn1ccc([C@@H](C)NC(=O)[C@H](C)n2ccc(C(=O)OCCOC(=O)c3ccc(-c4c5nc(c(-c6ccc(S(=O)(=O)[O-])cc6)c6ccc([nH]6)c(-c6ccc(S(=O)(=O)[O-])cc6)c6nc(c(-c7ccc(S(=O)(=O)[O-])cc7)c7ccc4[nH]7)C=C6)C=C5)cc3)n2)n1
REMARK SMILES IDX 21 1 20 2 18 3 19 4 17 5 14 6 15 7 86 8 16 9 12 10 13 11
REMARK SMILES IDX 10 12 9 13 11 15 7 16 8 17 6 18 3 19 4 20 87 21 5 22 2 23
REMARK SMILES IDX 1 24 22 25 23 26 24 27 25 28 26 29 27 30 85 31 28 32 84 33
REMARK SMILES IDX 29 34 30 35 31 36 78 37 32 38 83 39 77 40 79 41 33 42 82 43
REMARK SMILES IDX 76 44 75 45 34 47 64 48 45 49 63 50 46 51 49 52 62 53 80 54
REMARK SMILES IDX 47 55 48 56 61 58 81 59 50 60 35 61 36 62 44 63 37 64 43 65
REMARK SMILES IDX 38 66 39 67 40 68 41 69 42 70 65 71 66 72 74 73 67 74 73 75
REMARK SMILES IDX 68 76 69 77 70 78 71 79 72 80 51 81 52 82 60 83 53 84 59 85
REMARK SMILES IDX 54 86 55 87 56 88 57 89 58 90
REMARK H PARENT 9 14 79 46 49 57
REMARK Flexibility Score: inf
ROOT
ATOM      1  C   UNL A   1      36.296  20.549  25.210  1.00  0.00     0.275 C 
ENDROOT
BRANCH   1   2
ATOM      2  O   UNL A   1      35.015  20.828  24.627  1.00  0.00    -0.457 OA
BRANCH   2   3
ATOM      3  C   UNL A   1      34.136  21.504  25.443  1.00  0.00     0.358 C 
ATOM      4  O   UNL A   1      34.191  21.494  26.657  1.00  0.00    -0.244 OA
BRANCH   3   5
ATOM      5  C   UNL A   1      33.203  22.359  24.691  1.00  0.00     0.170 A 
ATOM      6  N   UNL A   1      31.908  23.968  24.145  1.00  0.00    -0.260 N 
ATOM      7  C   UNL A   1      31.616  22.968  23.266  1.00  0.00     0.110 A 
ATOM      8  N   UNL A   1      32.868  23.615  25.036  1.00  0.00    -0.165 NA
ATOM      9  C   UNL A   1      32.489  21.945  23.537  1.00  0.00     0.057 A 
BRANCH   6  10
ATOM     10  C   UNL A   1      31.251  25.267  24.307  1.00  0.00     0.193 C 
ATOM     11  C   UNL A   1      29.900  25.373  23.592  1.00  0.00     0.044 C 
BRANCH  10  12
ATOM     12  C   UNL A   1      31.190  25.767  25.747  1.00  0.00     0.245 C 
ATOM     13  N   UNL A   1      32.033  26.705  26.262  1.00  0.00    -0.346 N 
ATOM     14  H   UNL A   1      31.858  26.933  27.205  1.00  0.00     0.164 HD
ATOM     15  O   UNL A   1      30.367  25.289  26.537  1.00  0.00    -0.273 OA
BRANCH  13  16
ATOM     16  C   UNL A   1      33.151  27.432  25.666  1.00  0.00     0.130 C 
ATOM     17  C   UNL A   1      34.399  26.552  25.684  1.00  0.00     0.038 C 
BRANCH  16  18
ATOM     18  C   UNL A   1      33.370  28.725  26.408  1.00  0.00     0.084 A 
ATOM     19  N   UNL A   1      34.397  30.149  27.606  1.00  0.00    -0.273 N 
ATOM     20  C   UNL A   1      33.219  30.757  27.283  1.00  0.00     0.109 A 
ATOM     21  N   UNL A   1      34.477  28.888  27.145  1.00  0.00    -0.176 NA
ATOM     22  C   UNL A   1      32.539  29.870  26.481  1.00  0.00     0.047 A 
BRANCH  19  23
ATOM     23  C   UNL A   1      35.486  30.669  28.413  1.00  0.00     0.141 C 
ATOM     24  C   UNL A   1      36.878  30.327  27.903  1.00  0.00     0.029 C 
ENDBRANCH  19  23
ENDBRANCH  16  18
ENDBRANCH  13  16
ENDBRANCH  10  12
ENDBRANCH   6  10
ENDBRANCH   3   5
ENDBRANCH   2   3
ENDBRANCH   1   2
BRANCH   1  25
ATOM     25  C   UNL A   1      37.328  21.608  24.836  1.00  0.00     0.275 C 
BRANCH  25  26
ATOM     26  O   UNL A   1      37.796  22.340  25.972  1.00  0.00    -0.458 OA
BRANCH  26  27
ATOM     27  C   UNL A   1      39.101  22.150  26.266  1.00  0.00     0.338 C 
ATOM     28  O   UNL A   1      39.668  21.079  26.419  1.00  0.00    -0.246 OA
BRANCH  27  29
ATOM     29  C   UNL A   1      39.728  23.433  26.594  1.00  0.00     0.060 A 
ATOM     30  C   UNL A   1      40.970  23.417  27.241  1.00  0.00     0.016 A 
ATOM     31  C   UNL A   1      38.969  24.607  26.491  1.00  0.00     0.016 A 
ATOM     32  C   UNL A   1      41.402  24.561  27.887  1.00  0.00     0.010 A 
ATOM     33  C   UNL A   1      39.392  25.738  27.151  1.00  0.00     0.010 A 
ATOM     34  C   UNL A   1      40.578  25.690  27.886  1.00  0.00    -0.014 A 
BRANCH  34  35
ATOM     35  C   UNL A   1      40.995  26.870  28.621  1.00  0.00     0.031 A 
ATOM     36  C   UNL A   1      42.214  27.533  28.103  1.00  0.00     0.074 A 
ATOM     37  C   UNL A   1      40.208  27.437  29.556  1.00  0.00     0.049 A 
ATOM     38  N   UNL A   1      43.319  27.773  28.727  1.00  0.00    -0.248 NA
ATOM     39  C   UNL A   1      42.238  27.889  26.674  1.00  0.00     0.031 C 
ATOM     40  C   UNL A   1      38.840  27.057  29.920  1.00  0.00     0.029 A 
ATOM     41  N   UNL A   1      40.419  28.575  30.271  1.00  0.00    -0.354 N 
ATOM     42  C   UNL A   1      44.116  28.472  27.828  1.00  0.00     0.074 A 
ATOM     43  C   UNL A   1      43.470  28.376  26.543  1.00  0.00     0.031 C 
ATOM     44  C   UNL A   1      38.267  28.078  30.595  1.00  0.00     0.029 A 
ATOM     45  C   UNL A   1      39.259  29.120  30.807  1.00  0.00     0.049 A 
ATOM     46  H   UNL A   1      41.309  28.974  30.397  1.00  0.00     0.167 HD
ATOM     47  C   UNL A   1      45.140  29.273  28.231  1.00  0.00     0.031 A 
ATOM     48  C   UNL A   1      39.108  30.373  31.305  1.00  0.00     0.031 A 
ATOM     49  C   UNL A   1      45.512  29.038  29.598  1.00  0.00     0.049 A 
ATOM     50  C   UNL A   1      40.460  30.910  31.594  1.00  0.00     0.074 A 
ATOM     51  C   UNL A   1      45.972  27.942  30.302  1.00  0.00     0.029 A 
ATOM     52  N   UNL A   1      45.068  29.937  30.541  1.00  0.00    -0.354 N 
ATOM     53  N   UNL A   1      41.225  30.457  32.545  1.00  0.00    -0.248 NA
ATOM     54  C   UNL A   1      41.146  31.678  30.566  1.00  0.00     0.031 C 
ATOM     55  C   UNL A   1      45.358  28.040  31.584  1.00  0.00     0.029 A 
ATOM     56  C   UNL A   1      44.597  29.211  31.606  1.00  0.00     0.049 A 
ATOM     57  H   UNL A   1      45.085  30.918  30.465  1.00  0.00     0.167 HD
ATOM     58  C   UNL A   1      42.510  30.498  32.022  1.00  0.00     0.074 A 
ATOM     59  C   UNL A   1      42.413  31.373  30.858  1.00  0.00     0.031 C 
ATOM     60  C   UNL A   1      43.460  29.597  32.415  1.00  0.00     0.031 A 
BRANCH  47  61
ATOM     61  C   UNL A   1      45.550  30.516  27.486  1.00  0.00    -0.014 A 
ATOM     62  C   UNL A   1      46.900  30.694  27.129  1.00  0.00     0.010 A 
ATOM     63  C   UNL A   1      44.698  31.634  27.359  1.00  0.00     0.010 A 
ATOM     64  C   UNL A   1      47.381  31.945  26.718  1.00  0.00     0.020 A 
ATOM     65  C   UNL A   1      45.155  32.870  26.904  1.00  0.00     0.020 A 
ATOM     66  C   UNL A   1      46.504  33.027  26.622  1.00  0.00     0.054 A 
BRANCH  66  67
ATOM     67  S   UNL A   1      47.151  34.666  26.207  1.00  0.00     0.124 S 
ATOM     68  O   UNL A   1      46.099  35.191  25.344  1.00  0.00    -0.237 OA
ATOM     69  O   UNL A   1      47.271  35.294  27.520  1.00  0.00    -0.237 OA
ATOM     70  O   UNL A   1      48.420  34.373  25.545  1.00  0.00    -0.744 OA
ENDBRANCH  66  67
ENDBRANCH  47  61
BRANCH  48  71
ATOM     71  C   UNL A   1      37.891  31.219  31.301  1.00  0.00    -0.014 A 
ATOM     72  C   UNL A   1      36.759  30.861  32.055  1.00  0.00     0.010 A 
ATOM     73  C   UNL A   1      37.930  32.520  30.757  1.00  0.00     0.010 A 
ATOM     74  C   UNL A   1      35.735  31.788  32.308  1.00  0.00     0.020 A 
ATOM     75  C   UNL A   1      36.908  33.446  30.992  1.00  0.00     0.020 A 
ATOM     76  C   UNL A   1      35.827  33.083  31.791  1.00  0.00     0.054 A 
BRANCH  76  77
ATOM     77  S   UNL A   1      34.602  34.332  32.279  1.00  0.00     0.124 S 
ATOM     78  O   UNL A   1      33.641  33.544  33.045  1.00  0.00    -0.237 OA
ATOM     79  O   UNL A   1      35.403  35.278  33.049  1.00  0.00    -0.237 OA
ATOM     80  O   UNL A   1      34.106  34.845  31.002  1.00  0.00    -0.744 OA
ENDBRANCH  76  77
ENDBRANCH  48  71
BRANCH  60  81
ATOM     81  C   UNL A   1      43.171  28.746  33.633  1.00  0.00    -0.014 A 
ATOM     82  C   UNL A   1      43.416  29.176  34.953  1.00  0.00     0.010 A 
ATOM     83  C   UNL A   1      42.513  27.519  33.444  1.00  0.00     0.010 A 
ATOM     84  C   UNL A   1      43.061  28.377  36.050  1.00  0.00     0.020 A 
ATOM     85  C   UNL A   1      42.135  26.728  34.532  1.00  0.00     0.020 A 
ATOM     86  C   UNL A   1      42.426  27.153  35.830  1.00  0.00     0.054 A 
BRANCH  86  87
ATOM     87  S   UNL A   1      41.945  26.135  37.253  1.00  0.00     0.124 S 
ATOM     88  O   UNL A   1      41.940  24.787  36.690  1.00  0.00    -0.237 OA
ATOM     89  O   UNL A   1      43.004  26.408  38.222  1.00  0.00    -0.237 OA
ATOM     90  O   UNL A   1      40.630  26.654  37.624  1.00  0.00    -0.744 OA
ENDBRANCH  86  87
ENDBRANCH  60  81
ENDBRANCH  34  35
ENDBRANCH  27  29
ENDBRANCH  26  27
ENDBRANCH  25  26
ENDBRANCH   1  25
TORSDOF 19
ENDMDL
MODEL 2
REMARK VINA RESULT:     -10.8      1.548      2.947
REMARK SMILES CCn1ccc([C@@H](C)NC(=O)[C@H](C)n2ccc(C(=O)OCCOC(=O)c3ccc(-c4c5nc(c(-c6ccc(S(=O)(=O)[O-])cc6)c6ccc([nH]6)c(-c6ccc(S(=O)(=O)[O-])cc6)c6nc(c(-c7ccc(S(=O)(=O)[O-])cc7)c7ccc4[nH]7)C=C6)C=C5)cc3)n2)n1
REMARK SMILES IDX 21 1 20 2 18 3 19 4 17 5 14 6 15 7 86 8 16 9 12 10 13 11
REMARK SMILES IDX 10 12 9 13 11 15 7 16 8 17 6 18 3 19 4 20 87 21 5 22 2 23
REMARK SMILES IDX 1 24 22 25 23 26 24 27 25 28 26 29 27 30 85 31 28 32 84 33
REMARK SMILES IDX 29 34 30 35 31 36 78 37 32 38 83 39 77 40 79 41 33 42 82 43
REMARK SMILES IDX 76 44 75 45 34 47 64 48 45 49 63 50 46 51 49 52 62 53 80 54
REMARK SMILES IDX 47 55 48 56 61 58 81 59 50 60 35 61 36 62 44 63 37 64 43 65
REMARK SMILES IDX 38 66 39 67 40 68 41 69 42 70 65 71 66 72 74 73 67 74 73 75
REMARK SMILES IDX 68 76 69 77 70 78 71 79 72 80 51 81 52 82 60 83 53 84 59 85
REMARK SMILES IDX 54 86 55 87 56 88 57 89 58 90
REMARK H PARENT 9 14 79 46 49 57
REMARK Flexibility Score: inf
ROOT
ATOM      1  C   UNL A   1      35.938  21.232  25.291  1.00  0.00     0.275 C 
ENDROOT
BRANCH   1   2
ATOM      2  O   UNL A   1      35.370  21.613  24.029  1.00  0.00    -0.457 OA
BRANCH   2   3
ATOM      3  C   UNL A   1      35.805  22.822  23.535  1.00  0.00     0.358 C 
ATOM      4  O   UNL A   1      36.651  22.939  22.672  1.00  0.00    -0.244 OA
BRANCH   3   5
ATOM      5  C   UNL A   1      35.036  23.962  24.062  1.00  0.00     0.170 A 
ATOM      6  N   UNL A   1      33.758  25.669  24.188  1.00  0.00    -0.260 N 
ATOM      7  C   UNL A   1      34.440  25.653  25.369  1.00  0.00     0.110 A 
ATOM      8  N   UNL A   1      34.114  24.651  23.366  1.00  0.00    -0.165 NA
ATOM      9  C   UNL A   1      35.213  24.520  25.354  1.00  0.00     0.057 A 
BRANCH   6  10
ATOM     10  C   UNL A   1      32.823  26.678  23.684  1.00  0.00     0.193 C 
ATOM     11  C   UNL A   1      33.481  27.760  22.822  1.00  0.00     0.044 C 
BRANCH  10  12
ATOM     12  C   UNL A   1      31.565  26.103  23.039  1.00  0.00     0.245 C 
ATOM     13  N   UNL A   1      30.528  25.567  23.741  1.00  0.00    -0.346 N 
ATOM     14  H   UNL A   1      29.781  25.250  23.181  1.00  0.00     0.164 HD
ATOM     15  O   UNL A   1      31.459  26.068  21.807  1.00  0.00    -0.273 OA
BRANCH  13  16
ATOM     16  C   UNL A   1      30.327  25.376  25.175  1.00  0.00     0.130 C 
ATOM     17  C   UNL A   1      30.794  26.621  25.926  1.00  0.00     0.038 C 
BRANCH  16  18
ATOM     18  C   UNL A   1      31.060  24.141  25.631  1.00  0.00     0.084 A 
ATOM     19  N   UNL A   1      31.832  22.164  25.516  1.00  0.00    -0.273 N 
ATOM     20  C   UNL A   1      32.259  22.631  26.725  1.00  0.00     0.109 A 
ATOM     21  N   UNL A   1      31.042  23.039  24.869  1.00  0.00    -0.176 NA
ATOM     22  C   UNL A   1      31.799  23.924  26.820  1.00  0.00     0.047 A 
BRANCH  19  23
ATOM     23  C   UNL A   1      32.070  20.862  24.919  1.00  0.00     0.141 C 
ATOM     24  C   UNL A   1      32.331  20.886  23.421  1.00  0.00     0.029 C 
ENDBRANCH  19  23
ENDBRANCH  16  18
ENDBRANCH  13  16
ENDBRANCH  10  12
ENDBRANCH   6  10
ENDBRANCH   3   5
ENDBRANCH   2   3
ENDBRANCH   1   2
BRANCH   1  25
ATOM     25  C   UNL A   1      37.463  21.248  25.251  1.00  0.00     0.275 C 
BRANCH  25  26
ATOM     26  O   UNL A   1      38.019  22.276  26.075  1.00  0.00    -0.458 OA
BRANCH  26  27
ATOM     27  C   UNL A   1      39.320  22.097  26.395  1.00  0.00     0.338 C 
ATOM     28  O   UNL A   1      39.893  21.032  26.564  1.00  0.00    -0.246 OA
BRANCH  27  29
ATOM     29  C   UNL A   1      39.931  23.387  26.730  1.00  0.00     0.060 A 
ATOM     30  C   UNL A   1      41.119  23.385  27.471  1.00  0.00     0.016 A 
ATOM     31  C   UNL A   1      39.191  24.561  26.530  1.00  0.00     0.016 A 
ATOM     32  C   UNL A   1      41.509  24.547  28.111  1.00  0.00     0.010 A 
ATOM     33  C   UNL A   1      39.572  25.710  27.184  1.00  0.00     0.010 A 
ATOM     34  C   UNL A   1      40.697  25.680  28.010  1.00  0.00    -0.014 A 
BRANCH  34  35
ATOM     35  C   UNL A   1      41.065  26.881  28.737  1.00  0.00     0.031 A 
ATOM     36  C   UNL A   1      42.241  27.604  28.199  1.00  0.00     0.074 A 
ATOM     37  C   UNL A   1      40.266  27.410  29.683  1.00  0.00     0.049 A 
ATOM     38  N   UNL A   1      43.342  27.900  28.804  1.00  0.00    -0.248 NA
ATOM     39  C   UNL A   1      42.224  27.957  26.769  1.00  0.00     0.031 C 
ATOM     40  C   UNL A   1      38.924  26.962  30.070  1.00  0.00     0.029 A 
ATOM     41  N   UNL A   1      40.430  28.559  30.393  1.00  0.00    -0.354 N 
ATOM     42  C   UNL A   1      44.089  28.638  27.892  1.00  0.00     0.074 A 
ATOM     43  C   UNL A   1      43.428  28.506  26.618  1.00  0.00     0.031 C 
ATOM     44  C   UNL A   1      38.311  27.955  30.753  1.00  0.00     0.029 A 
ATOM     45  C   UNL A   1      39.253  29.046  30.947  1.00  0.00     0.049 A 
ATOM     46  H   UNL A   1      41.301  29.002  30.505  1.00  0.00     0.167 HD
ATOM     47  C   UNL A   1      45.077  29.490  28.278  1.00  0.00     0.031 A 
ATOM     48  C   UNL A   1      39.047  30.290  31.446  1.00  0.00     0.031 A 
ATOM     49  C   UNL A   1      45.482  29.276  29.639  1.00  0.00     0.049 A 
ATOM     50  C   UNL A   1      40.374  30.896  31.713  1.00  0.00     0.074 A 
ATOM     51  C   UNL A   1      46.007  28.207  30.337  1.00  0.00     0.029 A 
ATOM     52  N   UNL A   1      45.008  30.154  30.587  1.00  0.00    -0.354 N 
ATOM     53  N   UNL A   1      41.176  30.484  32.652  1.00  0.00    -0.248 NA
ATOM     54  C   UNL A   1      41.004  31.695  30.672  1.00  0.00     0.031 C 
ATOM     55  C   UNL A   1      45.410  28.277  31.629  1.00  0.00     0.029 A 
ATOM     56  C   UNL A   1      44.591  29.407  31.661  1.00  0.00     0.049 A 
ATOM     57  H   UNL A   1      44.975  31.135  30.510  1.00  0.00     0.167 HD
ATOM     58  C   UNL A   1      42.449  30.589  32.108  1.00  0.00     0.074 A 
ATOM     59  C   UNL A   1      42.289  31.455  30.944  1.00  0.00     0.031 C 
ATOM     60  C   UNL A   1      43.449  29.738  32.487  1.00  0.00     0.031 A 
BRANCH  47  61
ATOM     61  C   UNL A   1      45.412  30.750  27.524  1.00  0.00    -0.014 A 
ATOM     62  C   UNL A   1      46.755  31.031  27.211  1.00  0.00     0.010 A 
ATOM     63  C   UNL A   1      44.478  31.793  27.347  1.00  0.00     0.010 A 
ATOM     64  C   UNL A   1      47.148  32.311  26.794  1.00  0.00     0.020 A 
ATOM     65  C   UNL A   1      44.849  33.055  26.885  1.00  0.00     0.020 A 
ATOM     66  C   UNL A   1      46.191  33.317  26.648  1.00  0.00     0.054 A 
BRANCH  66  67
ATOM     67  S   UNL A   1      46.718  34.996  26.226  1.00  0.00     0.124 S 
ATOM     68  O   UNL A   1      45.451  35.720  26.250  1.00  0.00    -0.237 OA
ATOM     69  O   UNL A   1      47.651  35.308  27.304  1.00  0.00    -0.237 OA
ATOM     70  O   UNL A   1      47.327  34.840  24.907  1.00  0.00    -0.744 OA
ENDBRANCH  66  67
ENDBRANCH  47  61
BRANCH  48  71
ATOM     71  C   UNL A   1      37.789  31.075  31.460  1.00  0.00    -0.014 A 
ATOM     72  C   UNL A   1      36.968  31.104  32.602  1.00  0.00     0.010 A 
ATOM     73  C   UNL A   1      37.518  32.006  30.436  1.00  0.00     0.010 A 
ATOM     74  C   UNL A   1      35.957  32.068  32.742  1.00  0.00     0.020 A 
ATOM     75  C   UNL A   1      36.504  32.962  30.561  1.00  0.00     0.020 A 
ATOM     76  C   UNL A   1      35.746  33.006  31.728  1.00  0.00     0.054 A 
BRANCH  76  77
ATOM     77  S   UNL A   1      34.573  34.366  31.995  1.00  0.00     0.124 S 
ATOM     78  O   UNL A   1      35.387  35.346  32.708  1.00  0.00    -0.237 OA
ATOM     79  O   UNL A   1      34.193  34.730  30.633  1.00  0.00    -0.237 OA
ATOM     80  O   UNL A   1      33.507  33.752  32.786  1.00  0.00    -0.744 OA
ENDBRANCH  76  77
ENDBRANCH  48  71
BRANCH  60  81
ATOM     81  C   UNL A   1      43.223  28.876  33.711  1.00  0.00    -0.014 A 
ATOM     82  C   UNL A   1      42.415  27.720  33.705  1.00  0.00     0.010 A 
ATOM     83  C   UNL A   1      43.952  29.172  34.875  1.00  0.00     0.010 A 
ATOM     84  C   UNL A   1      42.299  26.915  34.848  1.00  0.00     0.020 A 
ATOM     85  C   UNL A   1      43.860  28.362  36.010  1.00  0.00     0.020 A 
ATOM     86  C   UNL A   1      43.021  27.246  35.997  1.00  0.00     0.054 A 
BRANCH  86  87
ATOM     87  S   UNL A   1      42.888  26.187  37.464  1.00  0.00     0.124 S 
ATOM     88  O   UNL A   1      41.455  26.214  37.746  1.00  0.00    -0.237 OA
ATOM     89  O   UNL A   1      43.411  24.907  36.991  1.00  0.00    -0.237 OA
ATOM     90  O   UNL A   1      43.726  26.859  38.455  1.00  0.00    -0.744 OA
ENDBRANCH  86  87
ENDBRANCH  60  81
ENDBRANCH  34  35
ENDBRANCH  27  29
ENDBRANCH  26  27
ENDBRANCH  25  26
ENDBRANCH   1  25
TORSDOF 19
ENDMDL
MODEL 3
REMARK VINA RESULT:     -10.6      1.590      2.460
REMARK SMILES CCn1ccc([C@@H](C)NC(=O)[C@H](C)n2ccc(C(=O)OCCOC(=O)c3ccc(-c4c5nc(c(-c6ccc(S(=O)(=O)[O-])cc6)c6ccc([nH]6)c(-c6ccc(S(=O)(=O)[O-])cc6)c6nc(c(-c7ccc(S(=O)(=O)[O-])cc7)c7ccc4[nH]7)C=C6)C=C5)cc3)n2)n1
REMARK SMILES IDX 21 1 20 2 18 3 19 4 17 5 14 6 15 7 86 8 16 9 12 10 13 11
REMARK SMILES IDX 10 12 9 13 11 15 7 16 8 17 6 18 3 19 4 20 87 21 5 22 2 23
REMARK SMILES IDX 1 24 22 25 23 26 24 27 25 28 26 29 27 30 85 31 28 32 84 33
REMARK SMILES IDX 29 34 30 35 31 36 78 37 32 38 83 39 77 40 79 41 33 42 82 43
REMARK SMILES IDX 76 44 75 45 34 47 64 48 45 49 63 50 46 51 49 52 62 53 80 54
REMARK SMILES IDX 47 55 48 56 61 58 81 59 50 60 35 61 36 62 44 63 37 64 43 65
REMARK SMILES IDX 38 66 39 67 40 68 41 69 42 70 65 71 66 72 74 73 67 74 73 75
REMARK SMILES IDX 68 76 69 77 70 78 71 79 72 80 51 81 52 82 60 83 53 84 59 85
REMARK SMILES IDX 54 86 55 87 56 88 57 89 58 90
REMARK H PARENT 9 14 79 46 49 57
REMARK Flexibility Score: inf
ROOT
ATOM      1  C   UNL A   1      36.193  21.407  24.875  1.00  0.00     0.275 C 
ENDROOT
BRANCH   1   2
ATOM      2  O   UNL A   1      35.536  21.999  26.006  1.00  0.00    -0.457 OA
BRANCH   2   3
ATOM      3  C   UNL A   1      35.153  23.310  25.837  1.00  0.00     0.358 C 
ATOM      4  O   UNL A   1      35.897  24.192  25.456  1.00  0.00    -0.244 OA
BRANCH   3   5
ATOM      5  C   UNL A   1      33.707  23.511  26.032  1.00  0.00     0.170 A 
ATOM      6  N   UNL A   1      31.773  24.413  26.125  1.00  0.00    -0.260 N 
ATOM      7  C   UNL A   1      31.652  23.248  26.823  1.00  0.00     0.110 A 
ATOM      8  N   UNL A   1      33.027  24.603  25.641  1.00  0.00    -0.165 NA
ATOM      9  C   UNL A   1      32.857  22.603  26.714  1.00  0.00     0.057 A 
BRANCH   6  10
ATOM     10  C   UNL A   1      30.790  25.484  25.951  1.00  0.00     0.193 C 
ATOM     11  C   UNL A   1      29.403  25.151  26.509  1.00  0.00     0.044 C 
BRANCH  10  12
ATOM     12  C   UNL A   1      31.278  26.863  26.386  1.00  0.00     0.245 C 
ATOM     13  N   UNL A   1      31.862  27.763  25.547  1.00  0.00    -0.346 N 
ATOM     14  H   UNL A   1      32.110  28.615  25.975  1.00  0.00     0.164 HD
ATOM     15  O   UNL A   1      31.192  27.207  27.571  1.00  0.00    -0.273 OA
BRANCH  13  16
ATOM     16  C   UNL A   1      32.188  27.689  24.124  1.00  0.00     0.130 C 
ATOM     17  C   UNL A   1      33.608  28.202  23.899  1.00  0.00     0.038 C 
BRANCH  16  18
ATOM     18  C   UNL A   1      31.178  28.475  23.330  1.00  0.00     0.084 A 
ATOM     19  N   UNL A   1      29.264  29.222  22.782  1.00  0.00    -0.273 N 
ATOM     20  C   UNL A   1      30.127  29.809  21.904  1.00  0.00     0.109 A 
ATOM     21  N   UNL A   1      29.872  28.352  23.609  1.00  0.00    -0.176 NA
ATOM     22  C   UNL A   1      31.384  29.368  22.249  1.00  0.00     0.047 A 
BRANCH  19  23
ATOM     23  C   UNL A   1      27.823  29.374  22.867  1.00  0.00     0.141 C 
ATOM     24  C   UNL A   1      27.342  30.806  23.040  1.00  0.00     0.029 C 
ENDBRANCH  19  23
ENDBRANCH  16  18
ENDBRANCH  13  16
ENDBRANCH  10  12
ENDBRANCH   6  10
ENDBRANCH   3   5
ENDBRANCH   2   3
ENDBRANCH   1   2
BRANCH   1  25
ATOM     25  C   UNL A   1      37.671  21.150  25.153  1.00  0.00     0.275 C 
BRANCH  25  26
ATOM     26  O   UNL A   1      38.189  22.002  26.177  1.00  0.00    -0.458 OA
BRANCH  26  27
ATOM     27  C   UNL A   1      39.516  21.873  26.399  1.00  0.00     0.338 C 
ATOM     28  O   UNL A   1      40.144  20.829  26.500  1.00  0.00    -0.246 OA
BRANCH  27  29
ATOM     29  C   UNL A   1      40.096  23.180  26.719  1.00  0.00     0.060 A 
ATOM     30  C   UNL A   1      41.290  23.214  27.449  1.00  0.00     0.016 A 
ATOM     31  C   UNL A   1      39.325  24.333  26.518  1.00  0.00     0.016 A 
ATOM     32  C   UNL A   1      41.656  24.390  28.078  1.00  0.00     0.010 A 
ATOM     33  C   UNL A   1      39.681  25.496  27.161  1.00  0.00     0.010 A 
ATOM     34  C   UNL A   1      40.814  25.501  27.977  1.00  0.00    -0.014 A 
BRANCH  34  35
ATOM     35  C   UNL A   1      41.158  26.716  28.692  1.00  0.00     0.031 A 
ATOM     36  C   UNL A   1      42.325  27.452  28.153  1.00  0.00     0.074 A 
ATOM     37  C   UNL A   1      40.344  27.242  29.627  1.00  0.00     0.049 A 
ATOM     38  N   UNL A   1      43.417  27.774  28.762  1.00  0.00    -0.248 NA
ATOM     39  C   UNL A   1      42.312  27.789  26.719  1.00  0.00     0.031 C 
ATOM     40  C   UNL A   1      39.007  26.777  30.010  1.00  0.00     0.029 A 
ATOM     41  N   UNL A   1      40.484  28.401  30.325  1.00  0.00    -0.354 N 
ATOM     42  C   UNL A   1      44.158  28.513  27.846  1.00  0.00     0.074 A 
ATOM     43  C   UNL A   1      43.507  28.355  26.569  1.00  0.00     0.031 C 
ATOM     44  C   UNL A   1      38.374  27.766  30.677  1.00  0.00     0.029 A 
ATOM     45  C   UNL A   1      39.296  28.876  30.865  1.00  0.00     0.049 A 
ATOM     46  H   UNL A   1      41.347  28.861  30.437  1.00  0.00     0.167 HD
ATOM     47  C   UNL A   1      45.129  29.385  28.228  1.00  0.00     0.031 A 
ATOM     48  C   UNL A   1      39.066  30.122  31.348  1.00  0.00     0.031 A 
ATOM     49  C   UNL A   1      45.529  29.194  29.595  1.00  0.00     0.049 A 
ATOM     50  C   UNL A   1      40.381  30.752  31.617  1.00  0.00     0.074 A 
ATOM     51  C   UNL A   1      46.067  28.142  30.308  1.00  0.00     0.029 A 
ATOM     52  N   UNL A   1      45.034  30.075  30.530  1.00  0.00    -0.354 N 
ATOM     53  N   UNL A   1      41.183  30.364  32.566  1.00  0.00    -0.248 NA
ATOM     54  C   UNL A   1      41.004  31.550  30.571  1.00  0.00     0.031 C 
ATOM     55  C   UNL A   1      45.460  28.216  31.595  1.00  0.00     0.029 A 
ATOM     56  C   UNL A   1      44.622  29.333  31.609  1.00  0.00     0.049 A 
ATOM     57  H   UNL A   1      44.985  31.054  30.440  1.00  0.00     0.167 HD
ATOM     58  C   UNL A   1      42.458  30.484  32.029  1.00  0.00     0.074 A 
ATOM     59  C   UNL A   1      42.292  31.334  30.854  1.00  0.00     0.031 C 
ATOM     60  C   UNL A   1      43.469  29.654  32.424  1.00  0.00     0.031 A 
BRANCH  47  61
ATOM     61  C   UNL A   1      45.448  30.642  27.463  1.00  0.00    -0.014 A 
ATOM     62  C   UNL A   1      46.788  30.942  27.155  1.00  0.00     0.010 A 
ATOM     63  C   UNL A   1      44.498  31.668  27.268  1.00  0.00     0.010 A 
ATOM     64  C   UNL A   1      47.163  32.223  26.725  1.00  0.00     0.020 A 
ATOM     65  C   UNL A   1      44.852  32.930  26.794  1.00  0.00     0.020 A 
ATOM     66  C   UNL A   1      46.190  33.211  26.562  1.00  0.00     0.054 A 
BRANCH  66  67
ATOM     67  S   UNL A   1      46.693  34.894  26.124  1.00  0.00     0.124 S 
ATOM     68  O   UNL A   1      47.262  35.371  27.380  1.00  0.00    -0.237 OA
ATOM     69  O   UNL A   1      47.645  34.661  25.041  1.00  0.00    -0.237 OA
ATOM     70  O   UNL A   1      45.441  35.529  25.719  1.00  0.00    -0.744 OA
ENDBRANCH  66  67
ENDBRANCH  47  61
BRANCH  48  71
ATOM     71  C   UNL A   1      37.795  30.885  31.346  1.00  0.00    -0.014 A 
ATOM     72  C   UNL A   1      36.924  30.842  32.450  1.00  0.00     0.010 A 
ATOM     73  C   UNL A   1      37.554  31.864  30.360  1.00  0.00     0.010 A 
ATOM     74  C   UNL A   1      35.891  31.783  32.593  1.00  0.00     0.020 A 
ATOM     75  C   UNL A   1      36.519  32.797  30.487  1.00  0.00     0.020 A 
ATOM     76  C   UNL A   1      35.709  32.769  31.619  1.00  0.00     0.054 A 
BRANCH  76  77
ATOM     77  S   UNL A   1      34.502  34.096  31.902  1.00  0.00     0.124 S 
ATOM     78  O   UNL A   1      33.617  33.506  32.902  1.00  0.00    -0.237 OA
ATOM     79  O   UNL A   1      35.341  35.195  32.370  1.00  0.00    -0.237 OA
ATOM     80  O   UNL A   1      33.900  34.301  30.585  1.00  0.00    -0.744 OA
ENDBRANCH  76  77
ENDBRANCH  48  71
BRANCH  60  81
ATOM     81  C   UNL A   1      43.249  28.802  33.656  1.00  0.00    -0.014 A 
ATOM     82  C   UNL A   1      42.562  27.572  33.634  1.00  0.00     0.010 A 
ATOM     83  C   UNL A   1      43.868  29.197  34.855  1.00  0.00     0.010 A 
ATOM     84  C   UNL A   1      42.451  26.786  34.790  1.00  0.00     0.020 A 
ATOM     85  C   UNL A   1      43.782  28.409  36.005  1.00  0.00     0.020 A 
ATOM     86  C   UNL A   1      43.060  27.214  35.972  1.00  0.00     0.054 A 
BRANCH  86  87
ATOM     87  S   UNL A   1      42.936  26.181  37.459  1.00  0.00     0.124 S 
ATOM     88  O   UNL A   1      43.825  26.865  38.394  1.00  0.00    -0.237 OA
ATOM     89  O   UNL A   1      41.512  26.246  37.783  1.00  0.00    -0.237 OA
ATOM     90  O   UNL A   1      43.400  24.869  37.010  1.00  0.00    -0.744 OA
ENDBRANCH  86  87
ENDBRANCH  60  81
ENDBRANCH  34  35
ENDBRANCH  27  29
ENDBRANCH  26  27
ENDBRANCH  25  26
ENDBRANCH   1  25
TORSDOF 19
ENDMDL
