MODEL 1
REMARK VINA RESULT:     -14.6      0.000      0.000
REMARK SMILES Cc1ccc([C@@]23C[C@@H]4C[C@@H](C[C@@](C(=O)N5CCC(C(=O)OCCOC(=O)c6ccc(-c7c8nc(c(-c9ccc(S(=O)(=O)[O-])cc9)c9ccc([nH]9)c(-c9ccc(S(=O)(=O)[O-])cc9)c9nc(c(-c%10ccc(S(=O)(=O)[O-])cc%10)c%10ccc7[nH]%10)C=C9)C=C8)cc6)CC5)(C4)C2)C3)cc1
REMARK SMILES IDX 23 1 22 2 21 3 19 4 20 5 18 6 13 7 14 8 15 9 16 10 88 11
REMARK SMILES IDX 17 12 87 13 12 14 6 15 7 16 90 17 91 18 8 19 10 20 9 21
REMARK SMILES IDX 89 22 11 23 5 24 1 25 2 26 3 27 93 28 4 29 92 30 24 31 25 32
REMARK SMILES IDX 26 33 27 34 28 35 86 36 29 37 85 38 30 39 31 40 32 41 79 42
REMARK SMILES IDX 33 43 84 44 78 45 80 46 34 47 83 48 77 49 76 50 35 52 65 53
REMARK SMILES IDX 46 54 64 55 47 56 50 57 63 58 81 59 48 60 49 61 62 63 82 64
REMARK SMILES IDX 51 65 36 66 37 67 45 68 38 69 44 70 39 71 40 72 41 73 42 74
REMARK SMILES IDX 43 75 66 76 67 77 75 78 68 79 74 80 69 81 70 82 71 83 72 84
REMARK SMILES IDX 73 85 52 86 53 87 61 88 54 89 60 90 55 91 56 92 57 93 58 94
REMARK SMILES IDX 59 95
REMARK H PARENT 80 51 50 62
REMARK Flexibility Score: inf
ROOT
ATOM      1  C   UNL A   1      34.159  31.557  27.787  1.00  0.00     0.275 C 
ENDROOT
BRANCH   1   2
ATOM      2  C   UNL A   1      32.994  30.750  27.183  1.00  0.00     0.274 C 
BRANCH   2   3
ATOM      3  O   UNL A   1      33.202  29.366  27.471  1.00  0.00    -0.462 OA
BRANCH   3   4
ATOM      4  C   UNL A   1      32.201  28.515  27.136  1.00  0.00     0.309 C 
ATOM      5  O   UNL A   1      31.374  28.082  27.927  1.00  0.00    -0.252 OA
BRANCH   4   6
ATOM      6  C   UNL A   1      32.306  28.179  25.661  1.00  0.00     0.103 C 
ATOM      7  C   UNL A   1      32.609  24.657  24.560  1.00  0.00     0.228 C 
ATOM      8  O   UNL A   1      31.526  24.129  24.830  1.00  0.00    -0.274 OA
ATOM      9  N   UNL A   1      32.664  25.942  24.017  1.00  0.00    -0.342 N 
ATOM     10  C   UNL A   1      31.402  26.638  23.845  1.00  0.00     0.120 C 
ATOM     11  C   UNL A   1      33.781  26.877  24.091  1.00  0.00     0.120 C 
ATOM     12  C   UNL A   1      31.105  27.356  25.151  1.00  0.00     0.037 C 
ATOM     13  C   UNL A   1      33.694  27.586  25.428  1.00  0.00     0.037 C 
BRANCH   7  14
ATOM     14  C   UNL A   1      33.908  23.857  24.754  1.00  0.00     0.051 C 
ATOM     15  C   UNL A   1      34.704  21.430  24.949  1.00  0.00    -0.003 C 
ATOM     16  C   UNL A   1      35.731  21.767  23.826  1.00  0.00     0.015 C 
ATOM     17  C   UNL A   1      33.505  22.382  24.791  1.00  0.00     0.028 C 
ATOM     18  C   UNL A   1      35.353  21.764  26.317  1.00  0.00     0.015 C 
ATOM     19  C   UNL A   1      36.206  23.232  23.915  1.00  0.00    -0.009 C 
ATOM     20  C   UNL A   1      35.771  23.251  26.378  1.00  0.00    -0.009 C 
ATOM     21  C   UNL A   1      36.816  23.519  25.287  1.00  0.00     0.007 C 
ATOM     22  C   UNL A   1      35.000  24.146  23.706  1.00  0.00     0.020 C 
ATOM     23  C   UNL A   1      34.547  24.161  26.139  1.00  0.00     0.020 C 
BRANCH  15  24
ATOM     24  C   UNL A   1      34.234  19.967  24.852  1.00  0.00    -0.042 A 
ATOM     25  C   UNL A   1      32.971  15.816  24.838  1.00  0.00     0.044 C 
ATOM     26  C   UNL A   1      33.383  17.255  24.827  1.00  0.00    -0.051 A 
ATOM     27  C   UNL A   1      34.713  17.577  24.576  1.00  0.00     0.004 A 
ATOM     28  C   UNL A   1      32.475  18.289  25.073  1.00  0.00     0.004 A 
ATOM     29  C   UNL A   1      35.125  18.908  24.579  1.00  0.00     0.004 A 
ATOM     30  C   UNL A   1      32.894  19.627  25.081  1.00  0.00     0.004 A 
ENDBRANCH  15  24
ENDBRANCH   7  14
ENDBRANCH   4   6
ENDBRANCH   3   4
ENDBRANCH   2   3
ENDBRANCH   1   2
BRANCH   1  31
ATOM     31  O   UNL A   1      35.480  30.990  27.614  1.00  0.00    -0.458 OA
BRANCH  31  32
ATOM     32  C   UNL A   1      36.249  30.843  28.735  1.00  0.00     0.338 C 
ATOM     33  O   UNL A   1      35.958  31.294  29.831  1.00  0.00    -0.246 OA
BRANCH  32  34
ATOM     34  C   UNL A   1      37.224  29.739  28.469  1.00  0.00     0.060 A 
ATOM     35  C   UNL A   1      38.039  29.771  27.331  1.00  0.00     0.016 A 
ATOM     36  C   UNL A   1      37.577  28.925  29.546  1.00  0.00     0.016 A 
ATOM     37  C   UNL A   1      39.301  29.156  27.360  1.00  0.00     0.010 A 
ATOM     38  C   UNL A   1      38.858  28.435  29.626  1.00  0.00     0.010 A 
ATOM     39  C   UNL A   1      39.742  28.571  28.549  1.00  0.00    -0.014 A 
BRANCH  39  40
ATOM     40  C   UNL A   1      40.969  27.797  28.704  1.00  0.00     0.031 A 
ATOM     41  C   UNL A   1      41.164  26.400  28.264  1.00  0.00     0.074 A 
ATOM     42  C   UNL A   1      41.980  28.539  29.199  1.00  0.00     0.049 A 
ATOM     43  N   UNL A   1      41.901  25.539  28.886  1.00  0.00    -0.248 NA
ATOM     44  C   UNL A   1      40.522  25.836  27.080  1.00  0.00     0.031 C 
ATOM     45  C   UNL A   1      43.394  28.240  29.279  1.00  0.00     0.029 A 
ATOM     46  N   UNL A   1      41.836  29.729  29.921  1.00  0.00    -0.354 N 
ATOM     47  C   UNL A   1      42.043  24.445  28.047  1.00  0.00     0.074 A 
ATOM     48  C   UNL A   1      41.035  24.600  27.030  1.00  0.00     0.031 C 
ATOM     49  C   UNL A   1      43.921  29.010  30.251  1.00  0.00     0.029 A 
ATOM     50  C   UNL A   1      42.812  29.699  30.908  1.00  0.00     0.049 A 
ATOM     51  H   UNL A   1      41.177  30.444  29.762  1.00  0.00     0.167 HD
ATOM     52  C   UNL A   1      43.139  23.638  28.126  1.00  0.00     0.031 A 
ATOM     53  C   UNL A   1      42.478  29.626  32.230  1.00  0.00     0.031 A 
ATOM     54  C   UNL A   1      44.096  24.185  29.072  1.00  0.00     0.049 A 
ATOM     55  C   UNL A   1      43.098  28.396  32.837  1.00  0.00     0.074 A 
ATOM     56  C   UNL A   1      45.171  25.034  28.869  1.00  0.00     0.029 A 
ATOM     57  N   UNL A   1      43.820  24.189  30.428  1.00  0.00    -0.354 N 
ATOM     58  N   UNL A   1      43.262  27.268  32.198  1.00  0.00    -0.248 NA
ATOM     59  C   UNL A   1      43.656  28.380  34.183  1.00  0.00     0.031 C 
ATOM     60  C   UNL A   1      45.490  25.627  30.112  1.00  0.00     0.029 A 
ATOM     61  C   UNL A   1      44.626  25.112  31.064  1.00  0.00     0.049 A 
ATOM     62  H   UNL A   1      43.152  23.619  30.872  1.00  0.00     0.167 HD
ATOM     63  C   UNL A   1      44.050  26.446  32.964  1.00  0.00     0.074 A 
ATOM     64  C   UNL A   1      44.225  27.165  34.214  1.00  0.00     0.031 C 
ATOM     65  C   UNL A   1      44.576  25.274  32.503  1.00  0.00     0.031 A 
BRANCH  52  66
ATOM     66  C   UNL A   1      43.522  22.604  27.087  1.00  0.00    -0.014 A 
ATOM     67  C   UNL A   1      42.733  21.439  26.953  1.00  0.00     0.010 A 
ATOM     68  C   UNL A   1      44.625  22.714  26.217  1.00  0.00     0.010 A 
ATOM     69  C   UNL A   1      43.067  20.401  26.074  1.00  0.00     0.020 A 
ATOM     70  C   UNL A   1      44.979  21.670  25.336  1.00  0.00     0.020 A 
ATOM     71  C   UNL A   1      44.204  20.512  25.282  1.00  0.00     0.054 A 
BRANCH  71  72
ATOM     72  S   UNL A   1      44.635  19.122  24.198  1.00  0.00     0.124 S 
ATOM     73  O   UNL A   1      46.030  18.867  24.556  1.00  0.00    -0.237 OA
ATOM     74  O   UNL A   1      43.685  18.092  24.609  1.00  0.00    -0.237 OA
ATOM     75  O   UNL A   1      44.433  19.653  22.851  1.00  0.00    -0.744 OA
ENDBRANCH  71  72
ENDBRANCH  52  66
BRANCH  53  76
ATOM     76  C   UNL A   1      41.135  30.184  32.596  1.00  0.00    -0.014 A 
ATOM     77  C   UNL A   1      40.312  29.425  33.462  1.00  0.00     0.010 A 
ATOM     78  C   UNL A   1      40.809  31.538  32.398  1.00  0.00     0.010 A 
ATOM     79  C   UNL A   1      39.277  30.021  34.193  1.00  0.00     0.020 A 
ATOM     80  C   UNL A   1      39.755  32.137  33.115  1.00  0.00     0.020 A 
ATOM     81  C   UNL A   1      39.024  31.383  34.038  1.00  0.00     0.054 A 
BRANCH  81  82
ATOM     82  S   UNL A   1      37.851  32.175  35.185  1.00  0.00     0.124 S 
ATOM     83  O   UNL A   1      36.665  32.344  34.351  1.00  0.00    -0.237 OA
ATOM     84  O   UNL A   1      37.737  31.176  36.247  1.00  0.00    -0.237 OA
ATOM     85  O   UNL A   1      38.534  33.408  35.569  1.00  0.00    -0.744 OA
ENDBRANCH  81  82
ENDBRANCH  53  76
BRANCH  65  86
ATOM     86  C   UNL A   1      45.241  24.212  33.339  1.00  0.00    -0.014 A 
ATOM     87  C   UNL A   1      46.504  24.367  33.924  1.00  0.00     0.010 A 
ATOM     88  C   UNL A   1      44.502  23.054  33.691  1.00  0.00     0.010 A 
ATOM     89  C   UNL A   1      47.031  23.386  34.772  1.00  0.00     0.020 A 
ATOM     90  C   UNL A   1      44.997  22.096  34.575  1.00  0.00     0.020 A 
ATOM     91  C   UNL A   1      46.275  22.258  35.091  1.00  0.00     0.054 A 
BRANCH  91  92
ATOM     92  S   UNL A   1      46.940  21.042  36.251  1.00  0.00     0.124 S 
ATOM     93  O   UNL A   1      47.336  21.888  37.374  1.00  0.00    -0.237 OA
ATOM     94  O   UNL A   1      45.794  20.169  36.499  1.00  0.00    -0.237 OA
ATOM     95  O   UNL A   1      48.037  20.425  35.511  1.00  0.00    -0.744 OA
ENDBRANCH  91  92
ENDBRANCH  65  86
ENDBRANCH  39  40
ENDBRANCH  32  34
ENDBRANCH  31  32
ENDBRANCH   1  31
TORSDOF 16
ENDMDL
MODEL 2
REMARK VINA RESULT:     -14.2      4.555     11.254
REMARK SMILES Cc1ccc([C@@]23C[C@@H]4C[C@@H](C[C@@](C(=O)N5CCC(C(=O)OCCOC(=O)c6ccc(-c7c8nc(c(-c9ccc(S(=O)(=O)[O-])cc9)c9ccc([nH]9)c(-c9ccc(S(=O)(=O)[O-])cc9)c9nc(c(-c%10ccc(S(=O)(=O)[O-])cc%10)c%10ccc7[nH]%10)C=C9)C=C8)cc6)CC5)(C4)C2)C3)cc1
REMARK SMILES IDX 23 1 22 2 21 3 19 4 20 5 18 6 13 7 14 8 15 9 16 10 88 11
REMARK SMILES IDX 17 12 87 13 12 14 6 15 7 16 90 17 91 18 8 19 10 20 9 21
REMARK SMILES IDX 89 22 11 23 5 24 1 25 2 26 3 27 93 28 4 29 92 30 24 31 25 32
REMARK SMILES IDX 26 33 27 34 28 35 86 36 29 37 85 38 30 39 31 40 32 41 79 42
REMARK SMILES IDX 33 43 84 44 78 45 80 46 34 47 83 48 77 49 76 50 35 52 65 53
REMARK SMILES IDX 46 54 64 55 47 56 50 57 63 58 81 59 48 60 49 61 62 63 82 64
REMARK SMILES IDX 51 65 36 66 37 67 45 68 38 69 44 70 39 71 40 72 41 73 42 74
REMARK SMILES IDX 43 75 66 76 67 77 75 78 68 79 74 80 69 81 70 82 71 83 72 84
REMARK SMILES IDX 73 85 52 86 53 87 61 88 54 89 60 90 55 91 56 92 57 93 58 94
REMARK SMILES IDX 59 95
REMARK H PARENT 80 51 50 62
REMARK Flexibility Score: inf
ROOT
ATOM      1  C   UNL A   1      39.629  21.827  26.456  1.00  0.00     0.275 C 
ENDROOT
BRANCH   1   2
ATOM      2  C   UNL A   1      38.769  21.106  25.400  1.00  0.00     0.274 C 
BRANCH   2   3
ATOM      3  O   UNL A   1      37.543  21.824  25.246  1.00  0.00    -0.462 OA
BRANCH   3   4
ATOM      4  C   UNL A   1      36.397  21.118  25.409  1.00  0.00     0.309 C 
ATOM      5  O   UNL A   1      36.168  20.046  24.865  1.00  0.00    -0.252 OA
BRANCH   4   6
ATOM      6  C   UNL A   1      35.467  21.884  26.329  1.00  0.00     0.103 C 
ATOM      7  C   UNL A   1      32.328  23.348  25.021  1.00  0.00     0.228 C 
ATOM      8  O   UNL A   1      31.609  22.387  24.730  1.00  0.00    -0.274 OA
ATOM      9  N   UNL A   1      33.084  23.346  26.196  1.00  0.00    -0.342 N 
ATOM     10  C   UNL A   1      33.027  22.148  27.013  1.00  0.00     0.120 C 
ATOM     11  C   UNL A   1      34.299  24.110  26.455  1.00  0.00     0.120 C 
ATOM     12  C   UNL A   1      34.094  21.199  26.492  1.00  0.00     0.037 C 
ATOM     13  C   UNL A   1      35.459  23.337  25.860  1.00  0.00     0.037 C 
BRANCH   7  14
ATOM     14  C   UNL A   1      32.330  24.592  24.117  1.00  0.00     0.051 C 
ATOM     15  C   UNL A   1      32.510  27.141  24.294  1.00  0.00    -0.003 C 
ATOM     16  C   UNL A   1      33.647  27.048  23.230  1.00  0.00     0.015 C 
ATOM     17  C   UNL A   1      32.460  25.800  25.047  1.00  0.00     0.028 C 
ATOM     18  C   UNL A   1      31.157  27.277  23.547  1.00  0.00     0.015 C 
ATOM     19  C   UNL A   1      33.400  25.895  22.237  1.00  0.00    -0.009 C 
ATOM     20  C   UNL A   1      30.931  26.077  22.598  1.00  0.00    -0.009 C 
ATOM     21  C   UNL A   1      32.047  26.059  21.545  1.00  0.00     0.007 C 
ATOM     22  C   UNL A   1      33.404  24.578  23.012  1.00  0.00     0.020 C 
ATOM     23  C   UNL A   1      30.964  24.754  23.392  1.00  0.00     0.020 C 
BRANCH  15  24
ATOM     24  C   UNL A   1      32.766  28.293  25.282  1.00  0.00    -0.042 A 
ATOM     25  C   UNL A   1      33.622  31.667  27.872  1.00  0.00     0.044 C 
ATOM     26  C   UNL A   1      33.299  30.502  26.988  1.00  0.00    -0.051 A 
ATOM     27  C   UNL A   1      34.199  29.445  26.907  1.00  0.00     0.004 A 
ATOM     28  C   UNL A   1      32.126  30.449  26.231  1.00  0.00     0.004 A 
ATOM     29  C   UNL A   1      33.929  28.359  26.076  1.00  0.00     0.004 A 
ATOM     30  C   UNL A   1      31.861  29.358  25.393  1.00  0.00     0.004 A 
ENDBRANCH  15  24
ENDBRANCH   7  14
ENDBRANCH   4   6
ENDBRANCH   3   4
ENDBRANCH   2   3
ENDBRANCH   1   2
BRANCH   1  31
ATOM     31  O   UNL A   1      39.324  23.226  26.674  1.00  0.00    -0.458 OA
BRANCH  31  32
ATOM     32  C   UNL A   1      40.372  24.056  26.962  1.00  0.00     0.338 C 
ATOM     33  O   UNL A   1      41.510  23.894  26.553  1.00  0.00    -0.246 OA
BRANCH  32  34
ATOM     34  C   UNL A   1      39.799  25.339  27.480  1.00  0.00     0.060 A 
ATOM     35  C   UNL A   1      39.181  25.384  28.736  1.00  0.00     0.016 A 
ATOM     36  C   UNL A   1      40.242  26.522  26.888  1.00  0.00     0.016 A 
ATOM     37  C   UNL A   1      39.199  26.575  29.479  1.00  0.00     0.010 A 
ATOM     38  C   UNL A   1      40.377  27.650  27.660  1.00  0.00     0.010 A 
ATOM     39  C   UNL A   1      39.886  27.680  28.970  1.00  0.00    -0.014 A 
BRANCH  39  40
ATOM     40  C   UNL A   1      39.897  29.011  29.565  1.00  0.00     0.031 A 
ATOM     41  C   UNL A   1      38.822  30.018  29.438  1.00  0.00     0.074 A 
ATOM     42  C   UNL A   1      40.966  29.205  30.364  1.00  0.00     0.049 A 
ATOM     43  N   UNL A   1      39.025  31.293  29.379  1.00  0.00    -0.248 NA
ATOM     44  C   UNL A   1      37.408  29.670  29.343  1.00  0.00     0.031 C 
ATOM     45  C   UNL A   1      41.232  30.264  31.314  1.00  0.00     0.029 A 
ATOM     46  N   UNL A   1      42.161  28.478  30.312  1.00  0.00    -0.354 N 
ATOM     47  C   UNL A   1      37.791  31.907  29.525  1.00  0.00     0.074 A 
ATOM     48  C   UNL A   1      36.812  30.870  29.321  1.00  0.00     0.031 C 
ATOM     49  C   UNL A   1      42.565  30.320  31.502  1.00  0.00     0.029 A 
ATOM     50  C   UNL A   1      43.177  29.394  30.551  1.00  0.00     0.049 A 
ATOM     51  H   UNL A   1      42.262  27.514  30.140  1.00  0.00     0.167 HD
ATOM     52  C   UNL A   1      37.689  33.164  30.044  1.00  0.00     0.031 A 
ATOM     53  C   UNL A   1      44.089  29.705  29.585  1.00  0.00     0.031 A 
ATOM     54  C   UNL A   1      38.990  33.624  30.499  1.00  0.00     0.049 A 
ATOM     55  C   UNL A   1      44.044  31.185  29.309  1.00  0.00     0.074 A 
ATOM     56  C   UNL A   1      39.586  33.536  31.746  1.00  0.00     0.029 A 
ATOM     57  N   UNL A   1      39.988  33.923  29.588  1.00  0.00    -0.354 N 
ATOM     58  N   UNL A   1      42.954  31.904  29.357  1.00  0.00    -0.248 NA
ATOM     59  C   UNL A   1      45.240  31.971  29.044  1.00  0.00     0.031 C 
ATOM     60  C   UNL A   1      40.978  33.696  31.569  1.00  0.00     0.029 A 
ATOM     61  C   UNL A   1      41.214  33.910  30.221  1.00  0.00     0.049 A 
ATOM     62  H   UNL A   1      39.845  34.116  28.633  1.00  0.00     0.167 HD
ATOM     63  C   UNL A   1      43.304  33.229  29.278  1.00  0.00     0.074 A 
ATOM     64  C   UNL A   1      44.736  33.216  29.031  1.00  0.00     0.031 C 
ATOM     65  C   UNL A   1      42.426  34.248  29.500  1.00  0.00     0.031 A 
BRANCH  52  66
ATOM     66  C   UNL A   1      36.394  33.803  30.502  1.00  0.00    -0.014 A 
ATOM     67  C   UNL A   1      35.483  34.282  29.534  1.00  0.00     0.010 A 
ATOM     68  C   UNL A   1      36.011  33.958  31.849  1.00  0.00     0.010 A 
ATOM     69  C   UNL A   1      34.305  34.956  29.877  1.00  0.00     0.020 A 
ATOM     70  C   UNL A   1      34.833  34.646  32.209  1.00  0.00     0.020 A 
ATOM     71  C   UNL A   1      33.994  35.154  31.217  1.00  0.00     0.054 A 
BRANCH  71  72
ATOM     72  S   UNL A   1      32.488  36.083  31.622  1.00  0.00     0.124 S 
ATOM     73  O   UNL A   1      31.935  36.374  30.300  1.00  0.00    -0.237 OA
ATOM     74  O   UNL A   1      31.729  35.125  32.421  1.00  0.00    -0.237 OA
ATOM     75  O   UNL A   1      32.982  37.248  32.353  1.00  0.00    -0.744 OA
ENDBRANCH  71  72
ENDBRANCH  52  66
BRANCH  53  76
ATOM     76  C   UNL A   1      44.338  28.644  28.554  1.00  0.00    -0.014 A 
ATOM     77  C   UNL A   1      44.007  28.932  27.208  1.00  0.00     0.010 A 
ATOM     78  C   UNL A   1      45.173  27.540  28.805  1.00  0.00     0.010 A 
ATOM     79  C   UNL A   1      44.582  28.221  26.148  1.00  0.00     0.020 A 
ATOM     80  C   UNL A   1      45.736  26.808  27.742  1.00  0.00     0.020 A 
ATOM     81  C   UNL A   1      45.468  27.180  26.421  1.00  0.00     0.054 A 
BRANCH  81  82
ATOM     82  S   UNL A   1      46.391  26.449  25.029  1.00  0.00     0.124 S 
ATOM     83  O   UNL A   1      47.669  26.111  25.647  1.00  0.00    -0.237 OA
ATOM     84  O   UNL A   1      45.547  25.312  24.664  1.00  0.00    -0.237 OA
ATOM     85  O   UNL A   1      46.430  27.529  24.047  1.00  0.00    -0.744 OA
ENDBRANCH  81  82
ENDBRANCH  53  76
BRANCH  65  86
ATOM     86  C   UNL A   1      42.664  35.705  29.202  1.00  0.00    -0.014 A 
ATOM     87  C   UNL A   1      42.014  36.400  28.174  1.00  0.00     0.010 A 
ATOM     88  C   UNL A   1      43.464  36.465  30.092  1.00  0.00     0.010 A 
ATOM     89  C   UNL A   1      42.200  37.776  28.005  1.00  0.00     0.020 A 
ATOM     90  C   UNL A   1      43.614  37.845  29.963  1.00  0.00     0.020 A 
ATOM     91  C   UNL A   1      42.998  38.490  28.899  1.00  0.00     0.054 A 
BRANCH  91  92
ATOM     92  S   UNL A   1      43.161  40.280  28.711  1.00  0.00     0.124 S 
ATOM     93  O   UNL A   1      42.720  40.475  27.333  1.00  0.00    -0.237 OA
ATOM     94  O   UNL A   1      42.258  40.797  29.737  1.00  0.00    -0.237 OA
ATOM     95  O   UNL A   1      44.579  40.524  28.959  1.00  0.00    -0.744 OA
ENDBRANCH  91  92
ENDBRANCH  65  86
ENDBRANCH  39  40
ENDBRANCH  32  34
ENDBRANCH  31  32
ENDBRANCH   1  31
TORSDOF 16
ENDMDL
MODEL 3
REMARK VINA RESULT:     -14.1      4.575     11.418
REMARK SMILES Cc1ccc([C@@]23C[C@@H]4C[C@@H](C[C@@](C(=O)N5CCC(C(=O)OCCOC(=O)c6ccc(-c7c8nc(c(-c9ccc(S(=O)(=O)[O-])cc9)c9ccc([nH]9)c(-c9ccc(S(=O)(=O)[O-])cc9)c9nc(c(-c%10ccc(S(=O)(=O)[O-])cc%10)c%10ccc7[nH]%10)C=C9)C=C8)cc6)CC5)(C4)C2)C3)cc1
REMARK SMILES IDX 23 1 22 2 21 3 19 4 20 5 18 6 13 7 14 8 15 9 16 10 88 11
REMARK SMILES IDX 17 12 87 13 12 14 6 15 7 16 90 17 91 18 8 19 10 20 9 21
REMARK SMILES IDX 89 22 11 23 5 24 1 25 2 26 3 27 93 28 4 29 92 30 24 31 25 32
REMARK SMILES IDX 26 33 27 34 28 35 86 36 29 37 85 38 30 39 31 40 32 41 79 42
REMARK SMILES IDX 33 43 84 44 78 45 80 46 34 47 83 48 77 49 76 50 35 52 65 53
REMARK SMILES IDX 46 54 64 55 47 56 50 57 63 58 81 59 48 60 49 61 62 63 82 64
REMARK SMILES IDX 51 65 36 66 37 67 45 68 38 69 44 70 39 71 40 72 41 73 42 74
REMARK SMILES IDX 43 75 66 76 67 77 75 78 68 79 74 80 69 81 70 82 71 83 72 84
REMARK SMILES IDX 73 85 52 86 53 87 61 88 54 89 60 90 55 91 56 92 57 93 58 94
REMARK SMILES IDX 59 95
REMARK H PARENT 80 51 50 62
REMARK Flexibility Score: inf
ROOT
ATOM      1  C   UNL A   1      39.542  22.001  26.254  1.00  0.00     0.275 C 
ENDROOT
BRANCH   1   2
ATOM      2  C   UNL A   1      38.362  21.453  25.429  1.00  0.00     0.274 C 
BRANCH   2   3
ATOM      3  O   UNL A   1      37.251  22.339  25.580  1.00  0.00    -0.462 OA
BRANCH   3   4
ATOM      4  C   UNL A   1      36.377  22.406  24.546  1.00  0.00     0.309 C 
ATOM      5  O   UNL A   1      36.707  22.557  23.377  1.00  0.00    -0.252 OA
BRANCH   4   6
ATOM      6  C   UNL A   1      34.963  22.296  25.081  1.00  0.00     0.103 C 
ATOM      7  C   UNL A   1      32.462  24.916  24.315  1.00  0.00     0.228 C 
ATOM      8  O   UNL A   1      32.247  24.826  23.102  1.00  0.00    -0.274 OA
ATOM      9  N   UNL A   1      32.585  23.772  25.106  1.00  0.00    -0.342 N 
ATOM     10  C   UNL A   1      32.508  22.491  24.428  1.00  0.00     0.120 C 
ATOM     11  C   UNL A   1      33.292  23.659  26.378  1.00  0.00     0.120 C 
ATOM     12  C   UNL A   1      33.913  22.147  23.961  1.00  0.00     0.037 C 
ATOM     13  C   UNL A   1      34.759  23.444  26.066  1.00  0.00     0.037 C 
BRANCH   7  14
ATOM     14  C   UNL A   1      32.518  26.305  24.972  1.00  0.00     0.051 C 
ATOM     15  C   UNL A   1      31.587  28.668  24.640  1.00  0.00    -0.003 C 
ATOM     16  C   UNL A   1      31.111  28.596  26.122  1.00  0.00     0.015 C 
ATOM     17  C   UNL A   1      31.665  27.229  24.101  1.00  0.00     0.028 C 
ATOM     18  C   UNL A   1      33.035  29.225  24.621  1.00  0.00     0.015 C 
ATOM     19  C   UNL A   1      32.077  27.762  26.987  1.00  0.00    -0.009 C 
ATOM     20  C   UNL A   1      33.977  28.332  25.462  1.00  0.00    -0.009 C 
ATOM     21  C   UNL A   1      33.494  28.333  26.919  1.00  0.00     0.007 C 
ATOM     22  C   UNL A   1      32.093  26.330  26.453  1.00  0.00     0.020 C 
ATOM     23  C   UNL A   1      33.961  26.884  24.926  1.00  0.00     0.020 C 
BRANCH  15  24
ATOM     24  C   UNL A   1      30.616  29.502  23.784  1.00  0.00    -0.042 A 
ATOM     25  C   UNL A   1      28.085  32.014  21.312  1.00  0.00     0.044 C 
ATOM     26  C   UNL A   1      28.945  31.123  22.154  1.00  0.00    -0.051 A 
ATOM     27  C   UNL A   1      29.122  31.427  23.499  1.00  0.00     0.004 A 
ATOM     28  C   UNL A   1      29.589  30.001  21.626  1.00  0.00     0.004 A 
ATOM     29  C   UNL A   1      29.934  30.624  24.298  1.00  0.00     0.004 A 
ATOM     30  C   UNL A   1      30.410  29.198  22.431  1.00  0.00     0.004 A 
ENDBRANCH  15  24
ENDBRANCH   7  14
ENDBRANCH   4   6
ENDBRANCH   3   4
ENDBRANCH   2   3
ENDBRANCH   1   2
BRANCH   1  31
ATOM     31  O   UNL A   1      39.297  23.238  26.967  1.00  0.00    -0.458 OA
BRANCH  31  32
ATOM     32  C   UNL A   1      40.336  24.123  27.057  1.00  0.00     0.338 C 
ATOM     33  O   UNL A   1      41.415  23.975  26.507  1.00  0.00    -0.246 OA
BRANCH  32  34
ATOM     34  C   UNL A   1      39.780  25.416  27.568  1.00  0.00     0.060 A 
ATOM     35  C   UNL A   1      39.132  25.468  28.809  1.00  0.00     0.016 A 
ATOM     36  C   UNL A   1      40.266  26.591  26.994  1.00  0.00     0.016 A 
ATOM     37  C   UNL A   1      39.160  26.654  29.560  1.00  0.00     0.010 A 
ATOM     38  C   UNL A   1      40.408  27.712  27.777  1.00  0.00     0.010 A 
ATOM     39  C   UNL A   1      39.885  27.746  29.075  1.00  0.00    -0.014 A 
BRANCH  39  40
ATOM     40  C   UNL A   1      39.913  29.073  29.678  1.00  0.00     0.031 A 
ATOM     41  C   UNL A   1      38.828  30.075  29.600  1.00  0.00     0.074 A 
ATOM     42  C   UNL A   1      41.011  29.267  30.436  1.00  0.00     0.049 A 
ATOM     43  N   UNL A   1      39.022  31.351  29.542  1.00  0.00    -0.248 NA
ATOM     44  C   UNL A   1      37.413  29.720  29.559  1.00  0.00     0.031 C 
ATOM     45  C   UNL A   1      41.309  30.321  31.382  1.00  0.00     0.029 A 
ATOM     46  N   UNL A   1      42.208  28.547  30.331  1.00  0.00    -0.354 N 
ATOM     47  C   UNL A   1      37.792  31.958  29.741  1.00  0.00     0.074 A 
ATOM     48  C   UNL A   1      36.812  30.916  29.569  1.00  0.00     0.031 C 
ATOM     49  C   UNL A   1      42.648  30.383  31.517  1.00  0.00     0.029 A 
ATOM     50  C   UNL A   1      43.227  29.467  30.536  1.00  0.00     0.049 A 
ATOM     51  H   UNL A   1      42.307  27.585  30.149  1.00  0.00     0.167 HD
ATOM     52  C   UNL A   1      37.704  33.210  30.273  1.00  0.00     0.031 A 
ATOM     53  C   UNL A   1      44.099  29.790  29.538  1.00  0.00     0.031 A 
ATOM     54  C   UNL A   1      39.019  33.674  30.680  1.00  0.00     0.049 A 
ATOM     55  C   UNL A   1      44.035  31.271  29.274  1.00  0.00     0.074 A 
ATOM     56  C   UNL A   1      39.664  33.581  31.901  1.00  0.00     0.029 A 
ATOM     57  N   UNL A   1      39.980  33.985  29.732  1.00  0.00    -0.354 N 
ATOM     58  N   UNL A   1      42.945  31.983  29.370  1.00  0.00    -0.248 NA
ATOM     59  C   UNL A   1      45.216  32.066  28.968  1.00  0.00     0.031 C 
ATOM     60  C   UNL A   1      41.048  33.750  31.670  1.00  0.00     0.029 A 
ATOM     61  C   UNL A   1      41.230  33.975  30.316  1.00  0.00     0.049 A 
ATOM     62  H   UNL A   1      39.797  34.184  28.785  1.00  0.00     0.167 HD
ATOM     63  C   UNL A   1      43.284  33.311  29.287  1.00  0.00     0.074 A 
ATOM     64  C   UNL A   1      44.705  33.307  28.983  1.00  0.00     0.031 C 
ATOM     65  C   UNL A   1      42.410  34.324  29.550  1.00  0.00     0.031 A 
BRANCH  52  66
ATOM     66  C   UNL A   1      36.425  33.839  30.786  1.00  0.00    -0.014 A 
ATOM     67  C   UNL A   1      35.382  34.119  29.874  1.00  0.00     0.010 A 
ATOM     68  C   UNL A   1      36.182  34.172  32.133  1.00  0.00     0.010 A 
ATOM     69  C   UNL A   1      34.203  34.771  30.255  1.00  0.00     0.020 A 
ATOM     70  C   UNL A   1      35.004  34.841  32.529  1.00  0.00     0.020 A 
ATOM     71  C   UNL A   1      34.028  35.150  31.582  1.00  0.00     0.054 A 
BRANCH  71  72
ATOM     72  S   UNL A   1      32.513  36.045  32.026  1.00  0.00     0.124 S 
ATOM     73  O   UNL A   1      32.991  36.987  33.038  1.00  0.00    -0.237 OA
ATOM     74  O   UNL A   1      32.113  36.643  30.755  1.00  0.00    -0.237 OA
ATOM     75  O   UNL A   1      31.624  35.000  32.529  1.00  0.00    -0.744 OA
ENDBRANCH  71  72
ENDBRANCH  52  66
BRANCH  53  76
ATOM     76  C   UNL A   1      44.312  28.737  28.490  1.00  0.00    -0.014 A 
ATOM     77  C   UNL A   1      44.129  29.099  27.135  1.00  0.00     0.010 A 
ATOM     78  C   UNL A   1      44.995  27.538  28.765  1.00  0.00     0.010 A 
ATOM     79  C   UNL A   1      44.707  28.357  26.097  1.00  0.00     0.020 A 
ATOM     80  C   UNL A   1      45.559  26.777  27.723  1.00  0.00     0.020 A 
ATOM     81  C   UNL A   1      45.445  27.214  26.400  1.00  0.00     0.054 A 
BRANCH  81  82
ATOM     82  S   UNL A   1      46.393  26.424  25.059  1.00  0.00     0.124 S 
ATOM     83  O   UNL A   1      45.570  25.262  24.741  1.00  0.00    -0.237 OA
ATOM     84  O   UNL A   1      46.421  27.474  24.042  1.00  0.00    -0.237 OA
ATOM     85  O   UNL A   1      47.682  26.134  25.682  1.00  0.00    -0.744 OA
ENDBRANCH  81  82
ENDBRANCH  53  76
BRANCH  65  86
ATOM     86  C   UNL A   1      42.629  35.784  29.253  1.00  0.00    -0.014 A 
ATOM     87  C   UNL A   1      43.472  36.608  30.010  1.00  0.00     0.010 A 
ATOM     88  C   UNL A   1      42.089  36.330  28.062  1.00  0.00     0.010 A 
ATOM     89  C   UNL A   1      43.715  37.933  29.631  1.00  0.00     0.020 A 
ATOM     90  C   UNL A   1      42.366  37.632  27.648  1.00  0.00     0.020 A 
ATOM     91  C   UNL A   1      43.162  38.436  28.453  1.00  0.00     0.054 A 
BRANCH  91  92
ATOM     92  S   UNL A   1      43.553  40.124  27.938  1.00  0.00     0.124 S 
ATOM     93  O   UNL A   1      42.925  40.186  26.621  1.00  0.00    -0.237 OA
ATOM     94  O   UNL A   1      42.916  40.935  28.974  1.00  0.00    -0.237 OA
ATOM     95  O   UNL A   1      45.013  40.155  27.941  1.00  0.00    -0.744 OA
ENDBRANCH  91  92
ENDBRANCH  65  86
ENDBRANCH  39  40
ENDBRANCH  32  34
ENDBRANCH  31  32
ENDBRANCH   1  31
TORSDOF 16
ENDMDL
