MODEL 1
REMARK VINA RESULT:     -12.9      0.000      0.000
REMARK SMILES O=C(OCCOC(=O)c1nnn(-c2cccc(C(F)(F)F)c2)c1[C@@H]1COc2ccccc2O1)c1ccc(-c2c3nc(c(-c4ccc(S(=O)(=O)[O-])cc4)c4ccc([nH]4)c(-c4ccc(S(=O)(=O)[O-])cc4)c4nc(c(-c5ccc(S(=O)(=O)[O-])cc5)c5ccc2[nH]5)C=C4)C=C3)cc1
REMARK SMILES IDX 4 1 3 2 2 3 1 4 34 5 35 6 93 7 36 8 92 9 37 10 38 11 39 12
REMARK SMILES IDX 86 13 40 14 91 15 85 16 87 17 41 18 90 19 84 20 83 21 42 23
REMARK SMILES IDX 72 24 53 25 71 26 54 27 57 28 70 29 88 30 55 31 56 32 69 34
REMARK SMILES IDX 89 35 58 36 43 37 44 38 52 39 45 40 51 41 46 42 47 43 48 44
REMARK SMILES IDX 49 45 50 46 73 47 74 48 82 49 75 50 81 51 76 52 77 53 78 54
REMARK SMILES IDX 79 55 80 56 59 57 60 58 68 59 61 60 67 61 62 62 63 63 64 64
REMARK SMILES IDX 65 65 66 66 5 67 6 68 7 69 8 70 9 71 10 72 23 73 11 74 12 75
REMARK SMILES IDX 24 76 25 77 33 78 26 79 32 80 27 81 31 82 28 83 30 84 29 85
REMARK SMILES IDX 13 86 14 87 22 88 15 89 17 90 16 91 18 92 19 93 20 94 21 95
REMARK H PARENT 87 22 57 33
REMARK Flexibility Score: inf
ROOT
ATOM      1  C   UNL A   1      32.435  30.873  26.488  1.00  0.00     0.275 C 
ENDROOT
BRANCH   1   2
ATOM      2  O   UNL A   1      33.265  30.757  27.661  1.00  0.00    -0.458 OA
BRANCH   2   3
ATOM      3  C   UNL A   1      34.203  31.706  27.876  1.00  0.00     0.338 C 
ATOM      4  O   UNL A   1      33.990  32.906  27.861  1.00  0.00    -0.246 OA
BRANCH   3   5
ATOM      5  C   UNL A   1      35.517  31.101  28.198  1.00  0.00     0.060 A 
ATOM      6  C   UNL A   1      35.720  29.720  28.106  1.00  0.00     0.016 A 
ATOM      7  C   UNL A   1      36.573  31.946  28.570  1.00  0.00     0.016 A 
ATOM      8  C   UNL A   1      36.963  29.185  28.412  1.00  0.00     0.010 A 
ATOM      9  C   UNL A   1      37.817  31.405  28.890  1.00  0.00     0.010 A 
ATOM     10  C   UNL A   1      38.006  30.024  28.820  1.00  0.00    -0.014 A 
BRANCH  10  11
ATOM     11  C   UNL A   1      39.290  29.389  29.089  1.00  0.00     0.031 A 
ATOM     12  C   UNL A   1      39.644  29.197  30.522  1.00  0.00     0.074 A 
ATOM     13  C   UNL A   1      40.128  28.925  28.144  1.00  0.00     0.049 A 
ATOM     14  N   UNL A   1      40.566  29.796  31.203  1.00  0.00    -0.248 NA
ATOM     15  C   UNL A   1      38.825  28.263  31.305  1.00  0.00     0.031 C 
ATOM     16  C   UNL A   1      39.861  28.720  26.721  1.00  0.00     0.029 A 
ATOM     17  N   UNL A   1      41.398  28.448  28.301  1.00  0.00    -0.354 N 
ATOM     18  C   UNL A   1      40.580  29.184  32.455  1.00  0.00     0.074 A 
ATOM     19  C   UNL A   1      39.410  28.339  32.502  1.00  0.00     0.031 C 
ATOM     20  C   UNL A   1      40.855  27.968  26.191  1.00  0.00     0.029 A 
ATOM     21  C   UNL A   1      41.886  27.767  27.198  1.00  0.00     0.049 A 
ATOM     22  H   UNL A   1      41.920  28.578  29.126  1.00  0.00     0.167 HD
ATOM     23  C   UNL A   1      41.650  29.262  33.295  1.00  0.00     0.031 A 
ATOM     24  C   UNL A   1      43.028  27.040  27.136  1.00  0.00     0.031 A 
ATOM     25  C   UNL A   1      42.577  30.294  32.911  1.00  0.00     0.049 A 
ATOM     26  C   UNL A   1      43.921  27.484  28.232  1.00  0.00     0.074 A 
ATOM     27  C   UNL A   1      42.502  31.660  32.723  1.00  0.00     0.029 A 
ATOM     28  N   UNL A   1      43.765  29.903  32.340  1.00  0.00    -0.354 N 
ATOM     29  N   UNL A   1      44.508  28.646  28.266  1.00  0.00    -0.248 NA
ATOM     30  C   UNL A   1      43.894  26.766  29.496  1.00  0.00     0.031 C 
ATOM     31  C   UNL A   1      43.396  31.937  31.648  1.00  0.00     0.029 A 
ATOM     32  C   UNL A   1      43.986  30.729  31.269  1.00  0.00     0.049 A 
ATOM     33  H   UNL A   1      44.346  29.168  32.643  1.00  0.00     0.167 HD
ATOM     34  C   UNL A   1      44.561  28.985  29.609  1.00  0.00     0.074 A 
ATOM     35  C   UNL A   1      44.279  27.742  30.320  1.00  0.00     0.031 C 
ATOM     36  C   UNL A   1      44.556  30.290  30.013  1.00  0.00     0.031 A 
BRANCH  23  37
ATOM     37  C   UNL A   1      42.047  28.170  34.263  1.00  0.00    -0.014 A 
ATOM     38  C   UNL A   1      42.249  28.501  35.621  1.00  0.00     0.010 A 
ATOM     39  C   UNL A   1      42.509  26.908  33.839  1.00  0.00     0.010 A 
ATOM     40  C   UNL A   1      42.954  27.651  36.483  1.00  0.00     0.020 A 
ATOM     41  C   UNL A   1      43.170  26.031  34.704  1.00  0.00     0.020 A 
ATOM     42  C   UNL A   1      43.428  26.427  36.009  1.00  0.00     0.054 A 
BRANCH  42  43
ATOM     43  S   UNL A   1      44.454  25.396  37.085  1.00  0.00     0.124 S 
ATOM     44  O   UNL A   1      44.288  24.078  36.480  1.00  0.00    -0.237 OA
ATOM     45  O   UNL A   1      45.774  26.003  36.933  1.00  0.00    -0.237 OA
ATOM     46  O   UNL A   1      43.844  25.566  38.401  1.00  0.00    -0.744 OA
ENDBRANCH  42  43
ENDBRANCH  23  37
BRANCH  24  47
ATOM     47  C   UNL A   1      43.288  25.812  26.349  1.00  0.00    -0.014 A 
ATOM     48  C   UNL A   1      44.496  25.645  25.649  1.00  0.00     0.010 A 
ATOM     49  C   UNL A   1      42.462  24.681  26.516  1.00  0.00     0.010 A 
ATOM     50  C   UNL A   1      44.896  24.380  25.191  1.00  0.00     0.020 A 
ATOM     51  C   UNL A   1      42.848  23.420  26.053  1.00  0.00     0.020 A 
ATOM     52  C   UNL A   1      44.077  23.270  25.416  1.00  0.00     0.054 A 
BRANCH  52  53
ATOM     53  S   UNL A   1      44.686  21.611  24.997  1.00  0.00     0.124 S 
ATOM     54  O   UNL A   1      46.028  21.619  25.572  1.00  0.00    -0.237 OA
ATOM     55  O   UNL A   1      43.719  20.740  25.659  1.00  0.00    -0.237 OA
ATOM     56  O   UNL A   1      44.638  21.586  23.536  1.00  0.00    -0.744 OA
ENDBRANCH  52  53
ENDBRANCH  24  47
BRANCH  36  57
ATOM     57  C   UNL A   1      44.886  31.367  29.006  1.00  0.00    -0.014 A 
ATOM     58  C   UNL A   1      46.183  31.871  28.796  1.00  0.00     0.010 A 
ATOM     59  C   UNL A   1      43.856  31.796  28.148  1.00  0.00     0.010 A 
ATOM     60  C   UNL A   1      46.434  32.807  27.783  1.00  0.00     0.020 A 
ATOM     61  C   UNL A   1      44.103  32.712  27.122  1.00  0.00     0.020 A 
ATOM     62  C   UNL A   1      45.390  33.224  26.952  1.00  0.00     0.054 A 
BRANCH  62  63
ATOM     63  S   UNL A   1      45.733  34.399  25.614  1.00  0.00     0.124 S 
ATOM     64  O   UNL A   1      44.905  33.891  24.525  1.00  0.00    -0.237 OA
ATOM     65  O   UNL A   1      45.308  35.675  26.187  1.00  0.00    -0.237 OA
ATOM     66  O   UNL A   1      47.175  34.276  25.404  1.00  0.00    -0.744 OA
ENDBRANCH  62  63
ENDBRANCH  36  57
ENDBRANCH  10  11
ENDBRANCH   3   5
ENDBRANCH   2   3
ENDBRANCH   1   2
BRANCH   1  67
ATOM     67  C   UNL A   1      32.528  29.750  25.457  1.00  0.00     0.275 C 
BRANCH  67  68
ATOM     68  O   UNL A   1      31.475  28.796  25.686  1.00  0.00    -0.457 OA
BRANCH  68  69
ATOM     69  C   UNL A   1      30.996  28.169  24.562  1.00  0.00     0.361 C 
ATOM     70  O   UNL A   1      30.539  28.746  23.591  1.00  0.00    -0.244 OA
BRANCH  69  71
ATOM     71  C   UNL A   1      31.034  26.719  24.690  1.00  0.00     0.198 A 
ATOM     72  N   UNL A   1      29.897  25.977  24.875  1.00  0.00    -0.122 NA
ATOM     73  C   UNL A   1      32.135  25.870  24.655  1.00  0.00     0.123 A 
ATOM     74  N   UNL A   1      30.242  24.701  24.938  1.00  0.00    -0.061 NA
ATOM     75  N   UNL A   1      31.593  24.629  24.947  1.00  0.00    -0.213 N 
BRANCH  73  76
ATOM     76  C   UNL A   1      33.559  26.149  24.276  1.00  0.00     0.262 C 
ATOM     77  C   UNL A   1      33.866  25.801  22.815  1.00  0.00     0.281 C 
ATOM     78  O   UNL A   1      34.468  25.577  25.222  1.00  0.00    -0.477 OA
ATOM     79  O   UNL A   1      34.008  24.392  22.629  1.00  0.00    -0.485 OA
ATOM     80  C   UNL A   1      35.191  24.513  24.742  1.00  0.00     0.162 A 
ATOM     81  C   UNL A   1      34.941  23.909  23.507  1.00  0.00     0.161 A 
ATOM     82  C   UNL A   1      36.158  23.981  25.593  1.00  0.00     0.050 A 
ATOM     83  C   UNL A   1      35.608  22.740  23.148  1.00  0.00     0.050 A 
ATOM     84  C   UNL A   1      36.850  22.826  25.221  1.00  0.00     0.004 A 
ATOM     85  C   UNL A   1      36.564  22.200  24.007  1.00  0.00     0.004 A 
ENDBRANCH  73  76
BRANCH  75  86
ATOM     86  C   UNL A   1      32.187  23.532  25.594  1.00  0.00     0.067 A 
ATOM     87  C   UNL A   1      32.633  23.661  26.909  1.00  0.00     0.028 A 
ATOM     88  C   UNL A   1      32.355  22.335  24.884  1.00  0.00     0.041 A 
ATOM     89  C   UNL A   1      33.169  22.545  27.551  1.00  0.00     0.003 A 
ATOM     90  C   UNL A   1      32.939  21.227  25.513  1.00  0.00     0.058 A 
ATOM     91  C   UNL A   1      33.315  21.336  26.862  1.00  0.00     0.013 A 
BRANCH  90  92
ATOM     92  C   UNL A   1      33.120  19.933  24.764  1.00  0.00     0.416 C 
ATOM     93  F   UNL A   1      32.590  19.960  23.508  1.00  0.00    -0.166 F 
ATOM     94  F   UNL A   1      34.430  19.593  24.608  1.00  0.00    -0.166 F 
ATOM     95  F   UNL A   1      32.536  18.866  25.383  1.00  0.00    -0.166 F 
ENDBRANCH  90  92
ENDBRANCH  75  86
ENDBRANCH  69  71
ENDBRANCH  68  69
ENDBRANCH  67  68
ENDBRANCH   1  67
TORSDOF 17
ENDMDL
MODEL 2
REMARK VINA RESULT:     -12.9      3.185      9.243
REMARK SMILES O=C(OCCOC(=O)c1nnn(-c2cccc(C(F)(F)F)c2)c1[C@@H]1COc2ccccc2O1)c1ccc(-c2c3nc(c(-c4ccc(S(=O)(=O)[O-])cc4)c4ccc([nH]4)c(-c4ccc(S(=O)(=O)[O-])cc4)c4nc(c(-c5ccc(S(=O)(=O)[O-])cc5)c5ccc2[nH]5)C=C4)C=C3)cc1
REMARK SMILES IDX 4 1 3 2 2 3 1 4 34 5 35 6 93 7 36 8 92 9 37 10 38 11 39 12
REMARK SMILES IDX 86 13 40 14 91 15 85 16 87 17 41 18 90 19 84 20 83 21 42 23
REMARK SMILES IDX 72 24 53 25 71 26 54 27 57 28 70 29 88 30 55 31 56 32 69 34
REMARK SMILES IDX 89 35 58 36 43 37 44 38 52 39 45 40 51 41 46 42 47 43 48 44
REMARK SMILES IDX 49 45 50 46 73 47 74 48 82 49 75 50 81 51 76 52 77 53 78 54
REMARK SMILES IDX 79 55 80 56 59 57 60 58 68 59 61 60 67 61 62 62 63 63 64 64
REMARK SMILES IDX 65 65 66 66 5 67 6 68 7 69 8 70 9 71 10 72 23 73 11 74 12 75
REMARK SMILES IDX 24 76 25 77 33 78 26 79 32 80 27 81 31 82 28 83 30 84 29 85
REMARK SMILES IDX 13 86 14 87 22 88 15 89 17 90 16 91 18 92 19 93 20 94 21 95
REMARK H PARENT 87 22 57 33
REMARK Flexibility Score: inf
ROOT
ATOM      1  C   UNL A   1      37.676  21.157  25.364  1.00  0.00     0.275 C 
ENDROOT
BRANCH   1   2
ATOM      2  O   UNL A   1      38.760  22.106  25.389  1.00  0.00    -0.458 OA
BRANCH   2   3
ATOM      3  C   UNL A   1      39.658  22.025  26.397  1.00  0.00     0.338 C 
ATOM      4  O   UNL A   1      40.223  21.001  26.740  1.00  0.00    -0.246 OA
BRANCH   3   5
ATOM      5  C   UNL A   1      39.916  23.355  26.996  1.00  0.00     0.060 A 
ATOM      6  C   UNL A   1      39.000  24.402  26.857  1.00  0.00     0.016 A 
ATOM      7  C   UNL A   1      41.092  23.541  27.738  1.00  0.00     0.016 A 
ATOM      8  C   UNL A   1      39.271  25.635  27.432  1.00  0.00     0.010 A 
ATOM      9  C   UNL A   1      41.370  24.784  28.303  1.00  0.00     0.010 A 
ATOM     10  C   UNL A   1      40.462  25.832  28.140  1.00  0.00    -0.014 A 
BRANCH  10  11
ATOM     11  C   UNL A   1      40.656  27.145  28.744  1.00  0.00     0.031 A 
ATOM     12  C   UNL A   1      41.760  27.971  28.184  1.00  0.00     0.074 A 
ATOM     13  C   UNL A   1      39.879  27.666  29.712  1.00  0.00     0.049 A 
ATOM     14  N   UNL A   1      42.877  28.298  28.750  1.00  0.00    -0.248 NA
ATOM     15  C   UNL A   1      41.626  28.440  26.800  1.00  0.00     0.031 C 
ATOM     16  C   UNL A   1      38.581  27.186  30.184  1.00  0.00     0.029 A 
ATOM     17  N   UNL A   1      40.072  28.815  30.422  1.00  0.00    -0.354 N 
ATOM     18  C   UNL A   1      43.512  29.174  27.872  1.00  0.00     0.074 A 
ATOM     19  C   UNL A   1      42.760  29.125  26.641  1.00  0.00     0.031 C 
ATOM     20  C   UNL A   1      38.009  28.148  30.945  1.00  0.00     0.029 A 
ATOM     21  C   UNL A   1      38.956  29.238  31.125  1.00  0.00     0.049 A 
ATOM     22  H   UNL A   1      40.928  29.301  30.432  1.00  0.00     0.167 HD
ATOM     23  C   UNL A   1      44.498  30.025  28.275  1.00  0.00     0.031 A 
ATOM     24  C   UNL A   1      38.802  30.425  31.762  1.00  0.00     0.031 A 
ATOM     25  C   UNL A   1      45.028  29.681  29.568  1.00  0.00     0.049 A 
ATOM     26  C   UNL A   1      40.147  30.986  32.028  1.00  0.00     0.074 A 
ATOM     27  C   UNL A   1      45.633  28.567  30.115  1.00  0.00     0.029 A 
ATOM     28  N   UNL A   1      44.679  30.478  30.632  1.00  0.00    -0.354 N 
ATOM     29  N   UNL A   1      40.987  30.486  32.889  1.00  0.00    -0.248 NA
ATOM     30  C   UNL A   1      40.721  31.921  31.073  1.00  0.00     0.031 C 
ATOM     31  C   UNL A   1      45.189  28.530  31.469  1.00  0.00     0.029 A 
ATOM     32  C   UNL A   1      44.369  29.642  31.673  1.00  0.00     0.049 A 
ATOM     33  H   UNL A   1      44.656  31.461  30.644  1.00  0.00     0.167 HD
ATOM     34  C   UNL A   1      42.241  30.714  32.344  1.00  0.00     0.074 A 
ATOM     35  C   UNL A   1      42.018  31.701  31.293  1.00  0.00     0.031 C 
ATOM     36  C   UNL A   1      43.292  29.882  32.610  1.00  0.00     0.031 A 
BRANCH  23  37
ATOM     37  C   UNL A   1      44.744  31.386  27.662  1.00  0.00    -0.014 A 
ATOM     38  C   UNL A   1      45.969  31.627  27.002  1.00  0.00     0.010 A 
ATOM     39  C   UNL A   1      43.947  32.510  27.961  1.00  0.00     0.010 A 
ATOM     40  C   UNL A   1      46.412  32.930  26.739  1.00  0.00     0.020 A 
ATOM     41  C   UNL A   1      44.358  33.810  27.658  1.00  0.00     0.020 A 
ATOM     42  C   UNL A   1      45.608  34.015  27.089  1.00  0.00     0.054 A 
BRANCH  42  43
ATOM     43  S   UNL A   1      46.242  35.696  26.872  1.00  0.00     0.124 S 
ATOM     44  O   UNL A   1      47.400  35.694  27.761  1.00  0.00    -0.237 OA
ATOM     45  O   UNL A   1      46.541  35.735  25.442  1.00  0.00    -0.237 OA
ATOM     46  O   UNL A   1      45.125  36.537  27.294  1.00  0.00    -0.744 OA
ENDBRANCH  42  43
ENDBRANCH  23  37
BRANCH  24  47
ATOM     47  C   UNL A   1      37.563  31.221  31.922  1.00  0.00    -0.014 A 
ATOM     48  C   UNL A   1      37.146  31.661  33.191  1.00  0.00     0.010 A 
ATOM     49  C   UNL A   1      36.940  31.789  30.791  1.00  0.00     0.010 A 
ATOM     50  C   UNL A   1      36.189  32.679  33.324  1.00  0.00     0.020 A 
ATOM     51  C   UNL A   1      35.978  32.795  30.915  1.00  0.00     0.020 A 
ATOM     52  C   UNL A   1      35.627  33.255  32.181  1.00  0.00     0.054 A 
BRANCH  52  53
ATOM     53  S   UNL A   1      34.540  34.700  32.353  1.00  0.00     0.124 S 
ATOM     54  O   UNL A   1      34.348  35.112  30.966  1.00  0.00    -0.237 OA
ATOM     55  O   UNL A   1      33.365  34.139  33.014  1.00  0.00    -0.237 OA
ATOM     56  O   UNL A   1      35.324  35.624  33.172  1.00  0.00    -0.744 OA
ENDBRANCH  52  53
ENDBRANCH  24  47
BRANCH  36  57
ATOM     57  C   UNL A   1      43.202  28.948  33.794  1.00  0.00    -0.014 A 
ATOM     58  C   UNL A   1      43.587  29.299  35.101  1.00  0.00     0.010 A 
ATOM     59  C   UNL A   1      42.582  27.699  33.593  1.00  0.00     0.010 A 
ATOM     60  C   UNL A   1      43.394  28.412  36.169  1.00  0.00     0.020 A 
ATOM     61  C   UNL A   1      42.366  26.820  34.657  1.00  0.00     0.020 A 
ATOM     62  C   UNL A   1      42.785  27.175  35.940  1.00  0.00     0.054 A 
BRANCH  62  63
ATOM     63  S   UNL A   1      42.497  26.055  37.336  1.00  0.00     0.124 S 
ATOM     64  O   UNL A   1      43.453  26.535  38.331  1.00  0.00    -0.237 OA
ATOM     65  O   UNL A   1      41.090  26.285  37.652  1.00  0.00    -0.237 OA
ATOM     66  O   UNL A   1      42.790  24.731  36.787  1.00  0.00    -0.744 OA
ENDBRANCH  62  63
ENDBRANCH  36  57
ENDBRANCH  10  11
ENDBRANCH   3   5
ENDBRANCH   2   3
ENDBRANCH   1   2
BRANCH   1  67
ATOM     67  C   UNL A   1      36.270  21.703  25.612  1.00  0.00     0.275 C 
BRANCH  67  68
ATOM     68  O   UNL A   1      35.598  21.895  24.354  1.00  0.00    -0.457 OA
BRANCH  68  69
ATOM     69  C   UNL A   1      34.246  21.656  24.368  1.00  0.00     0.361 C 
ATOM     70  O   UNL A   1      33.733  20.606  24.716  1.00  0.00    -0.244 OA
BRANCH  69  71
ATOM     71  C   UNL A   1      33.489  22.787  23.851  1.00  0.00     0.198 A 
ATOM     72  N   UNL A   1      32.856  22.742  22.637  1.00  0.00    -0.122 NA
ATOM     73  C   UNL A   1      33.275  24.032  24.433  1.00  0.00     0.123 A 
ATOM     74  N   UNL A   1      32.243  23.900  22.447  1.00  0.00    -0.061 NA
ATOM     75  N   UNL A   1      32.597  24.734  23.450  1.00  0.00    -0.213 N 
BRANCH  73  76
ATOM     76  C   UNL A   1      33.570  24.512  25.823  1.00  0.00     0.262 C 
ATOM     77  C   UNL A   1      32.366  24.386  26.765  1.00  0.00     0.281 C 
ATOM     78  O   UNL A   1      34.172  25.811  25.806  1.00  0.00    -0.477 OA
ATOM     79  O   UNL A   1      31.403  25.414  26.527  1.00  0.00    -0.485 OA
ATOM     80  C   UNL A   1      33.368  26.814  26.287  1.00  0.00     0.162 A 
ATOM     81  C   UNL A   1      32.017  26.636  26.595  1.00  0.00     0.161 A 
ATOM     82  C   UNL A   1      33.941  28.081  26.381  1.00  0.00     0.050 A 
ATOM     83  C   UNL A   1      31.222  27.729  26.932  1.00  0.00     0.050 A 
ATOM     84  C   UNL A   1      33.152  29.174  26.748  1.00  0.00     0.004 A 
ATOM     85  C   UNL A   1      31.792  28.999  27.009  1.00  0.00     0.004 A 
ENDBRANCH  73  76
BRANCH  75  86
ATOM     86  C   UNL A   1      32.600  26.115  23.185  1.00  0.00     0.067 A 
ATOM     87  C   UNL A   1      33.794  26.754  22.854  1.00  0.00     0.028 A 
ATOM     88  C   UNL A   1      31.400  26.829  23.299  1.00  0.00     0.041 A 
ATOM     89  C   UNL A   1      33.766  28.113  22.540  1.00  0.00     0.003 A 
ATOM     90  C   UNL A   1      31.380  28.206  23.033  1.00  0.00     0.058 A 
ATOM     91  C   UNL A   1      32.568  28.831  22.622  1.00  0.00     0.013 A 
BRANCH  90  92
ATOM     92  C   UNL A   1      30.096  28.985  23.145  1.00  0.00     0.416 C 
ATOM     93  F   UNL A   1      29.750  29.620  21.988  1.00  0.00    -0.166 F 
ATOM     94  F   UNL A   1      29.030  28.201  23.472  1.00  0.00    -0.166 F 
ATOM     95  F   UNL A   1      30.139  29.961  24.098  1.00  0.00    -0.166 F 
ENDBRANCH  90  92
ENDBRANCH  75  86
ENDBRANCH  69  71
ENDBRANCH  68  69
ENDBRANCH  67  68
ENDBRANCH   1  67
TORSDOF 17
ENDMDL
MODEL 3
REMARK VINA RESULT:     -12.3      1.383      2.541
REMARK SMILES O=C(OCCOC(=O)c1nnn(-c2cccc(C(F)(F)F)c2)c1[C@@H]1COc2ccccc2O1)c1ccc(-c2c3nc(c(-c4ccc(S(=O)(=O)[O-])cc4)c4ccc([nH]4)c(-c4ccc(S(=O)(=O)[O-])cc4)c4nc(c(-c5ccc(S(=O)(=O)[O-])cc5)c5ccc2[nH]5)C=C4)C=C3)cc1
REMARK SMILES IDX 4 1 3 2 2 3 1 4 34 5 35 6 93 7 36 8 92 9 37 10 38 11 39 12
REMARK SMILES IDX 86 13 40 14 91 15 85 16 87 17 41 18 90 19 84 20 83 21 42 23
REMARK SMILES IDX 72 24 53 25 71 26 54 27 57 28 70 29 88 30 55 31 56 32 69 34
REMARK SMILES IDX 89 35 58 36 43 37 44 38 52 39 45 40 51 41 46 42 47 43 48 44
REMARK SMILES IDX 49 45 50 46 73 47 74 48 82 49 75 50 81 51 76 52 77 53 78 54
REMARK SMILES IDX 79 55 80 56 59 57 60 58 68 59 61 60 67 61 62 62 63 63 64 64
REMARK SMILES IDX 65 65 66 66 5 67 6 68 7 69 8 70 9 71 10 72 23 73 11 74 12 75
REMARK SMILES IDX 24 76 25 77 33 78 26 79 32 80 27 81 31 82 28 83 30 84 29 85
REMARK SMILES IDX 13 86 14 87 22 88 15 89 17 90 16 91 18 92 19 93 20 94 21 95
REMARK H PARENT 87 22 57 33
REMARK Flexibility Score: inf
ROOT
ATOM      1  C   UNL A   1      32.297  31.282  26.773  1.00  0.00     0.275 C 
ENDROOT
BRANCH   1   2
ATOM      2  O   UNL A   1      33.460  30.867  27.516  1.00  0.00    -0.458 OA
BRANCH   2   3
ATOM      3  C   UNL A   1      34.343  31.815  27.902  1.00  0.00     0.338 C 
ATOM      4  O   UNL A   1      34.075  32.996  28.043  1.00  0.00    -0.246 OA
BRANCH   3   5
ATOM      5  C   UNL A   1      35.671  31.226  28.193  1.00  0.00     0.060 A 
ATOM      6  C   UNL A   1      35.903  29.854  28.048  1.00  0.00     0.016 A 
ATOM      7  C   UNL A   1      36.712  32.078  28.591  1.00  0.00     0.016 A 
ATOM      8  C   UNL A   1      37.158  29.335  28.327  1.00  0.00     0.010 A 
ATOM      9  C   UNL A   1      37.969  31.553  28.885  1.00  0.00     0.010 A 
ATOM     10  C   UNL A   1      38.186  30.180  28.762  1.00  0.00    -0.014 A 
BRANCH  10  11
ATOM     11  C   UNL A   1      39.485  29.562  29.000  1.00  0.00     0.031 A 
ATOM     12  C   UNL A   1      39.913  29.453  30.421  1.00  0.00     0.074 A 
ATOM     13  C   UNL A   1      40.274  29.043  28.040  1.00  0.00     0.049 A 
ATOM     14  N   UNL A   1      40.867  30.092  31.017  1.00  0.00    -0.248 NA
ATOM     15  C   UNL A   1      39.140  28.566  31.299  1.00  0.00     0.031 C 
ATOM     16  C   UNL A   1      39.934  28.755  26.648  1.00  0.00     0.029 A 
ATOM     17  N   UNL A   1      41.552  28.578  28.158  1.00  0.00    -0.354 N 
ATOM     18  C   UNL A   1      40.948  29.554  32.300  1.00  0.00     0.074 A 
ATOM     19  C   UNL A   1      39.786  28.713  32.457  1.00  0.00     0.031 C 
ATOM     20  C   UNL A   1      40.902  27.975  26.112  1.00  0.00     0.029 A 
ATOM     21  C   UNL A   1      41.984  27.833  27.074  1.00  0.00     0.049 A 
ATOM     22  H   UNL A   1      42.116  28.755  28.946  1.00  0.00     0.167 HD
ATOM     23  C   UNL A   1      42.061  29.682  33.076  1.00  0.00     0.031 A 
ATOM     24  C   UNL A   1      43.125  27.104  26.994  1.00  0.00     0.031 A 
ATOM     25  C   UNL A   1      42.963  30.690  32.585  1.00  0.00     0.049 A 
ATOM     26  C   UNL A   1      44.071  27.612  28.014  1.00  0.00     0.074 A 
ATOM     27  C   UNL A   1      42.873  32.042  32.322  1.00  0.00     0.029 A 
ATOM     28  N   UNL A   1      44.121  30.266  31.977  1.00  0.00    -0.354 N 
ATOM     29  N   UNL A   1      44.656  28.775  27.950  1.00  0.00    -0.248 NA
ATOM     30  C   UNL A   1      44.113  26.969  29.318  1.00  0.00     0.031 C 
ATOM     31  C   UNL A   1      43.709  32.256  31.188  1.00  0.00     0.029 A 
ATOM     32  C   UNL A   1      44.283  31.029  30.850  1.00  0.00     0.049 A 
ATOM     33  H   UNL A   1      44.720  29.551  32.291  1.00  0.00     0.167 HD
ATOM     34  C   UNL A   1      44.777  29.191  29.267  1.00  0.00     0.074 A 
ATOM     35  C   UNL A   1      44.537  27.992  30.062  1.00  0.00     0.031 C 
ATOM     36  C   UNL A   1      44.788  30.518  29.593  1.00  0.00     0.031 A 
BRANCH  23  37
ATOM     37  C   UNL A   1      42.512  28.648  34.085  1.00  0.00    -0.014 A 
ATOM     38  C   UNL A   1      43.123  27.462  33.623  1.00  0.00     0.010 A 
ATOM     39  C   UNL A   1      42.098  28.670  35.432  1.00  0.00     0.010 A 
ATOM     40  C   UNL A   1      43.230  26.329  34.441  1.00  0.00     0.020 A 
ATOM     41  C   UNL A   1      42.245  27.561  36.271  1.00  0.00     0.020 A 
ATOM     42  C   UNL A   1      42.769  26.383  35.756  1.00  0.00     0.054 A 
BRANCH  42  43
ATOM     43  S   UNL A   1      42.784  24.880  36.764  1.00  0.00     0.124 S 
ATOM     44  O   UNL A   1      43.587  25.298  37.909  1.00  0.00    -0.237 OA
ATOM     45  O   UNL A   1      41.363  24.668  37.029  1.00  0.00    -0.237 OA
ATOM     46  O   UNL A   1      43.404  23.890  35.887  1.00  0.00    -0.744 OA
ENDBRANCH  42  43
ENDBRANCH  23  37
BRANCH  24  47
ATOM     47  C   UNL A   1      43.347  25.833  26.268  1.00  0.00    -0.014 A 
ATOM     48  C   UNL A   1      44.516  25.628  25.513  1.00  0.00     0.010 A 
ATOM     49  C   UNL A   1      42.539  24.712  26.547  1.00  0.00     0.010 A 
ATOM     50  C   UNL A   1      44.897  24.338  25.109  1.00  0.00     0.020 A 
ATOM     51  C   UNL A   1      42.905  23.426  26.138  1.00  0.00     0.020 A 
ATOM     52  C   UNL A   1      44.098  23.242  25.444  1.00  0.00     0.054 A 
BRANCH  52  53
ATOM     53  S   UNL A   1      44.692  21.562  25.090  1.00  0.00     0.124 S 
ATOM     54  O   UNL A   1      44.639  21.514  23.633  1.00  0.00    -0.237 OA
ATOM     55  O   UNL A   1      46.030  21.568  25.675  1.00  0.00    -0.237 OA
ATOM     56  O   UNL A   1      43.726  20.705  25.775  1.00  0.00    -0.744 OA
ENDBRANCH  52  53
ENDBRANCH  24  47
BRANCH  36  57
ATOM     57  C   UNL A   1      45.062  31.534  28.509  1.00  0.00    -0.014 A 
ATOM     58  C   UNL A   1      44.073  32.356  27.938  1.00  0.00     0.010 A 
ATOM     59  C   UNL A   1      46.405  31.754  28.145  1.00  0.00     0.010 A 
ATOM     60  C   UNL A   1      44.412  33.340  26.999  1.00  0.00     0.020 A 
ATOM     61  C   UNL A   1      46.752  32.748  27.227  1.00  0.00     0.020 A 
ATOM     62  C   UNL A   1      45.751  33.530  26.648  1.00  0.00     0.054 A 
BRANCH  62  63
ATOM     63  S   UNL A   1      46.184  34.837  25.468  1.00  0.00     0.124 S 
ATOM     64  O   UNL A   1      45.815  36.051  26.191  1.00  0.00    -0.237 OA
ATOM     65  O   UNL A   1      47.617  34.633  25.270  1.00  0.00    -0.237 OA
ATOM     66  O   UNL A   1      45.359  34.538  24.299  1.00  0.00    -0.744 OA
ENDBRANCH  62  63
ENDBRANCH  36  57
ENDBRANCH  10  11
ENDBRANCH   3   5
ENDBRANCH   2   3
ENDBRANCH   1   2
BRANCH   1  67
ATOM     67  C   UNL A   1      31.445  30.181  26.145  1.00  0.00     0.275 C 
BRANCH  67  68
ATOM     68  O   UNL A   1      31.050  30.573  24.817  1.00  0.00    -0.457 OA
BRANCH  68  69
ATOM     69  C   UNL A   1      30.618  29.553  24.007  1.00  0.00     0.361 C 
ATOM     70  O   UNL A   1      29.471  29.415  23.620  1.00  0.00    -0.244 OA
BRANCH  69  71
ATOM     71  C   UNL A   1      31.683  28.604  23.712  1.00  0.00     0.198 A 
ATOM     72  N   UNL A   1      32.721  28.916  22.874  1.00  0.00    -0.122 NA
ATOM     73  C   UNL A   1      31.846  27.304  24.179  1.00  0.00     0.123 A 
ATOM     74  N   UNL A   1      33.532  27.872  22.814  1.00  0.00    -0.061 NA
ATOM     75  N   UNL A   1      32.952  26.848  23.480  1.00  0.00    -0.213 N 
BRANCH  73  76
ATOM     76  C   UNL A   1      31.115  26.567  25.260  1.00  0.00     0.262 C 
ATOM     77  C   UNL A   1      31.861  26.581  26.600  1.00  0.00     0.281 C 
ATOM     78  O   UNL A   1      30.715  25.265  24.822  1.00  0.00    -0.477 OA
ATOM     79  O   UNL A   1      32.955  25.662  26.602  1.00  0.00    -0.485 OA
ATOM     80  C   UNL A   1      31.392  24.232  25.420  1.00  0.00     0.162 A 
ATOM     81  C   UNL A   1      32.503  24.418  26.247  1.00  0.00     0.161 A 
ATOM     82  C   UNL A   1      30.974  22.942  25.098  1.00  0.00     0.050 A 
ATOM     83  C   UNL A   1      33.236  23.323  26.697  1.00  0.00     0.050 A 
ATOM     84  C   UNL A   1      31.691  21.841  25.575  1.00  0.00     0.004 A 
ATOM     85  C   UNL A   1      32.827  22.033  26.361  1.00  0.00     0.004 A 
ENDBRANCH  73  76
BRANCH  75  86
ATOM     86  C   UNL A   1      33.267  25.539  23.074  1.00  0.00     0.067 A 
ATOM     87  C   UNL A   1      32.444  24.880  22.161  1.00  0.00     0.028 A 
ATOM     88  C   UNL A   1      34.387  24.908  23.631  1.00  0.00     0.041 A 
ATOM     89  C   UNL A   1      32.804  23.604  21.730  1.00  0.00     0.003 A 
ATOM     90  C   UNL A   1      34.722  23.606  23.235  1.00  0.00     0.058 A 
ATOM     91  C   UNL A   1      33.937  22.974  22.257  1.00  0.00     0.013 A 
BRANCH  90  92
ATOM     92  C   UNL A   1      35.927  22.917  23.820  1.00  0.00     0.416 C 
ATOM     93  F   UNL A   1      36.465  23.584  24.882  1.00  0.00    -0.166 F 
ATOM     94  F   UNL A   1      35.649  21.662  24.272  1.00  0.00    -0.166 F 
ATOM     95  F   UNL A   1      36.949  22.768  22.929  1.00  0.00    -0.166 F 
ENDBRANCH  90  92
ENDBRANCH  75  86
ENDBRANCH  69  71
ENDBRANCH  68  69
ENDBRANCH  67  68
ENDBRANCH   1  67
TORSDOF 17
ENDMDL
