MODEL 1
REMARK VINA RESULT:     -10.4      0.000      0.000
REMARK SMILES N#Cc1cccc(/C=C/C(=O)NCC(=O)OCCOC(=O)c2ccc(-c3c4nc(c(-c5ccc(S(=O)(=O)[O-])cc5)c5ccc([nH]5)c(-c5ccc(S(=O)(=O)[O-])cc5)c5nc(c(-c6ccc(S(=O)(=O)[O-])cc6)c6ccc3[nH]6)C=C5)C=C4)cc2)c1
REMARK SMILES IDX 17 1 16 2 14 3 15 4 13 5 12 6 10 7 11 8 9 10 8 11 7 12 3 13
REMARK SMILES IDX 4 14 82 15 5 16 6 17 2 18 1 19 18 20 19 21 20 22 21 23 22 24
REMARK SMILES IDX 23 25 81 26 24 27 80 28 25 29 26 30 27 31 74 32 28 33 79 34
REMARK SMILES IDX 73 35 75 36 29 37 78 38 72 39 71 40 30 42 60 43 41 44 59 45
REMARK SMILES IDX 42 46 45 47 58 48 76 49 43 50 44 51 57 53 77 54 46 55 31 56
REMARK SMILES IDX 32 57 40 58 33 59 39 60 34 61 35 62 36 63 37 64 38 65 61 66
REMARK SMILES IDX 62 67 70 68 63 69 69 70 64 71 65 72 66 73 67 74 68 75 47 76
REMARK SMILES IDX 48 77 56 78 49 79 55 80 50 81 51 82 52 83 53 84 54 85
REMARK H PARENT 12 9 75 41 45 52
REMARK Flexibility Score: inf
ROOT
ATOM      1  C   UNL A   1      34.787  33.514  30.336  1.00  0.00     0.274 C 
ENDROOT
BRANCH   1   2
ATOM      2  O   UNL A   1      34.666  33.843  28.938  1.00  0.00    -0.461 OA
BRANCH   2   3
ATOM      3  C   UNL A   1      33.404  33.878  28.432  1.00  0.00     0.325 C 
ATOM      4  O   UNL A   1      32.605  34.788  28.622  1.00  0.00    -0.250 OA
BRANCH   3   5
ATOM      5  C   UNL A   1      33.125  32.711  27.474  1.00  0.00     0.239 C 
BRANCH   5   6
ATOM      6  N   UNL A   1      33.864  31.497  27.743  1.00  0.00    -0.342 N 
ATOM      7  C   UNL A   1      33.635  30.233  27.317  1.00  0.00     0.244 C 
ATOM      8  O   UNL A   1      34.456  29.347  27.535  1.00  0.00    -0.270 OA
ATOM      9  H   UNL A   1      34.653  31.607  28.321  1.00  0.00     0.164 HD
BRANCH   7  10
ATOM     10  C   UNL A   1      32.424  29.916  26.521  1.00  0.00     0.072 C 
ATOM     11  C   UNL A   1      32.437  29.539  25.234  1.00  0.00     0.014 C 
BRANCH  11  12
ATOM     12  C   UNL A   1      31.256  29.258  24.414  1.00  0.00    -0.024 A 
ATOM     13  C   UNL A   1      29.174  30.064  23.447  1.00  0.00     0.053 A 
ATOM     14  C   UNL A   1      28.846  28.757  23.075  1.00  0.00     0.019 A 
ATOM     15  C   UNL A   1      30.380  30.313  24.112  1.00  0.00     0.027 A 
ATOM     16  C   UNL A   1      29.721  27.708  23.358  1.00  0.00     0.002 A 
ATOM     17  C   UNL A   1      30.919  27.957  24.027  1.00  0.00     0.008 A 
BRANCH  13  18
ATOM     18  C   UNL A   1      28.262  31.135  23.180  1.00  0.00     0.099 C 
ATOM     19  N   UNL A   1      27.535  32.022  22.986  1.00  0.00    -0.192 NA
ENDBRANCH  13  18
ENDBRANCH  11  12
ENDBRANCH   7  10
ENDBRANCH   5   6
ENDBRANCH   3   5
ENDBRANCH   2   3
ENDBRANCH   1   2
BRANCH   1  20
ATOM     20  C   UNL A   1      36.118  32.799  30.600  1.00  0.00     0.275 C 
BRANCH  20  21
ATOM     21  O   UNL A   1      36.203  31.552  29.880  1.00  0.00    -0.458 OA
BRANCH  21  22
ATOM     22  C   UNL A   1      36.558  30.492  30.639  1.00  0.00     0.338 C 
ATOM     23  O   UNL A   1      35.997  30.089  31.648  1.00  0.00    -0.246 OA
BRANCH  22  24
ATOM     24  C   UNL A   1      37.672  29.749  30.038  1.00  0.00     0.060 A 
ATOM     25  C   UNL A   1      38.496  29.002  30.877  1.00  0.00     0.016 A 
ATOM     26  C   UNL A   1      38.049  29.997  28.722  1.00  0.00     0.016 A 
ATOM     27  C   UNL A   1      39.775  28.658  30.473  1.00  0.00     0.010 A 
ATOM     28  C   UNL A   1      39.288  29.528  28.272  1.00  0.00     0.010 A 
ATOM     29  C   UNL A   1      40.186  28.913  29.163  1.00  0.00    -0.014 A 
BRANCH  29  30
ATOM     30  C   UNL A   1      41.575  28.568  28.764  1.00  0.00     0.031 A 
ATOM     31  C   UNL A   1      42.656  29.615  28.808  1.00  0.00     0.074 A 
ATOM     32  C   UNL A   1      41.867  27.300  28.415  1.00  0.00     0.049 A 
ATOM     33  N   UNL A   1      43.909  29.518  28.445  1.00  0.00    -0.248 NA
ATOM     34  C   UNL A   1      42.281  30.947  29.310  1.00  0.00     0.031 C 
ATOM     35  C   UNL A   1      40.913  26.186  28.382  1.00  0.00     0.029 A 
ATOM     36  N   UNL A   1      43.053  26.725  28.036  1.00  0.00    -0.354 N 
ATOM     37  C   UNL A   1      44.458  30.781  28.636  1.00  0.00     0.074 A 
ATOM     38  C   UNL A   1      43.395  31.636  29.115  1.00  0.00     0.031 C 
ATOM     39  C   UNL A   1      41.557  25.060  28.044  1.00  0.00     0.029 A 
ATOM     40  C   UNL A   1      42.947  25.385  27.751  1.00  0.00     0.049 A 
ATOM     41  H   UNL A   1      43.899  27.225  27.974  1.00  0.00     0.167 HD
ATOM     42  C   UNL A   1      45.735  31.189  28.434  1.00  0.00     0.031 A 
ATOM     43  C   UNL A   1      43.857  24.516  27.272  1.00  0.00     0.031 A 
ATOM     44  C   UNL A   1      46.786  30.324  27.963  1.00  0.00     0.049 A 
ATOM     45  C   UNL A   1      45.247  25.010  26.998  1.00  0.00     0.074 A 
ATOM     46  C   UNL A   1      48.117  30.630  27.740  1.00  0.00     0.029 A 
ATOM     47  N   UNL A   1      46.627  28.983  27.642  1.00  0.00    -0.354 N 
ATOM     48  N   UNL A   1      45.749  26.209  27.180  1.00  0.00    -0.248 NA
ATOM     49  C   UNL A   1      46.198  24.031  26.462  1.00  0.00     0.031 C 
ATOM     50  C   UNL A   1      48.744  29.497  27.214  1.00  0.00     0.029 A 
ATOM     51  C   UNL A   1      47.827  28.457  27.194  1.00  0.00     0.049 A 
ATOM     52  H   UNL A   1      45.785  28.479  27.723  1.00  0.00     0.167 HD
ATOM     53  C   UNL A   1      47.086  26.119  26.811  1.00  0.00     0.074 A 
ATOM     54  C   UNL A   1      47.316  24.741  26.422  1.00  0.00     0.031 C 
ATOM     55  C   UNL A   1      48.038  27.085  26.800  1.00  0.00     0.031 A 
BRANCH  42  56
ATOM     56  C   UNL A   1      46.054  32.644  28.677  1.00  0.00    -0.014 A 
ATOM     57  C   UNL A   1      46.557  33.095  29.910  1.00  0.00     0.010 A 
ATOM     58  C   UNL A   1      45.877  33.572  27.633  1.00  0.00     0.010 A 
ATOM     59  C   UNL A   1      46.837  34.452  30.108  1.00  0.00     0.020 A 
ATOM     60  C   UNL A   1      46.190  34.922  27.815  1.00  0.00     0.020 A 
ATOM     61  C   UNL A   1      46.654  35.356  29.057  1.00  0.00     0.054 A 
BRANCH  61  62
ATOM     62  S   UNL A   1      47.054  37.103  29.333  1.00  0.00     0.124 S 
ATOM     63  O   UNL A   1      45.825  37.767  28.904  1.00  0.00    -0.237 OA
ATOM     64  O   UNL A   1      47.320  37.144  30.769  1.00  0.00    -0.237 OA
ATOM     65  O   UNL A   1      48.216  37.334  28.479  1.00  0.00    -0.744 OA
ENDBRANCH  61  62
ENDBRANCH  42  56
BRANCH  43  66
ATOM     66  C   UNL A   1      43.468  23.105  26.996  1.00  0.00    -0.014 A 
ATOM     67  C   UNL A   1      43.006  22.269  28.027  1.00  0.00     0.010 A 
ATOM     68  C   UNL A   1      43.554  22.589  25.689  1.00  0.00     0.010 A 
ATOM     69  C   UNL A   1      42.665  20.939  27.762  1.00  0.00     0.020 A 
ATOM     70  C   UNL A   1      43.176  21.273  25.411  1.00  0.00     0.020 A 
ATOM     71  C   UNL A   1      42.748  20.453  26.455  1.00  0.00     0.054 A 
BRANCH  71  72
ATOM     72  S   UNL A   1      42.260  18.736  26.131  1.00  0.00     0.124 S 
ATOM     73  O   UNL A   1      43.203  18.344  25.088  1.00  0.00    -0.237 OA
ATOM     74  O   UNL A   1      42.457  18.104  27.433  1.00  0.00    -0.237 OA
ATOM     75  O   UNL A   1      40.867  18.849  25.706  1.00  0.00    -0.744 OA
ENDBRANCH  71  72
ENDBRANCH  43  66
BRANCH  55  76
ATOM     76  C   UNL A   1      49.432  26.668  26.402  1.00  0.00    -0.014 A 
ATOM     77  C   UNL A   1      49.871  26.731  25.067  1.00  0.00     0.010 A 
ATOM     78  C   UNL A   1      50.320  26.208  27.392  1.00  0.00     0.010 A 
ATOM     79  C   UNL A   1      51.148  26.282  24.722  1.00  0.00     0.020 A 
ATOM     80  C   UNL A   1      51.612  25.799  27.058  1.00  0.00     0.020 A 
ATOM     81  C   UNL A   1      52.009  25.814  25.720  1.00  0.00     0.054 A 
BRANCH  81  82
ATOM     82  S   UNL A   1      53.661  25.238  25.246  1.00  0.00     0.124 S 
ATOM     83  O   UNL A   1      53.500  23.787  25.287  1.00  0.00    -0.237 OA
ATOM     84  O   UNL A   1      53.829  25.815  23.915  1.00  0.00    -0.237 OA
ATOM     85  O   UNL A   1      54.533  25.797  26.277  1.00  0.00    -0.744 OA
ENDBRANCH  81  82
ENDBRANCH  55  76
ENDBRANCH  29  30
ENDBRANCH  22  24
ENDBRANCH  21  22
ENDBRANCH  20  21
ENDBRANCH   1  20
TORSDOF 18
ENDMDL
MODEL 2
REMARK VINA RESULT:     -10.3      5.867     12.703
REMARK SMILES N#Cc1cccc(/C=C/C(=O)NCC(=O)OCCOC(=O)c2ccc(-c3c4nc(c(-c5ccc(S(=O)(=O)[O-])cc5)c5ccc([nH]5)c(-c5ccc(S(=O)(=O)[O-])cc5)c5nc(c(-c6ccc(S(=O)(=O)[O-])cc6)c6ccc3[nH]6)C=C5)C=C4)cc2)c1
REMARK SMILES IDX 17 1 16 2 14 3 15 4 13 5 12 6 10 7 11 8 9 10 8 11 7 12 3 13
REMARK SMILES IDX 4 14 82 15 5 16 6 17 2 18 1 19 18 20 19 21 20 22 21 23 22 24
REMARK SMILES IDX 23 25 81 26 24 27 80 28 25 29 26 30 27 31 74 32 28 33 79 34
REMARK SMILES IDX 73 35 75 36 29 37 78 38 72 39 71 40 30 42 60 43 41 44 59 45
REMARK SMILES IDX 42 46 45 47 58 48 76 49 43 50 44 51 57 53 77 54 46 55 31 56
REMARK SMILES IDX 32 57 40 58 33 59 39 60 34 61 35 62 36 63 37 64 38 65 61 66
REMARK SMILES IDX 62 67 70 68 63 69 69 70 64 71 65 72 66 73 67 74 68 75 47 76
REMARK SMILES IDX 48 77 56 78 49 79 55 80 50 81 51 82 52 83 53 84 54 85
REMARK H PARENT 12 9 75 41 45 52
REMARK Flexibility Score: inf
ROOT
ATOM      1  C   UNL A   1      46.336  22.621  24.906  1.00  0.00     0.274 C 
ENDROOT
BRANCH   1   2
ATOM      2  O   UNL A   1      46.017  21.394  25.590  1.00  0.00    -0.461 OA
BRANCH   2   3
ATOM      3  C   UNL A   1      46.225  20.243  24.895  1.00  0.00     0.325 C 
ATOM      4  O   UNL A   1      47.329  19.795  24.607  1.00  0.00    -0.250 OA
BRANCH   3   5
ATOM      5  C   UNL A   1      44.921  19.479  24.625  1.00  0.00     0.239 C 
BRANCH   5   6
ATOM      6  N   UNL A   1      44.482  18.602  25.688  1.00  0.00    -0.342 N 
ATOM      7  C   UNL A   1      43.257  18.466  26.248  1.00  0.00     0.244 C 
ATOM      8  O   UNL A   1      43.040  17.564  27.051  1.00  0.00    -0.270 OA
ATOM      9  H   UNL A   1      45.180  18.016  26.061  1.00  0.00     0.164 HD
BRANCH   7  10
ATOM     10  C   UNL A   1      42.144  19.359  25.844  1.00  0.00     0.072 C 
ATOM     11  C   UNL A   1      40.871  19.217  26.244  1.00  0.00     0.014 C 
BRANCH  11  12
ATOM     12  C   UNL A   1      39.747  20.060  25.831  1.00  0.00    -0.024 A 
ATOM     13  C   UNL A   1      38.609  22.205  25.983  1.00  0.00     0.053 A 
ATOM     14  C   UNL A   1      37.513  21.667  25.304  1.00  0.00     0.019 A 
ATOM     15  C   UNL A   1      39.726  21.402  26.242  1.00  0.00     0.027 A 
ATOM     16  C   UNL A   1      37.535  20.338  24.880  1.00  0.00     0.002 A 
ATOM     17  C   UNL A   1      38.647  19.538  25.144  1.00  0.00     0.008 A 
BRANCH  13  18
ATOM     18  C   UNL A   1      38.572  23.561  26.442  1.00  0.00     0.099 C 
ATOM     19  N   UNL A   1      38.517  24.654  26.834  1.00  0.00    -0.192 NA
ENDBRANCH  13  18
ENDBRANCH  11  12
ENDBRANCH   7  10
ENDBRANCH   5   6
ENDBRANCH   3   5
ENDBRANCH   2   3
ENDBRANCH   1   2
BRANCH   1  20
ATOM     20  C   UNL A   1      45.223  22.981  23.914  1.00  0.00     0.275 C 
BRANCH  20  21
ATOM     21  O   UNL A   1      44.349  23.999  24.442  1.00  0.00    -0.458 OA
BRANCH  21  22
ATOM     22  C   UNL A   1      43.215  23.526  25.004  1.00  0.00     0.338 C 
ATOM     23  O   UNL A   1      42.725  22.417  24.851  1.00  0.00    -0.246 OA
BRANCH  22  24
ATOM     24  C   UNL A   1      42.657  24.479  25.971  1.00  0.00     0.060 A 
ATOM     25  C   UNL A   1      42.938  25.833  25.800  1.00  0.00     0.016 A 
ATOM     26  C   UNL A   1      42.096  24.023  27.159  1.00  0.00     0.016 A 
ATOM     27  C   UNL A   1      42.836  26.707  26.868  1.00  0.00     0.010 A 
ATOM     28  C   UNL A   1      41.865  24.936  28.194  1.00  0.00     0.010 A 
ATOM     29  C   UNL A   1      42.294  26.271  28.079  1.00  0.00    -0.014 A 
BRANCH  29  30
ATOM     30  C   UNL A   1      42.230  27.217  29.222  1.00  0.00     0.031 A 
ATOM     31  C   UNL A   1      43.285  27.179  30.295  1.00  0.00     0.074 A 
ATOM     32  C   UNL A   1      41.251  28.142  29.261  1.00  0.00     0.049 A 
ATOM     33  N   UNL A   1      43.365  27.884  31.394  1.00  0.00    -0.248 NA
ATOM     34  C   UNL A   1      44.385  26.216  30.122  1.00  0.00     0.031 C 
ATOM     35  C   UNL A   1      40.199  28.309  28.252  1.00  0.00     0.029 A 
ATOM     36  N   UNL A   1      40.986  29.129  30.175  1.00  0.00    -0.354 N 
ATOM     37  C   UNL A   1      44.496  27.422  32.060  1.00  0.00     0.074 A 
ATOM     38  C   UNL A   1      45.051  26.356  31.258  1.00  0.00     0.031 C 
ATOM     39  C   UNL A   1      39.432  29.357  28.581  1.00  0.00     0.029 A 
ATOM     40  C   UNL A   1      39.879  29.882  29.864  1.00  0.00     0.049 A 
ATOM     41  H   UNL A   1      41.536  29.283  30.977  1.00  0.00     0.167 HD
ATOM     42  C   UNL A   1      45.025  27.854  33.230  1.00  0.00     0.031 A 
ATOM     43  C   UNL A   1      39.266  30.864  30.551  1.00  0.00     0.031 A 
ATOM     44  C   UNL A   1      44.465  28.924  34.015  1.00  0.00     0.049 A 
ATOM     45  C   UNL A   1      39.837  31.279  31.876  1.00  0.00     0.074 A 
ATOM     46  C   UNL A   1      44.929  29.451  35.207  1.00  0.00     0.029 A 
ATOM     47  N   UNL A   1      43.315  29.631  33.688  1.00  0.00    -0.354 N 
ATOM     48  N   UNL A   1      40.905  30.829  32.492  1.00  0.00    -0.248 NA
ATOM     49  C   UNL A   1      39.126  32.342  32.594  1.00  0.00     0.031 C 
ATOM     50  C   UNL A   1      44.022  30.423  35.639  1.00  0.00     0.029 A 
ATOM     51  C   UNL A   1      43.039  30.567  34.671  1.00  0.00     0.049 A 
ATOM     52  H   UNL A   1      42.777  29.489  32.877  1.00  0.00     0.167 HD
ATOM     53  C   UNL A   1      41.012  31.580  33.657  1.00  0.00     0.074 A 
ATOM     54  C   UNL A   1      39.915  32.527  33.642  1.00  0.00     0.031 C 
ATOM     55  C   UNL A   1      41.936  31.497  34.647  1.00  0.00     0.031 A 
BRANCH  42  56
ATOM     56  C   UNL A   1      46.245  27.138  33.756  1.00  0.00    -0.014 A 
ATOM     57  C   UNL A   1      46.140  26.003  34.579  1.00  0.00     0.010 A 
ATOM     58  C   UNL A   1      47.525  27.595  33.387  1.00  0.00     0.010 A 
ATOM     59  C   UNL A   1      47.290  25.365  35.057  1.00  0.00     0.020 A 
ATOM     60  C   UNL A   1      48.676  26.938  33.833  1.00  0.00     0.020 A 
ATOM     61  C   UNL A   1      48.550  25.836  34.678  1.00  0.00     0.054 A 
BRANCH  61  62
ATOM     62  S   UNL A   1      50.022  24.969  35.288  1.00  0.00     0.124 S 
ATOM     63  O   UNL A   1      49.607  24.579  36.634  1.00  0.00    -0.237 OA
ATOM     64  O   UNL A   1      50.164  23.873  34.334  1.00  0.00    -0.237 OA
ATOM     65  O   UNL A   1      51.072  25.983  35.232  1.00  0.00    -0.744 OA
ENDBRANCH  61  62
ENDBRANCH  42  56
BRANCH  43  66
ATOM     66  C   UNL A   1      38.030  31.494  30.009  1.00  0.00    -0.014 A 
ATOM     67  C   UNL A   1      38.072  32.763  29.406  1.00  0.00     0.010 A 
ATOM     68  C   UNL A   1      36.797  30.820  30.091  1.00  0.00     0.010 A 
ATOM     69  C   UNL A   1      36.902  33.356  28.921  1.00  0.00     0.020 A 
ATOM     70  C   UNL A   1      35.632  31.391  29.571  1.00  0.00     0.020 A 
ATOM     71  C   UNL A   1      35.692  32.663  29.003  1.00  0.00     0.054 A 
BRANCH  71  72
ATOM     72  S   UNL A   1      34.196  33.437  28.329  1.00  0.00     0.124 S 
ATOM     73  O   UNL A   1      34.750  34.383  27.366  1.00  0.00    -0.237 OA
ATOM     74  O   UNL A   1      33.484  32.296  27.760  1.00  0.00    -0.237 OA
ATOM     75  O   UNL A   1      33.562  34.036  29.502  1.00  0.00    -0.744 OA
ENDBRANCH  71  72
ENDBRANCH  43  66
BRANCH  55  76
ATOM     76  C   UNL A   1      41.827  32.496  35.771  1.00  0.00    -0.014 A 
ATOM     77  C   UNL A   1      41.078  32.227  36.931  1.00  0.00     0.010 A 
ATOM     78  C   UNL A   1      42.496  33.729  35.660  1.00  0.00     0.010 A 
ATOM     79  C   UNL A   1      40.947  33.197  37.928  1.00  0.00     0.020 A 
ATOM     80  C   UNL A   1      42.404  34.685  36.674  1.00  0.00     0.020 A 
ATOM     81  C   UNL A   1      41.608  34.422  37.791  1.00  0.00     0.054 A 
BRANCH  81  82
ATOM     82  S   UNL A   1      41.424  35.663  39.099  1.00  0.00     0.124 S 
ATOM     83  O   UNL A   1      41.889  36.877  38.434  1.00  0.00    -0.237 OA
ATOM     84  O   UNL A   1      39.993  35.612  39.387  1.00  0.00    -0.237 OA
ATOM     85  O   UNL A   1      42.288  35.170  40.169  1.00  0.00    -0.744 OA
ENDBRANCH  81  82
ENDBRANCH  55  76
ENDBRANCH  29  30
ENDBRANCH  22  24
ENDBRANCH  21  22
ENDBRANCH  20  21
ENDBRANCH   1  20
TORSDOF 18
ENDMDL
MODEL 3
REMARK VINA RESULT:     -10.0      2.077      3.216
REMARK SMILES N#Cc1cccc(/C=C/C(=O)NCC(=O)OCCOC(=O)c2ccc(-c3c4nc(c(-c5ccc(S(=O)(=O)[O-])cc5)c5ccc([nH]5)c(-c5ccc(S(=O)(=O)[O-])cc5)c5nc(c(-c6ccc(S(=O)(=O)[O-])cc6)c6ccc3[nH]6)C=C5)C=C4)cc2)c1
REMARK SMILES IDX 17 1 16 2 14 3 15 4 13 5 12 6 10 7 11 8 9 10 8 11 7 12 3 13
REMARK SMILES IDX 4 14 82 15 5 16 6 17 2 18 1 19 18 20 19 21 20 22 21 23 22 24
REMARK SMILES IDX 23 25 81 26 24 27 80 28 25 29 26 30 27 31 74 32 28 33 79 34
REMARK SMILES IDX 73 35 75 36 29 37 78 38 72 39 71 40 30 42 60 43 41 44 59 45
REMARK SMILES IDX 42 46 45 47 58 48 76 49 43 50 44 51 57 53 77 54 46 55 31 56
REMARK SMILES IDX 32 57 40 58 33 59 39 60 34 61 35 62 36 63 37 64 38 65 61 66
REMARK SMILES IDX 62 67 70 68 63 69 69 70 64 71 65 72 66 73 67 74 68 75 47 76
REMARK SMILES IDX 48 77 56 78 49 79 55 80 50 81 51 82 52 83 53 84 54 85
REMARK H PARENT 12 9 75 41 45 52
REMARK Flexibility Score: inf
ROOT
ATOM      1  C   UNL A   1      35.590  33.761  31.792  1.00  0.00     0.274 C 
ENDROOT
BRANCH   1   2
ATOM      2  O   UNL A   1      35.000  34.361  32.962  1.00  0.00    -0.461 OA
BRANCH   2   3
ATOM      3  C   UNL A   1      34.277  35.496  32.761  1.00  0.00     0.325 C 
ATOM      4  O   UNL A   1      34.693  36.630  32.966  1.00  0.00    -0.250 OA
BRANCH   3   5
ATOM      5  C   UNL A   1      32.915  35.214  32.110  1.00  0.00     0.239 C 
BRANCH   5   6
ATOM      6  N   UNL A   1      32.638  35.959  30.902  1.00  0.00    -0.342 N 
ATOM      7  C   UNL A   1      32.874  35.631  29.610  1.00  0.00     0.244 C 
ATOM      8  O   UNL A   1      32.439  36.335  28.703  1.00  0.00    -0.270 OA
ATOM      9  H   UNL A   1      32.213  36.836  31.040  1.00  0.00     0.164 HD
BRANCH   7  10
ATOM     10  C   UNL A   1      33.598  34.382  29.273  1.00  0.00     0.072 C 
ATOM     11  C   UNL A   1      33.357  33.633  28.186  1.00  0.00     0.014 C 
BRANCH  11  12
ATOM     12  C   UNL A   1      34.030  32.375  27.848  1.00  0.00    -0.024 A 
ATOM     13  C   UNL A   1      33.837  30.018  27.282  1.00  0.00     0.053 A 
ATOM     14  C   UNL A   1      35.217  29.870  27.442  1.00  0.00     0.019 A 
ATOM     15  C   UNL A   1      33.246  31.270  27.482  1.00  0.00     0.027 A 
ATOM     16  C   UNL A   1      36.002  30.969  27.791  1.00  0.00     0.002 A 
ATOM     17  C   UNL A   1      35.411  32.216  27.996  1.00  0.00     0.008 A 
BRANCH  13  18
ATOM     18  C   UNL A   1      33.029  28.882  26.950  1.00  0.00     0.099 C 
ATOM     19  N   UNL A   1      32.400  27.942  26.684  1.00  0.00    -0.192 NA
ENDBRANCH  13  18
ENDBRANCH  11  12
ENDBRANCH   7  10
ENDBRANCH   5   6
ENDBRANCH   3   5
ENDBRANCH   2   3
ENDBRANCH   1   2
BRANCH   1  20
ATOM     20  C   UNL A   1      35.438  32.236  31.845  1.00  0.00     0.275 C 
BRANCH  20  21
ATOM     21  O   UNL A   1      36.669  31.592  32.232  1.00  0.00    -0.458 OA
BRANCH  21  22
ATOM     22  C   UNL A   1      36.995  30.513  31.487  1.00  0.00     0.338 C 
ATOM     23  O   UNL A   1      36.243  29.630  31.103  1.00  0.00    -0.246 OA
BRANCH  22  24
ATOM     24  C   UNL A   1      38.395  30.565  31.050  1.00  0.00     0.060 A 
ATOM     25  C   UNL A   1      38.656  30.696  29.687  1.00  0.00     0.016 A 
ATOM     26  C   UNL A   1      39.417  30.227  31.931  1.00  0.00     0.016 A 
ATOM     27  C   UNL A   1      39.883  30.313  29.172  1.00  0.00     0.010 A 
ATOM     28  C   UNL A   1      40.695  29.973  31.422  1.00  0.00     0.010 A 
ATOM     29  C   UNL A   1      40.921  29.950  30.033  1.00  0.00    -0.014 A 
BRANCH  29  30
ATOM     30  C   UNL A   1      42.215  29.508  29.455  1.00  0.00     0.031 A 
ATOM     31  C   UNL A   1      43.380  30.459  29.395  1.00  0.00     0.074 A 
ATOM     32  C   UNL A   1      42.351  28.236  29.033  1.00  0.00     0.049 A 
ATOM     33  N   UNL A   1      44.567  30.274  28.877  1.00  0.00    -0.248 NA
ATOM     34  C   UNL A   1      43.187  31.797  29.981  1.00  0.00     0.031 C 
ATOM     35  C   UNL A   1      41.307  27.207  29.085  1.00  0.00     0.029 A 
ATOM     36  N   UNL A   1      43.428  27.581  28.492  1.00  0.00    -0.354 N 
ATOM     37  C   UNL A   1      45.243  31.479  29.036  1.00  0.00     0.074 A 
ATOM     38  C   UNL A   1      44.325  32.398  29.670  1.00  0.00     0.031 C 
ATOM     39  C   UNL A   1      41.805  26.047  28.636  1.00  0.00     0.029 A 
ATOM     40  C   UNL A   1      43.171  26.267  28.182  1.00  0.00     0.049 A 
ATOM     41  H   UNL A   1      44.300  28.011  28.341  1.00  0.00     0.167 HD
ATOM     42  C   UNL A   1      46.516  31.788  28.690  1.00  0.00     0.031 A 
ATOM     43  C   UNL A   1      43.937  25.346  27.568  1.00  0.00     0.031 A 
ATOM     44  C   UNL A   1      47.424  30.859  28.066  1.00  0.00     0.049 A 
ATOM     45  C   UNL A   1      45.322  25.734  27.138  1.00  0.00     0.074 A 
ATOM     46  C   UNL A   1      48.739  31.062  27.688  1.00  0.00     0.029 A 
ATOM     47  N   UNL A   1      47.110  29.549  27.726  1.00  0.00    -0.354 N 
ATOM     48  N   UNL A   1      45.944  26.879  27.292  1.00  0.00    -0.248 NA
ATOM     49  C   UNL A   1      46.112  24.702  26.458  1.00  0.00     0.031 C 
ATOM     50  C   UNL A   1      49.196  29.904  27.054  1.00  0.00     0.029 A 
ATOM     51  C   UNL A   1      48.197  28.945  27.116  1.00  0.00     0.049 A 
ATOM     52  H   UNL A   1      46.244  29.114  27.896  1.00  0.00     0.167 HD
ATOM     53  C   UNL A   1      47.214  26.694  26.758  1.00  0.00     0.074 A 
ATOM     54  C   UNL A   1      47.275  25.319  26.301  1.00  0.00     0.031 C 
ATOM     55  C   UNL A   1      48.238  27.577  26.658  1.00  0.00     0.031 A 
BRANCH  42  56
ATOM     56  C   UNL A   1      46.988  33.200  28.935  1.00  0.00    -0.014 A 
ATOM     57  C   UNL A   1      46.808  34.217  27.981  1.00  0.00     0.010 A 
ATOM     58  C   UNL A   1      47.596  33.520  30.164  1.00  0.00     0.010 A 
ATOM     59  C   UNL A   1      47.262  35.515  28.235  1.00  0.00     0.020 A 
ATOM     60  C   UNL A   1      48.020  34.824  30.436  1.00  0.00     0.020 A 
ATOM     61  C   UNL A   1      47.863  35.811  29.463  1.00  0.00     0.054 A 
BRANCH  61  62
ATOM     62  S   UNL A   1      48.415  37.510  29.774  1.00  0.00     0.124 S 
ATOM     63  O   UNL A   1      49.378  37.321  30.858  1.00  0.00    -0.237 OA
ATOM     64  O   UNL A   1      48.987  37.899  28.488  1.00  0.00    -0.237 OA
ATOM     65  O   UNL A   1      47.190  38.212  30.147  1.00  0.00    -0.744 OA
ENDBRANCH  61  62
ENDBRANCH  42  56
BRANCH  43  66
ATOM     66  C   UNL A   1      43.396  23.984  27.299  1.00  0.00    -0.014 A 
ATOM     67  C   UNL A   1      43.170  23.078  28.349  1.00  0.00     0.010 A 
ATOM     68  C   UNL A   1      43.098  23.588  25.982  1.00  0.00     0.010 A 
ATOM     69  C   UNL A   1      42.683  21.795  28.085  1.00  0.00     0.020 A 
ATOM     70  C   UNL A   1      42.573  22.320  25.716  1.00  0.00     0.020 A 
ATOM     71  C   UNL A   1      42.384  21.427  26.771  1.00  0.00     0.054 A 
BRANCH  71  72
ATOM     72  S   UNL A   1      41.715  19.770  26.459  1.00  0.00     0.124 S 
ATOM     73  O   UNL A   1      42.212  19.020  27.609  1.00  0.00    -0.237 OA
ATOM     74  O   UNL A   1      40.275  20.014  26.435  1.00  0.00    -0.237 OA
ATOM     75  O   UNL A   1      42.299  19.401  25.171  1.00  0.00    -0.744 OA
ENDBRANCH  71  72
ENDBRANCH  43  66
BRANCH  55  76
ATOM     76  C   UNL A   1      49.532  27.063  26.077  1.00  0.00    -0.014 A 
ATOM     77  C   UNL A   1      50.527  26.481  26.883  1.00  0.00     0.010 A 
ATOM     78  C   UNL A   1      49.748  27.164  24.690  1.00  0.00     0.010 A 
ATOM     79  C   UNL A   1      51.738  26.069  26.322  1.00  0.00     0.020 A 
ATOM     80  C   UNL A   1      50.940  26.714  24.119  1.00  0.00     0.020 A 
ATOM     81  C   UNL A   1      51.938  26.193  24.943  1.00  0.00     0.054 A 
BRANCH  81  82
ATOM     82  S   UNL A   1      53.519  25.650  24.240  1.00  0.00     0.124 S 
ATOM     83  O   UNL A   1      53.351  25.978  22.828  1.00  0.00    -0.237 OA
ATOM     84  O   UNL A   1      54.487  26.467  24.966  1.00  0.00    -0.237 OA
ATOM     85  O   UNL A   1      53.563  24.222  24.546  1.00  0.00    -0.744 OA
ENDBRANCH  81  82
ENDBRANCH  55  76
ENDBRANCH  29  30
ENDBRANCH  22  24
ENDBRANCH  21  22
ENDBRANCH  20  21
ENDBRANCH   1  20
TORSDOF 18
ENDMDL
