MODEL 1
REMARK VINA RESULT:     -10.8      0.000      0.000
REMARK SMILES O=C(OCCOC(=O)c1ccccc1Nc1cccc(C(F)(F)F)c1)c1ccc(-c2c3nc(c(-c4ccc(S(=O)(=O)[O-])cc4)c4ccc([nH]4)c(-c4ccc(S(=O)(=O)[O-])cc4)c4nc(c(-c5ccc(S(=O)(=O)[O-])cc5)c5ccc2[nH]5)C=C4)C=C3)cc1
REMARK SMILES IDX 4 1 3 2 2 3 1 4 26 5 27 6 85 7 28 8 84 9 29 10 30 11 31 12
REMARK SMILES IDX 78 13 32 14 83 15 77 16 79 17 33 18 82 19 76 20 75 21 34 23
REMARK SMILES IDX 64 24 45 25 63 26 46 27 49 28 62 29 80 30 47 31 48 32 61 34
REMARK SMILES IDX 81 35 50 36 35 37 36 38 44 39 37 40 43 41 38 42 39 43 40 44
REMARK SMILES IDX 41 45 42 46 65 47 66 48 74 49 67 50 73 51 68 52 69 53 70 54
REMARK SMILES IDX 71 55 72 56 51 57 52 58 60 59 53 60 59 61 54 62 55 63 56 64
REMARK SMILES IDX 57 65 58 66 5 67 6 68 7 69 8 70 9 71 10 72 14 73 11 74 13 75
REMARK SMILES IDX 12 76 15 77 16 79 17 80 25 81 18 82 20 83 19 84 21 85 22 86
REMARK SMILES IDX 23 87 24 88
REMARK H PARENT 79 22 49 33 15 78
REMARK Flexibility Score: inf
ROOT
ATOM      1  C   UNL A   1      40.362  22.985  27.052  1.00  0.00     0.275 C 
ENDROOT
BRANCH   1   2
ATOM      2  O   UNL A   1      40.499  24.066  26.114  1.00  0.00    -0.458 OA
BRANCH   2   3
ATOM      3  C   UNL A   1      40.737  25.385  26.295  1.00  0.00     0.338 C 
ATOM      4  O   UNL A   1      41.211  26.015  25.348  1.00  0.00    -0.246 OA
BRANCH   3   5
ATOM      5  C   UNL A   1      40.553  26.132  27.589  1.00  0.00     0.060 A 
ATOM      6  C   UNL A   1      39.659  25.821  28.617  1.00  0.00     0.016 A 
ATOM      7  C   UNL A   1      41.374  27.267  27.769  1.00  0.00     0.016 A 
ATOM      8  C   UNL A   1      39.587  26.602  29.776  1.00  0.00     0.010 A 
ATOM      9  C   UNL A   1      41.312  28.049  28.929  1.00  0.00     0.010 A 
ATOM     10  C   UNL A   1      40.402  27.726  29.935  1.00  0.00    -0.014 A 
BRANCH  10  11
ATOM     11  C   UNL A   1      40.171  28.624  31.090  1.00  0.00     0.031 A 
ATOM     12  C   UNL A   1      41.159  28.588  32.207  1.00  0.00     0.074 A 
ATOM     13  C   UNL A   1      39.142  29.490  31.103  1.00  0.00     0.049 A 
ATOM     14  N   UNL A   1      41.287  29.404  33.214  1.00  0.00    -0.248 NA
ATOM     15  C   UNL A   1      42.132  27.483  32.186  1.00  0.00     0.031 C 
ATOM     16  C   UNL A   1      38.155  29.571  30.043  1.00  0.00     0.029 A 
ATOM     17  N   UNL A   1      38.769  30.486  31.969  1.00  0.00    -0.354 N 
ATOM     18  C   UNL A   1      42.330  28.893  33.972  1.00  0.00     0.074 A 
ATOM     19  C   UNL A   1      42.813  27.709  33.299  1.00  0.00     0.031 C 
ATOM     20  C   UNL A   1      37.339  30.614  30.255  1.00  0.00     0.029 A 
ATOM     21  C   UNL A   1      37.738  31.273  31.490  1.00  0.00     0.049 A 
ATOM     22  H   UNL A   1      39.194  30.627  32.846  1.00  0.00     0.167 HD
ATOM     23  C   UNL A   1      42.806  29.360  35.147  1.00  0.00     0.031 A 
ATOM     24  C   UNL A   1      37.236  32.434  31.960  1.00  0.00     0.031 A 
ATOM     25  C   UNL A   1      42.265  30.513  35.812  1.00  0.00     0.049 A 
ATOM     26  C   UNL A   1      37.861  32.986  33.217  1.00  0.00     0.074 A 
ATOM     27  C   UNL A   1      42.606  31.041  37.042  1.00  0.00     0.029 A 
ATOM     28  N   UNL A   1      41.249  31.310  35.297  1.00  0.00    -0.354 N 
ATOM     29  N   UNL A   1      38.891  32.528  33.892  1.00  0.00    -0.248 NA
ATOM     30  C   UNL A   1      37.273  34.212  33.770  1.00  0.00     0.031 C 
ATOM     31  C   UNL A   1      41.763  32.130  37.292  1.00  0.00     0.029 A 
ATOM     32  C   UNL A   1      40.936  32.314  36.194  1.00  0.00     0.049 A 
ATOM     33  H   UNL A   1      40.818  31.179  34.422  1.00  0.00     0.167 HD
ATOM     34  C   UNL A   1      39.075  33.411  34.947  1.00  0.00     0.074 A 
ATOM     35  C   UNL A   1      38.095  34.466  34.780  1.00  0.00     0.031 C 
ATOM     36  C   UNL A   1      39.947  33.343  35.985  1.00  0.00     0.031 A 
BRANCH  23  37
ATOM     37  C   UNL A   1      43.874  28.541  35.813  1.00  0.00    -0.014 A 
ATOM     38  C   UNL A   1      45.241  28.781  35.583  1.00  0.00     0.010 A 
ATOM     39  C   UNL A   1      43.495  27.471  36.642  1.00  0.00     0.010 A 
ATOM     40  C   UNL A   1      46.207  27.936  36.135  1.00  0.00     0.020 A 
ATOM     41  C   UNL A   1      44.459  26.640  37.217  1.00  0.00     0.020 A 
ATOM     42  C   UNL A   1      45.809  26.866  36.943  1.00  0.00     0.054 A 
BRANCH  42  43
ATOM     43  S   UNL A   1      47.080  25.779  37.643  1.00  0.00     0.124 S 
ATOM     44  O   UNL A   1      46.426  24.473  37.581  1.00  0.00    -0.237 OA
ATOM     45  O   UNL A   1      48.200  25.964  36.726  1.00  0.00    -0.237 OA
ATOM     46  O   UNL A   1      47.286  26.307  38.989  1.00  0.00    -0.744 OA
ENDBRANCH  42  43
ENDBRANCH  23  37
BRANCH  24  47
ATOM     47  C   UNL A   1      36.222  33.220  31.180  1.00  0.00    -0.014 A 
ATOM     48  C   UNL A   1      34.957  33.479  31.746  1.00  0.00     0.010 A 
ATOM     49  C   UNL A   1      36.499  33.758  29.910  1.00  0.00     0.010 A 
ATOM     50  C   UNL A   1      34.008  34.259  31.081  1.00  0.00     0.020 A 
ATOM     51  C   UNL A   1      35.565  34.575  29.252  1.00  0.00     0.020 A 
ATOM     52  C   UNL A   1      34.325  34.820  29.845  1.00  0.00     0.054 A 
BRANCH  52  53
ATOM     53  S   UNL A   1      33.121  35.936  29.072  1.00  0.00     0.124 S 
ATOM     54  O   UNL A   1      32.357  35.025  28.226  1.00  0.00    -0.237 OA
ATOM     55  O   UNL A   1      32.410  36.471  30.233  1.00  0.00    -0.237 OA
ATOM     56  O   UNL A   1      33.954  36.903  28.362  1.00  0.00    -0.744 OA
ENDBRANCH  52  53
ENDBRANCH  24  47
BRANCH  36  57
ATOM     57  C   UNL A   1      39.837  34.416  37.031  1.00  0.00    -0.014 A 
ATOM     58  C   UNL A   1      40.499  35.645  36.860  1.00  0.00     0.010 A 
ATOM     59  C   UNL A   1      39.017  34.224  38.157  1.00  0.00     0.010 A 
ATOM     60  C   UNL A   1      40.376  36.651  37.817  1.00  0.00     0.020 A 
ATOM     61  C   UNL A   1      38.867  35.241  39.102  1.00  0.00     0.020 A 
ATOM     62  C   UNL A   1      39.560  36.443  38.932  1.00  0.00     0.054 A 
BRANCH  62  63
ATOM     63  S   UNL A   1      39.378  37.788  40.133  1.00  0.00     0.124 S 
ATOM     64  O   UNL A   1      39.112  37.055  41.368  1.00  0.00    -0.237 OA
ATOM     65  O   UNL A   1      40.677  38.455  40.065  1.00  0.00    -0.237 OA
ATOM     66  O   UNL A   1      38.257  38.566  39.614  1.00  0.00    -0.744 OA
ENDBRANCH  62  63
ENDBRANCH  36  57
ENDBRANCH  10  11
ENDBRANCH   3   5
ENDBRANCH   2   3
ENDBRANCH   1   2
BRANCH   1  67
ATOM     67  C   UNL A   1      40.556  21.602  26.426  1.00  0.00     0.275 C 
BRANCH  67  68
ATOM     68  O   UNL A   1      41.860  21.056  26.678  1.00  0.00    -0.458 OA
BRANCH  68  69
ATOM     69  C   UNL A   1      42.195  20.002  25.887  1.00  0.00     0.340 C 
ATOM     70  O   UNL A   1      41.418  19.182  25.417  1.00  0.00    -0.246 OA
BRANCH  69  71
ATOM     71  C   UNL A   1      43.632  20.031  25.540  1.00  0.00     0.083 A 
ATOM     72  C   UNL A   1      44.274  18.777  25.511  1.00  0.00     0.018 A 
ATOM     73  C   UNL A   1      44.343  21.216  25.265  1.00  0.00     0.053 A 
ATOM     74  C   UNL A   1      45.633  18.688  25.235  1.00  0.00     0.001 A 
ATOM     75  C   UNL A   1      45.737  21.103  25.139  1.00  0.00     0.027 A 
ATOM     76  C   UNL A   1      46.371  19.855  25.081  1.00  0.00     0.002 A 
BRANCH  73  77
ATOM     77  N   UNL A   1      43.695  22.470  25.145  1.00  0.00    -0.355 N 
ATOM     78  H   UNL A   1      42.891  22.487  24.576  1.00  0.00     0.167 HD
BRANCH  77  79
ATOM     79  C   UNL A   1      44.057  23.696  25.735  1.00  0.00     0.039 A 
ATOM     80  C   UNL A   1      44.496  24.764  24.951  1.00  0.00     0.026 A 
ATOM     81  C   UNL A   1      43.967  23.873  27.124  1.00  0.00     0.039 A 
ATOM     82  C   UNL A   1      44.839  25.984  25.539  1.00  0.00     0.003 A 
ATOM     83  C   UNL A   1      44.290  25.100  27.731  1.00  0.00     0.058 A 
ATOM     84  C   UNL A   1      44.733  26.153  26.920  1.00  0.00     0.013 A 
BRANCH  83  85
ATOM     85  C   UNL A   1      44.170  25.287  29.225  1.00  0.00     0.416 C 
ATOM     86  F   UNL A   1      43.012  24.757  29.714  1.00  0.00    -0.166 F 
ATOM     87  F   UNL A   1      45.167  24.699  29.934  1.00  0.00    -0.166 F 
ATOM     88  F   UNL A   1      44.155  26.597  29.606  1.00  0.00    -0.166 F 
ENDBRANCH  83  85
ENDBRANCH  77  79
ENDBRANCH  73  77
ENDBRANCH  69  71
ENDBRANCH  68  69
ENDBRANCH  67  68
ENDBRANCH   1  67
TORSDOF 17
ENDMDL
MODEL 2
REMARK VINA RESULT:     -10.2      6.550     12.284
REMARK SMILES O=C(OCCOC(=O)c1ccccc1Nc1cccc(C(F)(F)F)c1)c1ccc(-c2c3nc(c(-c4ccc(S(=O)(=O)[O-])cc4)c4ccc([nH]4)c(-c4ccc(S(=O)(=O)[O-])cc4)c4nc(c(-c5ccc(S(=O)(=O)[O-])cc5)c5ccc2[nH]5)C=C4)C=C3)cc1
REMARK SMILES IDX 4 1 3 2 2 3 1 4 26 5 27 6 85 7 28 8 84 9 29 10 30 11 31 12
REMARK SMILES IDX 78 13 32 14 83 15 77 16 79 17 33 18 82 19 76 20 75 21 34 23
REMARK SMILES IDX 64 24 45 25 63 26 46 27 49 28 62 29 80 30 47 31 48 32 61 34
REMARK SMILES IDX 81 35 50 36 35 37 36 38 44 39 37 40 43 41 38 42 39 43 40 44
REMARK SMILES IDX 41 45 42 46 65 47 66 48 74 49 67 50 73 51 68 52 69 53 70 54
REMARK SMILES IDX 71 55 72 56 51 57 52 58 60 59 53 60 59 61 54 62 55 63 56 64
REMARK SMILES IDX 57 65 58 66 5 67 6 68 7 69 8 70 9 71 10 72 14 73 11 74 13 75
REMARK SMILES IDX 12 76 15 77 16 79 17 80 25 81 18 82 20 83 19 84 21 85 22 86
REMARK SMILES IDX 23 87 24 88
REMARK H PARENT 79 22 49 33 15 78
REMARK Flexibility Score: inf
ROOT
ATOM      1  C   UNL A   1      33.553  29.082  26.315  1.00  0.00     0.275 C 
ENDROOT
BRANCH   1   2
ATOM      2  O   UNL A   1      33.477  30.174  27.248  1.00  0.00    -0.458 OA
BRANCH   2   3
ATOM      3  C   UNL A   1      34.423  30.773  28.005  1.00  0.00     0.338 C 
ATOM      4  O   UNL A   1      34.192  31.914  28.411  1.00  0.00    -0.246 OA
BRANCH   3   5
ATOM      5  C   UNL A   1      35.778  30.198  28.320  1.00  0.00     0.060 A 
ATOM      6  C   UNL A   1      36.169  29.578  29.510  1.00  0.00     0.016 A 
ATOM      7  C   UNL A   1      36.748  30.306  27.300  1.00  0.00     0.016 A 
ATOM      8  C   UNL A   1      37.467  29.082  29.677  1.00  0.00     0.010 A 
ATOM      9  C   UNL A   1      38.047  29.807  27.457  1.00  0.00     0.010 A 
ATOM     10  C   UNL A   1      38.417  29.204  28.659  1.00  0.00    -0.014 A 
BRANCH  10  11
ATOM     11  C   UNL A   1      39.822  28.829  28.939  1.00  0.00     0.031 A 
ATOM     12  C   UNL A   1      40.609  29.711  29.849  1.00  0.00     0.074 A 
ATOM     13  C   UNL A   1      40.352  27.696  28.443  1.00  0.00     0.049 A 
ATOM     14  N   UNL A   1      41.769  29.493  30.399  1.00  0.00    -0.248 NA
ATOM     15  C   UNL A   1      40.006  31.012  30.183  1.00  0.00     0.031 C 
ATOM     16  C   UNL A   1      39.632  26.800  27.559  1.00  0.00     0.029 A 
ATOM     17  N   UNL A   1      41.556  27.068  28.630  1.00  0.00    -0.354 N 
ATOM     18  C   UNL A   1      42.059  30.645  31.115  1.00  0.00     0.074 A 
ATOM     19  C   UNL A   1      40.945  31.550  30.947  1.00  0.00     0.031 C 
ATOM     20  C   UNL A   1      40.353  25.690  27.343  1.00  0.00     0.029 A 
ATOM     21  C   UNL A   1      41.610  25.805  28.069  1.00  0.00     0.049 A 
ATOM     22  H   UNL A   1      42.309  27.476  29.115  1.00  0.00     0.167 HD
ATOM     23  C   UNL A   1      43.180  30.926  31.815  1.00  0.00     0.031 A 
ATOM     24  C   UNL A   1      42.535  24.831  28.199  1.00  0.00     0.031 A 
ATOM     25  C   UNL A   1      44.291  30.019  31.916  1.00  0.00     0.049 A 
ATOM     26  C   UNL A   1      43.725  25.135  29.074  1.00  0.00     0.074 A 
ATOM     27  C   UNL A   1      45.513  30.214  32.529  1.00  0.00     0.029 A 
ATOM     28  N   UNL A   1      44.310  28.740  31.372  1.00  0.00    -0.354 N 
ATOM     29  N   UNL A   1      43.959  26.206  29.799  1.00  0.00    -0.248 NA
ATOM     30  C   UNL A   1      44.767  24.105  29.163  1.00  0.00     0.031 C 
ATOM     31  C   UNL A   1      46.291  29.070  32.314  1.00  0.00     0.029 A 
ATOM     32  C   UNL A   1      45.532  28.142  31.616  1.00  0.00     0.049 A 
ATOM     33  H   UNL A   1      43.564  28.322  30.886  1.00  0.00     0.167 HD
ATOM     34  C   UNL A   1      45.173  25.977  30.433  1.00  0.00     0.074 A 
ATOM     35  C   UNL A   1      45.589  24.639  30.059  1.00  0.00     0.031 C 
ATOM     36  C   UNL A   1      45.903  26.805  31.221  1.00  0.00     0.031 A 
BRANCH  23  37
ATOM     37  C   UNL A   1      43.280  32.304  32.403  1.00  0.00    -0.014 A 
ATOM     38  C   UNL A   1      42.799  32.593  33.693  1.00  0.00     0.010 A 
ATOM     39  C   UNL A   1      43.815  33.341  31.620  1.00  0.00     0.010 A 
ATOM     40  C   UNL A   1      42.811  33.906  34.170  1.00  0.00     0.020 A 
ATOM     41  C   UNL A   1      43.853  34.651  32.104  1.00  0.00     0.020 A 
ATOM     42  C   UNL A   1      43.332  34.928  33.369  1.00  0.00     0.054 A 
BRANCH  42  43
ATOM     43  S   UNL A   1      43.331  36.626  34.007  1.00  0.00     0.124 S 
ATOM     44  O   UNL A   1      42.036  36.694  34.680  1.00  0.00    -0.237 OA
ATOM     45  O   UNL A   1      44.497  36.638  34.886  1.00  0.00    -0.237 OA
ATOM     46  O   UNL A   1      43.451  37.447  32.805  1.00  0.00    -0.744 OA
ENDBRANCH  42  43
ENDBRANCH  23  37
BRANCH  24  47
ATOM     47  C   UNL A   1      42.308  23.457  27.637  1.00  0.00    -0.014 A 
ATOM     48  C   UNL A   1      42.809  23.136  26.359  1.00  0.00     0.010 A 
ATOM     49  C   UNL A   1      41.649  22.445  28.360  1.00  0.00     0.010 A 
ATOM     50  C   UNL A   1      42.675  21.853  25.825  1.00  0.00     0.020 A 
ATOM     51  C   UNL A   1      41.544  21.143  27.847  1.00  0.00     0.020 A 
ATOM     52  C   UNL A   1      42.061  20.856  26.582  1.00  0.00     0.054 A 
BRANCH  52  53
ATOM     53  S   UNL A   1      42.022  19.169  25.914  1.00  0.00     0.124 S 
ATOM     54  O   UNL A   1      40.602  18.979  25.642  1.00  0.00    -0.237 OA
ATOM     55  O   UNL A   1      42.885  19.286  24.739  1.00  0.00    -0.237 OA
ATOM     56  O   UNL A   1      42.568  18.357  26.999  1.00  0.00    -0.744 OA
ENDBRANCH  52  53
ENDBRANCH  24  47
BRANCH  36  57
ATOM     57  C   UNL A   1      47.238  26.294  31.684  1.00  0.00    -0.014 A 
ATOM     58  C   UNL A   1      47.382  25.750  32.973  1.00  0.00     0.010 A 
ATOM     59  C   UNL A   1      48.338  26.295  30.809  1.00  0.00     0.010 A 
ATOM     60  C   UNL A   1      48.613  25.251  33.395  1.00  0.00     0.020 A 
ATOM     61  C   UNL A   1      49.565  25.767  31.216  1.00  0.00     0.020 A 
ATOM     62  C   UNL A   1      49.697  25.263  32.513  1.00  0.00     0.054 A 
BRANCH  62  63
ATOM     63  S   UNL A   1      51.272  24.560  33.071  1.00  0.00     0.124 S 
ATOM     64  O   UNL A   1      51.125  24.606  34.523  1.00  0.00    -0.237 OA
ATOM     65  O   UNL A   1      51.254  23.225  32.480  1.00  0.00    -0.237 OA
ATOM     66  O   UNL A   1      52.272  25.469  32.516  1.00  0.00    -0.744 OA
ENDBRANCH  62  63
ENDBRANCH  36  57
ENDBRANCH  10  11
ENDBRANCH   3   5
ENDBRANCH   2   3
ENDBRANCH   1   2
BRANCH   1  67
ATOM     67  C   UNL A   1      32.786  27.836  26.767  1.00  0.00     0.275 C 
BRANCH  67  68
ATOM     68  O   UNL A   1      33.333  26.622  26.229  1.00  0.00    -0.458 OA
BRANCH  68  69
ATOM     69  C   UNL A   1      32.441  25.604  26.110  1.00  0.00     0.340 C 
ATOM     70  O   UNL A   1      31.521  25.362  26.880  1.00  0.00    -0.246 OA
BRANCH  69  71
ATOM     71  C   UNL A   1      32.631  24.872  24.839  1.00  0.00     0.083 A 
ATOM     72  C   UNL A   1      33.043  23.531  24.967  1.00  0.00     0.018 A 
ATOM     73  C   UNL A   1      32.437  25.452  23.571  1.00  0.00     0.053 A 
ATOM     74  C   UNL A   1      33.291  22.759  23.838  1.00  0.00     0.001 A 
ATOM     75  C   UNL A   1      32.839  24.694  22.459  1.00  0.00     0.027 A 
ATOM     76  C   UNL A   1      33.220  23.351  22.585  1.00  0.00     0.002 A 
BRANCH  73  77
ATOM     77  N   UNL A   1      31.886  26.748  23.414  1.00  0.00    -0.355 N 
ATOM     78  H   UNL A   1      32.534  27.482  23.309  1.00  0.00     0.167 HD
BRANCH  77  79
ATOM     79  C   UNL A   1      30.527  27.118  23.392  1.00  0.00     0.039 A 
ATOM     80  C   UNL A   1      29.547  26.266  23.902  1.00  0.00     0.026 A 
ATOM     81  C   UNL A   1      30.135  28.361  22.873  1.00  0.00     0.039 A 
ATOM     82  C   UNL A   1      28.202  26.644  23.893  1.00  0.00     0.003 A 
ATOM     83  C   UNL A   1      28.788  28.766  22.873  1.00  0.00     0.058 A 
ATOM     84  C   UNL A   1      27.825  27.888  23.386  1.00  0.00     0.013 A 
BRANCH  83  85
ATOM     85  C   UNL A   1      28.379  30.115  22.330  1.00  0.00     0.416 C 
ATOM     86  F   UNL A   1      27.324  30.642  23.015  1.00  0.00    -0.166 F 
ATOM     87  F   UNL A   1      29.359  31.052  22.391  1.00  0.00    -0.166 F 
ATOM     88  F   UNL A   1      27.976  30.072  21.027  1.00  0.00    -0.166 F 
ENDBRANCH  83  85
ENDBRANCH  77  79
ENDBRANCH  73  77
ENDBRANCH  69  71
ENDBRANCH  68  69
ENDBRANCH  67  68
ENDBRANCH   1  67
TORSDOF 17
ENDMDL
MODEL 3
REMARK VINA RESULT:     -10.2      4.020     12.188
REMARK SMILES O=C(OCCOC(=O)c1ccccc1Nc1cccc(C(F)(F)F)c1)c1ccc(-c2c3nc(c(-c4ccc(S(=O)(=O)[O-])cc4)c4ccc([nH]4)c(-c4ccc(S(=O)(=O)[O-])cc4)c4nc(c(-c5ccc(S(=O)(=O)[O-])cc5)c5ccc2[nH]5)C=C4)C=C3)cc1
REMARK SMILES IDX 4 1 3 2 2 3 1 4 26 5 27 6 85 7 28 8 84 9 29 10 30 11 31 12
REMARK SMILES IDX 78 13 32 14 83 15 77 16 79 17 33 18 82 19 76 20 75 21 34 23
REMARK SMILES IDX 64 24 45 25 63 26 46 27 49 28 62 29 80 30 47 31 48 32 61 34
REMARK SMILES IDX 81 35 50 36 35 37 36 38 44 39 37 40 43 41 38 42 39 43 40 44
REMARK SMILES IDX 41 45 42 46 65 47 66 48 74 49 67 50 73 51 68 52 69 53 70 54
REMARK SMILES IDX 71 55 72 56 51 57 52 58 60 59 53 60 59 61 54 62 55 63 56 64
REMARK SMILES IDX 57 65 58 66 5 67 6 68 7 69 8 70 9 71 10 72 14 73 11 74 13 75
REMARK SMILES IDX 12 76 15 77 16 79 17 80 25 81 18 82 20 83 19 84 21 85 22 86
REMARK SMILES IDX 23 87 24 88
REMARK H PARENT 79 22 49 33 15 78
REMARK Flexibility Score: inf
ROOT
ATOM      1  C   UNL A   1      33.656  33.061  28.480  1.00  0.00     0.275 C 
ENDROOT
BRANCH   1   2
ATOM      2  O   UNL A   1      34.294  32.140  27.578  1.00  0.00    -0.458 OA
BRANCH   2   3
ATOM      3  C   UNL A   1      34.532  30.813  27.674  1.00  0.00     0.338 C 
ATOM      4  O   UNL A   1      33.603  30.046  27.415  1.00  0.00    -0.246 OA
BRANCH   3   5
ATOM      5  C   UNL A   1      35.816  30.193  28.158  1.00  0.00     0.060 A 
ATOM      6  C   UNL A   1      36.027  29.550  29.380  1.00  0.00     0.016 A 
ATOM      7  C   UNL A   1      36.915  30.281  27.277  1.00  0.00     0.016 A 
ATOM      8  C   UNL A   1      37.276  29.012  29.711  1.00  0.00     0.010 A 
ATOM      9  C   UNL A   1      38.166  29.740  27.598  1.00  0.00     0.010 A 
ATOM     10  C   UNL A   1      38.356  29.115  28.830  1.00  0.00    -0.014 A 
BRANCH  10  11
ATOM     11  C   UNL A   1      39.700  28.694  29.288  1.00  0.00     0.031 A 
ATOM     12  C   UNL A   1      40.343  29.488  30.376  1.00  0.00     0.074 A 
ATOM     13  C   UNL A   1      40.293  27.596  28.788  1.00  0.00     0.049 A 
ATOM     14  N   UNL A   1      41.405  29.207  31.075  1.00  0.00    -0.248 NA
ATOM     15  C   UNL A   1      39.704  30.769  30.718  1.00  0.00     0.031 C 
ATOM     16  C   UNL A   1      39.712  26.785  27.735  1.00  0.00     0.029 A 
ATOM     17  N   UNL A   1      41.452  26.933  29.104  1.00  0.00    -0.354 N 
ATOM     18  C   UNL A   1      41.589  30.293  31.917  1.00  0.00     0.074 A 
ATOM     19  C   UNL A   1      40.518  31.228  31.656  1.00  0.00     0.031 C 
ATOM     20  C   UNL A   1      40.451  25.683  27.543  1.00  0.00     0.029 A 
ATOM     21  C   UNL A   1      41.583  25.717  28.457  1.00  0.00     0.049 A 
ATOM     22  H   UNL A   1      42.124  27.288  29.729  1.00  0.00     0.167 HD
ATOM     23  C   UNL A   1      42.592  30.497  32.800  1.00  0.00     0.031 A 
ATOM     24  C   UNL A   1      42.473  24.720  28.647  1.00  0.00     0.031 A 
ATOM     25  C   UNL A   1      43.669  29.566  32.995  1.00  0.00     0.049 A 
ATOM     26  C   UNL A   1      43.517  24.933  29.714  1.00  0.00     0.074 A 
ATOM     27  C   UNL A   1      44.784  29.691  33.800  1.00  0.00     0.029 A 
ATOM     28  N   UNL A   1      43.764  28.334  32.358  1.00  0.00    -0.354 N 
ATOM     29  N   UNL A   1      43.643  25.939  30.550  1.00  0.00    -0.248 NA
ATOM     30  C   UNL A   1      44.527  23.881  29.877  1.00  0.00     0.031 C 
ATOM     31  C   UNL A   1      45.580  28.554  33.613  1.00  0.00     0.029 A 
ATOM     32  C   UNL A   1      44.931  27.697  32.736  1.00  0.00     0.049 A 
ATOM     33  H   UNL A   1      43.099  27.969  31.732  1.00  0.00     0.167 HD
ATOM     34  C   UNL A   1      44.744  25.639  31.340  1.00  0.00     0.074 A 
ATOM     35  C   UNL A   1      45.205  24.327  30.927  1.00  0.00     0.031 C 
ATOM     36  C   UNL A   1      45.350  26.389  32.294  1.00  0.00     0.031 A 
BRANCH  23  37
ATOM     37  C   UNL A   1      42.608  31.823  33.505  1.00  0.00    -0.014 A 
ATOM     38  C   UNL A   1      41.998  31.999  34.760  1.00  0.00     0.010 A 
ATOM     39  C   UNL A   1      43.199  32.927  32.867  1.00  0.00     0.010 A 
ATOM     40  C   UNL A   1      41.939  33.268  35.343  1.00  0.00     0.020 A 
ATOM     41  C   UNL A   1      43.165  34.192  33.458  1.00  0.00     0.020 A 
ATOM     42  C   UNL A   1      42.517  34.358  34.684  1.00  0.00     0.054 A 
BRANCH  42  43
ATOM     43  S   UNL A   1      42.422  35.997  35.454  1.00  0.00     0.124 S 
ATOM     44  O   UNL A   1      43.373  35.867  36.557  1.00  0.00    -0.237 OA
ATOM     45  O   UNL A   1      42.835  36.884  34.371  1.00  0.00    -0.237 OA
ATOM     46  O   UNL A   1      41.022  36.113  35.851  1.00  0.00    -0.744 OA
ENDBRANCH  42  43
ENDBRANCH  23  37
BRANCH  24  47
ATOM     47  C   UNL A   1      42.326  23.399  27.948  1.00  0.00    -0.014 A 
ATOM     48  C   UNL A   1      43.256  23.031  26.955  1.00  0.00     0.010 A 
ATOM     49  C   UNL A   1      41.315  22.478  28.279  1.00  0.00     0.010 A 
ATOM     50  C   UNL A   1      43.194  21.785  26.325  1.00  0.00     0.020 A 
ATOM     51  C   UNL A   1      41.268  21.210  27.678  1.00  0.00     0.020 A 
ATOM     52  C   UNL A   1      42.211  20.873  26.705  1.00  0.00     0.054 A 
BRANCH  52  53
ATOM     53  S   UNL A   1      42.241  19.217  25.963  1.00  0.00     0.124 S 
ATOM     54  O   UNL A   1      42.823  18.412  27.031  1.00  0.00    -0.237 OA
ATOM     55  O   UNL A   1      40.824  18.980  25.687  1.00  0.00    -0.237 OA
ATOM     56  O   UNL A   1      43.077  19.386  24.777  1.00  0.00    -0.744 OA
ENDBRANCH  52  53
ENDBRANCH  24  47
BRANCH  36  57
ATOM     57  C   UNL A   1      46.597  25.820  32.911  1.00  0.00    -0.014 A 
ATOM     58  C   UNL A   1      46.515  25.015  34.062  1.00  0.00     0.010 A 
ATOM     59  C   UNL A   1      47.847  26.032  32.305  1.00  0.00     0.010 A 
ATOM     60  C   UNL A   1      47.667  24.464  34.621  1.00  0.00     0.020 A 
ATOM     61  C   UNL A   1      48.999  25.455  32.843  1.00  0.00     0.020 A 
ATOM     62  C   UNL A   1      48.902  24.687  34.007  1.00  0.00     0.054 A 
BRANCH  62  63
ATOM     63  S   UNL A   1      50.376  23.916  34.726  1.00  0.00     0.124 S 
ATOM     64  O   UNL A   1      51.195  25.079  35.056  1.00  0.00    -0.237 OA
ATOM     65  O   UNL A   1      49.831  23.187  35.868  1.00  0.00    -0.237 OA
ATOM     66  O   UNL A   1      50.889  23.078  33.646  1.00  0.00    -0.744 OA
ENDBRANCH  62  63
ENDBRANCH  36  57
ENDBRANCH  10  11
ENDBRANCH   3   5
ENDBRANCH   2   3
ENDBRANCH   1   2
BRANCH   1  67
ATOM     67  C   UNL A   1      34.589  34.158  28.997  1.00  0.00     0.275 C 
BRANCH  67  68
ATOM     68  O   UNL A   1      34.705  34.159  30.428  1.00  0.00    -0.458 OA
BRANCH  68  69
ATOM     69  C   UNL A   1      35.623  33.285  30.922  1.00  0.00     0.340 C 
ATOM     70  O   UNL A   1      35.383  32.178  31.384  1.00  0.00    -0.246 OA
BRANCH  69  71
ATOM     71  C   UNL A   1      36.999  33.783  30.714  1.00  0.00     0.083 A 
ATOM     72  C   UNL A   1      37.438  33.812  29.375  1.00  0.00     0.018 A 
ATOM     73  C   UNL A   1      37.846  34.193  31.762  1.00  0.00     0.053 A 
ATOM     74  C   UNL A   1      38.728  34.225  29.065  1.00  0.00     0.001 A 
ATOM     75  C   UNL A   1      39.184  34.458  31.429  1.00  0.00     0.027 A 
ATOM     76  C   UNL A   1      39.611  34.517  30.096  1.00  0.00     0.002 A 
BRANCH  73  77
ATOM     77  N   UNL A   1      37.385  34.310  33.097  1.00  0.00    -0.355 N 
ATOM     78  H   UNL A   1      36.763  35.052  33.274  1.00  0.00     0.167 HD
BRANCH  77  79
ATOM     79  C   UNL A   1      37.708  33.499  34.203  1.00  0.00     0.039 A 
ATOM     80  C   UNL A   1      37.727  32.108  34.086  1.00  0.00     0.026 A 
ATOM     81  C   UNL A   1      38.034  34.076  35.439  1.00  0.00     0.039 A 
ATOM     82  C   UNL A   1      38.063  31.308  35.181  1.00  0.00     0.003 A 
ATOM     83  C   UNL A   1      38.393  33.286  36.546  1.00  0.00     0.058 A 
ATOM     84  C   UNL A   1      38.398  31.893  36.403  1.00  0.00     0.013 A 
BRANCH  83  85
ATOM     85  C   UNL A   1      38.762  33.918  37.868  1.00  0.00     0.416 C 
ATOM     86  F   UNL A   1      39.984  33.502  38.309  1.00  0.00    -0.166 F 
ATOM     87  F   UNL A   1      38.831  35.273  37.828  1.00  0.00    -0.166 F 
ATOM     88  F   UNL A   1      37.892  33.612  38.874  1.00  0.00    -0.166 F 
ENDBRANCH  83  85
ENDBRANCH  77  79
ENDBRANCH  73  77
ENDBRANCH  69  71
ENDBRANCH  68  69
ENDBRANCH  67  68
ENDBRANCH   1  67
TORSDOF 17
ENDMDL
