MODEL 1
REMARK VINA RESULT:      -7.7      0.000      0.000
REMARK SMILES CCc1cccc(CC)c1N1/C(=[NH+]/C(=O)CCCC(=O)OCCOC(=O)c2ccc(-c3c4nc(c(-c5ccc(S(=O)(=O)[O-])cc5)c5ccc([nH]5)c(-c5ccc(S(=O)(=O)[O-])cc5)c5nc(c(-c6ccc(S(=O)(=O)[O-])cc6)c6ccc3[nH]6)C=C5)C=C4)cc2)S[C@@H]2CS(=O)(=O)C[C@@H]21
REMARK SMILES IDX 22 1 21 2 19 3 20 4 18 5 17 6 16 7 14 8 11 9 12 10 94 11
REMARK SMILES IDX 13 12 87 13 88 14 93 15 89 17 90 18 15 19 91 20 92 21 10 22
REMARK SMILES IDX 3 23 4 24 5 25 7 26 6 27 2 28 1 29 8 30 9 31 23 32 24 33
REMARK SMILES IDX 25 34 26 35 27 36 28 37 86 38 29 39 85 40 30 41 31 42 32 43
REMARK SMILES IDX 79 44 33 45 84 46 78 47 80 48 34 49 83 50 77 51 76 52 35 54
REMARK SMILES IDX 65 55 46 56 64 57 47 58 50 59 63 60 81 61 48 62 49 63 62 65
REMARK SMILES IDX 82 66 51 67 36 68 37 69 45 70 38 71 44 72 39 73 40 74 41 75
REMARK SMILES IDX 42 76 43 77 66 78 67 79 75 80 68 81 74 82 69 83 70 84 71 85
REMARK SMILES IDX 72 86 73 87 52 88 53 89 61 90 54 91 60 92 55 93 56 94 57 95
REMARK SMILES IDX 58 96 59 97
REMARK H PARENT 13 16 80 53 50 64
REMARK Flexibility Score: inf
ROOT
ATOM      1  C   UNL A   1      42.356  21.844  27.943  1.00  0.00     0.274 C 
ENDROOT
BRANCH   1   2
ATOM      2  O   UNL A   1      42.883  22.690  28.977  1.00  0.00    -0.462 OA
BRANCH   2   3
ATOM      3  C   UNL A   1      44.106  23.220  28.730  1.00  0.00     0.305 C 
ATOM      4  O   UNL A   1      44.646  23.205  27.630  1.00  0.00    -0.252 OA
BRANCH   3   5
ATOM      5  C   UNL A   1      44.688  23.953  29.928  1.00  0.00     0.123 C 
BRANCH   5   6
ATOM      6  C   UNL A   1      44.136  23.598  31.299  1.00  0.00     0.024 C 
BRANCH   6   7
ATOM      7  C   UNL A   1      44.390  24.652  32.372  1.00  0.00     0.128 C 
BRANCH   7   8
ATOM      8  C   UNL A   1      45.604  25.496  32.047  1.00  0.00     0.307 C 
ATOM      9  N   UNL A   1      46.343  28.501  30.089  1.00  0.00    -0.216 N 
ATOM     10  C   UNL A   1      46.296  27.209  30.630  1.00  0.00     0.319 C 
ATOM     11  C   UNL A   1      47.676  28.944  29.613  1.00  0.00     0.212 C 
ATOM     12  N   UNL A   1      45.352  26.638  31.302  1.00  0.00    -0.204 N 
ATOM     13  S   UNL A   1      47.866  26.420  30.289  1.00  0.00    -0.029 SA
ATOM     14  C   UNL A   1      48.695  28.015  30.293  1.00  0.00     0.120 C 
ATOM     15  C   UNL A   1      48.079  30.374  29.958  1.00  0.00     0.188 C 
ATOM     16  H   UNL A   1      44.443  27.018  31.286  1.00  0.00     0.316 HD
ATOM     17  C   UNL A   1      48.909  28.538  31.705  1.00  0.00     0.156 C 
ATOM     18  S   UNL A   1      49.072  30.282  31.435  1.00  0.00     0.155 S 
ATOM     19  O   UNL A   1      46.670  25.227  32.601  1.00  0.00    -0.247 OA
ATOM     20  O   UNL A   1      48.426  30.996  32.509  1.00  0.00    -0.229 OA
ATOM     21  O   UNL A   1      50.451  30.532  31.056  1.00  0.00    -0.229 OA
BRANCH   9  22
ATOM     22  C   UNL A   1      45.231  29.311  29.750  1.00  0.00     0.134 A 
ATOM     23  C   UNL A   1      44.609  29.192  28.472  1.00  0.00    -0.001 A 
ATOM     24  C   UNL A   1      43.420  29.903  28.201  1.00  0.00     0.008 A 
ATOM     25  C   UNL A   1      42.829  30.715  29.156  1.00  0.00     0.001 A 
ATOM     26  C   UNL A   1      44.609  30.146  30.727  1.00  0.00    -0.001 A 
ATOM     27  C   UNL A   1      43.411  30.821  30.410  1.00  0.00     0.008 A 
BRANCH  23  28
ATOM     28  C   UNL A   1      45.079  28.232  27.395  1.00  0.00     0.036 C 
ATOM     29  C   UNL A   1      46.015  28.858  26.372  1.00  0.00     0.009 C 
ENDBRANCH  23  28
BRANCH  26  30
ATOM     30  C   UNL A   1      45.111  30.275  32.154  1.00  0.00     0.036 C 
ATOM     31  C   UNL A   1      44.956  31.661  32.771  1.00  0.00     0.009 C 
ENDBRANCH  26  30
ENDBRANCH   9  22
ENDBRANCH   7   8
ENDBRANCH   6   7
ENDBRANCH   5   6
ENDBRANCH   3   5
ENDBRANCH   2   3
ENDBRANCH   1   2
BRANCH   1  32
ATOM     32  C   UNL A   1      41.015  22.400  27.459  1.00  0.00     0.275 C 
BRANCH  32  33
ATOM     33  O   UNL A   1      41.124  23.775  27.040  1.00  0.00    -0.458 OA
BRANCH  33  34
ATOM     34  C   UNL A   1      39.947  24.409  26.829  1.00  0.00     0.338 C 
ATOM     35  O   UNL A   1      39.050  24.071  26.073  1.00  0.00    -0.246 OA
BRANCH  34  36
ATOM     36  C   UNL A   1      39.829  25.576  27.713  1.00  0.00     0.060 A 
ATOM     37  C   UNL A   1      40.664  26.678  27.512  1.00  0.00     0.016 A 
ATOM     38  C   UNL A   1      39.001  25.514  28.830  1.00  0.00     0.016 A 
ATOM     39  C   UNL A   1      40.732  27.689  28.459  1.00  0.00     0.010 A 
ATOM     40  C   UNL A   1      39.020  26.565  29.749  1.00  0.00     0.010 A 
ATOM     41  C   UNL A   1      39.906  27.645  29.585  1.00  0.00    -0.014 A 
BRANCH  41  42
ATOM     42  C   UNL A   1      39.985  28.721  30.599  1.00  0.00     0.031 A 
ATOM     43  C   UNL A   1      40.961  28.610  31.733  1.00  0.00     0.074 A 
ATOM     44  C   UNL A   1      39.170  29.788  30.500  1.00  0.00     0.049 A 
ATOM     45  N   UNL A   1      41.092  29.372  32.787  1.00  0.00    -0.248 NA
ATOM     46  C   UNL A   1      41.905  27.484  31.681  1.00  0.00     0.031 C 
ATOM     47  C   UNL A   1      38.215  30.025  29.416  1.00  0.00     0.029 A 
ATOM     48  N   UNL A   1      39.006  30.865  31.332  1.00  0.00    -0.354 N 
ATOM     49  C   UNL A   1      42.104  28.796  33.546  1.00  0.00     0.074 A 
ATOM     50  C   UNL A   1      42.536  27.609  32.840  1.00  0.00     0.031 C 
ATOM     51  C   UNL A   1      37.565  31.174  29.649  1.00  0.00     0.029 A 
ATOM     52  C   UNL A   1      38.003  31.715  30.930  1.00  0.00     0.049 A 
ATOM     53  H   UNL A   1      39.552  31.016  32.137  1.00  0.00     0.167 HD
ATOM     54  C   UNL A   1      42.619  29.218  34.727  1.00  0.00     0.031 A 
ATOM     55  C   UNL A   1      37.461  32.782  31.546  1.00  0.00     0.031 A 
ATOM     56  C   UNL A   1      42.167  30.398  35.418  1.00  0.00     0.049 A 
ATOM     57  C   UNL A   1      38.002  33.200  32.882  1.00  0.00     0.074 A 
ATOM     58  C   UNL A   1      42.631  30.931  36.608  1.00  0.00     0.029 A 
ATOM     59  N   UNL A   1      41.134  31.222  34.988  1.00  0.00    -0.354 N 
ATOM     60  N   UNL A   1      38.963  32.652  33.588  1.00  0.00    -0.248 NA
ATOM     61  C   UNL A   1      37.391  34.382  33.502  1.00  0.00     0.031 C 
ATOM     62  C   UNL A   1      41.833  32.035  36.931  1.00  0.00     0.029 A 
ATOM     63  C   UNL A   1      40.923  32.239  35.906  1.00  0.00     0.049 A 
ATOM     64  H   UNL A   1      40.628  31.102  34.153  1.00  0.00     0.167 HD
ATOM     65  C   UNL A   1      39.088  33.434  34.729  1.00  0.00     0.074 A 
ATOM     66  C   UNL A   1      38.112  34.501  34.610  1.00  0.00     0.031 C 
ATOM     67  C   UNL A   1      39.935  33.284  35.779  1.00  0.00     0.031 A 
BRANCH  54  68
ATOM     68  C   UNL A   1      43.677  28.353  35.368  1.00  0.00    -0.014 A 
ATOM     69  C   UNL A   1      45.038  28.475  35.034  1.00  0.00     0.010 A 
ATOM     70  C   UNL A   1      43.293  27.384  36.313  1.00  0.00     0.010 A 
ATOM     71  C   UNL A   1      45.982  27.596  35.576  1.00  0.00     0.020 A 
ATOM     72  C   UNL A   1      44.239  26.528  36.885  1.00  0.00     0.020 A 
ATOM     73  C   UNL A   1      45.573  26.621  36.490  1.00  0.00     0.054 A 
BRANCH  73  74
ATOM     74  S   UNL A   1      46.812  25.473  37.152  1.00  0.00     0.124 S 
ATOM     75  O   UNL A   1      47.441  26.277  38.197  1.00  0.00    -0.237 OA
ATOM     76  O   UNL A   1      45.995  24.359  37.625  1.00  0.00    -0.237 OA
ATOM     77  O   UNL A   1      47.661  25.175  36.001  1.00  0.00    -0.744 OA
ENDBRANCH  73  74
ENDBRANCH  54  68
BRANCH  55  78
ATOM     78  C   UNL A   1      36.322  33.488  30.899  1.00  0.00    -0.014 A 
ATOM     79  C   UNL A   1      35.104  33.658  31.576  1.00  0.00     0.010 A 
ATOM     80  C   UNL A   1      36.486  34.070  29.627  1.00  0.00     0.010 A 
ATOM     81  C   UNL A   1      34.075  34.408  30.999  1.00  0.00     0.020 A 
ATOM     82  C   UNL A   1      35.471  34.845  29.061  1.00  0.00     0.020 A 
ATOM     83  C   UNL A   1      34.270  35.009  29.751  1.00  0.00     0.054 A 
BRANCH  83  84
ATOM     84  S   UNL A   1      32.959  36.065  29.074  1.00  0.00     0.124 S 
ATOM     85  O   UNL A   1      33.725  37.087  28.369  1.00  0.00    -0.237 OA
ATOM     86  O   UNL A   1      32.213  35.135  28.228  1.00  0.00    -0.237 OA
ATOM     87  O   UNL A   1      32.242  36.526  30.261  1.00  0.00    -0.744 OA
ENDBRANCH  83  84
ENDBRANCH  55  78
BRANCH  67  88
ATOM     88  C   UNL A   1      39.867  34.317  36.874  1.00  0.00    -0.014 A 
ATOM     89  C   UNL A   1      40.489  35.571  36.740  1.00  0.00     0.010 A 
ATOM     90  C   UNL A   1      39.119  34.045  38.035  1.00  0.00     0.010 A 
ATOM     91  C   UNL A   1      40.391  36.520  37.761  1.00  0.00     0.020 A 
ATOM     92  C   UNL A   1      38.991  35.003  39.042  1.00  0.00     0.020 A 
ATOM     93  C   UNL A   1      39.640  36.231  38.906  1.00  0.00     0.054 A 
BRANCH  93  94
ATOM     94  S   UNL A   1      39.491  37.497  40.195  1.00  0.00     0.124 S 
ATOM     95  O   UNL A   1      38.562  38.445  39.586  1.00  0.00    -0.237 OA
ATOM     96  O   UNL A   1      38.964  36.738  41.327  1.00  0.00    -0.237 OA
ATOM     97  O   UNL A   1      40.858  37.985  40.362  1.00  0.00    -0.744 OA
ENDBRANCH  93  94
ENDBRANCH  67  88
ENDBRANCH  41  42
ENDBRANCH  34  36
ENDBRANCH  33  34
ENDBRANCH  32  33
ENDBRANCH   1  32
TORSDOF 20
ENDMDL
MODEL 2
REMARK VINA RESULT:      -7.5      4.380     11.175
REMARK SMILES CCc1cccc(CC)c1N1/C(=[NH+]/C(=O)CCCC(=O)OCCOC(=O)c2ccc(-c3c4nc(c(-c5ccc(S(=O)(=O)[O-])cc5)c5ccc([nH]5)c(-c5ccc(S(=O)(=O)[O-])cc5)c5nc(c(-c6ccc(S(=O)(=O)[O-])cc6)c6ccc3[nH]6)C=C5)C=C4)cc2)S[C@@H]2CS(=O)(=O)C[C@@H]21
REMARK SMILES IDX 22 1 21 2 19 3 20 4 18 5 17 6 16 7 14 8 11 9 12 10 94 11
REMARK SMILES IDX 13 12 87 13 88 14 93 15 89 17 90 18 15 19 91 20 92 21 10 22
REMARK SMILES IDX 3 23 4 24 5 25 7 26 6 27 2 28 1 29 8 30 9 31 23 32 24 33
REMARK SMILES IDX 25 34 26 35 27 36 28 37 86 38 29 39 85 40 30 41 31 42 32 43
REMARK SMILES IDX 79 44 33 45 84 46 78 47 80 48 34 49 83 50 77 51 76 52 35 54
REMARK SMILES IDX 65 55 46 56 64 57 47 58 50 59 63 60 81 61 48 62 49 63 62 65
REMARK SMILES IDX 82 66 51 67 36 68 37 69 45 70 38 71 44 72 39 73 40 74 41 75
REMARK SMILES IDX 42 76 43 77 66 78 67 79 75 80 68 81 74 82 69 83 70 84 71 85
REMARK SMILES IDX 72 86 73 87 52 88 53 89 61 90 54 91 60 92 55 93 56 94 57 95
REMARK SMILES IDX 58 96 59 97
REMARK H PARENT 13 16 80 53 50 64
REMARK Flexibility Score: inf
ROOT
ATOM      1  C   UNL A   1      43.216  39.831  30.080  1.00  0.00     0.274 C 
ENDROOT
BRANCH   1   2
ATOM      2  O   UNL A   1      44.067  39.099  29.184  1.00  0.00    -0.462 OA
BRANCH   2   3
ATOM      3  C   UNL A   1      43.447  38.166  28.421  1.00  0.00     0.305 C 
ATOM      4  O   UNL A   1      43.106  38.353  27.260  1.00  0.00    -0.252 OA
BRANCH   3   5
ATOM      5  C   UNL A   1      43.332  36.816  29.110  1.00  0.00     0.123 C 
BRANCH   5   6
ATOM      6  C   UNL A   1      42.047  36.031  28.899  1.00  0.00     0.024 C 
BRANCH   6   7
ATOM      7  C   UNL A   1      41.949  34.751  29.722  1.00  0.00     0.128 C 
BRANCH   7   8
ATOM      8  C   UNL A   1      40.509  34.326  29.920  1.00  0.00     0.307 C 
ATOM      9  N   UNL A   1      38.670  31.953  32.018  1.00  0.00    -0.216 N 
ATOM     10  C   UNL A   1      39.230  32.681  30.959  1.00  0.00     0.319 C 
ATOM     11  C   UNL A   1      37.299  31.441  31.784  1.00  0.00     0.212 C 
ATOM     12  N   UNL A   1      40.294  33.413  30.942  1.00  0.00    -0.204 N 
ATOM     13  S   UNL A   1      38.153  32.492  29.542  1.00  0.00    -0.029 SA
ATOM     14  C   UNL A   1      36.732  32.272  30.621  1.00  0.00     0.120 C 
ATOM     15  C   UNL A   1      36.318  31.575  32.944  1.00  0.00     0.188 C 
ATOM     16  H   UNL A   1      40.960  33.323  31.662  1.00  0.00     0.316 HD
ATOM     17  C   UNL A   1      36.253  33.593  31.202  1.00  0.00     0.156 C 
ATOM     18  S   UNL A   1      35.387  33.067  32.656  1.00  0.00     0.155 S 
ATOM     19  O   UNL A   1      39.630  34.933  29.309  1.00  0.00    -0.247 OA
ATOM     20  O   UNL A   1      35.624  34.009  33.722  1.00  0.00    -0.229 OA
ATOM     21  O   UNL A   1      34.050  32.681  32.245  1.00  0.00    -0.229 OA
BRANCH   9  22
ATOM     22  C   UNL A   1      39.355  31.476  33.162  1.00  0.00     0.134 A 
ATOM     23  C   UNL A   1      39.969  30.188  33.158  1.00  0.00    -0.001 A 
ATOM     24  C   UNL A   1      40.764  29.785  34.252  1.00  0.00     0.008 A 
ATOM     25  C   UNL A   1      40.975  30.618  35.338  1.00  0.00     0.001 A 
ATOM     26  C   UNL A   1      39.585  32.327  34.285  1.00  0.00    -0.001 A 
ATOM     27  C   UNL A   1      40.403  31.881  35.346  1.00  0.00     0.008 A 
BRANCH  23  28
ATOM     28  C   UNL A   1      39.928  29.243  31.971  1.00  0.00     0.036 C 
ATOM     29  C   UNL A   1      38.977  28.068  32.146  1.00  0.00     0.009 C 
ENDBRANCH  23  28
BRANCH  26  30
ATOM     30  C   UNL A   1      39.077  33.755  34.366  1.00  0.00     0.036 C 
ATOM     31  C   UNL A   1      39.119  34.379  35.757  1.00  0.00     0.009 C 
ENDBRANCH  26  30
ENDBRANCH   9  22
ENDBRANCH   7   8
ENDBRANCH   6   7
ENDBRANCH   5   6
ENDBRANCH   3   5
ENDBRANCH   2   3
ENDBRANCH   1   2
BRANCH   1  32
ATOM     32  C   UNL A   1      43.871  39.910  31.460  1.00  0.00     0.275 C 
BRANCH  32  33
ATOM     33  O   UNL A   1      44.265  38.610  31.943  1.00  0.00    -0.458 OA
BRANCH  33  34
ATOM     34  C   UNL A   1      43.534  38.132  32.978  1.00  0.00     0.338 C 
ATOM     35  O   UNL A   1      42.845  38.774  33.754  1.00  0.00    -0.246 OA
BRANCH  34  36
ATOM     36  C   UNL A   1      43.606  36.666  33.021  1.00  0.00     0.060 A 
ATOM     37  C   UNL A   1      42.532  35.941  33.542  1.00  0.00     0.016 A 
ATOM     38  C   UNL A   1      44.795  36.023  32.687  1.00  0.00     0.016 A 
ATOM     39  C   UNL A   1      42.662  34.584  33.802  1.00  0.00     0.010 A 
ATOM     40  C   UNL A   1      44.902  34.646  32.886  1.00  0.00     0.010 A 
ATOM     41  C   UNL A   1      43.847  33.922  33.471  1.00  0.00    -0.014 A 
BRANCH  41  42
ATOM     42  C   UNL A   1      43.987  32.476  33.757  1.00  0.00     0.031 A 
ATOM     43  C   UNL A   1      44.437  32.021  35.114  1.00  0.00     0.074 A 
ATOM     44  C   UNL A   1      43.720  31.579  32.789  1.00  0.00     0.049 A 
ATOM     45  N   UNL A   1      44.748  30.818  35.520  1.00  0.00    -0.248 NA
ATOM     46  C   UNL A   1      44.568  33.060  36.146  1.00  0.00     0.031 C 
ATOM     47  C   UNL A   1      43.232  31.903  31.447  1.00  0.00     0.029 A 
ATOM     48  N   UNL A   1      43.835  30.213  32.782  1.00  0.00    -0.354 N 
ATOM     49  C   UNL A   1      45.151  30.959  36.843  1.00  0.00     0.074 A 
ATOM     50  C   UNL A   1      45.066  32.369  37.161  1.00  0.00     0.031 C 
ATOM     51  C   UNL A   1      43.090  30.769  30.746  1.00  0.00     0.029 A 
ATOM     52  C   UNL A   1      43.545  29.649  31.563  1.00  0.00     0.049 A 
ATOM     53  H   UNL A   1      44.099  29.688  33.571  1.00  0.00     0.167 HD
ATOM     54  C   UNL A   1      45.560  29.999  37.708  1.00  0.00     0.031 A 
ATOM     55  C   UNL A   1      43.676  28.381  31.131  1.00  0.00     0.031 A 
ATOM     56  C   UNL A   1      45.648  28.603  37.367  1.00  0.00     0.049 A 
ATOM     57  C   UNL A   1      44.189  27.341  32.084  1.00  0.00     0.074 A 
ATOM     58  C   UNL A   1      46.028  27.542  38.170  1.00  0.00     0.029 A 
ATOM     59  N   UNL A   1      45.363  28.073  36.114  1.00  0.00    -0.354 N 
ATOM     60  N   UNL A   1      44.562  27.483  33.334  1.00  0.00    -0.248 NA
ATOM     61  C   UNL A   1      44.294  25.969  31.572  1.00  0.00     0.031 C 
ATOM     62  C   UNL A   1      46.041  26.383  37.384  1.00  0.00     0.029 A 
ATOM     63  C   UNL A   1      45.593  26.706  36.113  1.00  0.00     0.049 A 
ATOM     64  H   UNL A   1      45.043  28.592  35.342  1.00  0.00     0.167 HD
ATOM     65  C   UNL A   1      44.928  26.215  33.768  1.00  0.00     0.074 A 
ATOM     66  C   UNL A   1      44.717  25.318  32.648  1.00  0.00     0.031 C 
ATOM     67  C   UNL A   1      45.394  25.829  34.983  1.00  0.00     0.031 A 
BRANCH  54  68
ATOM     68  C   UNL A   1      46.008  30.449  39.077  1.00  0.00    -0.014 A 
ATOM     69  C   UNL A   1      45.095  30.654  40.128  1.00  0.00     0.010 A 
ATOM     70  C   UNL A   1      47.376  30.689  39.309  1.00  0.00     0.010 A 
ATOM     71  C   UNL A   1      45.530  31.160  41.357  1.00  0.00     0.020 A 
ATOM     72  C   UNL A   1      47.820  31.159  40.548  1.00  0.00     0.020 A 
ATOM     73  C   UNL A   1      46.890  31.420  41.555  1.00  0.00     0.054 A 
BRANCH  73  74
ATOM     74  S   UNL A   1      47.423  32.107  43.146  1.00  0.00     0.124 S 
ATOM     75  O   UNL A   1      46.687  33.368  43.192  1.00  0.00    -0.237 OA
ATOM     76  O   UNL A   1      46.984  31.090  44.098  1.00  0.00    -0.237 OA
ATOM     77  O   UNL A   1      48.871  32.237  43.002  1.00  0.00    -0.744 OA
ENDBRANCH  73  74
ENDBRANCH  54  68
BRANCH  55  78
ATOM     78  C   UNL A   1      43.343  28.060  29.717  1.00  0.00    -0.014 A 
ATOM     79  C   UNL A   1      44.242  28.358  28.681  1.00  0.00     0.010 A 
ATOM     80  C   UNL A   1      42.151  27.372  29.414  1.00  0.00     0.010 A 
ATOM     81  C   UNL A   1      43.962  27.964  27.369  1.00  0.00     0.020 A 
ATOM     82  C   UNL A   1      41.883  26.951  28.110  1.00  0.00     0.020 A 
ATOM     83  C   UNL A   1      42.791  27.250  27.094  1.00  0.00     0.054 A 
BRANCH  83  84
ATOM     84  S   UNL A   1      42.505  26.657  25.403  1.00  0.00     0.124 S 
ATOM     85  O   UNL A   1      42.605  27.888  24.627  1.00  0.00    -0.237 OA
ATOM     86  O   UNL A   1      43.595  25.700  25.218  1.00  0.00    -0.237 OA
ATOM     87  O   UNL A   1      41.171  26.064  25.469  1.00  0.00    -0.744 OA
ENDBRANCH  83  84
ENDBRANCH  55  78
BRANCH  67  88
ATOM     88  C   UNL A   1      45.681  24.363  35.177  1.00  0.00    -0.014 A 
ATOM     89  C   UNL A   1      46.975  23.840  35.014  1.00  0.00     0.010 A 
ATOM     90  C   UNL A   1      44.642  23.504  35.584  1.00  0.00     0.010 A 
ATOM     91  C   UNL A   1      47.219  22.479  35.222  1.00  0.00     0.020 A 
ATOM     92  C   UNL A   1      44.888  22.151  35.826  1.00  0.00     0.020 A 
ATOM     93  C   UNL A   1      46.173  21.643  35.630  1.00  0.00     0.054 A 
BRANCH  93  94
ATOM     94  S   UNL A   1      46.526  19.892  35.937  1.00  0.00     0.124 S 
ATOM     95  O   UNL A   1      45.593  19.578  37.017  1.00  0.00    -0.237 OA
ATOM     96  O   UNL A   1      46.225  19.275  34.647  1.00  0.00    -0.237 OA
ATOM     97  O   UNL A   1      47.938  19.883  36.312  1.00  0.00    -0.744 OA
ENDBRANCH  93  94
ENDBRANCH  67  88
ENDBRANCH  41  42
ENDBRANCH  34  36
ENDBRANCH  33  34
ENDBRANCH  32  33
ENDBRANCH   1  32
TORSDOF 20
ENDMDL
MODEL 3
REMARK VINA RESULT:      -7.5      9.927     16.197
REMARK SMILES CCc1cccc(CC)c1N1/C(=[NH+]/C(=O)CCCC(=O)OCCOC(=O)c2ccc(-c3c4nc(c(-c5ccc(S(=O)(=O)[O-])cc5)c5ccc([nH]5)c(-c5ccc(S(=O)(=O)[O-])cc5)c5nc(c(-c6ccc(S(=O)(=O)[O-])cc6)c6ccc3[nH]6)C=C5)C=C4)cc2)S[C@@H]2CS(=O)(=O)C[C@@H]21
REMARK SMILES IDX 22 1 21 2 19 3 20 4 18 5 17 6 16 7 14 8 11 9 12 10 94 11
REMARK SMILES IDX 13 12 87 13 88 14 93 15 89 17 90 18 15 19 91 20 92 21 10 22
REMARK SMILES IDX 3 23 4 24 5 25 7 26 6 27 2 28 1 29 8 30 9 31 23 32 24 33
REMARK SMILES IDX 25 34 26 35 27 36 28 37 86 38 29 39 85 40 30 41 31 42 32 43
REMARK SMILES IDX 79 44 33 45 84 46 78 47 80 48 34 49 83 50 77 51 76 52 35 54
REMARK SMILES IDX 65 55 46 56 64 57 47 58 50 59 63 60 81 61 48 62 49 63 62 65
REMARK SMILES IDX 82 66 51 67 36 68 37 69 45 70 38 71 44 72 39 73 40 74 41 75
REMARK SMILES IDX 42 76 43 77 66 78 67 79 75 80 68 81 74 82 69 83 70 84 71 85
REMARK SMILES IDX 72 86 73 87 52 88 53 89 61 90 54 91 60 92 55 93 56 94 57 95
REMARK SMILES IDX 58 96 59 97
REMARK H PARENT 13 16 80 53 50 64
REMARK Flexibility Score: inf
ROOT
ATOM      1  C   UNL A   1      46.699  40.051  27.801  1.00  0.00     0.274 C 
ENDROOT
BRANCH   1   2
ATOM      2  O   UNL A   1      45.385  40.608  27.644  1.00  0.00    -0.462 OA
BRANCH   2   3
ATOM      3  C   UNL A   1      45.050  40.969  26.381  1.00  0.00     0.305 C 
ATOM      4  O   UNL A   1      45.395  40.349  25.382  1.00  0.00    -0.252 OA
BRANCH   3   5
ATOM      5  C   UNL A   1      44.095  42.149  26.334  1.00  0.00     0.123 C 
BRANCH   5   6
ATOM      6  C   UNL A   1      43.572  42.571  24.970  1.00  0.00     0.024 C 
BRANCH   6   7
ATOM      7  C   UNL A   1      44.103  43.913  24.478  1.00  0.00     0.128 C 
BRANCH   7   8
ATOM      8  C   UNL A   1      45.204  43.734  23.454  1.00  0.00     0.307 C 
ATOM      9  N   UNL A   1      45.830  44.711  19.980  1.00  0.00    -0.216 N 
ATOM     10  C   UNL A   1      45.633  44.020  21.183  1.00  0.00     0.319 C 
ATOM     11  C   UNL A   1      46.822  44.112  19.056  1.00  0.00     0.212 C 
ATOM     12  N   UNL A   1      45.010  44.395  22.250  1.00  0.00    -0.204 N 
ATOM     13  S   UNL A   1      46.482  42.449  21.051  1.00  0.00    -0.029 SA
ATOM     14  C   UNL A   1      47.676  43.164  19.913  1.00  0.00     0.120 C 
ATOM     15  C   UNL A   1      47.783  45.080  18.373  1.00  0.00     0.188 C 
ATOM     16  H   UNL A   1      44.389  45.159  22.209  1.00  0.00     0.316 HD
ATOM     17  C   UNL A   1      48.708  44.015  20.636  1.00  0.00     0.156 C 
ATOM     18  S   UNL A   1      49.277  45.087  19.344  1.00  0.00     0.155 S 
ATOM     19  O   UNL A   1      46.250  43.188  23.807  1.00  0.00    -0.247 OA
ATOM     20  O   UNL A   1      49.509  46.404  19.882  1.00  0.00    -0.229 OA
ATOM     21  O   UNL A   1      50.291  44.363  18.600  1.00  0.00    -0.229 OA
BRANCH   9  22
ATOM     22  C   UNL A   1      45.028  45.766  19.478  1.00  0.00     0.134 A 
ATOM     23  C   UNL A   1      45.345  47.124  19.773  1.00  0.00    -0.001 A 
ATOM     24  C   UNL A   1      44.620  48.165  19.154  1.00  0.00     0.008 A 
ATOM     25  C   UNL A   1      43.605  47.901  18.249  1.00  0.00     0.001 A 
ATOM     26  C   UNL A   1      43.983  45.506  18.540  1.00  0.00    -0.001 A 
ATOM     27  C   UNL A   1      43.301  46.585  17.936  1.00  0.00     0.008 A 
BRANCH  23  28
ATOM     28  C   UNL A   1      46.521  47.544  20.636  1.00  0.00     0.036 C 
ATOM     29  C   UNL A   1      47.165  48.856  20.212  1.00  0.00     0.009 C 
ENDBRANCH  23  28
BRANCH  26  30
ATOM     30  C   UNL A   1      43.619  44.112  18.063  1.00  0.00     0.036 C 
ATOM     31  C   UNL A   1      42.624  43.366  18.944  1.00  0.00     0.009 C 
ENDBRANCH  26  30
ENDBRANCH   9  22
ENDBRANCH   7   8
ENDBRANCH   6   7
ENDBRANCH   5   6
ENDBRANCH   3   5
ENDBRANCH   2   3
ENDBRANCH   1   2
BRANCH   1  32
ATOM     32  C   UNL A   1      46.681  38.997  28.909  1.00  0.00     0.275 C 
BRANCH  32  33
ATOM     33  O   UNL A   1      47.557  37.890  28.611  1.00  0.00    -0.458 OA
BRANCH  33  34
ATOM     34  C   UNL A   1      47.805  37.055  29.648  1.00  0.00     0.338 C 
ATOM     35  O   UNL A   1      48.163  37.360  30.774  1.00  0.00    -0.246 OA
BRANCH  34  36
ATOM     36  C   UNL A   1      47.507  35.668  29.269  1.00  0.00     0.060 A 
ATOM     37  C   UNL A   1      47.141  35.380  27.951  1.00  0.00     0.016 A 
ATOM     38  C   UNL A   1      47.443  34.682  30.250  1.00  0.00     0.016 A 
ATOM     39  C   UNL A   1      46.640  34.129  27.620  1.00  0.00     0.010 A 
ATOM     40  C   UNL A   1      47.003  33.404  29.902  1.00  0.00     0.010 A 
ATOM     41  C   UNL A   1      46.571  33.127  28.592  1.00  0.00    -0.014 A 
BRANCH  41  42
ATOM     42  C   UNL A   1      46.028  31.795  28.239  1.00  0.00     0.031 A 
ATOM     43  C   UNL A   1      44.596  31.467  28.540  1.00  0.00     0.074 A 
ATOM     44  C   UNL A   1      46.832  30.884  27.659  1.00  0.00     0.049 A 
ATOM     45  N   UNL A   1      43.971  30.324  28.433  1.00  0.00    -0.248 NA
ATOM     46  C   UNL A   1      43.760  32.568  29.042  1.00  0.00     0.031 C 
ATOM     47  C   UNL A   1      48.227  31.107  27.277  1.00  0.00     0.029 A 
ATOM     48  N   UNL A   1      46.592  29.582  27.302  1.00  0.00    -0.354 N 
ATOM     49  C   UNL A   1      42.680  30.555  28.893  1.00  0.00     0.074 A 
ATOM     50  C   UNL A   1      42.620  31.943  29.300  1.00  0.00     0.031 C 
ATOM     51  C   UNL A   1      48.720  29.982  26.740  1.00  0.00     0.029 A 
ATOM     52  C   UNL A   1      47.701  28.940  26.807  1.00  0.00     0.049 A 
ATOM     53  H   UNL A   1      45.712  29.150  27.391  1.00  0.00     0.167 HD
ATOM     54  C   UNL A   1      41.643  29.686  28.972  1.00  0.00     0.031 A 
ATOM     55  C   UNL A   1      47.896  27.647  26.489  1.00  0.00     0.031 A 
ATOM     56  C   UNL A   1      41.727  28.305  28.571  1.00  0.00     0.049 A 
ATOM     57  C   UNL A   1      46.755  26.684  26.641  1.00  0.00     0.074 A 
ATOM     58  C   UNL A   1      40.735  27.340  28.588  1.00  0.00     0.029 A 
ATOM     59  N   UNL A   1      42.876  27.687  28.093  1.00  0.00    -0.354 N 
ATOM     60  N   UNL A   1      45.536  26.914  27.071  1.00  0.00    -0.248 NA
ATOM     61  C   UNL A   1      47.011  25.289  26.261  1.00  0.00     0.031 C 
ATOM     62  C   UNL A   1      41.302  26.125  28.187  1.00  0.00     0.029 A 
ATOM     63  C   UNL A   1      42.627  26.347  27.844  1.00  0.00     0.049 A 
ATOM     64  H   UNL A   1      43.740  28.136  27.950  1.00  0.00     0.167 HD
ATOM     65  C   UNL A   1      44.871  25.697  26.995  1.00  0.00     0.074 A 
ATOM     66  C   UNL A   1      45.821  24.738  26.463  1.00  0.00     0.031 C 
ATOM     67  C   UNL A   1      43.590  25.401  27.331  1.00  0.00     0.031 A 
BRANCH  54  68
ATOM     68  C   UNL A   1      40.359  30.195  29.580  1.00  0.00    -0.014 A 
ATOM     69  C   UNL A   1      40.209  30.356  30.970  1.00  0.00     0.010 A 
ATOM     70  C   UNL A   1      39.273  30.502  28.740  1.00  0.00     0.010 A 
ATOM     71  C   UNL A   1      38.977  30.741  31.510  1.00  0.00     0.020 A 
ATOM     72  C   UNL A   1      38.052  30.923  29.273  1.00  0.00     0.020 A 
ATOM     73  C   UNL A   1      37.903  31.011  30.657  1.00  0.00     0.054 A 
BRANCH  73  74
ATOM     74  S   UNL A   1      36.308  31.476  31.385  1.00  0.00     0.124 S 
ATOM     75  O   UNL A   1      35.481  31.676  30.197  1.00  0.00    -0.237 OA
ATOM     76  O   UNL A   1      35.972  30.308  32.193  1.00  0.00    -0.237 OA
ATOM     77  O   UNL A   1      36.611  32.688  32.143  1.00  0.00    -0.744 OA
ENDBRANCH  73  74
ENDBRANCH  54  68
BRANCH  55  78
ATOM     78  C   UNL A   1      49.242  27.209  26.031  1.00  0.00    -0.014 A 
ATOM     79  C   UNL A   1      49.573  27.210  24.667  1.00  0.00     0.010 A 
ATOM     80  C   UNL A   1      50.230  26.869  26.975  1.00  0.00     0.010 A 
ATOM     81  C   UNL A   1      50.870  26.891  24.255  1.00  0.00     0.020 A 
ATOM     82  C   UNL A   1      51.535  26.579  26.570  1.00  0.00     0.020 A 
ATOM     83  C   UNL A   1      51.848  26.591  25.210  1.00  0.00     0.054 A 
BRANCH  83  84
ATOM     84  S   UNL A   1      53.548  26.287  24.657  1.00  0.00     0.124 S 
ATOM     85  O   UNL A   1      53.515  24.864  24.338  1.00  0.00    -0.237 OA
ATOM     86  O   UNL A   1      53.673  27.191  23.515  1.00  0.00    -0.237 OA
ATOM     87  O   UNL A   1      54.357  26.650  25.819  1.00  0.00    -0.744 OA
ENDBRANCH  83  84
ENDBRANCH  55  78
BRANCH  67  88
ATOM     88  C   UNL A   1      43.127  23.985  27.106  1.00  0.00    -0.014 A 
ATOM     89  C   UNL A   1      42.722  23.537  25.837  1.00  0.00     0.010 A 
ATOM     90  C   UNL A   1      43.152  23.073  28.179  1.00  0.00     0.010 A 
ATOM     91  C   UNL A   1      42.319  22.211  25.651  1.00  0.00     0.020 A 
ATOM     92  C   UNL A   1      42.782  21.740  27.990  1.00  0.00     0.020 A 
ATOM     93  C   UNL A   1      42.354  21.320  26.729  1.00  0.00     0.054 A 
BRANCH  93  94
ATOM     94  S   UNL A   1      41.869  19.595  26.451  1.00  0.00     0.124 S 
ATOM     95  O   UNL A   1      42.554  19.284  25.199  1.00  0.00    -0.237 OA
ATOM     96  O   UNL A   1      42.392  18.921  27.638  1.00  0.00    -0.237 OA
ATOM     97  O   UNL A   1      40.412  19.653  26.365  1.00  0.00    -0.744 OA
ENDBRANCH  93  94
ENDBRANCH  67  88
ENDBRANCH  41  42
ENDBRANCH  34  36
ENDBRANCH  33  34
ENDBRANCH  32  33
ENDBRANCH   1  32
TORSDOF 20
ENDMDL
