MODEL 1
REMARK VINA RESULT:     -10.3      0.000      0.000
REMARK SMILES NC(=O)N[C@@H](C(=O)N[C@@H](CO)C(=O)OCCOC(=O)c1ccc(-c2c3nc(c(-c4ccc(S(=O)(=O)[O-])cc4)c4ccc([nH]4)c(-c4ccc(S(=O)(=O)[O-])cc4)c4nc(c(-c5ccc(S(=O)(=O)[O-])cc5)c5ccc2[nH]5)C=C4)C=C3)cc1)c1ccccc1
REMARK SMILES IDX 15 1 14 2 12 3 13 4 9 5 8 6 6 7 7 8 5 10 4 11 1 12 2 13 3 16
REMARK SMILES IDX 80 18 81 19 85 20 82 21 84 22 83 23 10 24 11 25 16 27 17 28
REMARK SMILES IDX 18 29 19 30 20 31 21 32 79 33 22 34 78 35 23 36 24 37 25 38
REMARK SMILES IDX 72 39 26 40 77 41 71 42 73 43 27 44 76 45 70 46 69 47 28 49
REMARK SMILES IDX 58 50 39 51 57 52 40 53 43 54 56 55 74 56 41 57 42 58 55 60
REMARK SMILES IDX 75 61 44 62 29 63 30 64 38 65 31 66 37 67 32 68 33 69 34 70
REMARK SMILES IDX 35 71 36 72 59 73 60 74 68 75 61 76 67 77 62 78 63 79 64 80
REMARK SMILES IDX 65 81 66 82 45 83 46 84 54 85 47 86 53 87 48 88 49 89 50 90
REMARK SMILES IDX 51 91 52 92
REMARK H PARENT 8 9 1 14 1 15 4 17 11 26 73 48 43 59
REMARK Flexibility Score: inf
ROOT
ATOM      1  C   UNL A   1      40.177  22.436  26.999  1.00  0.00     0.274 C 
ENDROOT
BRANCH   1   2
ATOM      2  O   UNL A   1      38.800  22.353  26.584  1.00  0.00    -0.460 OA
BRANCH   2   3
ATOM      3  C   UNL A   1      38.483  21.314  25.761  1.00  0.00     0.331 C 
ATOM      4  O   UNL A   1      39.225  20.370  25.510  1.00  0.00    -0.250 OA
BRANCH   3   5
ATOM      5  C   UNL A   1      37.078  21.446  25.161  1.00  0.00     0.218 C 
BRANCH   5   6
ATOM      6  N   UNL A   1      36.011  21.619  26.158  1.00  0.00    -0.339 N 
ATOM      7  C   UNL A   1      34.678  21.293  26.093  1.00  0.00     0.248 C 
ATOM      8  O   UNL A   1      34.018  21.511  27.112  1.00  0.00    -0.272 OA
ATOM      9  H   UNL A   1      36.297  22.036  27.003  1.00  0.00     0.164 HD
BRANCH   7  10
ATOM     10  C   UNL A   1      34.093  20.649  24.794  1.00  0.00     0.203 C 
BRANCH  10  11
ATOM     11  N   UNL A   1      32.848  21.333  24.446  1.00  0.00    -0.322 N 
ATOM     12  N   UNL A   1      33.673  22.830  22.906  1.00  0.00    -0.352 N 
ATOM     13  C   UNL A   1      32.640  22.391  23.642  1.00  0.00     0.313 C 
ATOM     14  H   UNL A   1      33.558  23.602  22.306  1.00  0.00     0.161 HD
ATOM     15  H   UNL A   1      34.546  22.379  22.966  1.00  0.00     0.161 HD
ATOM     16  O   UNL A   1      31.562  22.972  23.637  1.00  0.00    -0.249 OA
ATOM     17  H   UNL A   1      32.038  20.962  24.864  1.00  0.00     0.166 HD
ENDBRANCH  10  11
BRANCH  10  18
ATOM     18  C   UNL A   1      33.836  19.147  24.828  1.00  0.00    -0.016 A 
ATOM     19  C   UNL A   1      34.855  18.260  24.434  1.00  0.00     0.006 A 
ATOM     20  C   UNL A   1      32.577  18.608  25.140  1.00  0.00     0.006 A 
ATOM     21  C   UNL A   1      34.626  16.882  24.367  1.00  0.00     0.000 A 
ATOM     22  C   UNL A   1      32.355  17.229  25.086  1.00  0.00     0.000 A 
ATOM     23  C   UNL A   1      33.377  16.368  24.697  1.00  0.00     0.000 A 
ENDBRANCH  10  18
ENDBRANCH   7  10
ENDBRANCH   5   6
BRANCH   5  24
ATOM     24  C   UNL A   1      37.096  22.604  24.158  1.00  0.00     0.193 C 
BRANCH  24  25
ATOM     25  O   UNL A   1      37.438  23.834  24.803  1.00  0.00    -0.394 OA
ATOM     26  H   UNL A   1      36.693  24.131  25.348  1.00  0.00     0.210 HD
ENDBRANCH  24  25
ENDBRANCH   5  24
ENDBRANCH   3   5
ENDBRANCH   2   3
ENDBRANCH   1   2
BRANCH   1  27
ATOM     27  C   UNL A   1      40.807  23.751  26.535  1.00  0.00     0.275 C 
BRANCH  27  28
ATOM     28  O   UNL A   1      39.851  24.829  26.550  1.00  0.00    -0.458 OA
BRANCH  28  29
ATOM     29  C   UNL A   1      40.401  26.060  26.452  1.00  0.00     0.338 C 
ATOM     30  O   UNL A   1      41.068  26.504  25.534  1.00  0.00    -0.246 OA
BRANCH  29  31
ATOM     31  C   UNL A   1      39.981  26.910  27.572  1.00  0.00     0.060 A 
ATOM     32  C   UNL A   1      40.387  28.241  27.556  1.00  0.00     0.016 A 
ATOM     33  C   UNL A   1      39.408  26.360  28.719  1.00  0.00     0.016 A 
ATOM     34  C   UNL A   1      40.330  28.993  28.724  1.00  0.00     0.010 A 
ATOM     35  C   UNL A   1      39.286  27.148  29.873  1.00  0.00     0.010 A 
ATOM     36  C   UNL A   1      39.805  28.455  29.908  1.00  0.00    -0.014 A 
BRANCH  36  37
ATOM     37  C   UNL A   1      39.912  29.239  31.176  1.00  0.00     0.031 A 
ATOM     38  C   UNL A   1      41.123  29.086  32.069  1.00  0.00     0.074 A 
ATOM     39  C   UNL A   1      38.985  30.170  31.488  1.00  0.00     0.049 A 
ATOM     40  N   UNL A   1      41.360  29.626  33.238  1.00  0.00    -0.248 NA
ATOM     41  C   UNL A   1      42.205  28.211  31.589  1.00  0.00     0.031 C 
ATOM     42  C   UNL A   1      37.797  30.487  30.691  1.00  0.00     0.029 A 
ATOM     43  N   UNL A   1      38.917  31.051  32.541  1.00  0.00    -0.354 N 
ATOM     44  C   UNL A   1      42.580  29.106  33.662  1.00  0.00     0.074 A 
ATOM     45  C   UNL A   1      43.037  28.212  32.620  1.00  0.00     0.031 C 
ATOM     46  C   UNL A   1      37.163  31.534  31.242  1.00  0.00     0.029 A 
ATOM     47  C   UNL A   1      37.834  31.899  32.484  1.00  0.00     0.049 A 
ATOM     48  H   UNL A   1      39.581  31.073  33.267  1.00  0.00     0.167 HD
ATOM     49  C   UNL A   1      43.256  29.342  34.813  1.00  0.00     0.031 A 
ATOM     50  C   UNL A   1      37.401  32.839  33.347  1.00  0.00     0.031 A 
ATOM     51  C   UNL A   1      42.829  30.264  35.834  1.00  0.00     0.049 A 
ATOM     52  C   UNL A   1      38.153  33.065  34.629  1.00  0.00     0.074 A 
ATOM     53  C   UNL A   1      43.442  30.559  37.040  1.00  0.00     0.029 A 
ATOM     54  N   UNL A   1      41.693  31.056  35.764  1.00  0.00    -0.354 N 
ATOM     55  N   UNL A   1      39.258  32.497  35.046  1.00  0.00    -0.248 NA
ATOM     56  C   UNL A   1      37.586  34.048  35.562  1.00  0.00     0.031 C 
ATOM     57  C   UNL A   1      42.655  31.499  37.717  1.00  0.00     0.029 A 
ATOM     58  C   UNL A   1      41.582  31.832  36.906  1.00  0.00     0.049 A 
ATOM     59  H   UNL A   1      41.057  31.065  35.011  1.00  0.00     0.167 HD
ATOM     60  C   UNL A   1      39.524  33.061  36.290  1.00  0.00     0.074 A 
ATOM     61  C   UNL A   1      38.481  34.035  36.539  1.00  0.00     0.031 C 
ATOM     62  C   UNL A   1      40.536  32.791  37.151  1.00  0.00     0.031 A 
BRANCH  49  63
ATOM     63  C   UNL A   1      44.510  28.542  35.060  1.00  0.00    -0.014 A 
ATOM     64  C   UNL A   1      45.761  28.950  34.565  1.00  0.00     0.010 A 
ATOM     65  C   UNL A   1      44.431  27.367  35.831  1.00  0.00     0.010 A 
ATOM     66  C   UNL A   1      46.901  28.174  34.799  1.00  0.00     0.020 A 
ATOM     67  C   UNL A   1      45.571  26.604  36.091  1.00  0.00     0.020 A 
ATOM     68  C   UNL A   1      46.798  27.002  35.556  1.00  0.00     0.054 A 
BRANCH  68  69
ATOM     69  S   UNL A   1      48.291  26.017  35.854  1.00  0.00     0.124 S 
ATOM     70  O   UNL A   1      47.759  24.885  36.609  1.00  0.00    -0.237 OA
ATOM     71  O   UNL A   1      48.747  25.709  34.500  1.00  0.00    -0.237 OA
ATOM     72  O   UNL A   1      49.157  26.918  36.609  1.00  0.00    -0.744 OA
ENDBRANCH  68  69
ENDBRANCH  49  63
BRANCH  50  73
ATOM     73  C   UNL A   1      36.155  33.600  33.052  1.00  0.00    -0.014 A 
ATOM     74  C   UNL A   1      34.890  33.043  33.309  1.00  0.00     0.010 A 
ATOM     75  C   UNL A   1      36.232  34.897  32.509  1.00  0.00     0.010 A 
ATOM     76  C   UNL A   1      33.727  33.765  33.020  1.00  0.00     0.020 A 
ATOM     77  C   UNL A   1      35.074  35.633  32.251  1.00  0.00     0.020 A 
ATOM     78  C   UNL A   1      33.827  35.057  32.498  1.00  0.00     0.054 A 
BRANCH  78  79
ATOM     79  S   UNL A   1      32.310  36.001  32.185  1.00  0.00     0.124 S 
ATOM     80  O   UNL A   1      32.404  36.260  30.752  1.00  0.00    -0.237 OA
ATOM     81  O   UNL A   1      31.266  35.068  32.595  1.00  0.00    -0.237 OA
ATOM     82  O   UNL A   1      32.459  37.174  33.046  1.00  0.00    -0.744 OA
ENDBRANCH  78  79
ENDBRANCH  50  73
BRANCH  62  83
ATOM     83  C   UNL A   1      40.580  33.587  38.428  1.00  0.00    -0.014 A 
ATOM     84  C   UNL A   1      39.904  33.154  39.583  1.00  0.00     0.010 A 
ATOM     85  C   UNL A   1      41.315  34.785  38.473  1.00  0.00     0.010 A 
ATOM     86  C   UNL A   1      39.918  33.933  40.744  1.00  0.00     0.020 A 
ATOM     87  C   UNL A   1      41.354  35.552  39.640  1.00  0.00     0.020 A 
ATOM     88  C   UNL A   1      40.636  35.133  40.761  1.00  0.00     0.054 A 
BRANCH  88  89
ATOM     89  S   UNL A   1      40.640  36.129  42.278  1.00  0.00     0.124 S 
ATOM     90  O   UNL A   1      39.216  36.388  42.473  1.00  0.00    -0.237 OA
ATOM     91  O   UNL A   1      41.256  35.232  43.252  1.00  0.00    -0.237 OA
ATOM     92  O   UNL A   1      41.443  37.297  41.921  1.00  0.00    -0.744 OA
ENDBRANCH  88  89
ENDBRANCH  62  83
ENDBRANCH  36  37
ENDBRANCH  29  31
ENDBRANCH  28  29
ENDBRANCH  27  28
ENDBRANCH   1  27
TORSDOF 20
ENDMDL
MODEL 2
REMARK VINA RESULT:      -9.7      3.320      7.853
REMARK SMILES NC(=O)N[C@@H](C(=O)N[C@@H](CO)C(=O)OCCOC(=O)c1ccc(-c2c3nc(c(-c4ccc(S(=O)(=O)[O-])cc4)c4ccc([nH]4)c(-c4ccc(S(=O)(=O)[O-])cc4)c4nc(c(-c5ccc(S(=O)(=O)[O-])cc5)c5ccc2[nH]5)C=C4)C=C3)cc1)c1ccccc1
REMARK SMILES IDX 15 1 14 2 12 3 13 4 9 5 8 6 6 7 7 8 5 10 4 11 1 12 2 13 3 16
REMARK SMILES IDX 80 18 81 19 85 20 82 21 84 22 83 23 10 24 11 25 16 27 17 28
REMARK SMILES IDX 18 29 19 30 20 31 21 32 79 33 22 34 78 35 23 36 24 37 25 38
REMARK SMILES IDX 72 39 26 40 77 41 71 42 73 43 27 44 76 45 70 46 69 47 28 49
REMARK SMILES IDX 58 50 39 51 57 52 40 53 43 54 56 55 74 56 41 57 42 58 55 60
REMARK SMILES IDX 75 61 44 62 29 63 30 64 38 65 31 66 37 67 32 68 33 69 34 70
REMARK SMILES IDX 35 71 36 72 59 73 60 74 68 75 61 76 67 77 62 78 63 79 64 80
REMARK SMILES IDX 65 81 66 82 45 83 46 84 54 85 47 86 53 87 48 88 49 89 50 90
REMARK SMILES IDX 51 91 52 92
REMARK H PARENT 8 9 1 14 1 15 4 17 11 26 73 48 43 59
REMARK Flexibility Score: inf
ROOT
ATOM      1  C   UNL A   1      31.760  29.606  26.015  1.00  0.00     0.274 C 
ENDROOT
BRANCH   1   2
ATOM      2  O   UNL A   1      31.759  28.242  25.552  1.00  0.00    -0.460 OA
BRANCH   2   3
ATOM      3  C   UNL A   1      31.421  27.295  26.472  1.00  0.00     0.331 C 
ATOM      4  O   UNL A   1      31.229  27.516  27.663  1.00  0.00    -0.250 OA
BRANCH   3   5
ATOM      5  C   UNL A   1      31.308  25.893  25.861  1.00  0.00     0.218 C 
BRANCH   5   6
ATOM      6  N   UNL A   1      31.465  24.800  26.831  1.00  0.00    -0.339 N 
ATOM      7  C   UNL A   1      31.971  23.533  26.662  1.00  0.00     0.248 C 
ATOM      8  O   UNL A   1      32.028  22.833  27.676  1.00  0.00    -0.272 OA
ATOM      9  H   UNL A   1      31.159  25.007  27.743  1.00  0.00     0.164 HD
BRANCH   7  10
ATOM     10  C   UNL A   1      32.466  23.070  25.253  1.00  0.00     0.203 C 
BRANCH  10  11
ATOM     11  N   UNL A   1      32.015  21.698  25.019  1.00  0.00    -0.322 N 
ATOM     12  N   UNL A   1      33.376  20.606  26.517  1.00  0.00    -0.352 N 
ATOM     13  C   UNL A   1      32.471  20.540  25.528  1.00  0.00     0.313 C 
ATOM     14  H   UNL A   1      33.733  19.779  26.915  1.00  0.00     0.161 HD
ATOM     15  H   UNL A   1      33.682  21.482  26.846  1.00  0.00     0.161 HD
ATOM     16  O   UNL A   1      32.121  19.466  25.055  1.00  0.00    -0.249 OA
ATOM     17  H   UNL A   1      31.260  21.609  24.394  1.00  0.00     0.166 HD
ENDBRANCH  10  11
BRANCH  10  18
ATOM     18  C   UNL A   1      33.965  23.146  24.993  1.00  0.00    -0.016 A 
ATOM     19  C   UNL A   1      34.806  23.743  25.951  1.00  0.00     0.006 A 
ATOM     20  C   UNL A   1      34.539  22.733  23.780  1.00  0.00     0.006 A 
ATOM     21  C   UNL A   1      36.172  23.911  25.708  1.00  0.00     0.000 A 
ATOM     22  C   UNL A   1      35.909  22.887  23.544  1.00  0.00     0.000 A 
ATOM     23  C   UNL A   1      36.723  23.479  24.506  1.00  0.00     0.000 A 
ENDBRANCH  10  18
ENDBRANCH   7  10
ENDBRANCH   5   6
BRANCH   5  24
ATOM     24  C   UNL A   1      29.965  25.800  25.130  1.00  0.00     0.193 C 
BRANCH  24  25
ATOM     25  O   UNL A   1      29.833  26.850  24.167  1.00  0.00    -0.394 OA
ATOM     26  H   UNL A   1      28.909  26.912  23.882  1.00  0.00     0.210 HD
ENDBRANCH  24  25
ENDBRANCH   5  24
ENDBRANCH   3   5
ENDBRANCH   2   3
ENDBRANCH   1   2
BRANCH   1  27
ATOM     27  C   UNL A   1      33.188  30.093  26.273  1.00  0.00     0.275 C 
BRANCH  27  28
ATOM     28  O   UNL A   1      33.399  30.391  27.668  1.00  0.00    -0.458 OA
BRANCH  28  29
ATOM     29  C   UNL A   1      34.185  31.469  27.892  1.00  0.00     0.338 C 
ATOM     30  O   UNL A   1      33.841  32.636  27.954  1.00  0.00    -0.246 OA
BRANCH  29  31
ATOM     31  C   UNL A   1      35.558  31.058  28.202  1.00  0.00     0.060 A 
ATOM     32  C   UNL A   1      35.755  29.748  28.631  1.00  0.00     0.016 A 
ATOM     33  C   UNL A   1      36.588  31.993  28.296  1.00  0.00     0.016 A 
ATOM     34  C   UNL A   1      36.942  29.402  29.265  1.00  0.00     0.010 A 
ATOM     35  C   UNL A   1      37.811  31.616  28.871  1.00  0.00     0.010 A 
ATOM     36  C   UNL A   1      37.979  30.333  29.421  1.00  0.00    -0.014 A 
BRANCH  36  37
ATOM     37  C   UNL A   1      39.170  29.968  30.249  1.00  0.00     0.031 A 
ATOM     38  C   UNL A   1      40.181  28.969  29.734  1.00  0.00     0.074 A 
ATOM     39  C   UNL A   1      39.414  30.602  31.415  1.00  0.00     0.049 A 
ATOM     40  N   UNL A   1      41.235  28.476  30.336  1.00  0.00    -0.248 NA
ATOM     41  C   UNL A   1      39.981  28.454  28.370  1.00  0.00     0.031 C 
ATOM     42  C   UNL A   1      38.572  31.643  32.011  1.00  0.00     0.029 A 
ATOM     43  N   UNL A   1      40.467  30.493  32.292  1.00  0.00    -0.354 N 
ATOM     44  C   UNL A   1      41.781  27.547  29.455  1.00  0.00     0.074 A 
ATOM     45  C   UNL A   1      40.947  27.550  28.273  1.00  0.00     0.031 C 
ATOM     46  C   UNL A   1      39.174  32.124  33.109  1.00  0.00     0.029 A 
ATOM     47  C   UNL A   1      40.393  31.361  33.358  1.00  0.00     0.049 A 
ATOM     48  H   UNL A   1      41.206  29.854  32.169  1.00  0.00     0.167 HD
ATOM     49  C   UNL A   1      42.873  26.759  29.614  1.00  0.00     0.031 A 
ATOM     50  C   UNL A   1      41.187  31.508  34.436  1.00  0.00     0.031 A 
ATOM     51  C   UNL A   1      43.734  26.782  30.769  1.00  0.00     0.049 A 
ATOM     52  C   UNL A   1      42.376  30.605  34.604  1.00  0.00     0.074 A 
ATOM     53  C   UNL A   1      44.854  26.009  31.024  1.00  0.00     0.029 A 
ATOM     54  N   UNL A   1      43.584  27.633  31.853  1.00  0.00    -0.354 N 
ATOM     55  N   UNL A   1      42.824  29.673  33.796  1.00  0.00    -0.248 NA
ATOM     56  C   UNL A   1      43.157  30.763  35.838  1.00  0.00     0.031 C 
ATOM     57  C   UNL A   1      45.359  26.366  32.281  1.00  0.00     0.029 A 
ATOM     58  C   UNL A   1      44.586  27.400  32.782  1.00  0.00     0.049 A 
ATOM     59  H   UNL A   1      42.870  28.305  31.948  1.00  0.00     0.167 HD
ATOM     60  C   UNL A   1      43.944  29.139  34.423  1.00  0.00     0.074 A 
ATOM     61  C   UNL A   1      44.123  29.873  35.659  1.00  0.00     0.031 C 
ATOM     62  C   UNL A   1      44.749  28.127  34.014  1.00  0.00     0.031 A 
BRANCH  49  63
ATOM     63  C   UNL A   1      43.168  25.752  28.530  1.00  0.00    -0.014 A 
ATOM     64  C   UNL A   1      42.676  24.436  28.585  1.00  0.00     0.010 A 
ATOM     65  C   UNL A   1      43.936  26.148  27.419  1.00  0.00     0.010 A 
ATOM     66  C   UNL A   1      42.984  23.524  27.571  1.00  0.00     0.020 A 
ATOM     67  C   UNL A   1      44.222  25.248  26.390  1.00  0.00     0.020 A 
ATOM     68  C   UNL A   1      43.760  23.935  26.482  1.00  0.00     0.054 A 
BRANCH  68  69
ATOM     69  S   UNL A   1      44.140  22.735  25.175  1.00  0.00     0.124 S 
ATOM     70  O   UNL A   1      44.674  23.596  24.123  1.00  0.00    -0.237 OA
ATOM     71  O   UNL A   1      45.111  21.855  25.819  1.00  0.00    -0.237 OA
ATOM     72  O   UNL A   1      42.847  22.122  24.881  1.00  0.00    -0.744 OA
ENDBRANCH  68  69
ENDBRANCH  49  63
BRANCH  50  73
ATOM     73  C   UNL A   1      40.848  32.519  35.477  1.00  0.00    -0.014 A 
ATOM     74  C   UNL A   1      40.012  32.190  36.558  1.00  0.00     0.010 A 
ATOM     75  C   UNL A   1      41.366  33.824  35.388  1.00  0.00     0.010 A 
ATOM     76  C   UNL A   1      39.694  33.150  37.525  1.00  0.00     0.020 A 
ATOM     77  C   UNL A   1      41.078  34.775  36.369  1.00  0.00     0.020 A 
ATOM     78  C   UNL A   1      40.234  34.435  37.426  1.00  0.00     0.054 A 
BRANCH  78  79
ATOM     79  S   UNL A   1      39.859  35.651  38.719  1.00  0.00     0.124 S 
ATOM     80  O   UNL A   1      38.749  35.014  39.421  1.00  0.00    -0.237 OA
ATOM     81  O   UNL A   1      41.117  35.727  39.456  1.00  0.00    -0.237 OA
ATOM     82  O   UNL A   1      39.517  36.854  37.963  1.00  0.00    -0.744 OA
ENDBRANCH  78  79
ENDBRANCH  50  73
BRANCH  62  83
ATOM     83  C   UNL A   1      45.916  27.779  34.900  1.00  0.00    -0.014 A 
ATOM     84  C   UNL A   1      45.802  26.806  35.910  1.00  0.00     0.010 A 
ATOM     85  C   UNL A   1      47.147  28.433  34.714  1.00  0.00     0.010 A 
ATOM     86  C   UNL A   1      46.884  26.534  36.753  1.00  0.00     0.020 A 
ATOM     87  C   UNL A   1      48.238  28.143  35.537  1.00  0.00     0.020 A 
ATOM     88  C   UNL A   1      48.093  27.211  36.566  1.00  0.00     0.054 A 
BRANCH  88  89
ATOM     89  S   UNL A   1      49.483  26.843  37.672  1.00  0.00     0.124 S 
ATOM     90  O   UNL A   1      49.374  25.394  37.822  1.00  0.00    -0.237 OA
ATOM     91  O   UNL A   1      50.637  27.311  36.908  1.00  0.00    -0.237 OA
ATOM     92  O   UNL A   1      49.183  27.618  38.874  1.00  0.00    -0.744 OA
ENDBRANCH  88  89
ENDBRANCH  62  83
ENDBRANCH  36  37
ENDBRANCH  29  31
ENDBRANCH  28  29
ENDBRANCH  27  28
ENDBRANCH   1  27
TORSDOF 20
ENDMDL
MODEL 3
REMARK VINA RESULT:      -9.6      3.590      9.784
REMARK SMILES NC(=O)N[C@@H](C(=O)N[C@@H](CO)C(=O)OCCOC(=O)c1ccc(-c2c3nc(c(-c4ccc(S(=O)(=O)[O-])cc4)c4ccc([nH]4)c(-c4ccc(S(=O)(=O)[O-])cc4)c4nc(c(-c5ccc(S(=O)(=O)[O-])cc5)c5ccc2[nH]5)C=C4)C=C3)cc1)c1ccccc1
REMARK SMILES IDX 15 1 14 2 12 3 13 4 9 5 8 6 6 7 7 8 5 10 4 11 1 12 2 13 3 16
REMARK SMILES IDX 80 18 81 19 85 20 82 21 84 22 83 23 10 24 11 25 16 27 17 28
REMARK SMILES IDX 18 29 19 30 20 31 21 32 79 33 22 34 78 35 23 36 24 37 25 38
REMARK SMILES IDX 72 39 26 40 77 41 71 42 73 43 27 44 76 45 70 46 69 47 28 49
REMARK SMILES IDX 58 50 39 51 57 52 40 53 43 54 56 55 74 56 41 57 42 58 55 60
REMARK SMILES IDX 75 61 44 62 29 63 30 64 38 65 31 66 37 67 32 68 33 69 34 70
REMARK SMILES IDX 35 71 36 72 59 73 60 74 68 75 61 76 67 77 62 78 63 79 64 80
REMARK SMILES IDX 65 81 66 82 45 83 46 84 54 85 47 86 53 87 48 88 49 89 50 90
REMARK SMILES IDX 51 91 52 92
REMARK H PARENT 8 9 1 14 1 15 4 17 11 26 73 48 43 59
REMARK Flexibility Score: inf
ROOT
ATOM      1  C   UNL A   1      31.643  29.041  27.110  1.00  0.00     0.274 C 
ENDROOT
BRANCH   1   2
ATOM      2  O   UNL A   1      31.712  28.279  25.890  1.00  0.00    -0.460 OA
BRANCH   2   3
ATOM      3  C   UNL A   1      31.093  27.066  25.903  1.00  0.00     0.331 C 
ATOM      4  O   UNL A   1      30.672  26.507  26.911  1.00  0.00    -0.250 OA
BRANCH   3   5
ATOM      5  C   UNL A   1      30.975  26.449  24.504  1.00  0.00     0.218 C 
BRANCH   5   6
ATOM      6  N   UNL A   1      31.023  24.979  24.488  1.00  0.00    -0.339 N 
ATOM      7  C   UNL A   1      32.029  24.132  24.091  1.00  0.00     0.248 C 
ATOM      8  O   UNL A   1      31.810  22.926  24.236  1.00  0.00    -0.272 OA
ATOM      9  H   UNL A   1      30.207  24.534  24.812  1.00  0.00     0.164 HD
BRANCH   7  10
ATOM     10  C   UNL A   1      33.368  24.714  23.531  1.00  0.00     0.203 C 
BRANCH  10  11
ATOM     11  N   UNL A   1      33.326  24.676  22.069  1.00  0.00    -0.322 N 
ATOM     12  N   UNL A   1      32.926  26.903  21.657  1.00  0.00    -0.352 N 
ATOM     13  C   UNL A   1      33.045  25.652  21.187  1.00  0.00     0.313 C 
ATOM     14  H   UNL A   1      32.721  27.644  21.041  1.00  0.00     0.161 HD
ATOM     15  H   UNL A   1      33.044  27.082  22.618  1.00  0.00     0.161 HD
ATOM     16  O   UNL A   1      32.839  25.392  20.009  1.00  0.00    -0.249 OA
ATOM     17  H   UNL A   1      33.536  23.801  21.670  1.00  0.00     0.166 HD
ENDBRANCH  10  11
BRANCH  10  18
ATOM     18  C   UNL A   1      34.656  24.052  24.004  1.00  0.00    -0.016 A 
ATOM     19  C   UNL A   1      35.163  24.354  25.282  1.00  0.00     0.006 A 
ATOM     20  C   UNL A   1      35.423  23.223  23.171  1.00  0.00     0.006 A 
ATOM     21  C   UNL A   1      36.387  23.836  25.714  1.00  0.00     0.000 A 
ATOM     22  C   UNL A   1      36.640  22.692  23.610  1.00  0.00     0.000 A 
ATOM     23  C   UNL A   1      37.123  23.002  24.878  1.00  0.00     0.000 A 
ENDBRANCH  10  18
ENDBRANCH   7  10
ENDBRANCH   5   6
BRANCH   5  24
ATOM     24  C   UNL A   1      29.685  26.970  23.861  1.00  0.00     0.193 C 
BRANCH  24  25
ATOM     25  O   UNL A   1      29.778  28.372  23.594  1.00  0.00    -0.394 OA
ATOM     26  H   UNL A   1      29.034  28.644  23.034  1.00  0.00     0.210 HD
ENDBRANCH  24  25
ENDBRANCH   5  24
ENDBRANCH   3   5
ENDBRANCH   2   3
ENDBRANCH   1   2
BRANCH   1  27
ATOM     27  C   UNL A   1      32.478  30.319  27.003  1.00  0.00     0.275 C 
BRANCH  27  28
ATOM     28  O   UNL A   1      33.807  30.126  27.526  1.00  0.00    -0.458 OA
BRANCH  28  29
ATOM     29  C   UNL A   1      34.518  31.268  27.668  1.00  0.00     0.338 C 
ATOM     30  O   UNL A   1      34.094  32.410  27.675  1.00  0.00    -0.246 OA
BRANCH  29  31
ATOM     31  C   UNL A   1      35.925  30.973  27.963  1.00  0.00     0.060 A 
ATOM     32  C   UNL A   1      36.326  29.641  27.907  1.00  0.00     0.016 A 
ATOM     33  C   UNL A   1      36.767  31.942  28.507  1.00  0.00     0.016 A 
ATOM     34  C   UNL A   1      37.521  29.257  28.503  1.00  0.00     0.010 A 
ATOM     35  C   UNL A   1      38.005  31.556  29.041  1.00  0.00     0.010 A 
ATOM     36  C   UNL A   1      38.369  30.199  29.104  1.00  0.00    -0.014 A 
BRANCH  36  37
ATOM     37  C   UNL A   1      39.560  29.725  29.873  1.00  0.00     0.031 A 
ATOM     38  C   UNL A   1      39.872  30.309  31.233  1.00  0.00     0.074 A 
ATOM     39  C   UNL A   1      40.308  28.698  29.416  1.00  0.00     0.049 A 
ATOM     40  N   UNL A   1      40.896  30.076  32.016  1.00  0.00    -0.248 NA
ATOM     41  C   UNL A   1      38.914  31.281  31.782  1.00  0.00     0.031 C 
ATOM     42  C   UNL A   1      40.090  27.982  28.157  1.00  0.00     0.029 A 
ATOM     43  N   UNL A   1      41.382  28.051  29.979  1.00  0.00    -0.354 N 
ATOM     44  C   UNL A   1      40.741  30.919  33.112  1.00  0.00     0.074 A 
ATOM     45  C   UNL A   1      39.520  31.664  32.897  1.00  0.00     0.031 C 
ATOM     46  C   UNL A   1      40.950  26.955  28.079  1.00  0.00     0.029 A 
ATOM     47  C   UNL A   1      41.849  26.997  29.227  1.00  0.00     0.049 A 
ATOM     48  H   UNL A   1      41.780  28.317  30.839  1.00  0.00     0.167 HD
ATOM     49  C   UNL A   1      41.542  31.067  34.196  1.00  0.00     0.031 A 
ATOM     50  C   UNL A   1      42.902  26.177  29.412  1.00  0.00     0.031 A 
ATOM     51  C   UNL A   1      42.736  30.298  34.438  1.00  0.00     0.049 A 
ATOM     52  C   UNL A   1      43.791  26.377  30.607  1.00  0.00     0.074 A 
ATOM     53  C   UNL A   1      43.618  30.387  35.501  1.00  0.00     0.029 A 
ATOM     54  N   UNL A   1      43.206  29.283  33.619  1.00  0.00    -0.354 N 
ATOM     55  N   UNL A   1      43.672  27.241  31.587  1.00  0.00    -0.248 NA
ATOM     56  C   UNL A   1      44.966  25.501  30.710  1.00  0.00     0.031 C 
ATOM     57  C   UNL A   1      44.643  29.454  35.304  1.00  0.00     0.029 A 
ATOM     58  C   UNL A   1      44.368  28.745  34.147  1.00  0.00     0.049 A 
ATOM     59  H   UNL A   1      42.775  28.989  32.782  1.00  0.00     0.167 HD
ATOM     60  C   UNL A   1      44.755  27.006  32.428  1.00  0.00     0.074 A 
ATOM     61  C   UNL A   1      45.497  25.900  31.857  1.00  0.00     0.031 C 
ATOM     62  C   UNL A   1      45.106  27.653  33.566  1.00  0.00     0.031 A 
BRANCH  49  63
ATOM     63  C   UNL A   1      41.185  32.150  35.182  1.00  0.00    -0.014 A 
ATOM     64  C   UNL A   1      40.323  31.912  36.268  1.00  0.00     0.010 A 
ATOM     65  C   UNL A   1      41.750  33.430  35.028  1.00  0.00     0.010 A 
ATOM     66  C   UNL A   1      40.000  32.945  37.153  1.00  0.00     0.020 A 
ATOM     67  C   UNL A   1      41.452  34.457  35.926  1.00  0.00     0.020 A 
ATOM     68  C   UNL A   1      40.563  34.213  36.974  1.00  0.00     0.054 A 
BRANCH  68  69
ATOM     69  S   UNL A   1      40.135  35.535  38.141  1.00  0.00     0.124 S 
ATOM     70  O   UNL A   1      41.373  35.675  38.903  1.00  0.00    -0.237 OA
ATOM     71  O   UNL A   1      39.812  36.651  37.256  1.00  0.00    -0.237 OA
ATOM     72  O   UNL A   1      39.004  34.987  38.885  1.00  0.00    -0.744 OA
ENDBRANCH  68  69
ENDBRANCH  49  63
BRANCH  50  73
ATOM     73  C   UNL A   1      43.209  25.123  28.404  1.00  0.00    -0.014 A 
ATOM     74  C   UNL A   1      44.083  25.380  27.333  1.00  0.00     0.010 A 
ATOM     75  C   UNL A   1      42.624  23.848  28.516  1.00  0.00     0.010 A 
ATOM     76  C   UNL A   1      44.357  24.385  26.388  1.00  0.00     0.020 A 
ATOM     77  C   UNL A   1      42.921  22.842  27.595  1.00  0.00     0.020 A 
ATOM     78  C   UNL A   1      43.777  23.121  26.529  1.00  0.00     0.054 A 
BRANCH  78  79
ATOM     79  S   UNL A   1      44.190  21.824  25.329  1.00  0.00     0.124 S 
ATOM     80  O   UNL A   1      45.628  21.673  25.528  1.00  0.00    -0.237 OA
ATOM     81  O   UNL A   1      43.365  20.705  25.776  1.00  0.00    -0.237 OA
ATOM     82  O   UNL A   1      43.791  22.408  24.050  1.00  0.00    -0.744 OA
ENDBRANCH  78  79
ENDBRANCH  50  73
BRANCH  62  83
ATOM     83  C   UNL A   1      46.331  27.155  34.287  1.00  0.00    -0.014 A 
ATOM     84  C   UNL A   1      46.246  26.140  35.257  1.00  0.00     0.010 A 
ATOM     85  C   UNL A   1      47.587  27.710  33.984  1.00  0.00     0.010 A 
ATOM     86  C   UNL A   1      47.389  25.727  35.949  1.00  0.00     0.020 A 
ATOM     87  C   UNL A   1      48.735  27.280  34.654  1.00  0.00     0.020 A 
ATOM     88  C   UNL A   1      48.625  26.308  35.649  1.00  0.00     0.054 A 
BRANCH  88  89
ATOM     89  S   UNL A   1      50.095  25.758  36.560  1.00  0.00     0.124 S 
ATOM     90  O   UNL A   1      50.357  24.456  35.953  1.00  0.00    -0.237 OA
ATOM     91  O   UNL A   1      51.072  26.801  36.258  1.00  0.00    -0.237 OA
ATOM     92  O   UNL A   1      49.645  25.718  37.950  1.00  0.00    -0.744 OA
ENDBRANCH  88  89
ENDBRANCH  62  83
ENDBRANCH  36  37
ENDBRANCH  29  31
ENDBRANCH  28  29
ENDBRANCH  27  28
ENDBRANCH   1  27
TORSDOF 20
ENDMDL
