MODEL 1
REMARK VINA RESULT:     -12.7      0.000      0.000
REMARK SMILES Cc1cc2c(=O)cc(-c3ccc(F)cc3)oc2c(C(=O)OCCOC(=O)c2ccc(-c3c4nc(c(-c5ccc(S(=O)(=O)[O-])cc5)c5ccc([nH]5)c(-c5ccc(S(=O)(=O)[O-])cc5)c5nc(c(-c6ccc(S(=O)(=O)[O-])cc6)c6ccc3[nH]6)C=C5)C=C4)cc2)c1C
REMARK SMILES IDX 23 1 22 2 21 3 19 4 20 5 18 6 1 7 2 8 3 9 87 10 4 11 88 12
REMARK SMILES IDX 5 13 17 14 6 15 7 16 16 17 8 18 9 19 10 20 15 21 11 22 14 23
REMARK SMILES IDX 12 24 13 25 24 26 25 27 26 28 27 29 28 30 86 31 29 32 85 33
REMARK SMILES IDX 30 34 31 35 32 36 79 37 33 38 84 39 78 40 80 41 34 42 83 43
REMARK SMILES IDX 77 44 76 45 35 47 65 48 46 49 64 50 47 51 50 52 63 53 81 54
REMARK SMILES IDX 48 55 49 56 62 58 82 59 51 60 36 61 37 62 45 63 38 64 44 65
REMARK SMILES IDX 39 66 40 67 41 68 42 69 43 70 66 71 67 72 75 73 68 74 74 75
REMARK SMILES IDX 69 76 70 77 71 78 72 79 73 80 52 81 53 82 61 83 54 84 60 85
REMARK SMILES IDX 55 86 56 87 57 88 58 89 59 90
REMARK H PARENT 80 46 50 57
REMARK Flexibility Score: inf
ROOT
ATOM      1  C   UNL A   1      34.790  21.457  26.984  1.00  0.00     0.275 C 
ENDROOT
BRANCH   1   2
ATOM      2  C   UNL A   1      33.920  22.637  27.423  1.00  0.00     0.275 C 
BRANCH   2   3
ATOM      3  O   UNL A   1      32.525  22.239  27.443  1.00  0.00    -0.458 OA
BRANCH   3   4
ATOM      4  C   UNL A   1      31.634  23.019  26.777  1.00  0.00     0.342 C 
ATOM      5  O   UNL A   1      30.525  23.344  27.168  1.00  0.00    -0.246 OA
BRANCH   4   6
ATOM      6  C   UNL A   1      32.080  23.267  25.385  1.00  0.00     0.106 A 
ATOM      7  C   UNL A   1      31.911  21.240  22.122  1.00  0.00     0.044 C 
ATOM      8  C   UNL A   1      32.038  22.369  23.112  1.00  0.00    -0.046 A 
ATOM      9  C   UNL A   1      32.151  23.687  22.640  1.00  0.00     0.019 A 
ATOM     10  C   UNL A   1      32.024  22.142  24.500  1.00  0.00    -0.030 A 
ATOM     11  C   UNL A   1      32.292  24.777  23.521  1.00  0.00     0.066 A 
ATOM     12  C   UNL A   1      31.940  20.730  25.048  1.00  0.00     0.046 C 
ATOM     13  C   UNL A   1      32.417  26.143  22.977  1.00  0.00     0.193 A 
ATOM     14  C   UNL A   1      32.272  24.590  24.899  1.00  0.00     0.153 A 
ATOM     15  O   UNL A   1      32.300  26.363  21.778  1.00  0.00    -0.289 OA
ATOM     16  C   UNL A   1      32.684  27.238  23.932  1.00  0.00     0.100 A 
ATOM     17  O   UNL A   1      32.449  25.667  25.757  1.00  0.00    -0.455 OA
ATOM     18  C   UNL A   1      32.717  26.958  25.239  1.00  0.00     0.138 A 
BRANCH  18  19
ATOM     19  C   UNL A   1      32.852  28.048  26.282  1.00  0.00     0.018 A 
ATOM     20  C   UNL A   1      31.785  29.522  26.323  1.00  0.00     0.015 A 
ATOM     21  C   UNL A   1      34.519  28.160  26.929  1.00  0.00     0.015 A 
ATOM     22  C   UNL A   1      32.373  31.129  27.072  1.00  0.00     0.040 A 
ATOM     23  C   UNL A   1      35.217  29.791  27.361  1.00  0.00     0.040 A 
ATOM     24  C   UNL A   1      34.135  31.276  27.479  1.00  0.00     0.123 A 
ATOM     25  F   UNL A   1      34.665  32.474  27.760  1.00  0.00    -0.207 F 
ENDBRANCH  18  19
ENDBRANCH   4   6
ENDBRANCH   3   4
ENDBRANCH   2   3
ENDBRANCH   1   2
BRANCH   1  26
ATOM     26  O   UNL A   1      35.236  21.730  25.656  1.00  0.00    -0.458 OA
BRANCH  26  27
ATOM     27  C   UNL A   1      36.486  21.283  25.423  1.00  0.00     0.338 C 
ATOM     28  O   UNL A   1      36.823  20.238  24.890  1.00  0.00    -0.246 OA
BRANCH  27  29
ATOM     29  C   UNL A   1      37.415  22.354  25.769  1.00  0.00     0.060 A 
ATOM     30  C   UNL A   1      36.946  23.624  25.779  1.00  0.00     0.016 A 
ATOM     31  C   UNL A   1      38.695  22.111  26.221  1.00  0.00     0.016 A 
ATOM     32  C   UNL A   1      37.747  24.622  26.359  1.00  0.00     0.010 A 
ATOM     33  C   UNL A   1      39.470  23.121  26.858  1.00  0.00     0.010 A 
ATOM     34  C   UNL A   1      39.152  24.608  27.138  1.00  0.00    -0.014 A 
BRANCH  34  35
ATOM     35  C   UNL A   1      40.199  26.186  28.141  1.00  0.00     0.031 A 
ATOM     36  C   UNL A   1      41.759  27.063  27.644  1.00  0.00     0.074 A 
ATOM     37  C   UNL A   1      39.934  27.198  29.240  1.00  0.00     0.049 A 
ATOM     38  N   UNL A   1      42.733  27.580  28.405  1.00  0.00    -0.248 NA
ATOM     39  C   UNL A   1      42.229  27.209  26.214  1.00  0.00     0.031 C 
ATOM     40  C   UNL A   1      38.840  27.231  30.268  1.00  0.00     0.029 A 
ATOM     41  N   UNL A   1      40.383  28.548  29.431  1.00  0.00    -0.354 N 
ATOM     42  C   UNL A   1      43.875  27.631  27.567  1.00  0.00     0.074 A 
ATOM     43  C   UNL A   1      43.498  26.870  26.412  1.00  0.00     0.031 C 
ATOM     44  C   UNL A   1      38.456  28.472  30.555  1.00  0.00     0.029 A 
ATOM     45  C   UNL A   1      39.485  29.384  30.123  1.00  0.00     0.049 A 
ATOM     46  H   UNL A   1      41.255  28.866  29.103  1.00  0.00     0.167 HD
ATOM     47  C   UNL A   1      44.970  28.435  27.398  1.00  0.00     0.031 A 
ATOM     48  C   UNL A   1      39.418  30.693  30.499  1.00  0.00     0.031 A 
ATOM     49  C   UNL A   1      45.106  29.767  27.914  1.00  0.00     0.049 A 
ATOM     50  C   UNL A   1      40.564  31.628  30.267  1.00  0.00     0.074 A 
ATOM     51  C   UNL A   1      46.141  30.663  27.684  1.00  0.00     0.029 A 
ATOM     52  N   UNL A   1      44.102  30.471  28.544  1.00  0.00    -0.354 N 
ATOM     53  N   UNL A   1      41.680  31.402  29.631  1.00  0.00    -0.248 NA
ATOM     54  C   UNL A   1      40.464  32.984  30.846  1.00  0.00     0.031 C 
ATOM     55  C   UNL A   1      45.755  31.915  28.160  1.00  0.00     0.029 A 
ATOM     56  C   UNL A   1      44.483  31.795  28.684  1.00  0.00     0.049 A 
ATOM     57  H   UNL A   1      43.246  30.092  28.849  1.00  0.00     0.167 HD
ATOM     58  C   UNL A   1      42.414  32.577  29.736  1.00  0.00     0.074 A 
ATOM     59  C   UNL A   1      41.606  33.535  30.452  1.00  0.00     0.031 C 
ATOM     60  C   UNL A   1      43.674  32.804  29.307  1.00  0.00     0.031 A 
BRANCH  47  61
ATOM     61  C   UNL A   1      46.059  28.010  26.397  1.00  0.00    -0.014 A 
ATOM     62  C   UNL A   1      45.936  28.393  25.048  1.00  0.00     0.010 A 
ATOM     63  C   UNL A   1      47.154  27.192  26.753  1.00  0.00     0.010 A 
ATOM     64  C   UNL A   1      46.908  28.031  24.104  1.00  0.00     0.020 A 
ATOM     65  C   UNL A   1      48.166  26.893  25.833  1.00  0.00     0.020 A 
ATOM     66  C   UNL A   1      48.033  27.309  24.509  1.00  0.00     0.054 A 
BRANCH  66  67
ATOM     67  S   UNL A   1      49.353  26.965  23.310  1.00  0.00     0.124 S 
ATOM     68  O   UNL A   1      50.445  26.521  24.169  1.00  0.00    -0.237 OA
ATOM     69  O   UNL A   1      48.759  25.936  22.458  1.00  0.00    -0.237 OA
ATOM     70  O   UNL A   1      49.556  28.255  22.651  1.00  0.00    -0.744 OA
ENDBRANCH  66  67
ENDBRANCH  47  61
BRANCH  48  71
ATOM     71  C   UNL A   1      38.172  31.236  31.181  1.00  0.00    -0.014 A 
ATOM     72  C   UNL A   1      37.070  31.711  30.441  1.00  0.00     0.010 A 
ATOM     73  C   UNL A   1      38.114  31.341  32.586  1.00  0.00     0.010 A 
ATOM     74  C   UNL A   1      36.020  32.399  31.066  1.00  0.00     0.020 A 
ATOM     75  C   UNL A   1      37.035  31.975  33.224  1.00  0.00     0.020 A 
ATOM     76  C   UNL A   1      36.023  32.550  32.453  1.00  0.00     0.054 A 
BRANCH  76  77
ATOM     77  S   UNL A   1      34.710  33.534  33.237  1.00  0.00     0.124 S 
ATOM     78  O   UNL A   1      33.511  32.800  32.838  1.00  0.00    -0.237 OA
ATOM     79  O   UNL A   1      35.048  33.457  34.656  1.00  0.00    -0.237 OA
ATOM     80  O   UNL A   1      34.864  34.856  32.633  1.00  0.00    -0.744 OA
ENDBRANCH  76  77
ENDBRANCH  48  71
BRANCH  60  81
ATOM     81  C   UNL A   1      44.307  34.140  29.549  1.00  0.00    -0.014 A 
ATOM     82  C   UNL A   1      44.923  34.415  30.784  1.00  0.00     0.010 A 
ATOM     83  C   UNL A   1      44.098  35.183  28.631  1.00  0.00     0.010 A 
ATOM     84  C   UNL A   1      45.255  35.728  31.125  1.00  0.00     0.020 A 
ATOM     85  C   UNL A   1      44.449  36.492  28.961  1.00  0.00     0.020 A 
ATOM     86  C   UNL A   1      44.989  36.761  30.221  1.00  0.00     0.054 A 
BRANCH  86  87
ATOM     87  S   UNL A   1      45.306  38.472  30.729  1.00  0.00     0.124 S 
ATOM     88  O   UNL A   1      46.496  38.806  29.953  1.00  0.00    -0.237 OA
ATOM     89  O   UNL A   1      44.079  39.159  30.331  1.00  0.00    -0.237 OA
ATOM     90  O   UNL A   1      45.511  38.369  32.173  1.00  0.00    -0.744 OA
ENDBRANCH  86  87
ENDBRANCH  60  81
ENDBRANCH  34  35
ENDBRANCH  27  29
ENDBRANCH  26  27
ENDBRANCH   1  26
TORSDOF 15
ENDMDL
MODEL 2
REMARK VINA RESULT:     -12.7      3.502      8.990
REMARK SMILES Cc1cc2c(=O)cc(-c3ccc(F)cc3)oc2c(C(=O)OCCOC(=O)c2ccc(-c3c4nc(c(-c5ccc(S(=O)(=O)[O-])cc5)c5ccc([nH]5)c(-c5ccc(S(=O)(=O)[O-])cc5)c5nc(c(-c6ccc(S(=O)(=O)[O-])cc6)c6ccc3[nH]6)C=C5)C=C4)cc2)c1C
REMARK SMILES IDX 23 1 22 2 21 3 19 4 20 5 18 6 1 7 2 8 3 9 87 10 4 11 88 12
REMARK SMILES IDX 5 13 17 14 6 15 7 16 16 17 8 18 9 19 10 20 15 21 11 22 14 23
REMARK SMILES IDX 12 24 13 25 24 26 25 27 26 28 27 29 28 30 86 31 29 32 85 33
REMARK SMILES IDX 30 34 31 35 32 36 79 37 33 38 84 39 78 40 80 41 34 42 83 43
REMARK SMILES IDX 77 44 76 45 35 47 65 48 46 49 64 50 47 51 50 52 63 53 81 54
REMARK SMILES IDX 48 55 49 56 62 58 82 59 51 60 36 61 37 62 45 63 38 64 44 65
REMARK SMILES IDX 39 66 40 67 41 68 42 69 43 70 66 71 67 72 75 73 68 74 74 75
REMARK SMILES IDX 69 76 70 77 71 78 72 79 73 80 52 81 53 82 61 83 54 84 60 85
REMARK SMILES IDX 55 86 56 87 57 88 58 89 59 90
REMARK H PARENT 80 46 50 57
REMARK Flexibility Score: inf
ROOT
ATOM      1  C   UNL A   1      32.814  29.945  27.247  1.00  0.00     0.275 C 
ENDROOT
BRANCH   1   2
ATOM      2  C   UNL A   1      32.786  28.448  27.563  1.00  0.00     0.275 C 
BRANCH   2   3
ATOM      3  O   UNL A   1      32.813  27.684  26.329  1.00  0.00    -0.458 OA
BRANCH   3   4
ATOM      4  C   UNL A   1      31.725  26.931  26.026  1.00  0.00     0.342 C 
ATOM      5  O   UNL A   1      31.077  26.251  26.806  1.00  0.00    -0.246 OA
BRANCH   4   6
ATOM      6  C   UNL A   1      31.525  26.850  24.559  1.00  0.00     0.106 A 
ATOM      7  C   UNL A   1      30.671  29.420  21.830  1.00  0.00     0.044 C 
ATOM      8  C   UNL A   1      31.144  28.181  22.545  1.00  0.00    -0.046 A 
ATOM      9  C   UNL A   1      31.775  27.163  21.810  1.00  0.00     0.019 A 
ATOM     10  C   UNL A   1      30.991  28.023  23.934  1.00  0.00    -0.030 A 
ATOM     11  C   UNL A   1      32.218  25.976  22.425  1.00  0.00     0.066 A 
ATOM     12  C   UNL A   1      30.284  29.083  24.756  1.00  0.00     0.046 C 
ATOM     13  C   UNL A   1      32.868  24.931  21.610  1.00  0.00     0.193 A 
ATOM     14  C   UNL A   1      32.093  25.791  23.797  1.00  0.00     0.153 A 
ATOM     15  O   UNL A   1      33.120  25.115  20.426  1.00  0.00    -0.289 OA
ATOM     16  C   UNL A   1      33.206  23.656  22.275  1.00  0.00     0.100 A 
ATOM     17  O   UNL A   1      32.500  24.602  24.386  1.00  0.00    -0.455 OA
ATOM     18  C   UNL A   1      32.988  23.538  23.589  1.00  0.00     0.138 A 
BRANCH  18  19
ATOM     19  C   UNL A   1      33.431  22.313  24.361  1.00  0.00     0.018 A 
ATOM     20  C   UNL A   1      35.181  21.903  24.655  1.00  0.00     0.015 A 
ATOM     21  C   UNL A   1      32.228  20.988  24.275  1.00  0.00     0.015 A 
ATOM     22  C   UNL A   1      35.736  20.140  24.921  1.00  0.00     0.040 A 
ATOM     23  C   UNL A   1      32.793  19.252  24.205  1.00  0.00     0.040 A 
ATOM     24  C   UNL A   1      34.543  18.818  24.575  1.00  0.00     0.123 A 
ATOM     25  F   UNL A   1      34.954  17.546  24.483  1.00  0.00    -0.207 F 
ENDBRANCH  18  19
ENDBRANCH   4   6
ENDBRANCH   3   4
ENDBRANCH   2   3
ENDBRANCH   1   2
BRANCH   1  26
ATOM     26  O   UNL A   1      34.164  30.286  26.932  1.00  0.00    -0.458 OA
BRANCH  26  27
ATOM     27  C   UNL A   1      34.669  31.230  27.751  1.00  0.00     0.338 C 
ATOM     28  O   UNL A   1      34.118  32.234  28.170  1.00  0.00    -0.246 OA
BRANCH  27  29
ATOM     29  C   UNL A   1      35.974  30.767  28.213  1.00  0.00     0.060 A 
ATOM     30  C   UNL A   1      36.497  29.658  27.638  1.00  0.00     0.016 A 
ATOM     31  C   UNL A   1      36.748  31.488  29.097  1.00  0.00     0.016 A 
ATOM     32  C   UNL A   1      37.847  29.357  27.882  1.00  0.00     0.010 A 
ATOM     33  C   UNL A   1      38.130  31.204  29.289  1.00  0.00     0.010 A 
ATOM     34  C   UNL A   1      39.027  30.106  28.673  1.00  0.00    -0.014 A 
BRANCH  34  35
ATOM     35  C   UNL A   1      41.112  29.632  28.829  1.00  0.00     0.031 A 
ATOM     36  C   UNL A   1      42.024  28.128  28.232  1.00  0.00     0.074 A 
ATOM     37  C   UNL A   1      42.414  30.349  29.131  1.00  0.00     0.049 A 
ATOM     38  N   UNL A   1      43.090  27.507  28.753  1.00  0.00    -0.248 NA
ATOM     39  C   UNL A   1      41.574  27.275  27.067  1.00  0.00     0.031 C 
ATOM     40  C   UNL A   1      42.644  31.696  29.755  1.00  0.00     0.029 A 
ATOM     41  N   UNL A   1      43.749  30.166  28.637  1.00  0.00    -0.354 N 
ATOM     42  C   UNL A   1      43.036  26.184  28.247  1.00  0.00     0.074 A 
ATOM     43  C   UNL A   1      41.738  26.090  27.646  1.00  0.00     0.031 C 
ATOM     44  C   UNL A   1      43.707  32.312  29.246  1.00  0.00     0.029 A 
ATOM     45  C   UNL A   1      44.534  31.334  28.585  1.00  0.00     0.049 A 
ATOM     46  H   UNL A   1      44.091  29.286  28.355  1.00  0.00     0.167 HD
ATOM     47  C   UNL A   1      43.920  25.209  27.872  1.00  0.00     0.031 A 
ATOM     48  C   UNL A   1      45.783  31.688  28.169  1.00  0.00     0.031 A 
ATOM     49  C   UNL A   1      45.312  25.415  27.596  1.00  0.00     0.049 A 
ATOM     50  C   UNL A   1      46.759  30.662  27.681  1.00  0.00     0.074 A 
ATOM     51  C   UNL A   1      46.226  24.490  27.110  1.00  0.00     0.029 A 
ATOM     52  N   UNL A   1      45.928  26.647  27.546  1.00  0.00    -0.354 N 
ATOM     53  N   UNL A   1      46.567  29.386  27.487  1.00  0.00    -0.248 NA
ATOM     54  C   UNL A   1      48.137  31.113  27.400  1.00  0.00     0.031 C 
ATOM     55  C   UNL A   1      47.391  25.166  26.749  1.00  0.00     0.029 A 
ATOM     56  C   UNL A   1      47.198  26.509  27.011  1.00  0.00     0.049 A 
ATOM     57  H   UNL A   1      45.528  27.495  27.845  1.00  0.00     0.167 HD
ATOM     58  C   UNL A   1      47.793  28.884  27.069  1.00  0.00     0.074 A 
ATOM     59  C   UNL A   1      48.714  29.991  26.987  1.00  0.00     0.031 C 
ATOM     60  C   UNL A   1      48.116  27.596  26.824  1.00  0.00     0.031 A 
BRANCH  47  61
ATOM     61  C   UNL A   1      43.377  23.822  27.483  1.00  0.00    -0.014 A 
ATOM     62  C   UNL A   1      43.304  23.473  26.121  1.00  0.00     0.010 A 
ATOM     63  C   UNL A   1      42.883  22.896  28.428  1.00  0.00     0.010 A 
ATOM     64  C   UNL A   1      42.821  22.218  25.723  1.00  0.00     0.020 A 
ATOM     65  C   UNL A   1      42.472  21.614  28.043  1.00  0.00     0.020 A 
ATOM     66  C   UNL A   1      42.436  21.285  26.688  1.00  0.00     0.054 A 
BRANCH  66  67
ATOM     67  S   UNL A   1      41.944  19.615  26.170  1.00  0.00     0.124 S 
ATOM     68  O   UNL A   1      42.719  19.429  24.947  1.00  0.00    -0.237 OA
ATOM     69  O   UNL A   1      42.349  18.789  27.306  1.00  0.00    -0.237 OA
ATOM     70  O   UNL A   1      40.499  19.729  25.987  1.00  0.00    -0.744 OA
ENDBRANCH  66  67
ENDBRANCH  47  61
BRANCH  48  71
ATOM     71  C   UNL A   1      46.225  33.142  28.204  1.00  0.00    -0.014 A 
ATOM     72  C   UNL A   1      46.076  33.989  27.086  1.00  0.00     0.010 A 
ATOM     73  C   UNL A   1      46.862  33.668  29.347  1.00  0.00     0.010 A 
ATOM     74  C   UNL A   1      46.672  35.258  27.055  1.00  0.00     0.020 A 
ATOM     75  C   UNL A   1      47.408  34.963  29.344  1.00  0.00     0.020 A 
ATOM     76  C   UNL A   1      47.358  35.727  28.176  1.00  0.00     0.054 A 
BRANCH  76  77
ATOM     77  S   UNL A   1      48.213  37.329  28.082  1.00  0.00     0.124 S 
ATOM     78  O   UNL A   1      49.615  36.918  28.083  1.00  0.00    -0.237 OA
ATOM     79  O   UNL A   1      47.724  37.884  26.822  1.00  0.00    -0.237 OA
ATOM     80  O   UNL A   1      47.765  38.028  29.284  1.00  0.00    -0.744 OA
ENDBRANCH  76  77
ENDBRANCH  48  71
BRANCH  60  81
ATOM     81  C   UNL A   1      49.515  27.251  26.413  1.00  0.00    -0.014 A 
ATOM     82  C   UNL A   1      49.886  27.311  25.057  1.00  0.00     0.010 A 
ATOM     83  C   UNL A   1      50.388  26.666  27.345  1.00  0.00     0.010 A 
ATOM     84  C   UNL A   1      51.079  26.724  24.630  1.00  0.00     0.020 A 
ATOM     85  C   UNL A   1      51.590  26.098  26.924  1.00  0.00     0.020 A 
ATOM     86  C   UNL A   1      51.909  26.096  25.564  1.00  0.00     0.054 A 
BRANCH  86  87
ATOM     87  S   UNL A   1      53.388  25.228  24.977  1.00  0.00     0.124 S 
ATOM     88  O   UNL A   1      53.136  23.860  25.421  1.00  0.00    -0.237 OA
ATOM     89  O   UNL A   1      53.335  25.442  23.532  1.00  0.00    -0.237 OA
ATOM     90  O   UNL A   1      54.483  25.914  25.660  1.00  0.00    -0.744 OA
ENDBRANCH  86  87
ENDBRANCH  60  81
ENDBRANCH  34  35
ENDBRANCH  27  29
ENDBRANCH  26  27
ENDBRANCH   1  26
TORSDOF 15
ENDMDL
MODEL 3
REMARK VINA RESULT:     -12.4      4.837      9.916
REMARK SMILES Cc1cc2c(=O)cc(-c3ccc(F)cc3)oc2c(C(=O)OCCOC(=O)c2ccc(-c3c4nc(c(-c5ccc(S(=O)(=O)[O-])cc5)c5ccc([nH]5)c(-c5ccc(S(=O)(=O)[O-])cc5)c5nc(c(-c6ccc(S(=O)(=O)[O-])cc6)c6ccc3[nH]6)C=C5)C=C4)cc2)c1C
REMARK SMILES IDX 23 1 22 2 21 3 19 4 20 5 18 6 1 7 2 8 3 9 87 10 4 11 88 12
REMARK SMILES IDX 5 13 17 14 6 15 7 16 16 17 8 18 9 19 10 20 15 21 11 22 14 23
REMARK SMILES IDX 12 24 13 25 24 26 25 27 26 28 27 29 28 30 86 31 29 32 85 33
REMARK SMILES IDX 30 34 31 35 32 36 79 37 33 38 84 39 78 40 80 41 34 42 83 43
REMARK SMILES IDX 77 44 76 45 35 47 65 48 46 49 64 50 47 51 50 52 63 53 81 54
REMARK SMILES IDX 48 55 49 56 62 58 82 59 51 60 36 61 37 62 45 63 38 64 44 65
REMARK SMILES IDX 39 66 40 67 41 68 42 69 43 70 66 71 67 72 75 73 68 74 74 75
REMARK SMILES IDX 69 76 70 77 71 78 72 79 73 80 52 81 53 82 61 83 54 84 60 85
REMARK SMILES IDX 55 86 56 87 57 88 58 89 59 90
REMARK H PARENT 80 46 50 57
REMARK Flexibility Score: inf
ROOT
ATOM      1  C   UNL A   1      31.441  28.423  27.520  1.00  0.00     0.275 C 
ENDROOT
BRANCH   1   2
ATOM      2  C   UNL A   1      31.752  26.950  27.243  1.00  0.00     0.275 C 
BRANCH   2   3
ATOM      3  O   UNL A   1      30.581  26.295  26.692  1.00  0.00    -0.458 OA
BRANCH   3   4
ATOM      4  C   UNL A   1      30.715  25.012  26.266  1.00  0.00     0.342 C 
ATOM      5  O   UNL A   1      30.124  24.040  26.707  1.00  0.00    -0.246 OA
BRANCH   4   6
ATOM      6  C   UNL A   1      31.850  24.880  25.322  1.00  0.00     0.106 A 
ATOM      7  C   UNL A   1      34.737  22.368  24.947  1.00  0.00     0.044 C 
ATOM      8  C   UNL A   1      33.715  23.439  24.670  1.00  0.00    -0.046 A 
ATOM      9  C   UNL A   1      33.610  23.970  23.374  1.00  0.00     0.019 A 
ATOM     10  C   UNL A   1      32.844  23.909  25.671  1.00  0.00    -0.030 A 
ATOM     11  C   UNL A   1      32.685  24.987  23.066  1.00  0.00     0.066 A 
ATOM     12  C   UNL A   1      32.951  23.386  27.090  1.00  0.00     0.046 C 
ATOM     13  C   UNL A   1      32.618  25.520  21.691  1.00  0.00     0.193 A 
ATOM     14  C   UNL A   1      31.803  25.467  24.027  1.00  0.00     0.153 A 
ATOM     15  O   UNL A   1      33.281  25.027  20.786  1.00  0.00    -0.289 OA
ATOM     16  C   UNL A   1      31.720  26.666  21.444  1.00  0.00     0.100 A 
ATOM     17  O   UNL A   1      30.921  26.495  23.721  1.00  0.00    -0.455 OA
ATOM     18  C   UNL A   1      30.954  27.111  22.446  1.00  0.00     0.138 A 
BRANCH  18  19
ATOM     19  C   UNL A   1      29.915  28.192  22.233  1.00  0.00     0.018 A 
ATOM     20  C   UNL A   1      30.339  29.951  22.033  1.00  0.00     0.015 A 
ATOM     21  C   UNL A   1      28.328  27.752  22.937  1.00  0.00     0.015 A 
ATOM     22  C   UNL A   1      29.135  31.301  22.497  1.00  0.00     0.040 A 
ATOM     23  C   UNL A   1      27.281  29.044  23.693  1.00  0.00     0.040 A 
ATOM     24  C   UNL A   1      27.656  30.827  23.436  1.00  0.00     0.123 A 
ATOM     25  F   UNL A   1      26.903  31.765  24.026  1.00  0.00    -0.207 F 
ENDBRANCH  18  19
ENDBRANCH   4   6
ENDBRANCH   3   4
ENDBRANCH   2   3
ENDBRANCH   1   2
BRANCH   1  26
ATOM     26  O   UNL A   1      31.755  29.152  26.333  1.00  0.00    -0.458 OA
BRANCH  26  27
ATOM     27  C   UNL A   1      32.206  30.397  26.590  1.00  0.00     0.338 C 
ATOM     28  O   UNL A   1      31.552  31.409  26.773  1.00  0.00    -0.246 OA
BRANCH  27  29
ATOM     29  C   UNL A   1      33.650  30.316  26.786  1.00  0.00     0.060 A 
ATOM     30  C   UNL A   1      34.248  31.282  27.524  1.00  0.00     0.016 A 
ATOM     31  C   UNL A   1      34.396  29.230  26.378  1.00  0.00     0.016 A 
ATOM     32  C   UNL A   1      35.574  31.076  27.937  1.00  0.00     0.010 A 
ATOM     33  C   UNL A   1      35.720  29.008  26.852  1.00  0.00     0.010 A 
ATOM     34  C   UNL A   1      36.604  29.850  27.801  1.00  0.00    -0.014 A 
BRANCH  34  35
ATOM     35  C   UNL A   1      38.561  29.583  28.633  1.00  0.00     0.031 A 
ATOM     36  C   UNL A   1      39.116  29.723  30.400  1.00  0.00     0.074 A 
ATOM     37  C   UNL A   1      39.891  28.979  28.223  1.00  0.00     0.049 A 
ATOM     38  N   UNL A   1      40.287  30.137  30.902  1.00  0.00    -0.248 NA
ATOM     39  C   UNL A   1      38.214  29.490  31.591  1.00  0.00     0.031 C 
ATOM     40  C   UNL A   1      40.386  28.589  26.860  1.00  0.00     0.029 A 
ATOM     41  N   UNL A   1      40.906  28.293  28.970  1.00  0.00    -0.354 N 
ATOM     42  C   UNL A   1      40.001  30.546  32.229  1.00  0.00     0.074 A 
ATOM     43  C   UNL A   1      38.569  30.562  32.291  1.00  0.00     0.031 C 
ATOM     44  C   UNL A   1      41.166  27.512  26.896  1.00  0.00     0.029 A 
ATOM     45  C   UNL A   1      41.630  27.325  28.248  1.00  0.00     0.049 A 
ATOM     46  H   UNL A   1      41.084  28.486  29.920  1.00  0.00     0.167 HD
ATOM     47  C   UNL A   1      40.634  30.554  33.443  1.00  0.00     0.031 A 
ATOM     48  C   UNL A   1      42.612  26.412  28.496  1.00  0.00     0.031 A 
ATOM     49  C   UNL A   1      41.800  29.786  33.773  1.00  0.00     0.049 A 
ATOM     50  C   UNL A   1      43.282  26.335  29.833  1.00  0.00     0.074 A 
ATOM     51  C   UNL A   1      42.415  29.672  35.012  1.00  0.00     0.029 A 
ATOM     52  N   UNL A   1      42.372  28.836  32.955  1.00  0.00    -0.354 N 
ATOM     53  N   UNL A   1      42.997  26.995  30.922  1.00  0.00    -0.248 NA
ATOM     54  C   UNL A   1      44.438  25.426  29.964  1.00  0.00     0.031 C 
ATOM     55  C   UNL A   1      43.350  28.639  34.948  1.00  0.00     0.029 A 
ATOM     56  C   UNL A   1      43.312  28.114  33.670  1.00  0.00     0.049 A 
ATOM     57  H   UNL A   1      42.148  28.692  32.007  1.00  0.00     0.167 HD
ATOM     58  C   UNL A   1      43.936  26.586  31.861  1.00  0.00     0.074 A 
ATOM     59  C   UNL A   1      44.772  25.588  31.238  1.00  0.00     0.031 C 
ATOM     60  C   UNL A   1      44.102  27.051  33.118  1.00  0.00     0.031 A 
BRANCH  47  61
ATOM     61  C   UNL A   1      39.946  31.242  34.636  1.00  0.00    -0.014 A 
ATOM     62  C   UNL A   1      38.993  30.525  35.384  1.00  0.00     0.010 A 
ATOM     63  C   UNL A   1      40.178  32.591  34.984  1.00  0.00     0.010 A 
ATOM     64  C   UNL A   1      38.348  31.112  36.481  1.00  0.00     0.020 A 
ATOM     65  C   UNL A   1      39.596  33.157  36.124  1.00  0.00     0.020 A 
ATOM     66  C   UNL A   1      38.675  32.415  36.863  1.00  0.00     0.054 A 
BRANCH  66  67
ATOM     67  S   UNL A   1      37.938  33.117  38.367  1.00  0.00     0.124 S 
ATOM     68  O   UNL A   1      36.509  32.961  38.114  1.00  0.00    -0.237 OA
ATOM     69  O   UNL A   1      38.488  32.270  39.425  1.00  0.00    -0.237 OA
ATOM     70  O   UNL A   1      38.428  34.494  38.375  1.00  0.00    -0.744 OA
ENDBRANCH  66  67
ENDBRANCH  47  61
BRANCH  48  71
ATOM     71  C   UNL A   1      43.065  25.452  27.408  1.00  0.00    -0.014 A 
ATOM     72  C   UNL A   1      42.415  24.219  27.190  1.00  0.00     0.010 A 
ATOM     73  C   UNL A   1      44.200  25.743  26.624  1.00  0.00     0.010 A 
ATOM     74  C   UNL A   1      42.963  23.253  26.334  1.00  0.00     0.020 A 
ATOM     75  C   UNL A   1      44.719  24.804  25.718  1.00  0.00     0.020 A 
ATOM     76  C   UNL A   1      44.128  23.542  25.622  1.00  0.00     0.054 A 
BRANCH  76  77
ATOM     77  S   UNL A   1      44.881  22.243  24.597  1.00  0.00     0.124 S 
ATOM     78  O   UNL A   1      44.780  22.824  23.260  1.00  0.00    -0.237 OA
ATOM     79  O   UNL A   1      46.235  22.146  25.138  1.00  0.00    -0.237 OA
ATOM     80  O   UNL A   1      44.032  21.079  24.839  1.00  0.00    -0.744 OA
ENDBRANCH  76  77
ENDBRANCH  48  71
BRANCH  60  81
ATOM     81  C   UNL A   1      45.205  26.500  33.969  1.00  0.00    -0.014 A 
ATOM     82  C   UNL A   1      44.951  25.434  34.851  1.00  0.00     0.010 A 
ATOM     83  C   UNL A   1      46.430  27.185  34.044  1.00  0.00     0.010 A 
ATOM     84  C   UNL A   1      45.878  25.108  35.843  1.00  0.00     0.020 A 
ATOM     85  C   UNL A   1      47.367  26.846  35.021  1.00  0.00     0.020 A 
ATOM     86  C   UNL A   1      47.068  25.836  35.938  1.00  0.00     0.054 A 
BRANCH  86  87
ATOM     87  S   UNL A   1      48.201  25.487  37.309  1.00  0.00     0.124 S 
ATOM     88  O   UNL A   1      47.601  24.297  37.906  1.00  0.00    -0.237 OA
ATOM     89  O   UNL A   1      49.476  25.275  36.627  1.00  0.00    -0.237 OA
ATOM     90  O   UNL A   1      48.134  26.696  38.127  1.00  0.00    -0.744 OA
ENDBRANCH  86  87
ENDBRANCH  60  81
ENDBRANCH  34  35
ENDBRANCH  27  29
ENDBRANCH  26  27
ENDBRANCH   1  26
TORSDOF 15
ENDMDL
