MODEL 1
REMARK VINA RESULT:     -12.0      0.000      0.000
REMARK SMILES Cc1cccc(CS[C@@H]2CC[C@]([NH3+])(C(=O)OCCOC(=O)c3ccc(-c4c5nc(c(-c6ccc(S(=O)(=O)[O-])cc6)c6ccc([nH]6)c(-c6ccc(S(=O)(=O)[O-])cc6)c6nc(c(-c7ccc(S(=O)(=O)[O-])cc7)c7ccc4[nH]7)C=C6)C=C5)cc3)C2)c1
REMARK SMILES IDX 17 1 16 2 14 3 15 4 12 5 9 6 10 7 82 8 11 9 8 10 7 11 6 12
REMARK SMILES IDX 1 13 2 14 3 15 83 16 4 17 5 18 13 19 18 23 19 24 20 25 21 26
REMARK SMILES IDX 22 27 23 28 81 29 24 30 80 31 25 32 26 33 27 34 74 35 28 36
REMARK SMILES IDX 79 37 73 38 75 39 29 40 78 41 72 42 71 43 30 45 60 46 41 47
REMARK SMILES IDX 59 48 42 49 45 50 58 51 76 52 43 53 44 54 57 56 77 57 46 58
REMARK SMILES IDX 31 59 32 60 40 61 33 62 39 63 34 64 35 65 36 66 37 67 38 68
REMARK SMILES IDX 61 69 62 70 70 71 63 72 69 73 64 74 65 75 66 76 67 77 68 78
REMARK SMILES IDX 47 79 48 80 56 81 49 82 55 83 50 84 51 85 52 86 53 87 54 88
REMARK H PARENT 13 20 13 21 13 22 75 44 45 55
REMARK Flexibility Score: inf
ROOT
ATOM      1  C   UNL A   1      33.143  28.865  25.630  1.00  0.00     0.274 C 
ENDROOT
BRANCH   1   2
ATOM      2  O   UNL A   1      32.770  27.901  24.633  1.00  0.00    -0.457 OA
BRANCH   2   3
ATOM      3  C   UNL A   1      31.432  27.595  24.610  1.00  0.00     0.368 C 
ATOM      4  O   UNL A   1      30.576  28.388  24.258  1.00  0.00    -0.245 OA
BRANCH   3   5
ATOM      5  C   UNL A   1      31.111  26.174  25.158  1.00  0.00     0.193 C 
ATOM      6  C   UNL A   1      31.609  23.823  24.914  1.00  0.00     0.054 C 
ATOM      7  C   UNL A   1      30.827  24.219  23.674  1.00  0.00     0.022 C 
ATOM      8  C   UNL A   1      32.293  25.153  25.257  1.00  0.00     0.095 C 
ATOM      9  C   UNL A   1      30.140  25.507  24.134  1.00  0.00     0.082 C 
BRANCH   6  10
ATOM     10  S   UNL A   1      32.469  22.215  24.846  1.00  0.00    -0.154 SA
BRANCH  10  11
ATOM     11  C   UNL A   1      33.901  22.491  23.788  1.00  0.00     0.105 C 
BRANCH  11  12
ATOM     12  C   UNL A   1      35.234  22.593  24.465  1.00  0.00    -0.038 A 
ATOM     13  C   UNL A   1      38.037  20.170  24.983  1.00  0.00     0.044 C 
ATOM     14  C   UNL A   1      37.251  21.421  25.090  1.00  0.00    -0.051 A 
ATOM     15  C   UNL A   1      37.776  22.580  25.663  1.00  0.00     0.003 A 
ATOM     16  C   UNL A   1      36.000  21.434  24.494  1.00  0.00     0.008 A 
ATOM     17  C   UNL A   1      37.046  23.761  25.600  1.00  0.00     0.001 A 
ATOM     18  C   UNL A   1      35.791  23.773  24.981  1.00  0.00     0.004 A 
ENDBRANCH  11  12
ENDBRANCH  10  11
ENDBRANCH   6  10
BRANCH   5  19
ATOM     19  N   UNL A   1      30.441  26.294  26.480  1.00  0.00    -0.343 N 
ATOM     20  H   UNL A   1      29.440  26.427  26.343  1.00  0.00     0.345 HD
ATOM     21  H   UNL A   1      30.824  27.093  26.985  1.00  0.00     0.345 HD
ATOM     22  H   UNL A   1      30.600  25.443  27.021  1.00  0.00     0.345 HD
ENDBRANCH   5  19
ENDBRANCH   3   5
ENDBRANCH   2   3
ENDBRANCH   1   2
BRANCH   1  23
ATOM     23  C   UNL A   1      34.462  28.520  26.349  1.00  0.00     0.275 C 
BRANCH  23  24
ATOM     24  O   UNL A   1      34.669  28.924  27.730  1.00  0.00    -0.458 OA
BRANCH  24  25
ATOM     25  C   UNL A   1      35.308  30.081  28.049  1.00  0.00     0.338 C 
ATOM     26  O   UNL A   1      34.680  31.121  28.256  1.00  0.00    -0.246 OA
BRANCH  25  27
ATOM     27  C   UNL A   1      36.749  29.886  28.354  1.00  0.00     0.060 A 
ATOM     28  C   UNL A   1      37.101  29.174  29.506  1.00  0.00     0.016 A 
ATOM     29  C   UNL A   1      37.692  30.105  27.356  1.00  0.00     0.016 A 
ATOM     30  C   UNL A   1      38.302  28.459  29.544  1.00  0.00     0.010 A 
ATOM     31  C   UNL A   1      38.833  29.325  27.348  1.00  0.00     0.010 A 
ATOM     32  C   UNL A   1      39.127  28.454  28.417  1.00  0.00    -0.014 A 
BRANCH  32  33
ATOM     33  C   UNL A   1      40.476  27.874  28.388  1.00  0.00     0.031 A 
ATOM     34  C   UNL A   1      40.834  26.485  27.959  1.00  0.00     0.074 A 
ATOM     35  C   UNL A   1      41.387  28.731  28.904  1.00  0.00     0.049 A 
ATOM     36  N   UNL A   1      42.051  26.060  27.821  1.00  0.00    -0.248 NA
ATOM     37  C   UNL A   1      39.861  25.410  27.730  1.00  0.00     0.031 C 
ATOM     38  C   UNL A   1      42.828  28.624  28.997  1.00  0.00     0.029 A 
ATOM     39  N   UNL A   1      41.081  29.841  29.709  1.00  0.00    -0.354 N 
ATOM     40  C   UNL A   1      42.017  24.697  27.586  1.00  0.00     0.074 A 
ATOM     41  C   UNL A   1      40.627  24.359  27.396  1.00  0.00     0.031 C 
ATOM     42  C   UNL A   1      43.235  29.380  30.034  1.00  0.00     0.029 A 
ATOM     43  C   UNL A   1      42.042  29.879  30.706  1.00  0.00     0.049 A 
ATOM     44  H   UNL A   1      40.331  30.469  29.589  1.00  0.00     0.167 HD
ATOM     45  C   UNL A   1      43.084  23.894  27.862  1.00  0.00     0.031 A 
ATOM     46  C   UNL A   1      41.715  29.736  32.022  1.00  0.00     0.031 A 
ATOM     47  C   UNL A   1      44.022  24.546  28.769  1.00  0.00     0.049 A 
ATOM     48  C   UNL A   1      42.492  28.583  32.611  1.00  0.00     0.074 A 
ATOM     49  C   UNL A   1      44.906  25.594  28.600  1.00  0.00     0.029 A 
ATOM     50  N   UNL A   1      43.906  24.350  30.142  1.00  0.00    -0.354 N 
ATOM     51  N   UNL A   1      42.924  27.559  31.919  1.00  0.00    -0.248 NA
ATOM     52  C   UNL A   1      42.907  28.542  34.004  1.00  0.00     0.031 C 
ATOM     53  C   UNL A   1      45.136  26.167  29.880  1.00  0.00     0.029 A 
ATOM     54  C   UNL A   1      44.442  25.434  30.831  1.00  0.00     0.049 A 
ATOM     55  H   UNL A   1      43.501  23.557  30.564  1.00  0.00     0.167 HD
ATOM     56  C   UNL A   1      43.696  26.757  32.722  1.00  0.00     0.074 A 
ATOM     57  C   UNL A   1      43.666  27.433  34.013  1.00  0.00     0.031 C 
ATOM     58  C   UNL A   1      44.282  25.596  32.284  1.00  0.00     0.031 A 
BRANCH  45  59
ATOM     59  C   UNL A   1      43.402  22.620  27.118  1.00  0.00    -0.014 A 
ATOM     60  C   UNL A   1      44.686  22.560  26.531  1.00  0.00     0.010 A 
ATOM     61  C   UNL A   1      42.535  21.545  26.846  1.00  0.00     0.010 A 
ATOM     62  C   UNL A   1      45.074  21.526  25.672  1.00  0.00     0.020 A 
ATOM     63  C   UNL A   1      42.916  20.494  25.980  1.00  0.00     0.020 A 
ATOM     64  C   UNL A   1      44.177  20.506  25.381  1.00  0.00     0.054 A 
BRANCH  64  65
ATOM     65  S   UNL A   1      44.684  19.242  24.179  1.00  0.00     0.124 S 
ATOM     66  O   UNL A   1      43.763  18.146  24.472  1.00  0.00    -0.237 OA
ATOM     67  O   UNL A   1      44.468  19.914  22.901  1.00  0.00    -0.237 OA
ATOM     68  O   UNL A   1      46.081  18.979  24.515  1.00  0.00    -0.744 OA
ENDBRANCH  64  65
ENDBRANCH  45  59
BRANCH  46  69
ATOM     69  C   UNL A   1      40.343  30.216  32.415  1.00  0.00    -0.014 A 
ATOM     70  C   UNL A   1      39.929  29.960  33.748  1.00  0.00     0.010 A 
ATOM     71  C   UNL A   1      39.596  31.148  31.673  1.00  0.00     0.010 A 
ATOM     72  C   UNL A   1      38.907  30.695  34.360  1.00  0.00     0.020 A 
ATOM     73  C   UNL A   1      38.543  31.873  32.279  1.00  0.00     0.020 A 
ATOM     74  C   UNL A   1      38.237  31.671  33.630  1.00  0.00     0.054 A 
BRANCH  74  75
ATOM     75  S   UNL A   1      37.113  32.793  34.529  1.00  0.00     0.124 S 
ATOM     76  O   UNL A   1      37.155  32.253  35.884  1.00  0.00    -0.237 OA
ATOM     77  O   UNL A   1      37.767  34.087  34.345  1.00  0.00    -0.237 OA
ATOM     78  O   UNL A   1      35.847  32.621  33.819  1.00  0.00    -0.744 OA
ENDBRANCH  74  75
ENDBRANCH  46  69
BRANCH  58  79
ATOM     79  C   UNL A   1      44.810  24.536  33.225  1.00  0.00    -0.014 A 
ATOM     80  C   UNL A   1      46.136  24.506  33.694  1.00  0.00     0.010 A 
ATOM     81  C   UNL A   1      43.931  23.569  33.760  1.00  0.00     0.010 A 
ATOM     82  C   UNL A   1      46.600  23.488  34.531  1.00  0.00     0.020 A 
ATOM     83  C   UNL A   1      44.365  22.588  34.660  1.00  0.00     0.020 A 
ATOM     84  C   UNL A   1      45.713  22.525  34.998  1.00  0.00     0.054 A 
BRANCH  84  85
ATOM     85  S   UNL A   1      46.334  21.213  36.074  1.00  0.00     0.124 S 
ATOM     86  O   UNL A   1      46.053  20.019  35.279  1.00  0.00    -0.237 OA
ATOM     87  O   UNL A   1      47.749  21.549  36.216  1.00  0.00    -0.237 OA
ATOM     88  O   UNL A   1      45.540  21.360  37.291  1.00  0.00    -0.744 OA
ENDBRANCH  84  85
ENDBRANCH  58  79
ENDBRANCH  32  33
ENDBRANCH  25  27
ENDBRANCH  24  25
ENDBRANCH  23  24
ENDBRANCH   1  23
TORSDOF 18
ENDMDL
MODEL 2
REMARK VINA RESULT:     -11.8      1.387      2.008
REMARK SMILES Cc1cccc(CS[C@@H]2CC[C@]([NH3+])(C(=O)OCCOC(=O)c3ccc(-c4c5nc(c(-c6ccc(S(=O)(=O)[O-])cc6)c6ccc([nH]6)c(-c6ccc(S(=O)(=O)[O-])cc6)c6nc(c(-c7ccc(S(=O)(=O)[O-])cc7)c7ccc4[nH]7)C=C6)C=C5)cc3)C2)c1
REMARK SMILES IDX 17 1 16 2 14 3 15 4 12 5 9 6 10 7 82 8 11 9 8 10 7 11 6 12
REMARK SMILES IDX 1 13 2 14 3 15 83 16 4 17 5 18 13 19 18 23 19 24 20 25 21 26
REMARK SMILES IDX 22 27 23 28 81 29 24 30 80 31 25 32 26 33 27 34 74 35 28 36
REMARK SMILES IDX 79 37 73 38 75 39 29 40 78 41 72 42 71 43 30 45 60 46 41 47
REMARK SMILES IDX 59 48 42 49 45 50 58 51 76 52 43 53 44 54 57 56 77 57 46 58
REMARK SMILES IDX 31 59 32 60 40 61 33 62 39 63 34 64 35 65 36 66 37 67 38 68
REMARK SMILES IDX 61 69 62 70 70 71 63 72 69 73 64 74 65 75 66 76 67 77 68 78
REMARK SMILES IDX 47 79 48 80 56 81 49 82 55 83 50 84 51 85 52 86 53 87 54 88
REMARK H PARENT 13 20 13 21 13 22 75 44 45 55
REMARK Flexibility Score: inf
ROOT
ATOM      1  C   UNL A   1      33.476  29.571  26.000  1.00  0.00     0.274 C 
ENDROOT
BRANCH   1   2
ATOM      2  O   UNL A   1      33.051  28.550  25.084  1.00  0.00    -0.457 OA
BRANCH   2   3
ATOM      3  C   UNL A   1      31.733  28.189  25.205  1.00  0.00     0.368 C 
ATOM      4  O   UNL A   1      30.830  28.769  24.629  1.00  0.00    -0.245 OA
BRANCH   3   5
ATOM      5  C   UNL A   1      31.499  27.029  26.217  1.00  0.00     0.193 C 
ATOM      6  C   UNL A   1      31.773  24.655  26.571  1.00  0.00     0.054 C 
ATOM      7  C   UNL A   1      30.698  24.801  25.508  1.00  0.00     0.022 C 
ATOM      8  C   UNL A   1      32.600  25.922  26.315  1.00  0.00     0.095 C 
ATOM      9  C   UNL A   1      30.243  26.247  25.719  1.00  0.00     0.082 C 
BRANCH   6  10
ATOM     10  S   UNL A   1      32.487  22.988  26.773  1.00  0.00    -0.154 SA
BRANCH  10  11
ATOM     11  C   UNL A   1      33.467  22.711  25.286  1.00  0.00     0.105 C 
BRANCH  11  12
ATOM     12  C   UNL A   1      33.007  21.623  24.364  1.00  0.00    -0.038 A 
ATOM     13  C   UNL A   1      32.556  17.933  24.781  1.00  0.00     0.044 C 
ATOM     14  C   UNL A   1      32.607  19.255  24.114  1.00  0.00    -0.051 A 
ATOM     15  C   UNL A   1      32.156  19.444  22.808  1.00  0.00     0.003 A 
ATOM     16  C   UNL A   1      33.019  20.333  24.881  1.00  0.00     0.008 A 
ATOM     17  C   UNL A   1      32.090  20.733  22.291  1.00  0.00     0.001 A 
ATOM     18  C   UNL A   1      32.491  21.820  23.075  1.00  0.00     0.004 A 
ENDBRANCH  11  12
ENDBRANCH  10  11
ENDBRANCH   6  10
BRANCH   5  19
ATOM     19  N   UNL A   1      31.235  27.595  27.566  1.00  0.00    -0.343 N 
ATOM     20  H   UNL A   1      30.354  28.106  27.554  1.00  0.00     0.345 HD
ATOM     21  H   UNL A   1      31.992  28.228  27.823  1.00  0.00     0.345 HD
ATOM     22  H   UNL A   1      31.180  26.838  28.248  1.00  0.00     0.345 HD
ENDBRANCH   5  19
ENDBRANCH   3   5
ENDBRANCH   2   3
ENDBRANCH   1   2
BRANCH   1  23
ATOM     23  C   UNL A   1      34.706  29.166  26.837  1.00  0.00     0.275 C 
BRANCH  23  24
ATOM     24  O   UNL A   1      34.759  29.481  28.255  1.00  0.00    -0.458 OA
BRANCH  24  25
ATOM     25  C   UNL A   1      35.483  30.530  28.728  1.00  0.00     0.338 C 
ATOM     26  O   UNL A   1      34.944  31.604  29.002  1.00  0.00    -0.246 OA
BRANCH  25  27
ATOM     27  C   UNL A   1      36.873  30.161  29.099  1.00  0.00     0.060 A 
ATOM     28  C   UNL A   1      37.081  29.006  29.858  1.00  0.00     0.016 A 
ATOM     29  C   UNL A   1      37.936  30.753  28.426  1.00  0.00     0.016 A 
ATOM     30  C   UNL A   1      38.279  28.295  29.733  1.00  0.00     0.010 A 
ATOM     31  C   UNL A   1      39.082  30.006  28.223  1.00  0.00     0.010 A 
ATOM     32  C   UNL A   1      39.247  28.745  28.832  1.00  0.00    -0.014 A 
BRANCH  32  33
ATOM     33  C   UNL A   1      40.597  28.180  28.724  1.00  0.00     0.031 A 
ATOM     34  C   UNL A   1      40.955  26.839  28.163  1.00  0.00     0.074 A 
ATOM     35  C   UNL A   1      41.514  28.992  29.301  1.00  0.00     0.049 A 
ATOM     36  N   UNL A   1      42.171  26.437  27.964  1.00  0.00    -0.248 NA
ATOM     37  C   UNL A   1      39.982  25.784  27.852  1.00  0.00     0.031 C 
ATOM     38  C   UNL A   1      42.957  28.887  29.357  1.00  0.00     0.029 A 
ATOM     39  N   UNL A   1      41.218  30.021  30.211  1.00  0.00    -0.354 N 
ATOM     40  C   UNL A   1      42.139  25.101  27.604  1.00  0.00     0.074 A 
ATOM     41  C   UNL A   1      40.747  24.773  27.409  1.00  0.00     0.031 C 
ATOM     42  C   UNL A   1      43.380  29.546  30.453  1.00  0.00     0.029 A 
ATOM     43  C   UNL A   1      42.197  29.972  31.190  1.00  0.00     0.049 A 
ATOM     44  H   UNL A   1      40.463  30.652  30.164  1.00  0.00     0.167 HD
ATOM     45  C   UNL A   1      43.215  24.284  27.784  1.00  0.00     0.031 A 
ATOM     46  C   UNL A   1      41.896  29.706  32.492  1.00  0.00     0.031 A 
ATOM     47  C   UNL A   1      44.167  24.855  28.730  1.00  0.00     0.049 A 
ATOM     48  C   UNL A   1      42.689  28.508  32.958  1.00  0.00     0.074 A 
ATOM     49  C   UNL A   1      45.042  25.920  28.643  1.00  0.00     0.029 A 
ATOM     50  N   UNL A   1      44.077  24.531  30.081  1.00  0.00    -0.354 N 
ATOM     51  N   UNL A   1      43.114  27.555  32.166  1.00  0.00    -0.248 NA
ATOM     52  C   UNL A   1      43.131  28.341  34.333  1.00  0.00     0.031 C 
ATOM     53  C   UNL A   1      45.293  26.374  29.967  1.00  0.00     0.029 A 
ATOM     54  C   UNL A   1      44.622  25.551  30.858  1.00  0.00     0.049 A 
ATOM     55  H   UNL A   1      43.685  23.701  30.435  1.00  0.00     0.167 HD
ATOM     56  C   UNL A   1      43.905  26.689  32.877  1.00  0.00     0.074 A 
ATOM     57  C   UNL A   1      43.895  27.242  34.225  1.00  0.00     0.031 C 
ATOM     58  C   UNL A   1      44.488  25.576  32.322  1.00  0.00     0.031 A 
BRANCH  45  59
ATOM     59  C   UNL A   1      43.525  23.086  26.920  1.00  0.00    -0.014 A 
ATOM     60  C   UNL A   1      42.583  22.034  26.973  1.00  0.00     0.010 A 
ATOM     61  C   UNL A   1      44.689  22.850  26.164  1.00  0.00     0.010 A 
ATOM     62  C   UNL A   1      42.804  20.794  26.367  1.00  0.00     0.020 A 
ATOM     63  C   UNL A   1      44.924  21.601  25.545  1.00  0.00     0.020 A 
ATOM     64  C   UNL A   1      43.987  20.573  25.671  1.00  0.00     0.054 A 
BRANCH  64  65
ATOM     65  S   UNL A   1      44.279  18.915  24.990  1.00  0.00     0.124 S 
ATOM     66  O   UNL A   1      43.087  18.187  25.420  1.00  0.00    -0.237 OA
ATOM     67  O   UNL A   1      44.371  19.171  23.556  1.00  0.00    -0.237 OA
ATOM     68  O   UNL A   1      45.524  18.489  25.626  1.00  0.00    -0.744 OA
ENDBRANCH  64  65
ENDBRANCH  45  59
BRANCH  46  69
ATOM     69  C   UNL A   1      40.529  30.138  32.953  1.00  0.00    -0.014 A 
ATOM     70  C   UNL A   1      40.306  31.533  33.086  1.00  0.00     0.010 A 
ATOM     71  C   UNL A   1      39.401  29.299  32.956  1.00  0.00     0.010 A 
ATOM     72  C   UNL A   1      39.017  32.081  33.082  1.00  0.00     0.020 A 
ATOM     73  C   UNL A   1      38.097  29.846  32.981  1.00  0.00     0.020 A 
ATOM     74  C   UNL A   1      37.917  31.235  33.000  1.00  0.00     0.054 A 
BRANCH  74  75
ATOM     75  S   UNL A   1      36.278  31.986  32.717  1.00  0.00     0.124 S 
ATOM     76  O   UNL A   1      36.569  32.990  31.699  1.00  0.00    -0.237 OA
ATOM     77  O   UNL A   1      35.493  30.839  32.265  1.00  0.00    -0.237 OA
ATOM     78  O   UNL A   1      35.928  32.507  34.037  1.00  0.00    -0.744 OA
ENDBRANCH  74  75
ENDBRANCH  46  69
BRANCH  58  79
ATOM     79  C   UNL A   1      45.039  24.438  33.151  1.00  0.00    -0.014 A 
ATOM     80  C   UNL A   1      46.326  24.444  33.720  1.00  0.00     0.010 A 
ATOM     81  C   UNL A   1      44.212  23.340  33.476  1.00  0.00     0.010 A 
ATOM     82  C   UNL A   1      46.817  23.356  34.447  1.00  0.00     0.020 A 
ATOM     83  C   UNL A   1      44.666  22.277  34.266  1.00  0.00     0.020 A 
ATOM     84  C   UNL A   1      45.987  22.271  34.704  1.00  0.00     0.054 A 
BRANCH  84  85
ATOM     85  S   UNL A   1      46.642  20.871  35.639  1.00  0.00     0.124 S 
ATOM     86  O   UNL A   1      45.553  20.604  36.576  1.00  0.00    -0.237 OA
ATOM     87  O   UNL A   1      46.842  19.854  34.609  1.00  0.00    -0.237 OA
ATOM     88  O   UNL A   1      47.868  21.397  36.233  1.00  0.00    -0.744 OA
ENDBRANCH  84  85
ENDBRANCH  58  79
ENDBRANCH  32  33
ENDBRANCH  25  27
ENDBRANCH  24  25
ENDBRANCH  23  24
ENDBRANCH   1  23
TORSDOF 18
ENDMDL
MODEL 3
REMARK VINA RESULT:     -11.7      4.688     11.372
REMARK SMILES Cc1cccc(CS[C@@H]2CC[C@]([NH3+])(C(=O)OCCOC(=O)c3ccc(-c4c5nc(c(-c6ccc(S(=O)(=O)[O-])cc6)c6ccc([nH]6)c(-c6ccc(S(=O)(=O)[O-])cc6)c6nc(c(-c7ccc(S(=O)(=O)[O-])cc7)c7ccc4[nH]7)C=C6)C=C5)cc3)C2)c1
REMARK SMILES IDX 17 1 16 2 14 3 15 4 12 5 9 6 10 7 82 8 11 9 8 10 7 11 6 12
REMARK SMILES IDX 1 13 2 14 3 15 83 16 4 17 5 18 13 19 18 23 19 24 20 25 21 26
REMARK SMILES IDX 22 27 23 28 81 29 24 30 80 31 25 32 26 33 27 34 74 35 28 36
REMARK SMILES IDX 79 37 73 38 75 39 29 40 78 41 72 42 71 43 30 45 60 46 41 47
REMARK SMILES IDX 59 48 42 49 45 50 58 51 76 52 43 53 44 54 57 56 77 57 46 58
REMARK SMILES IDX 31 59 32 60 40 61 33 62 39 63 34 64 35 65 36 66 37 67 38 68
REMARK SMILES IDX 61 69 62 70 70 71 63 72 69 73 64 74 65 75 66 76 67 77 68 78
REMARK SMILES IDX 47 79 48 80 56 81 49 82 55 83 50 84 51 85 52 86 53 87 54 88
REMARK H PARENT 13 20 13 21 13 22 75 44 45 55
REMARK Flexibility Score: inf
ROOT
ATOM      1  C   UNL A   1      38.166  21.409  25.435  1.00  0.00     0.274 C 
ENDROOT
BRANCH   1   2
ATOM      2  O   UNL A   1      36.807  21.667  25.824  1.00  0.00    -0.457 OA
BRANCH   2   3
ATOM      3  C   UNL A   1      35.902  20.735  25.381  1.00  0.00     0.368 C 
ATOM      4  O   UNL A   1      36.221  19.760  24.724  1.00  0.00    -0.245 OA
BRANCH   3   5
ATOM      5  C   UNL A   1      34.426  21.093  25.723  1.00  0.00     0.193 C 
ATOM      6  C   UNL A   1      32.783  22.864  25.692  1.00  0.00     0.054 C 
ATOM      7  C   UNL A   1      33.795  23.246  26.758  1.00  0.00     0.022 C 
ATOM      8  C   UNL A   1      33.666  22.046  24.741  1.00  0.00     0.095 C 
ATOM      9  C   UNL A   1      34.458  21.900  27.059  1.00  0.00     0.082 C 
BRANCH   6  10
ATOM     10  S   UNL A   1      31.642  24.181  25.153  1.00  0.00    -0.154 SA
BRANCH  10  11
ATOM     11  C   UNL A   1      32.260  24.712  23.546  1.00  0.00     0.105 C 
BRANCH  11  12
ATOM     12  C   UNL A   1      32.545  26.174  23.379  1.00  0.00    -0.038 A 
ATOM     13  C   UNL A   1      30.436  29.096  22.374  1.00  0.00     0.044 C 
ATOM     14  C   UNL A   1      31.643  28.324  22.752  1.00  0.00    -0.051 A 
ATOM     15  C   UNL A   1      32.863  28.944  23.028  1.00  0.00     0.003 A 
ATOM     16  C   UNL A   1      31.488  26.959  22.934  1.00  0.00     0.008 A 
ATOM     17  C   UNL A   1      33.916  28.182  23.521  1.00  0.00     0.001 A 
ATOM     18  C   UNL A   1      33.750  26.807  23.720  1.00  0.00     0.004 A 
ENDBRANCH  11  12
ENDBRANCH  10  11
ENDBRANCH   6  10
BRANCH   5  19
ATOM     19  N   UNL A   1      33.645  19.841  25.911  1.00  0.00    -0.343 N 
ATOM     20  H   UNL A   1      32.841  20.029  26.508  1.00  0.00     0.345 HD
ATOM     21  H   UNL A   1      34.236  19.134  26.349  1.00  0.00     0.345 HD
ATOM     22  H   UNL A   1      33.324  19.501  25.004  1.00  0.00     0.345 HD
ENDBRANCH   5  19
ENDBRANCH   3   5
ENDBRANCH   2   3
ENDBRANCH   1   2
BRANCH   1  23
ATOM     23  C   UNL A   1      39.201  22.120  26.329  1.00  0.00     0.275 C 
BRANCH  23  24
ATOM     24  O   UNL A   1      39.460  23.540  26.159  1.00  0.00    -0.458 OA
BRANCH  24  25
ATOM     25  C   UNL A   1      40.367  24.199  26.928  1.00  0.00     0.338 C 
ATOM     26  O   UNL A   1      41.550  23.856  26.954  1.00  0.00    -0.246 OA
BRANCH  25  27
ATOM     27  C   UNL A   1      39.840  25.467  27.495  1.00  0.00     0.060 A 
ATOM     28  C   UNL A   1      39.100  25.416  28.680  1.00  0.00     0.016 A 
ATOM     29  C   UNL A   1      40.356  26.678  27.047  1.00  0.00     0.016 A 
ATOM     30  C   UNL A   1      39.100  26.511  29.550  1.00  0.00     0.010 A 
ATOM     31  C   UNL A   1      40.440  27.727  27.944  1.00  0.00     0.010 A 
ATOM     32  C   UNL A   1      39.859  27.638  29.226  1.00  0.00    -0.014 A 
BRANCH  32  33
ATOM     33  C   UNL A   1      39.818  28.901  29.974  1.00  0.00     0.031 A 
ATOM     34  C   UNL A   1      38.732  29.930  29.918  1.00  0.00     0.074 A 
ATOM     35  C   UNL A   1      40.961  29.089  30.675  1.00  0.00     0.049 A 
ATOM     36  N   UNL A   1      38.673  30.964  30.697  1.00  0.00    -0.248 NA
ATOM     37  C   UNL A   1      37.655  29.945  28.922  1.00  0.00     0.031 C 
ATOM     38  C   UNL A   1      41.326  30.133  31.610  1.00  0.00     0.029 A 
ATOM     39  N   UNL A   1      42.169  28.412  30.441  1.00  0.00    -0.354 N 
ATOM     40  C   UNL A   1      37.649  31.786  30.259  1.00  0.00     0.074 A 
ATOM     41  C   UNL A   1      36.950  31.043  29.238  1.00  0.00     0.031 C 
ATOM     42  C   UNL A   1      42.668  30.240  31.611  1.00  0.00     0.029 A 
ATOM     43  C   UNL A   1      43.178  29.351  30.573  1.00  0.00     0.049 A 
ATOM     44  H   UNL A   1      42.278  27.457  30.226  1.00  0.00     0.167 HD
ATOM     45  C   UNL A   1      37.628  33.119  30.543  1.00  0.00     0.031 A 
ATOM     46  C   UNL A   1      43.990  29.683  29.530  1.00  0.00     0.031 A 
ATOM     47  C   UNL A   1      38.943  33.597  30.957  1.00  0.00     0.049 A 
ATOM     48  C   UNL A   1      43.914  31.171  29.285  1.00  0.00     0.074 A 
ATOM     49  C   UNL A   1      39.684  33.406  32.106  1.00  0.00     0.029 A 
ATOM     50  N   UNL A   1      39.817  34.121  30.009  1.00  0.00    -0.354 N 
ATOM     51  N   UNL A   1      42.875  31.912  29.579  1.00  0.00    -0.248 NA
ATOM     52  C   UNL A   1      45.033  31.943  28.769  1.00  0.00     0.031 C 
ATOM     53  C   UNL A   1      41.051  33.603  31.768  1.00  0.00     0.029 A 
ATOM     54  C   UNL A   1      41.135  33.971  30.434  1.00  0.00     0.049 A 
ATOM     55  H   UNL A   1      39.542  34.538  29.160  1.00  0.00     0.167 HD
ATOM     56  C   UNL A   1      43.174  33.231  29.350  1.00  0.00     0.074 A 
ATOM     57  C   UNL A   1      44.546  33.192  28.861  1.00  0.00     0.031 C 
ATOM     58  C   UNL A   1      42.278  34.251  29.554  1.00  0.00     0.031 A 
BRANCH  45  59
ATOM     59  C   UNL A   1      36.368  33.937  30.684  1.00  0.00    -0.014 A 
ATOM     60  C   UNL A   1      36.169  34.540  31.947  1.00  0.00     0.010 A 
ATOM     61  C   UNL A   1      35.321  34.071  29.752  1.00  0.00     0.010 A 
ATOM     62  C   UNL A   1      34.979  35.187  32.293  1.00  0.00     0.020 A 
ATOM     63  C   UNL A   1      34.114  34.724  30.090  1.00  0.00     0.020 A 
ATOM     64  C   UNL A   1      33.944  35.258  31.368  1.00  0.00     0.054 A 
BRANCH  64  65
ATOM     65  S   UNL A   1      32.379  36.014  31.896  1.00  0.00     0.124 S 
ATOM     66  O   UNL A   1      32.834  37.123  32.731  1.00  0.00    -0.237 OA
ATOM     67  O   UNL A   1      31.766  36.396  30.628  1.00  0.00    -0.237 OA
ATOM     68  O   UNL A   1      31.698  34.940  32.617  1.00  0.00    -0.744 OA
ENDBRANCH  64  65
ENDBRANCH  45  59
BRANCH  46  69
ATOM     69  C   UNL A   1      44.235  28.596  28.516  1.00  0.00    -0.014 A 
ATOM     70  C   UNL A   1      44.038  28.933  27.152  1.00  0.00     0.010 A 
ATOM     71  C   UNL A   1      44.928  27.405  28.795  1.00  0.00     0.010 A 
ATOM     72  C   UNL A   1      44.621  28.194  26.115  1.00  0.00     0.020 A 
ATOM     73  C   UNL A   1      45.494  26.640  27.750  1.00  0.00     0.020 A 
ATOM     74  C   UNL A   1      45.373  27.064  26.421  1.00  0.00     0.054 A 
BRANCH  74  75
ATOM     75  S   UNL A   1      46.342  26.292  25.082  1.00  0.00     0.124 S 
ATOM     76  O   UNL A   1      46.417  27.364  24.096  1.00  0.00    -0.237 OA
ATOM     77  O   UNL A   1      47.595  25.972  25.762  1.00  0.00    -0.237 OA
ATOM     78  O   UNL A   1      45.519  25.144  24.707  1.00  0.00    -0.744 OA
ENDBRANCH  74  75
ENDBRANCH  46  69
BRANCH  58  79
ATOM     79  C   UNL A   1      42.460  35.634  28.968  1.00  0.00    -0.014 A 
ATOM     80  C   UNL A   1      43.164  36.665  29.616  1.00  0.00     0.010 A 
ATOM     81  C   UNL A   1      42.001  35.909  27.661  1.00  0.00     0.010 A 
ATOM     82  C   UNL A   1      43.277  37.943  29.062  1.00  0.00     0.020 A 
ATOM     83  C   UNL A   1      42.174  37.164  27.063  1.00  0.00     0.020 A 
ATOM     84  C   UNL A   1      42.768  38.189  27.792  1.00  0.00     0.054 A 
BRANCH  84  85
ATOM     85  S   UNL A   1      42.919  39.849  27.096  1.00  0.00     0.124 S 
ATOM     86  O   UNL A   1      44.092  39.705  26.237  1.00  0.00    -0.237 OA
ATOM     87  O   UNL A   1      41.650  40.025  26.394  1.00  0.00    -0.237 OA
ATOM     88  O   UNL A   1      43.098  40.700  28.269  1.00  0.00    -0.744 OA
ENDBRANCH  84  85
ENDBRANCH  58  79
ENDBRANCH  32  33
ENDBRANCH  25  27
ENDBRANCH  24  25
ENDBRANCH  23  24
ENDBRANCH   1  23
TORSDOF 18
ENDMDL
