MODEL 1
REMARK VINA RESULT:     -10.5      0.000      0.000
REMARK SMILES Cc1ccccc1/C=C1\SC(=S)N(CCC(=O)N[C@@H](C)C(=O)OCCOC(=O)c2ccc(-c3c4nc(c(-c5ccc(S(=O)(=O)[O-])cc5)c5ccc([nH]5)c(-c5ccc(S(=O)(=O)[O-])cc5)c5nc(c(-c6ccc(S(=O)(=O)[O-])cc6)c6ccc3[nH]6)C=C5)C=C4)cc2)C1=O
REMARK SMILES IDX 24 1 23 2 21 3 22 4 19 5 20 6 18 7 16 8 17 9 15 11 14 12
REMARK SMILES IDX 13 13 8 14 9 15 10 16 89 17 11 18 90 19 12 20 7 21 1 22 2 23
REMARK SMILES IDX 3 24 4 25 6 26 5 27 25 28 26 29 27 30 28 31 29 32 30 33
REMARK SMILES IDX 88 34 31 35 87 36 32 37 33 38 34 39 81 40 35 41 86 42 80 43
REMARK SMILES IDX 82 44 36 45 85 46 79 47 78 48 37 50 67 51 48 52 66 53 49 54
REMARK SMILES IDX 52 55 65 56 83 57 50 58 51 59 64 61 84 62 53 63 38 64 39 65
REMARK SMILES IDX 47 66 40 67 46 68 41 69 42 70 43 71 44 72 45 73 68 74 69 75
REMARK SMILES IDX 77 76 70 77 76 78 71 79 72 80 73 81 74 82 75 83 54 84 55 85
REMARK SMILES IDX 63 86 56 87 62 88 57 89 58 90 59 91 60 92 61 93
REMARK H PARENT 18 10 82 49 52 60
REMARK Flexibility Score: inf
ROOT
ATOM      1  C   UNL A   1      34.399  29.519  27.683  1.00  0.00     0.274 C 
ENDROOT
BRANCH   1   2
ATOM      2  O   UNL A   1      33.999  28.481  26.771  1.00  0.00    -0.461 OA
BRANCH   2   3
ATOM      3  C   UNL A   1      32.659  28.400  26.616  1.00  0.00     0.328 C 
ATOM      4  O   UNL A   1      31.893  28.102  27.530  1.00  0.00    -0.250 OA
BRANCH   3   5
ATOM      5  C   UNL A   1      32.148  28.786  25.222  1.00  0.00     0.189 C 
ATOM      6  C   UNL A   1      31.436  30.129  25.434  1.00  0.00     0.043 C 
BRANCH   5   7
ATOM      7  N   UNL A   1      31.260  27.928  24.439  1.00  0.00    -0.343 N 
ATOM      8  C   UNL A   1      31.650  27.123  23.398  1.00  0.00     0.222 C 
ATOM      9  O   UNL A   1      30.984  27.135  22.360  1.00  0.00    -0.275 OA
ATOM     10  H   UNL A   1      30.306  27.928  24.679  1.00  0.00     0.164 HD
BRANCH   8  11
ATOM     11  C   UNL A   1      32.816  26.166  23.555  1.00  0.00     0.122 C 
BRANCH  11  12
ATOM     12  C   UNL A   1      32.465  24.695  23.772  1.00  0.00     0.137 C 
BRANCH  12  13
ATOM     13  N   UNL A   1      33.482  23.950  24.537  1.00  0.00    -0.292 N 
ATOM     14  C   UNL A   1      37.201  23.639  25.190  1.00  0.00     0.029 C 
ATOM     15  C   UNL A   1      35.775  23.328  25.074  1.00  0.00     0.081 C 
ATOM     16  S   UNL A   1      34.590  22.348  26.121  1.00  0.00    -0.054 SA
ATOM     17  C   UNL A   1      34.730  23.637  24.002  1.00  0.00     0.266 C 
ATOM     18  C   UNL A   1      33.174  23.237  25.669  1.00  0.00     0.148 C 
ATOM     19  O   UNL A   1      34.896  23.356  22.816  1.00  0.00    -0.268 OA
ATOM     20  S   UNL A   1      31.749  23.124  26.532  1.00  0.00    -0.052 S 
BRANCH  14  21
ATOM     21  C   UNL A   1      38.721  23.531  26.222  1.00  0.00    -0.021 A 
ATOM     22  C   UNL A   1      40.158  20.869  26.436  1.00  0.00     0.045 C 
ATOM     23  C   UNL A   1      39.823  22.486  26.654  1.00  0.00    -0.044 A 
ATOM     24  C   UNL A   1      40.835  22.775  27.606  1.00  0.00     0.004 A 
ATOM     25  C   UNL A   1      40.862  23.944  28.283  1.00  0.00     0.000 A 
ATOM     26  C   UNL A   1      38.889  24.715  26.968  1.00  0.00     0.008 A 
ATOM     27  C   UNL A   1      39.895  24.887  27.973  1.00  0.00     0.001 A 
ENDBRANCH  14  21
ENDBRANCH  12  13
ENDBRANCH  11  12
ENDBRANCH   8  11
ENDBRANCH   5   7
ENDBRANCH   3   5
ENDBRANCH   2   3
ENDBRANCH   1   2
BRANCH   1  28
ATOM     28  C   UNL A   1      35.864  29.912  27.444  1.00  0.00     0.275 C 
BRANCH  28  29
ATOM     29  O   UNL A   1      36.802  29.266  28.331  1.00  0.00    -0.458 OA
BRANCH  29  30
ATOM     30  C   UNL A   1      37.369  30.042  29.309  1.00  0.00     0.338 C 
ATOM     31  O   UNL A   1      36.776  30.535  30.239  1.00  0.00    -0.246 OA
BRANCH  30  32
ATOM     32  C   UNL A   1      38.852  29.833  29.252  1.00  0.00     0.060 A 
ATOM     33  C   UNL A   1      39.764  30.554  30.017  1.00  0.00     0.016 A 
ATOM     34  C   UNL A   1      39.325  28.735  28.573  1.00  0.00     0.016 A 
ATOM     35  C   UNL A   1      41.131  30.171  30.099  1.00  0.00     0.010 A 
ATOM     36  C   UNL A   1      40.572  28.227  28.886  1.00  0.00     0.010 A 
ATOM     37  C   UNL A   1      41.579  28.925  29.622  1.00  0.00    -0.014 A 
BRANCH  37  38
ATOM     38  C   UNL A   1      43.198  28.487  29.399  1.00  0.00     0.031 A 
ATOM     39  C   UNL A   1      44.160  26.771  29.545  1.00  0.00     0.074 A 
ATOM     40  C   UNL A   1      43.259  29.536  28.459  1.00  0.00     0.049 A 
ATOM     41  N   UNL A   1      45.351  26.373  28.993  1.00  0.00    -0.248 NA
ATOM     42  C   UNL A   1      43.800  25.308  30.126  1.00  0.00     0.031 C 
ATOM     43  C   UNL A   1      42.938  29.634  26.958  1.00  0.00     0.029 A 
ATOM     44  N   UNL A   1      43.193  30.885  28.707  1.00  0.00    -0.354 N 
ATOM     45  C   UNL A   1      45.239  25.016  28.440  1.00  0.00     0.074 A 
ATOM     46  C   UNL A   1      44.381  24.371  29.367  1.00  0.00     0.031 C 
ATOM     47  C   UNL A   1      43.383  30.782  26.452  1.00  0.00     0.029 A 
ATOM     48  C   UNL A   1      43.696  31.569  27.588  1.00  0.00     0.049 A 
ATOM     49  H   UNL A   1      42.851  31.302  29.530  1.00  0.00     0.167 HD
ATOM     50  C   UNL A   1      45.666  24.547  27.184  1.00  0.00     0.031 A 
ATOM     51  C   UNL A   1      44.752  32.367  27.793  1.00  0.00     0.031 A 
ATOM     52  C   UNL A   1      46.421  25.529  26.343  1.00  0.00     0.049 A 
ATOM     53  C   UNL A   1      46.065  31.590  27.455  1.00  0.00     0.074 A 
ATOM     54  C   UNL A   1      46.354  25.911  25.002  1.00  0.00     0.029 A 
ATOM     55  N   UNL A   1      47.333  26.429  26.900  1.00  0.00    -0.354 N 
ATOM     56  N   UNL A   1      46.223  30.425  26.828  1.00  0.00    -0.248 NA
ATOM     57  C   UNL A   1      47.354  32.196  27.755  1.00  0.00     0.031 C 
ATOM     58  C   UNL A   1      46.973  27.198  24.852  1.00  0.00     0.029 A 
ATOM     59  C   UNL A   1      47.437  27.604  26.094  1.00  0.00     0.049 A 
ATOM     60  H   UNL A   1      47.836  26.274  27.732  1.00  0.00     0.167 HD
ATOM     61  C   UNL A   1      47.575  30.034  26.847  1.00  0.00     0.074 A 
ATOM     62  C   UNL A   1      48.211  31.282  27.272  1.00  0.00     0.031 C 
ATOM     63  C   UNL A   1      48.163  28.780  26.626  1.00  0.00     0.031 A 
BRANCH  50  64
ATOM     64  C   UNL A   1      45.261  23.162  26.454  1.00  0.00    -0.014 A 
ATOM     65  C   UNL A   1      46.286  22.441  25.775  1.00  0.00     0.010 A 
ATOM     66  C   UNL A   1      43.987  22.552  26.319  1.00  0.00     0.010 A 
ATOM     67  C   UNL A   1      46.092  21.264  25.014  1.00  0.00     0.020 A 
ATOM     68  C   UNL A   1      43.780  21.316  25.607  1.00  0.00     0.020 A 
ATOM     69  C   UNL A   1      44.839  20.682  24.952  1.00  0.00     0.054 A 
BRANCH  69  70
ATOM     70  S   UNL A   1      44.677  19.071  24.103  1.00  0.00     0.124 S 
ATOM     71  O   UNL A   1      43.582  18.430  24.828  1.00  0.00    -0.237 OA
ATOM     72  O   UNL A   1      44.365  19.461  22.729  1.00  0.00    -0.237 OA
ATOM     73  O   UNL A   1      45.986  18.446  24.280  1.00  0.00    -0.744 OA
ENDBRANCH  69  70
ENDBRANCH  50  64
BRANCH  51  74
ATOM     74  C   UNL A   1      44.201  33.300  28.907  1.00  0.00    -0.014 A 
ATOM     75  C   UNL A   1      45.037  33.285  30.082  1.00  0.00     0.010 A 
ATOM     76  C   UNL A   1      43.597  34.557  28.617  1.00  0.00     0.010 A 
ATOM     77  C   UNL A   1      45.425  34.463  30.761  1.00  0.00     0.020 A 
ATOM     78  C   UNL A   1      43.978  35.746  29.320  1.00  0.00     0.020 A 
ATOM     79  C   UNL A   1      44.914  35.695  30.362  1.00  0.00     0.054 A 
BRANCH  79  80
ATOM     80  S   UNL A   1      45.635  37.213  31.100  1.00  0.00     0.124 S 
ATOM     81  O   UNL A   1      44.512  37.767  31.845  1.00  0.00    -0.237 OA
ATOM     82  O   UNL A   1      46.725  36.679  31.916  1.00  0.00    -0.237 OA
ATOM     83  O   UNL A   1      46.066  37.991  29.940  1.00  0.00    -0.744 OA
ENDBRANCH  79  80
ENDBRANCH  51  74
BRANCH  63  84
ATOM     84  C   UNL A   1      49.630  28.435  26.962  1.00  0.00    -0.014 A 
ATOM     85  C   UNL A   1      50.115  28.153  28.241  1.00  0.00     0.010 A 
ATOM     86  C   UNL A   1      50.567  28.251  25.901  1.00  0.00     0.010 A 
ATOM     87  C   UNL A   1      51.459  27.841  28.467  1.00  0.00     0.020 A 
ATOM     88  C   UNL A   1      51.880  27.824  26.099  1.00  0.00     0.020 A 
ATOM     89  C   UNL A   1      52.333  27.677  27.396  1.00  0.00     0.054 A 
BRANCH  89  90
ATOM     90  S   UNL A   1      54.055  27.265  27.725  1.00  0.00     0.124 S 
ATOM     91  O   UNL A   1      54.025  25.806  27.654  1.00  0.00    -0.237 OA
ATOM     92  O   UNL A   1      54.756  27.933  26.631  1.00  0.00    -0.237 OA
ATOM     93  O   UNL A   1      54.301  27.823  29.052  1.00  0.00    -0.744 OA
ENDBRANCH  89  90
ENDBRANCH  63  84
ENDBRANCH  37  38
ENDBRANCH  30  32
ENDBRANCH  29  30
ENDBRANCH  28  29
ENDBRANCH   1  28
TORSDOF 19
ENDMDL
MODEL 2
REMARK VINA RESULT:     -10.2      5.465     10.778
REMARK SMILES Cc1ccccc1/C=C1\SC(=S)N(CCC(=O)N[C@@H](C)C(=O)OCCOC(=O)c2ccc(-c3c4nc(c(-c5ccc(S(=O)(=O)[O-])cc5)c5ccc([nH]5)c(-c5ccc(S(=O)(=O)[O-])cc5)c5nc(c(-c6ccc(S(=O)(=O)[O-])cc6)c6ccc3[nH]6)C=C5)C=C4)cc2)C1=O
REMARK SMILES IDX 24 1 23 2 21 3 22 4 19 5 20 6 18 7 16 8 17 9 15 11 14 12
REMARK SMILES IDX 13 13 8 14 9 15 10 16 89 17 11 18 90 19 12 20 7 21 1 22 2 23
REMARK SMILES IDX 3 24 4 25 6 26 5 27 25 28 26 29 27 30 28 31 29 32 30 33
REMARK SMILES IDX 88 34 31 35 87 36 32 37 33 38 34 39 81 40 35 41 86 42 80 43
REMARK SMILES IDX 82 44 36 45 85 46 79 47 78 48 37 50 67 51 48 52 66 53 49 54
REMARK SMILES IDX 52 55 65 56 83 57 50 58 51 59 64 61 84 62 53 63 38 64 39 65
REMARK SMILES IDX 47 66 40 67 46 68 41 69 42 70 43 71 44 72 45 73 68 74 69 75
REMARK SMILES IDX 77 76 70 77 76 78 71 79 72 80 73 81 74 82 75 83 54 84 55 85
REMARK SMILES IDX 63 86 56 87 62 88 57 89 58 90 59 91 60 92 61 93
REMARK H PARENT 18 10 82 49 52 60
REMARK Flexibility Score: inf
ROOT
ATOM      1  C   UNL A   1      34.092  33.240  33.196  1.00  0.00     0.274 C 
ENDROOT
BRANCH   1   2
ATOM      2  O   UNL A   1      33.419  34.466  32.860  1.00  0.00    -0.461 OA
BRANCH   2   3
ATOM      3  C   UNL A   1      34.239  35.541  32.875  1.00  0.00     0.328 C 
ATOM      4  O   UNL A   1      35.203  35.640  33.631  1.00  0.00    -0.250 OA
BRANCH   3   5
ATOM      5  C   UNL A   1      33.922  36.606  31.818  1.00  0.00     0.189 C 
ATOM      6  C   UNL A   1      33.748  37.902  32.621  1.00  0.00     0.043 C 
BRANCH   5   7
ATOM      7  N   UNL A   1      32.793  36.496  30.896  1.00  0.00    -0.343 N 
ATOM      8  C   UNL A   1      32.853  35.985  29.624  1.00  0.00     0.222 C 
ATOM      9  O   UNL A   1      32.305  36.605  28.710  1.00  0.00    -0.275 OA
ATOM     10  H   UNL A   1      31.918  36.815  31.215  1.00  0.00     0.164 HD
BRANCH   8  11
ATOM     11  C   UNL A   1      33.497  34.636  29.362  1.00  0.00     0.122 C 
BRANCH  11  12
ATOM     12  C   UNL A   1      32.981  33.859  28.152  1.00  0.00     0.137 C 
BRANCH  12  13
ATOM     13  N   UNL A   1      33.727  32.616  27.884  1.00  0.00    -0.292 N 
ATOM     14  C   UNL A   1      36.791  30.614  28.865  1.00  0.00     0.029 C 
ATOM     15  C   UNL A   1      35.661  31.151  28.104  1.00  0.00     0.081 C 
ATOM     16  S   UNL A   1      34.413  30.386  26.956  1.00  0.00    -0.054 SA
ATOM     17  C   UNL A   1      35.120  32.568  27.911  1.00  0.00     0.266 C 
ATOM     18  C   UNL A   1      33.151  31.529  27.277  1.00  0.00     0.148 C 
ATOM     19  O   UNL A   1      35.828  33.501  27.533  1.00  0.00    -0.268 OA
ATOM     20  S   UNL A   1      31.566  31.237  26.840  1.00  0.00    -0.052 S 
BRANCH  14  21
ATOM     21  C   UNL A   1      37.718  29.115  29.391  1.00  0.00    -0.021 A 
ATOM     22  C   UNL A   1      37.930  28.491  32.351  1.00  0.00     0.045 C 
ATOM     23  C   UNL A   1      38.111  28.330  30.704  1.00  0.00    -0.044 A 
ATOM     24  C   UNL A   1      38.980  27.208  30.705  1.00  0.00     0.004 A 
ATOM     25  C   UNL A   1      39.610  26.794  29.584  1.00  0.00     0.000 A 
ATOM     26  C   UNL A   1      38.407  28.557  28.296  1.00  0.00     0.008 A 
ATOM     27  C   UNL A   1      39.334  27.470  28.407  1.00  0.00     0.001 A 
ENDBRANCH  14  21
ENDBRANCH  12  13
ENDBRANCH  11  12
ENDBRANCH   8  11
ENDBRANCH   5   7
ENDBRANCH   3   5
ENDBRANCH   2   3
ENDBRANCH   1   2
BRANCH   1  28
ATOM     28  C   UNL A   1      34.777  32.643  31.958  1.00  0.00     0.275 C 
BRANCH  28  29
ATOM     29  O   UNL A   1      35.900  31.788  32.258  1.00  0.00    -0.458 OA
BRANCH  29  30
ATOM     30  C   UNL A   1      36.769  32.219  33.226  1.00  0.00     0.338 C 
ATOM     31  O   UNL A   1      36.682  31.967  34.405  1.00  0.00    -0.246 OA
BRANCH  30  32
ATOM     32  C   UNL A   1      38.017  32.689  32.540  1.00  0.00     0.060 A 
ATOM     33  C   UNL A   1      38.875  33.649  33.070  1.00  0.00     0.016 A 
ATOM     34  C   UNL A   1      38.451  31.991  31.439  1.00  0.00     0.016 A 
ATOM     35  C   UNL A   1      40.154  33.896  32.499  1.00  0.00     0.010 A 
ATOM     36  C   UNL A   1      39.785  32.049  31.079  1.00  0.00     0.010 A 
ATOM     37  C   UNL A   1      40.714  33.033  31.539  1.00  0.00    -0.014 A 
BRANCH  37  38
ATOM     38  C   UNL A   1      42.071  33.376  30.588  1.00  0.00     0.031 A 
ATOM     39  C   UNL A   1      42.479  34.808  29.294  1.00  0.00     0.074 A 
ATOM     40  C   UNL A   1      42.830  32.772  31.612  1.00  0.00     0.049 A 
ATOM     41  N   UNL A   1      43.686  35.281  28.847  1.00  0.00    -0.248 NA
ATOM     42  C   UNL A   1      41.617  35.957  28.556  1.00  0.00     0.031 C 
ATOM     43  C   UNL A   1      43.448  33.294  32.920  1.00  0.00     0.029 A 
ATOM     44  N   UNL A   1      42.856  31.445  31.961  1.00  0.00    -0.354 N 
ATOM     45  C   UNL A   1      43.691  36.750  28.820  1.00  0.00     0.074 A 
ATOM     46  C   UNL A   1      42.365  37.059  28.422  1.00  0.00     0.031 C 
ATOM     47  C   UNL A   1      44.283  32.396  33.440  1.00  0.00     0.029 A 
ATOM     48  C   UNL A   1      44.013  31.207  32.721  1.00  0.00     0.049 A 
ATOM     49  H   UNL A   1      42.179  30.774  31.719  1.00  0.00     0.167 HD
ATOM     50  C   UNL A   1      44.676  37.628  29.305  1.00  0.00     0.031 A 
ATOM     51  C   UNL A   1      44.875  30.300  32.240  1.00  0.00     0.031 A 
ATOM     52  C   UNL A   1      45.925  36.987  29.825  1.00  0.00     0.049 A 
ATOM     53  C   UNL A   1      45.996  31.027  31.429  1.00  0.00     0.074 A 
ATOM     54  C   UNL A   1      46.702  37.162  30.971  1.00  0.00     0.029 A 
ATOM     55  N   UNL A   1      46.487  35.863  29.212  1.00  0.00    -0.354 N 
ATOM     56  N   UNL A   1      46.291  32.325  31.367  1.00  0.00    -0.248 NA
ATOM     57  C   UNL A   1      46.958  30.240  30.673  1.00  0.00     0.031 C 
ATOM     58  C   UNL A   1      47.496  35.985  31.182  1.00  0.00     0.029 A 
ATOM     59  C   UNL A   1      47.224  35.089  30.158  1.00  0.00     0.049 A 
ATOM     60  H   UNL A   1      46.389  35.638  28.259  1.00  0.00     0.167 HD
ATOM     61  C   UNL A   1      47.302  32.555  30.416  1.00  0.00     0.074 A 
ATOM     62  C   UNL A   1      47.774  31.189  30.186  1.00  0.00     0.031 C 
ATOM     63  C   UNL A   1      47.696  33.739  29.774  1.00  0.00     0.031 A 
BRANCH  50  64
ATOM     64  C   UNL A   1      44.542  39.219  29.569  1.00  0.00    -0.014 A 
ATOM     65  C   UNL A   1      43.988  39.645  30.812  1.00  0.00     0.010 A 
ATOM     66  C   UNL A   1      44.840  40.305  28.706  1.00  0.00     0.010 A 
ATOM     67  C   UNL A   1      43.720  40.987  31.170  1.00  0.00     0.020 A 
ATOM     68  C   UNL A   1      44.639  41.683  29.080  1.00  0.00     0.020 A 
ATOM     69  C   UNL A   1      44.072  42.013  30.313  1.00  0.00     0.054 A 
BRANCH  69  70
ATOM     70  S   UNL A   1      43.864  43.734  30.895  1.00  0.00     0.124 S 
ATOM     71  O   UNL A   1      44.244  44.522  29.725  1.00  0.00    -0.237 OA
ATOM     72  O   UNL A   1      42.445  43.787  31.243  1.00  0.00    -0.237 OA
ATOM     73  O   UNL A   1      44.778  43.834  32.031  1.00  0.00    -0.744 OA
ENDBRANCH  69  70
ENDBRANCH  50  64
BRANCH  51  74
ATOM     74  C   UNL A   1      43.947  29.061  32.099  1.00  0.00    -0.014 A 
ATOM     75  C   UNL A   1      43.623  28.789  30.720  1.00  0.00     0.010 A 
ATOM     76  C   UNL A   1      44.088  27.907  32.921  1.00  0.00     0.010 A 
ATOM     77  C   UNL A   1      43.672  27.490  30.165  1.00  0.00     0.020 A 
ATOM     78  C   UNL A   1      44.118  26.591  32.357  1.00  0.00     0.020 A 
ATOM     79  C   UNL A   1      43.946  26.396  30.980  1.00  0.00     0.054 A 
BRANCH  79  80
ATOM     80  S   UNL A   1      44.251  24.773  30.179  1.00  0.00     0.124 S 
ATOM     81  O   UNL A   1      43.247  24.747  29.124  1.00  0.00    -0.237 OA
ATOM     82  O   UNL A   1      45.634  24.902  29.722  1.00  0.00    -0.237 OA
ATOM     83  O   UNL A   1      44.053  23.810  31.261  1.00  0.00    -0.744 OA
ENDBRANCH  79  80
ENDBRANCH  51  74
BRANCH  63  84
ATOM     84  C   UNL A   1      48.624  33.794  28.542  1.00  0.00    -0.014 A 
ATOM     85  C   UNL A   1      48.251  33.454  27.239  1.00  0.00     0.010 A 
ATOM     86  C   UNL A   1      49.932  34.352  28.676  1.00  0.00     0.010 A 
ATOM     87  C   UNL A   1      49.150  33.537  26.171  1.00  0.00     0.020 A 
ATOM     88  C   UNL A   1      50.797  34.552  27.599  1.00  0.00     0.020 A 
ATOM     89  C   UNL A   1      50.415  34.086  26.356  1.00  0.00     0.054 A 
BRANCH  89  90
ATOM     90  S   UNL A   1      51.541  34.186  24.954  1.00  0.00     0.124 S 
ATOM     91  O   UNL A   1      52.824  34.388  25.622  1.00  0.00    -0.237 OA
ATOM     92  O   UNL A   1      51.364  32.886  24.312  1.00  0.00    -0.237 OA
ATOM     93  O   UNL A   1      51.045  35.328  24.189  1.00  0.00    -0.744 OA
ENDBRANCH  89  90
ENDBRANCH  63  84
ENDBRANCH  37  38
ENDBRANCH  30  32
ENDBRANCH  29  30
ENDBRANCH  28  29
ENDBRANCH   1  28
TORSDOF 19
ENDMDL
MODEL 3
REMARK VINA RESULT:     -10.1      6.393     12.119
REMARK SMILES Cc1ccccc1/C=C1\SC(=S)N(CCC(=O)N[C@@H](C)C(=O)OCCOC(=O)c2ccc(-c3c4nc(c(-c5ccc(S(=O)(=O)[O-])cc5)c5ccc([nH]5)c(-c5ccc(S(=O)(=O)[O-])cc5)c5nc(c(-c6ccc(S(=O)(=O)[O-])cc6)c6ccc3[nH]6)C=C5)C=C4)cc2)C1=O
REMARK SMILES IDX 24 1 23 2 21 3 22 4 19 5 20 6 18 7 16 8 17 9 15 11 14 12
REMARK SMILES IDX 13 13 8 14 9 15 10 16 89 17 11 18 90 19 12 20 7 21 1 22 2 23
REMARK SMILES IDX 3 24 4 25 6 26 5 27 25 28 26 29 27 30 28 31 29 32 30 33
REMARK SMILES IDX 88 34 31 35 87 36 32 37 33 38 34 39 81 40 35 41 86 42 80 43
REMARK SMILES IDX 82 44 36 45 85 46 79 47 78 48 37 50 67 51 48 52 66 53 49 54
REMARK SMILES IDX 52 55 65 56 83 57 50 58 51 59 64 61 84 62 53 63 38 64 39 65
REMARK SMILES IDX 47 66 40 67 46 68 41 69 42 70 43 71 44 72 45 73 68 74 69 75
REMARK SMILES IDX 77 76 70 77 76 78 71 79 72 80 73 81 74 82 75 83 54 84 55 85
REMARK SMILES IDX 63 86 56 87 62 88 57 89 58 90 59 91 60 92 61 93
REMARK H PARENT 18 10 82 49 52 60
REMARK Flexibility Score: inf
ROOT
ATOM      1  C   UNL A   1      43.947  26.518  27.249  1.00  0.00     0.274 C 
ENDROOT
BRANCH   1   2
ATOM      2  O   UNL A   1      43.425  25.231  26.874  1.00  0.00    -0.461 OA
BRANCH   2   3
ATOM      3  C   UNL A   1      42.637  24.682  27.825  1.00  0.00     0.328 C 
ATOM      4  O   UNL A   1      43.003  24.516  28.986  1.00  0.00    -0.250 OA
BRANCH   3   5
ATOM      5  C   UNL A   1      41.212  24.347  27.366  1.00  0.00     0.189 C 
ATOM      6  C   UNL A   1      40.370  25.543  27.832  1.00  0.00     0.043 C 
BRANCH   5   7
ATOM      7  N   UNL A   1      40.517  23.126  27.770  1.00  0.00    -0.343 N 
ATOM      8  C   UNL A   1      40.791  21.866  27.302  1.00  0.00     0.222 C 
ATOM      9  O   UNL A   1      39.851  21.145  26.957  1.00  0.00    -0.275 OA
ATOM     10  H   UNL A   1      39.794  23.216  28.432  1.00  0.00     0.164 HD
BRANCH   8  11
ATOM     11  C   UNL A   1      42.211  21.332  27.300  1.00  0.00     0.122 C 
BRANCH  11  12
ATOM     12  C   UNL A   1      42.668  20.619  26.028  1.00  0.00     0.137 C 
BRANCH  12  13
ATOM     13  N   UNL A   1      43.961  21.103  25.510  1.00  0.00    -0.292 N 
ATOM     14  C   UNL A   1      46.214  24.138  25.257  1.00  0.00     0.029 C 
ATOM     15  C   UNL A   1      45.577  22.849  24.985  1.00  0.00     0.081 C 
ATOM     16  S   UNL A   1      46.222  21.196  24.422  1.00  0.00    -0.054 SA
ATOM     17  C   UNL A   1      44.119  22.388  24.997  1.00  0.00     0.266 C 
ATOM     18  C   UNL A   1      44.989  20.252  25.190  1.00  0.00     0.148 C 
ATOM     19  O   UNL A   1      43.238  22.966  24.361  1.00  0.00    -0.268 OA
ATOM     20  S   UNL A   1      45.148  18.604  25.405  1.00  0.00    -0.052 S 
BRANCH  14  21
ATOM     21  C   UNL A   1      47.790  25.075  25.405  1.00  0.00    -0.021 A 
ATOM     22  C   UNL A   1      49.252  25.069  28.061  1.00  0.00     0.045 C 
ATOM     23  C   UNL A   1      48.921  25.389  26.462  1.00  0.00    -0.044 A 
ATOM     24  C   UNL A   1      49.984  26.297  26.213  1.00  0.00     0.004 A 
ATOM     25  C   UNL A   1      50.043  27.032  25.081  1.00  0.00     0.000 A 
ATOM     26  C   UNL A   1      47.994  25.872  24.260  1.00  0.00     0.008 A 
ATOM     27  C   UNL A   1      49.054  26.827  24.132  1.00  0.00     0.001 A 
ENDBRANCH  14  21
ENDBRANCH  12  13
ENDBRANCH  11  12
ENDBRANCH   8  11
ENDBRANCH   5   7
ENDBRANCH   3   5
ENDBRANCH   2   3
ENDBRANCH   1   2
BRANCH   1  28
ATOM     28  C   UNL A   1      43.817  27.512  26.086  1.00  0.00     0.275 C 
BRANCH  28  29
ATOM     29  O   UNL A   1      43.277  28.797  26.463  1.00  0.00    -0.458 OA
BRANCH  29  30
ATOM     30  C   UNL A   1      41.916  28.945  26.389  1.00  0.00     0.338 C 
ATOM     31  O   UNL A   1      41.223  28.577  25.470  1.00  0.00    -0.246 OA
BRANCH  30  32
ATOM     32  C   UNL A   1      41.417  29.252  27.769  1.00  0.00     0.060 A 
ATOM     33  C   UNL A   1      40.078  29.184  28.140  1.00  0.00     0.016 A 
ATOM     34  C   UNL A   1      42.344  29.401  28.774  1.00  0.00     0.016 A 
ATOM     35  C   UNL A   1      39.680  29.260  29.503  1.00  0.00     0.010 A 
ATOM     36  C   UNL A   1      41.964  29.193  30.086  1.00  0.00     0.010 A 
ATOM     37  C   UNL A   1      40.613  29.162  30.552  1.00  0.00    -0.014 A 
BRANCH  37  38
ATOM     38  C   UNL A   1      40.304  29.529  32.174  1.00  0.00     0.031 A 
ATOM     39  C   UNL A   1      40.801  28.653  33.870  1.00  0.00     0.074 A 
ATOM     40  C   UNL A   1      40.281  30.880  31.771  1.00  0.00     0.049 A 
ATOM     41  N   UNL A   1      40.879  29.162  35.141  1.00  0.00    -0.248 NA
ATOM     42  C   UNL A   1      41.444  27.227  34.271  1.00  0.00     0.031 C 
ATOM     43  C   UNL A   1      41.370  31.952  31.596  1.00  0.00     0.029 A 
ATOM     44  N   UNL A   1      39.341  31.502  30.988  1.00  0.00    -0.354 N 
ATOM     45  C   UNL A   1      42.107  28.709  35.809  1.00  0.00     0.074 A 
ATOM     46  C   UNL A   1      42.252  27.382  35.327  1.00  0.00     0.031 C 
ATOM     47  C   UNL A   1      40.826  33.155  31.423  1.00  0.00     0.029 A 
ATOM     48  C   UNL A   1      39.459  32.890  31.167  1.00  0.00     0.049 A 
ATOM     49  H   UNL A   1      38.693  31.051  30.399  1.00  0.00     0.167 HD
ATOM     50  C   UNL A   1      43.037  29.471  36.538  1.00  0.00     0.031 A 
ATOM     51  C   UNL A   1      38.377  33.534  31.625  1.00  0.00     0.031 A 
ATOM     52  C   UNL A   1      42.680  30.911  36.748  1.00  0.00     0.049 A 
ATOM     53  C   UNL A   1      38.483  33.690  33.177  1.00  0.00     0.074 A 
ATOM     54  C   UNL A   1      43.379  32.112  36.624  1.00  0.00     0.029 A 
ATOM     55  N   UNL A   1      41.366  31.315  36.998  1.00  0.00    -0.354 N 
ATOM     56  N   UNL A   1      39.526  33.486  33.980  1.00  0.00    -0.248 NA
ATOM     57  C   UNL A   1      37.348  34.213  33.923  1.00  0.00     0.031 C 
ATOM     58  C   UNL A   1      42.438  33.188  36.492  1.00  0.00     0.029 A 
ATOM     59  C   UNL A   1      41.158  32.656  36.552  1.00  0.00     0.049 A 
ATOM     60  H   UNL A   1      40.678  30.754  37.423  1.00  0.00     0.167 HD
ATOM     61  C   UNL A   1      39.146  33.626  35.327  1.00  0.00     0.074 A 
ATOM     62  C   UNL A   1      37.836  34.260  35.174  1.00  0.00     0.031 C 
ATOM     63  C   UNL A   1      39.779  33.194  36.502  1.00  0.00     0.031 A 
BRANCH  50  64
ATOM     64  C   UNL A   1      44.531  29.046  36.989  1.00  0.00    -0.014 A 
ATOM     65  C   UNL A   1      44.665  28.054  38.004  1.00  0.00     0.010 A 
ATOM     66  C   UNL A   1      45.783  29.563  36.567  1.00  0.00     0.010 A 
ATOM     67  C   UNL A   1      45.886  27.628  38.577  1.00  0.00     0.020 A 
ATOM     68  C   UNL A   1      47.042  29.094  37.088  1.00  0.00     0.020 A 
ATOM     69  C   UNL A   1      47.083  28.130  38.098  1.00  0.00     0.054 A 
BRANCH  69  70
ATOM     70  S   UNL A   1      48.637  27.421  38.749  1.00  0.00     0.124 S 
ATOM     71  O   UNL A   1      48.374  25.984  38.725  1.00  0.00    -0.237 OA
ATOM     72  O   UNL A   1      49.633  27.885  37.785  1.00  0.00    -0.237 OA
ATOM     73  O   UNL A   1      48.759  28.004  40.084  1.00  0.00    -0.744 OA
ENDBRANCH  69  70
ENDBRANCH  50  64
BRANCH  51  74
ATOM     74  C   UNL A   1      37.320  33.123  30.562  1.00  0.00    -0.014 A 
ATOM     75  C   UNL A   1      36.039  32.838  31.160  1.00  0.00     0.010 A 
ATOM     76  C   UNL A   1      37.259  33.730  29.275  1.00  0.00     0.010 A 
ATOM     77  C   UNL A   1      34.823  33.330  30.635  1.00  0.00     0.020 A 
ATOM     78  C   UNL A   1      36.021  34.211  28.737  1.00  0.00     0.020 A 
ATOM     79  C   UNL A   1      34.819  34.038  29.436  1.00  0.00     0.054 A 
BRANCH  79  80
ATOM     80  S   UNL A   1      33.266  34.872  28.927  1.00  0.00     0.124 S 
ATOM     81  O   UNL A   1      32.713  33.942  27.950  1.00  0.00    -0.237 OA
ATOM     82  O   UNL A   1      32.530  34.966  30.187  1.00  0.00    -0.237 OA
ATOM     83  O   UNL A   1      33.721  36.153  28.388  1.00  0.00    -0.744 OA
ENDBRANCH  79  80
ENDBRANCH  51  74
BRANCH  63  84
ATOM     84  C   UNL A   1      39.109  33.161  37.892  1.00  0.00    -0.014 A 
ATOM     85  C   UNL A   1      39.432  34.001  38.959  1.00  0.00     0.010 A 
ATOM     86  C   UNL A   1      37.982  32.310  38.105  1.00  0.00     0.010 A 
ATOM     87  C   UNL A   1      38.774  33.915  40.190  1.00  0.00     0.020 A 
ATOM     88  C   UNL A   1      37.240  32.299  39.286  1.00  0.00     0.020 A 
ATOM     89  C   UNL A   1      37.682  33.066  40.346  1.00  0.00     0.054 A 
BRANCH  89  90
ATOM     90  S   UNL A   1      36.852  32.991  41.943  1.00  0.00     0.124 S 
ATOM     91  O   UNL A   1      36.375  34.363  42.091  1.00  0.00    -0.237 OA
ATOM     92  O   UNL A   1      35.817  31.986  41.715  1.00  0.00    -0.237 OA
ATOM     93  O   UNL A   1      37.910  32.591  42.868  1.00  0.00    -0.744 OA
ENDBRANCH  89  90
ENDBRANCH  63  84
ENDBRANCH  37  38
ENDBRANCH  30  32
ENDBRANCH  29  30
ENDBRANCH  28  29
ENDBRANCH   1  28
TORSDOF 19
ENDMDL
