MODEL 1
REMARK VINA RESULT:     -10.9      0.000      0.000
REMARK SMILES Cc1ccsc1CNC(=O)NC[C@H]1CC[C@@H](C(=O)OCCOC(=O)c2ccc(-c3c4nc(c(-c5ccc(S(=O)(=O)[O-])cc5)c5ccc([nH]5)c(-c5ccc(S(=O)(=O)[O-])cc5)c5nc(c(-c6ccc(S(=O)(=O)[O-])cc6)c6ccc3[nH]6)C=C5)C=C4)cc2)O1
REMARK SMILES IDX 20 1 19 2 17 3 18 4 16 5 13 6 14 7 85 8 15 9 12 10 11 11
REMARK SMILES IDX 8 12 9 13 10 15 7 17 6 18 1 19 2 20 3 21 4 22 5 23 21 24
REMARK SMILES IDX 22 25 23 26 24 27 25 28 26 29 84 30 27 31 83 32 28 33 29 34
REMARK SMILES IDX 30 35 77 36 31 37 82 38 76 39 78 40 32 41 81 42 75 43 74 44
REMARK SMILES IDX 33 46 63 47 44 48 62 49 45 50 48 51 61 52 79 53 46 54 47 55
REMARK SMILES IDX 60 57 80 58 49 59 34 60 35 61 43 62 36 63 42 64 37 65 38 66
REMARK SMILES IDX 39 67 40 68 41 69 64 70 65 71 73 72 66 73 72 74 67 75 68 76
REMARK SMILES IDX 69 77 70 78 71 79 50 80 51 81 59 82 52 83 58 84 53 85 54 86
REMARK SMILES IDX 55 87 56 88 57 89
REMARK H PARENT 8 14 11 16 78 45 48 56
REMARK Flexibility Score: inf
ROOT
ATOM      1  C   UNL A   1      31.918  30.058  25.665  1.00  0.00     0.274 C 
ENDROOT
BRANCH   1   2
ATOM      2  O   UNL A   1      31.290  28.887  25.108  1.00  0.00    -0.460 OA
BRANCH   2   3
ATOM      3  C   UNL A   1      32.014  28.274  24.127  1.00  0.00     0.335 C 
ATOM      4  O   UNL A   1      33.227  28.374  24.018  1.00  0.00    -0.249 OA
BRANCH   3   5
ATOM      5  C   UNL A   1      31.110  27.479  23.174  1.00  0.00     0.228 C 
ATOM      6  C   UNL A   1      30.241  25.522  24.134  1.00  0.00     0.138 C 
ATOM      7  C   UNL A   1      29.049  26.448  23.901  1.00  0.00     0.037 C 
ATOM      8  O   UNL A   1      31.293  26.064  23.324  1.00  0.00    -0.361 OA
ATOM      9  C   UNL A   1      29.632  27.754  23.386  1.00  0.00     0.047 C 
BRANCH   6  10
ATOM     10  C   UNL A   1      30.658  25.403  25.622  1.00  0.00     0.149 C 
BRANCH  10  11
ATOM     11  N   UNL A   1      29.894  24.444  26.400  1.00  0.00    -0.336 N 
ATOM     12  N   UNL A   1      31.060  22.354  26.406  1.00  0.00    -0.333 N 
ATOM     13  C   UNL A   1      30.137  23.208  26.863  1.00  0.00     0.315 C 
ATOM     14  H   UNL A   1      31.312  21.678  27.077  1.00  0.00     0.165 HD
ATOM     15  O   UNL A   1      29.454  22.843  27.824  1.00  0.00    -0.249 OA
ATOM     16  H   UNL A   1      28.998  24.773  26.641  1.00  0.00     0.165 HD
BRANCH  12  17
ATOM     17  C   UNL A   1      31.779  22.189  25.156  1.00  0.00     0.164 C 
BRANCH  17  18
ATOM     18  C   UNL A   1      33.067  22.998  25.058  1.00  0.00     0.027 A 
ATOM     19  C   UNL A   1      33.412  23.073  22.504  1.00  0.00     0.045 C 
ATOM     20  C   UNL A   1      33.698  23.477  23.908  1.00  0.00    -0.035 A 
ATOM     21  C   UNL A   1      34.634  24.522  24.223  1.00  0.00     0.015 A 
ATOM     22  C   UNL A   1      34.795  24.692  25.576  1.00  0.00     0.065 A 
ATOM     23  S   UNL A   1      33.964  23.485  26.441  1.00  0.00    -0.147 S 
ENDBRANCH  17  18
ENDBRANCH  12  17
ENDBRANCH  10  11
ENDBRANCH   6  10
ENDBRANCH   3   5
ENDBRANCH   2   3
ENDBRANCH   1   2
BRANCH   1  24
ATOM     24  C   UNL A   1      32.305  29.853  27.130  1.00  0.00     0.275 C 
BRANCH  24  25
ATOM     25  O   UNL A   1      33.726  29.650  27.281  1.00  0.00    -0.458 OA
BRANCH  25  26
ATOM     26  C   UNL A   1      34.453  30.682  27.779  1.00  0.00     0.338 C 
ATOM     27  O   UNL A   1      34.062  31.813  27.998  1.00  0.00    -0.246 OA
BRANCH  26  28
ATOM     28  C   UNL A   1      35.782  30.175  28.186  1.00  0.00     0.060 A 
ATOM     29  C   UNL A   1      36.758  30.080  27.203  1.00  0.00     0.016 A 
ATOM     30  C   UNL A   1      36.093  29.773  29.479  1.00  0.00     0.016 A 
ATOM     31  C   UNL A   1      38.064  29.676  27.492  1.00  0.00     0.010 A 
ATOM     32  C   UNL A   1      37.417  29.388  29.779  1.00  0.00     0.010 A 
ATOM     33  C   UNL A   1      38.433  29.377  28.797  1.00  0.00    -0.014 A 
BRANCH  33  34
ATOM     34  C   UNL A   1      39.823  28.903  29.089  1.00  0.00     0.031 A 
ATOM     35  C   UNL A   1      40.784  29.891  29.666  1.00  0.00     0.074 A 
ATOM     36  C   UNL A   1      40.246  27.627  28.933  1.00  0.00     0.049 A 
ATOM     37  N   UNL A   1      42.066  29.771  29.876  1.00  0.00    -0.248 NA
ATOM     38  C   UNL A   1      40.210  31.175  30.100  1.00  0.00     0.031 C 
ATOM     39  C   UNL A   1      39.399  26.491  28.602  1.00  0.00     0.029 A 
ATOM     40  N   UNL A   1      41.504  27.063  28.997  1.00  0.00    -0.354 N 
ATOM     41  C   UNL A   1      42.451  30.959  30.475  1.00  0.00     0.074 A 
ATOM     42  C   UNL A   1      41.286  31.814  30.524  1.00  0.00     0.031 C 
ATOM     43  C   UNL A   1      40.153  25.405  28.355  1.00  0.00     0.029 A 
ATOM     44  C   UNL A   1      41.552  25.755  28.548  1.00  0.00     0.049 A 
ATOM     45  H   UNL A   1      42.294  27.547  29.331  1.00  0.00     0.167 HD
ATOM     46  C   UNL A   1      43.657  31.293  30.982  1.00  0.00     0.031 A 
ATOM     47  C   UNL A   1      42.598  24.937  28.300  1.00  0.00     0.031 A 
ATOM     48  C   UNL A   1      44.815  30.446  30.949  1.00  0.00     0.049 A 
ATOM     49  C   UNL A   1      43.980  25.412  28.670  1.00  0.00     0.074 A 
ATOM     50  C   UNL A   1      46.086  30.716  31.420  1.00  0.00     0.029 A 
ATOM     51  N   UNL A   1      44.846  29.167  30.413  1.00  0.00    -0.354 N 
ATOM     52  N   UNL A   1      44.334  26.549  29.219  1.00  0.00    -0.248 NA
ATOM     53  C   UNL A   1      45.096  24.482  28.443  1.00  0.00     0.031 C 
ATOM     54  C   UNL A   1      46.901  29.621  31.119  1.00  0.00     0.029 A 
ATOM     55  C   UNL A   1      46.122  28.645  30.519  1.00  0.00     0.049 A 
ATOM     56  H   UNL A   1      44.074  28.701  30.017  1.00  0.00     0.167 HD
ATOM     57  C   UNL A   1      45.696  26.439  29.472  1.00  0.00     0.074 A 
ATOM     58  C   UNL A   1      46.107  25.134  29.000  1.00  0.00     0.031 C 
ATOM     59  C   UNL A   1      46.522  27.334  30.067  1.00  0.00     0.031 A 
BRANCH  46  60
ATOM     60  C   UNL A   1      43.764  32.663  31.580  1.00  0.00    -0.014 A 
ATOM     61  C   UNL A   1      43.582  32.868  32.961  1.00  0.00     0.010 A 
ATOM     62  C   UNL A   1      43.993  33.763  30.740  1.00  0.00     0.010 A 
ATOM     63  C   UNL A   1      43.564  34.162  33.480  1.00  0.00     0.020 A 
ATOM     64  C   UNL A   1      44.009  35.057  31.261  1.00  0.00     0.020 A 
ATOM     65  C   UNL A   1      43.771  35.249  32.624  1.00  0.00     0.054 A 
BRANCH  65  66
ATOM     66  S   UNL A   1      43.730  36.920  33.322  1.00  0.00     0.124 S 
ATOM     67  O   UNL A   1      42.465  36.908  34.052  1.00  0.00    -0.237 OA
ATOM     68  O   UNL A   1      44.933  36.948  34.150  1.00  0.00    -0.237 OA
ATOM     69  O   UNL A   1      43.763  37.786  32.147  1.00  0.00    -0.744 OA
ENDBRANCH  65  66
ENDBRANCH  46  60
BRANCH  47  70
ATOM     70  C   UNL A   1      42.415  23.585  27.682  1.00  0.00    -0.014 A 
ATOM     71  C   UNL A   1      42.167  22.451  28.478  1.00  0.00     0.010 A 
ATOM     72  C   UNL A   1      42.586  23.404  26.295  1.00  0.00     0.010 A 
ATOM     73  C   UNL A   1      42.141  21.168  27.916  1.00  0.00     0.020 A 
ATOM     74  C   UNL A   1      42.540  22.123  25.723  1.00  0.00     0.020 A 
ATOM     75  C   UNL A   1      42.337  21.011  26.541  1.00  0.00     0.054 A 
BRANCH  75  76
ATOM     76  S   UNL A   1      42.324  19.332  25.842  1.00  0.00     0.124 S 
ATOM     77  O   UNL A   1      40.899  19.106  25.614  1.00  0.00    -0.237 OA
ATOM     78  O   UNL A   1      43.137  19.482  24.638  1.00  0.00    -0.237 OA
ATOM     79  O   UNL A   1      42.922  18.514  26.894  1.00  0.00    -0.744 OA
ENDBRANCH  75  76
ENDBRANCH  47  70
BRANCH  59  80
ATOM     80  C   UNL A   1      47.947  26.920  30.316  1.00  0.00    -0.014 A 
ATOM     81  C   UNL A   1      48.990  27.315  29.463  1.00  0.00     0.010 A 
ATOM     82  C   UNL A   1      48.253  26.194  31.484  1.00  0.00     0.010 A 
ATOM     83  C   UNL A   1      50.314  26.981  29.767  1.00  0.00     0.020 A 
ATOM     84  C   UNL A   1      49.575  25.886  31.807  1.00  0.00     0.020 A 
ATOM     85  C   UNL A   1      50.598  26.275  30.941  1.00  0.00     0.054 A 
BRANCH  85  86
ATOM     86  S   UNL A   1      52.330  25.926  31.352  1.00  0.00     0.124 S 
ATOM     87  O   UNL A   1      52.221  24.668  32.086  1.00  0.00    -0.237 OA
ATOM     88  O   UNL A   1      52.958  25.836  30.036  1.00  0.00    -0.237 OA
ATOM     89  O   UNL A   1      52.736  27.080  32.152  1.00  0.00    -0.744 OA
ENDBRANCH  85  86
ENDBRANCH  59  80
ENDBRANCH  33  34
ENDBRANCH  26  28
ENDBRANCH  25  26
ENDBRANCH  24  25
ENDBRANCH   1  24
TORSDOF 18
ENDMDL
MODEL 2
REMARK VINA RESULT:     -10.6      1.800      3.385
REMARK SMILES Cc1ccsc1CNC(=O)NC[C@H]1CC[C@@H](C(=O)OCCOC(=O)c2ccc(-c3c4nc(c(-c5ccc(S(=O)(=O)[O-])cc5)c5ccc([nH]5)c(-c5ccc(S(=O)(=O)[O-])cc5)c5nc(c(-c6ccc(S(=O)(=O)[O-])cc6)c6ccc3[nH]6)C=C5)C=C4)cc2)O1
REMARK SMILES IDX 20 1 19 2 17 3 18 4 16 5 13 6 14 7 85 8 15 9 12 10 11 11
REMARK SMILES IDX 8 12 9 13 10 15 7 17 6 18 1 19 2 20 3 21 4 22 5 23 21 24
REMARK SMILES IDX 22 25 23 26 24 27 25 28 26 29 84 30 27 31 83 32 28 33 29 34
REMARK SMILES IDX 30 35 77 36 31 37 82 38 76 39 78 40 32 41 81 42 75 43 74 44
REMARK SMILES IDX 33 46 63 47 44 48 62 49 45 50 48 51 61 52 79 53 46 54 47 55
REMARK SMILES IDX 60 57 80 58 49 59 34 60 35 61 43 62 36 63 42 64 37 65 38 66
REMARK SMILES IDX 39 67 40 68 41 69 64 70 65 71 73 72 66 73 72 74 67 75 68 76
REMARK SMILES IDX 69 77 70 78 71 79 50 80 51 81 59 82 52 83 58 84 53 85 54 86
REMARK SMILES IDX 55 87 56 88 57 89
REMARK H PARENT 8 14 11 16 78 45 48 56
REMARK Flexibility Score: inf
ROOT
ATOM      1  C   UNL A   1      32.072  28.364  27.062  1.00  0.00     0.274 C 
ENDROOT
BRANCH   1   2
ATOM      2  O   UNL A   1      31.669  26.980  27.090  1.00  0.00    -0.460 OA
BRANCH   2   3
ATOM      3  C   UNL A   1      31.328  26.469  25.872  1.00  0.00     0.335 C 
ATOM      4  O   UNL A   1      30.486  26.969  25.140  1.00  0.00    -0.249 OA
BRANCH   3   5
ATOM      5  C   UNL A   1      32.108  25.183  25.563  1.00  0.00     0.228 C 
ATOM      6  C   UNL A   1      32.569  24.904  23.278  1.00  0.00     0.138 C 
ATOM      7  C   UNL A   1      33.917  25.119  23.962  1.00  0.00     0.037 C 
ATOM      8  O   UNL A   1      31.665  24.573  24.342  1.00  0.00    -0.361 OA
ATOM      9  C   UNL A   1      33.602  25.412  25.420  1.00  0.00     0.047 C 
BRANCH   6  10
ATOM     10  C   UNL A   1      32.080  26.127  22.462  1.00  0.00     0.149 C 
BRANCH  10  11
ATOM     11  N   UNL A   1      32.851  27.343  22.657  1.00  0.00    -0.336 N 
ATOM     12  N   UNL A   1      31.342  29.154  23.068  1.00  0.00    -0.333 N 
ATOM     13  C   UNL A   1      32.553  28.585  23.068  1.00  0.00     0.315 C 
ATOM     14  H   UNL A   1      31.276  29.897  23.711  1.00  0.00     0.165 HD
ATOM     15  O   UNL A   1      33.492  29.251  23.513  1.00  0.00    -0.249 OA
ATOM     16  H   UNL A   1      33.804  27.231  22.438  1.00  0.00     0.165 HD
BRANCH  12  17
ATOM     17  C   UNL A   1      30.102  28.934  22.347  1.00  0.00     0.164 C 
BRANCH  17  18
ATOM     18  C   UNL A   1      29.030  29.988  22.600  1.00  0.00     0.027 A 
ATOM     19  C   UNL A   1      27.054  28.512  23.354  1.00  0.00     0.045 C 
ATOM     20  C   UNL A   1      27.758  29.808  23.148  1.00  0.00    -0.035 A 
ATOM     21  C   UNL A   1      27.206  31.055  23.607  1.00  0.00     0.015 A 
ATOM     22  C   UNL A   1      27.985  32.131  23.262  1.00  0.00     0.065 A 
ATOM     23  S   UNL A   1      29.263  31.653  22.246  1.00  0.00    -0.147 S 
ENDBRANCH  17  18
ENDBRANCH  12  17
ENDBRANCH  10  11
ENDBRANCH   6  10
ENDBRANCH   3   5
ENDBRANCH   2   3
ENDBRANCH   1   2
BRANCH   1  24
ATOM     24  C   UNL A   1      33.585  28.518  27.218  1.00  0.00     0.275 C 
BRANCH  24  25
ATOM     25  O   UNL A   1      34.031  29.825  26.798  1.00  0.00    -0.458 OA
BRANCH  25  26
ATOM     26  C   UNL A   1      34.534  30.647  27.753  1.00  0.00     0.338 C 
ATOM     27  O   UNL A   1      33.963  31.576  28.292  1.00  0.00    -0.246 OA
BRANCH  26  28
ATOM     28  C   UNL A   1      35.856  30.134  28.176  1.00  0.00     0.060 A 
ATOM     29  C   UNL A   1      36.862  30.096  27.220  1.00  0.00     0.016 A 
ATOM     30  C   UNL A   1      36.132  29.674  29.458  1.00  0.00     0.016 A 
ATOM     31  C   UNL A   1      38.163  29.691  27.529  1.00  0.00     0.010 A 
ATOM     32  C   UNL A   1      37.452  29.289  29.780  1.00  0.00     0.010 A 
ATOM     33  C   UNL A   1      38.496  29.334  28.829  1.00  0.00    -0.014 A 
BRANCH  33  34
ATOM     34  C   UNL A   1      39.882  28.860  29.141  1.00  0.00     0.031 A 
ATOM     35  C   UNL A   1      40.829  29.843  29.749  1.00  0.00     0.074 A 
ATOM     36  C   UNL A   1      40.311  27.587  28.976  1.00  0.00     0.049 A 
ATOM     37  N   UNL A   1      42.107  29.723  29.982  1.00  0.00    -0.248 NA
ATOM     38  C   UNL A   1      40.242  31.119  30.189  1.00  0.00     0.031 C 
ATOM     39  C   UNL A   1      39.475  26.453  28.614  1.00  0.00     0.029 A 
ATOM     40  N   UNL A   1      41.570  27.027  29.055  1.00  0.00    -0.354 N 
ATOM     41  C   UNL A   1      42.477  30.904  30.604  1.00  0.00     0.074 A 
ATOM     42  C   UNL A   1      41.308  31.755  30.643  1.00  0.00     0.031 C 
ATOM     43  C   UNL A   1      40.236  25.374  28.365  1.00  0.00     0.029 A 
ATOM     44  C   UNL A   1      41.631  25.724  28.589  1.00  0.00     0.049 A 
ATOM     45  H   UNL A   1      42.352  27.508  29.411  1.00  0.00     0.167 HD
ATOM     46  C   UNL A   1      43.672  31.235  31.138  1.00  0.00     0.031 A 
ATOM     47  C   UNL A   1      42.683  24.913  28.350  1.00  0.00     0.031 A 
ATOM     48  C   UNL A   1      44.833  30.392  31.115  1.00  0.00     0.049 A 
ATOM     49  C   UNL A   1      44.057  25.387  28.752  1.00  0.00     0.074 A 
ATOM     50  C   UNL A   1      46.094  30.658  31.614  1.00  0.00     0.029 A 
ATOM     51  N   UNL A   1      44.878  29.120  30.563  1.00  0.00    -0.354 N 
ATOM     52  N   UNL A   1      44.397  26.518  29.323  1.00  0.00    -0.248 NA
ATOM     53  C   UNL A   1      45.180  24.463  28.533  1.00  0.00     0.031 C 
ATOM     54  C   UNL A   1      46.918  29.570  31.313  1.00  0.00     0.029 A 
ATOM     55  C   UNL A   1      46.154  28.600  30.685  1.00  0.00     0.049 A 
ATOM     56  H   UNL A   1      44.115  28.657  30.146  1.00  0.00     0.167 HD
ATOM     57  C   UNL A   1      45.755  26.408  29.600  1.00  0.00     0.074 A 
ATOM     58  C   UNL A   1      46.179  25.110  29.118  1.00  0.00     0.031 C 
ATOM     59  C   UNL A   1      46.566  27.297  30.223  1.00  0.00     0.031 A 
BRANCH  46  60
ATOM     60  C   UNL A   1      43.764  32.596  31.757  1.00  0.00    -0.014 A 
ATOM     61  C   UNL A   1      43.462  32.797  33.117  1.00  0.00     0.010 A 
ATOM     62  C   UNL A   1      44.101  33.696  30.951  1.00  0.00     0.010 A 
ATOM     63  C   UNL A   1      43.435  34.087  33.645  1.00  0.00     0.020 A 
ATOM     64  C   UNL A   1      44.106  34.985  31.485  1.00  0.00     0.020 A 
ATOM     65  C   UNL A   1      43.750  35.174  32.822  1.00  0.00     0.054 A 
BRANCH  65  66
ATOM     66  S   UNL A   1      43.694  36.840  33.530  1.00  0.00     0.124 S 
ATOM     67  O   UNL A   1      43.768  37.676  32.334  1.00  0.00    -0.237 OA
ATOM     68  O   UNL A   1      42.410  36.848  34.224  1.00  0.00    -0.237 OA
ATOM     69  O   UNL A   1      44.870  36.887  34.396  1.00  0.00    -0.744 OA
ENDBRANCH  65  66
ENDBRANCH  46  60
BRANCH  47  70
ATOM     70  C   UNL A   1      42.516  23.569  27.710  1.00  0.00    -0.014 A 
ATOM     71  C   UNL A   1      42.113  22.452  28.465  1.00  0.00     0.010 A 
ATOM     72  C   UNL A   1      42.856  23.375  26.356  1.00  0.00     0.010 A 
ATOM     73  C   UNL A   1      42.098  21.169  27.901  1.00  0.00     0.020 A 
ATOM     74  C   UNL A   1      42.821  22.096  25.780  1.00  0.00     0.020 A 
ATOM     75  C   UNL A   1      42.461  20.998  26.562  1.00  0.00     0.054 A 
BRANCH  75  76
ATOM     76  S   UNL A   1      42.457  19.319  25.863  1.00  0.00     0.124 S 
ATOM     77  O   UNL A   1      43.310  19.475  24.687  1.00  0.00    -0.237 OA
ATOM     78  O   UNL A   1      43.022  18.521  26.947  1.00  0.00    -0.237 OA
ATOM     79  O   UNL A   1      41.047  19.065  25.578  1.00  0.00    -0.744 OA
ENDBRANCH  75  76
ENDBRANCH  47  70
BRANCH  59  80
ATOM     80  C   UNL A   1      47.987  26.883  30.493  1.00  0.00    -0.014 A 
ATOM     81  C   UNL A   1      49.043  27.278  29.655  1.00  0.00     0.010 A 
ATOM     82  C   UNL A   1      48.276  26.158  31.666  1.00  0.00     0.010 A 
ATOM     83  C   UNL A   1      50.362  26.944  29.978  1.00  0.00     0.020 A 
ATOM     84  C   UNL A   1      49.594  25.851  32.008  1.00  0.00     0.020 A 
ATOM     85  C   UNL A   1      50.630  26.240  31.157  1.00  0.00     0.054 A 
BRANCH  85  86
ATOM     86  S   UNL A   1      52.355  25.892  31.594  1.00  0.00     0.124 S 
ATOM     87  O   UNL A   1      52.635  26.932  32.581  1.00  0.00    -0.237 OA
ATOM     88  O   UNL A   1      52.282  24.530  32.118  1.00  0.00    -0.237 OA
ATOM     89  O   UNL A   1      53.069  26.028  30.326  1.00  0.00    -0.744 OA
ENDBRANCH  85  86
ENDBRANCH  59  80
ENDBRANCH  33  34
ENDBRANCH  26  28
ENDBRANCH  25  26
ENDBRANCH  24  25
ENDBRANCH   1  24
TORSDOF 18
ENDMDL
MODEL 3
REMARK VINA RESULT:      -9.9      2.880      8.873
REMARK SMILES Cc1ccsc1CNC(=O)NC[C@H]1CC[C@@H](C(=O)OCCOC(=O)c2ccc(-c3c4nc(c(-c5ccc(S(=O)(=O)[O-])cc5)c5ccc([nH]5)c(-c5ccc(S(=O)(=O)[O-])cc5)c5nc(c(-c6ccc(S(=O)(=O)[O-])cc6)c6ccc3[nH]6)C=C5)C=C4)cc2)O1
REMARK SMILES IDX 20 1 19 2 17 3 18 4 16 5 13 6 14 7 85 8 15 9 12 10 11 11
REMARK SMILES IDX 8 12 9 13 10 15 7 17 6 18 1 19 2 20 3 21 4 22 5 23 21 24
REMARK SMILES IDX 22 25 23 26 24 27 25 28 26 29 84 30 27 31 83 32 28 33 29 34
REMARK SMILES IDX 30 35 77 36 31 37 82 38 76 39 78 40 32 41 81 42 75 43 74 44
REMARK SMILES IDX 33 46 63 47 44 48 62 49 45 50 48 51 61 52 79 53 46 54 47 55
REMARK SMILES IDX 60 57 80 58 49 59 34 60 35 61 43 62 36 63 42 64 37 65 38 66
REMARK SMILES IDX 39 67 40 68 41 69 64 70 65 71 73 72 66 73 72 74 67 75 68 76
REMARK SMILES IDX 69 77 70 78 71 79 50 80 51 81 59 82 52 83 58 84 53 85 54 86
REMARK SMILES IDX 55 87 56 88 57 89
REMARK H PARENT 8 14 11 16 78 45 48 56
REMARK Flexibility Score: inf
ROOT
ATOM      1  C   UNL A   1      31.914  27.691  26.869  1.00  0.00     0.274 C 
ENDROOT
BRANCH   1   2
ATOM      2  O   UNL A   1      32.148  26.445  26.183  1.00  0.00    -0.460 OA
BRANCH   2   3
ATOM      3  C   UNL A   1      31.180  25.504  26.382  1.00  0.00     0.335 C 
ATOM      4  O   UNL A   1      30.011  25.774  26.619  1.00  0.00    -0.249 OA
BRANCH   3   5
ATOM      5  C   UNL A   1      31.753  24.082  26.304  1.00  0.00     0.228 C 
ATOM      6  C   UNL A   1      31.344  23.028  24.246  1.00  0.00     0.138 C 
ATOM      7  C   UNL A   1      32.855  23.237  24.326  1.00  0.00     0.037 C 
ATOM      8  O   UNL A   1      30.878  23.194  25.593  1.00  0.00    -0.361 OA
ATOM      9  C   UNL A   1      33.100  24.020  25.605  1.00  0.00     0.047 C 
BRANCH   6  10
ATOM     10  C   UNL A   1      30.631  23.991  23.264  1.00  0.00     0.149 C 
BRANCH  10  11
ATOM     11  N   UNL A   1      31.516  24.831  22.475  1.00  0.00    -0.336 N 
ATOM     12  N   UNL A   1      31.155  27.117  23.083  1.00  0.00    -0.333 N 
ATOM     13  C   UNL A   1      31.852  26.129  22.508  1.00  0.00     0.315 C 
ATOM     14  H   UNL A   1      31.717  27.895  23.302  1.00  0.00     0.165 HD
ATOM     15  O   UNL A   1      32.925  26.428  21.977  1.00  0.00    -0.249 OA
ATOM     16  H   UNL A   1      31.971  24.336  21.756  1.00  0.00     0.165 HD
BRANCH  12  17
ATOM     17  C   UNL A   1      29.768  27.311  23.462  1.00  0.00     0.164 C 
BRANCH  17  18
ATOM     18  C   UNL A   1      29.134  28.581  22.904  1.00  0.00     0.027 A 
ATOM     19  C   UNL A   1      26.660  28.217  23.531  1.00  0.00     0.045 C 
ATOM     20  C   UNL A   1      27.816  29.019  23.043  1.00  0.00    -0.035 A 
ATOM     21  C   UNL A   1      27.697  30.421  22.745  1.00  0.00     0.015 A 
ATOM     22  C   UNL A   1      28.863  30.953  22.252  1.00  0.00     0.065 A 
ATOM     23  S   UNL A   1      30.020  29.734  21.987  1.00  0.00    -0.147 S 
ENDBRANCH  17  18
ENDBRANCH  12  17
ENDBRANCH  10  11
ENDBRANCH   6  10
ENDBRANCH   3   5
ENDBRANCH   2   3
ENDBRANCH   1   2
BRANCH   1  24
ATOM     24  C   UNL A   1      32.858  28.792  26.384  1.00  0.00     0.275 C 
BRANCH  24  25
ATOM     25  O   UNL A   1      34.058  28.852  27.183  1.00  0.00    -0.458 OA
BRANCH  25  26
ATOM     26  C   UNL A   1      34.550  30.082  27.476  1.00  0.00     0.338 C 
ATOM     27  O   UNL A   1      33.957  31.142  27.405  1.00  0.00    -0.246 OA
BRANCH  26  28
ATOM     28  C   UNL A   1      35.896  29.928  28.070  1.00  0.00     0.060 A 
ATOM     29  C   UNL A   1      35.967  29.485  29.385  1.00  0.00     0.016 A 
ATOM     30  C   UNL A   1      37.076  30.221  27.398  1.00  0.00     0.016 A 
ATOM     31  C   UNL A   1      37.188  29.244  30.019  1.00  0.00     0.010 A 
ATOM     32  C   UNL A   1      38.311  29.954  28.028  1.00  0.00     0.010 A 
ATOM     33  C   UNL A   1      38.383  29.420  29.334  1.00  0.00    -0.014 A 
BRANCH  33  34
ATOM     34  C   UNL A   1      39.686  29.201  30.037  1.00  0.00     0.031 A 
ATOM     35  C   UNL A   1      40.532  28.054  29.585  1.00  0.00     0.074 A 
ATOM     36  C   UNL A   1      40.181  30.009  31.003  1.00  0.00     0.049 A 
ATOM     37  N   UNL A   1      41.624  27.574  30.114  1.00  0.00    -0.248 NA
ATOM     38  C   UNL A   1      40.107  27.387  28.344  1.00  0.00     0.031 C 
ATOM     39  C   UNL A   1      39.612  31.284  31.411  1.00  0.00     0.029 A 
ATOM     40  N   UNL A   1      41.261  29.869  31.851  1.00  0.00    -0.354 N 
ATOM     41  C   UNL A   1      42.021  26.554  29.266  1.00  0.00     0.074 A 
ATOM     42  C   UNL A   1      41.016  26.434  28.234  1.00  0.00     0.031 C 
ATOM     43  C   UNL A   1      40.243  31.747  32.504  1.00  0.00     0.029 A 
ATOM     44  C   UNL A   1      41.301  30.814  32.863  1.00  0.00     0.049 A 
ATOM     45  H   UNL A   1      41.940  29.164  31.747  1.00  0.00     0.167 HD
ATOM     46  C   UNL A   1      43.148  25.811  29.315  1.00  0.00     0.031 A 
ATOM     47  C   UNL A   1      42.081  30.910  33.960  1.00  0.00     0.031 A 
ATOM     48  C   UNL A   1      44.157  25.931  30.329  1.00  0.00     0.049 A 
ATOM     49  C   UNL A   1      43.214  29.928  34.120  1.00  0.00     0.074 A 
ATOM     50  C   UNL A   1      45.322  25.201  30.468  1.00  0.00     0.029 A 
ATOM     51  N   UNL A   1      44.121  26.838  31.378  1.00  0.00    -0.354 N 
ATOM     52  N   UNL A   1      43.569  28.952  33.319  1.00  0.00    -0.248 NA
ATOM     53  C   UNL A   1      44.085  30.088  35.294  1.00  0.00     0.031 C 
ATOM     54  C   UNL A   1      45.964  25.626  31.634  1.00  0.00     0.029 A 
ATOM     55  C   UNL A   1      45.232  26.666  32.184  1.00  0.00     0.049 A 
ATOM     56  H   UNL A   1      43.411  27.503  31.527  1.00  0.00     0.167 HD
ATOM     57  C   UNL A   1      44.744  28.434  33.851  1.00  0.00     0.074 A 
ATOM     58  C   UNL A   1      45.031  29.190  35.051  1.00  0.00     0.031 C 
ATOM     59  C   UNL A   1      45.525  27.438  33.368  1.00  0.00     0.031 A 
BRANCH  46  60
ATOM     60  C   UNL A   1      43.303  24.777  28.242  1.00  0.00    -0.014 A 
ATOM     61  C   UNL A   1      42.846  23.459  28.432  1.00  0.00     0.010 A 
ATOM     62  C   UNL A   1      43.966  25.116  27.052  1.00  0.00     0.010 A 
ATOM     63  C   UNL A   1      43.107  22.482  27.472  1.00  0.00     0.020 A 
ATOM     64  C   UNL A   1      44.200  24.148  26.075  1.00  0.00     0.020 A 
ATOM     65  C   UNL A   1      43.790  22.833  26.302  1.00  0.00     0.054 A 
BRANCH  65  66
ATOM     66  S   UNL A   1      44.127  21.542  25.078  1.00  0.00     0.124 S 
ATOM     67  O   UNL A   1      43.050  20.591  25.341  1.00  0.00    -0.237 OA
ATOM     68  O   UNL A   1      44.030  22.267  23.815  1.00  0.00    -0.237 OA
ATOM     69  O   UNL A   1      45.467  21.076  25.426  1.00  0.00    -0.744 OA
ENDBRANCH  65  66
ENDBRANCH  46  60
BRANCH  47  70
ATOM     70  C   UNL A   1      41.854  31.961  35.002  1.00  0.00    -0.014 A 
ATOM     71  C   UNL A   1      40.964  31.744  36.070  1.00  0.00     0.010 A 
ATOM     72  C   UNL A   1      42.455  33.230  34.880  1.00  0.00     0.010 A 
ATOM     73  C   UNL A   1      40.642  32.777  36.961  1.00  0.00     0.020 A 
ATOM     74  C   UNL A   1      42.153  34.262  35.782  1.00  0.00     0.020 A 
ATOM     75  C   UNL A   1      41.233  34.033  36.806  1.00  0.00     0.054 A 
BRANCH  75  76
ATOM     76  S   UNL A   1      40.777  35.363  37.960  1.00  0.00     0.124 S 
ATOM     77  O   UNL A   1      41.709  36.425  37.588  1.00  0.00    -0.237 OA
ATOM     78  O   UNL A   1      39.377  35.609  37.626  1.00  0.00    -0.237 OA
ATOM     79  O   UNL A   1      41.004  34.772  39.277  1.00  0.00    -0.744 OA
ENDBRANCH  75  76
ENDBRANCH  47  70
BRANCH  59  80
ATOM     80  C   UNL A   1      46.812  27.140  34.088  1.00  0.00    -0.014 A 
ATOM     81  C   UNL A   1      46.884  26.168  35.099  1.00  0.00     0.010 A 
ATOM     82  C   UNL A   1      47.992  27.790  33.675  1.00  0.00     0.010 A 
ATOM     83  C   UNL A   1      48.112  25.859  35.693  1.00  0.00     0.020 A 
ATOM     84  C   UNL A   1      49.224  27.461  34.243  1.00  0.00     0.020 A 
ATOM     85  C   UNL A   1      49.275  26.501  35.255  1.00  0.00     0.054 A 
BRANCH  85  86
ATOM     86  S   UNL A   1      50.865  26.023  35.985  1.00  0.00     0.124 S 
ATOM     87  O   UNL A   1      51.262  27.245  36.680  1.00  0.00    -0.237 OA
ATOM     88  O   UNL A   1      50.496  24.901  36.845  1.00  0.00    -0.237 OA
ATOM     89  O   UNL A   1      51.685  25.670  34.828  1.00  0.00    -0.744 OA
ENDBRANCH  85  86
ENDBRANCH  59  80
ENDBRANCH  33  34
ENDBRANCH  26  28
ENDBRANCH  25  26
ENDBRANCH  24  25
ENDBRANCH   1  24
TORSDOF 18
ENDMDL
