MODEL 1
REMARK VINA RESULT:     -10.6      0.000      0.000
REMARK SMILES O=C(OCCOC(=O)[C@@H]1CC[C@@H](CNC(=O)c2ccno2)O1)c1ccc(-c2c3nc(c(-c4ccc(S(=O)(=O)[O-])cc4)c4ccc([nH]4)c(-c4ccc(S(=O)(=O)[O-])cc4)c4nc(c(-c5ccc(S(=O)(=O)[O-])cc5)c5ccc2[nH]5)C=C4)C=C3)cc1
REMARK SMILES IDX 4 1 3 2 2 3 1 4 23 5 24 6 82 7 25 8 81 9 26 10 27 11 28 12
REMARK SMILES IDX 75 13 29 14 80 15 74 16 76 17 30 18 79 19 73 20 72 21 31 23
REMARK SMILES IDX 61 24 42 25 60 26 43 27 46 28 59 29 77 30 44 31 45 32 58 34
REMARK SMILES IDX 78 35 47 36 32 37 33 38 41 39 34 40 40 41 35 42 36 43 37 44
REMARK SMILES IDX 38 45 39 46 62 47 63 48 71 49 64 50 70 51 65 52 66 53 67 54
REMARK SMILES IDX 68 55 69 56 48 57 49 58 57 59 50 60 56 61 51 62 52 63 53 64
REMARK SMILES IDX 54 65 55 66 5 67 6 68 7 69 8 70 9 71 10 72 22 73 11 74 12 75
REMARK SMILES IDX 13 76 14 77 15 78 16 80 17 81 18 82 21 83 19 84 20 85
REMARK H PARENT 76 22 46 33 14 79
REMARK Flexibility Score: inf
ROOT
ATOM      1  C   UNL A   1      34.861  32.569  31.284  1.00  0.00     0.275 C 
ENDROOT
BRANCH   1   2
ATOM      2  O   UNL A   1      35.537  31.333  30.991  1.00  0.00    -0.458 OA
BRANCH   2   3
ATOM      3  C   UNL A   1      36.615  30.773  31.590  1.00  0.00     0.338 C 
ATOM      4  O   UNL A   1      36.623  30.701  32.818  1.00  0.00    -0.246 OA
BRANCH   3   5
ATOM      5  C   UNL A   1      37.877  30.397  30.867  1.00  0.00     0.060 A 
ATOM      6  C   UNL A   1      38.108  30.469  29.493  1.00  0.00     0.016 A 
ATOM      7  C   UNL A   1      38.945  29.965  31.681  1.00  0.00     0.016 A 
ATOM      8  C   UNL A   1      39.372  30.206  28.955  1.00  0.00     0.010 A 
ATOM      9  C   UNL A   1      40.221  29.741  31.158  1.00  0.00     0.010 A 
ATOM     10  C   UNL A   1      40.437  29.849  29.782  1.00  0.00    -0.014 A 
BRANCH  10  11
ATOM     11  C   UNL A   1      41.709  29.401  29.173  1.00  0.00     0.031 A 
ATOM     12  C   UNL A   1      42.851  30.379  29.143  1.00  0.00     0.074 A 
ATOM     13  C   UNL A   1      41.859  28.138  28.730  1.00  0.00     0.049 A 
ATOM     14  N   UNL A   1      44.074  30.210  28.717  1.00  0.00    -0.248 NA
ATOM     15  C   UNL A   1      42.575  31.730  29.662  1.00  0.00     0.031 C 
ATOM     16  C   UNL A   1      40.824  27.100  28.749  1.00  0.00     0.029 A 
ATOM     17  N   UNL A   1      42.953  27.504  28.198  1.00  0.00    -0.354 N 
ATOM     18  C   UNL A   1      44.707  31.433  28.912  1.00  0.00     0.074 A 
ATOM     19  C   UNL A   1      43.721  32.349  29.435  1.00  0.00     0.031 C 
ATOM     20  C   UNL A   1      41.344  25.952  28.277  1.00  0.00     0.029 A 
ATOM     21  C   UNL A   1      42.738  26.177  27.902  1.00  0.00     0.049 A 
ATOM     22  H   UNL A   1      43.814  27.957  28.043  1.00  0.00     0.167 HD
ATOM     23  C   UNL A   1      46.002  31.758  28.705  1.00  0.00     0.031 A 
ATOM     24  C   UNL A   1      43.581  25.253  27.398  1.00  0.00     0.031 A 
ATOM     25  C   UNL A   1      46.976  30.840  28.187  1.00  0.00     0.049 A 
ATOM     26  C   UNL A   1      45.009  25.657  27.120  1.00  0.00     0.074 A 
ATOM     27  C   UNL A   1      48.313  31.060  27.920  1.00  0.00     0.029 A 
ATOM     28  N   UNL A   1      46.706  29.519  27.862  1.00  0.00    -0.354 N 
ATOM     29  N   UNL A   1      45.596  26.813  27.333  1.00  0.00    -0.248 NA
ATOM     30  C   UNL A   1      45.892  24.631  26.547  1.00  0.00     0.031 C 
ATOM     31  C   UNL A   1      48.844  29.880  27.390  1.00  0.00     0.029 A 
ATOM     32  C   UNL A   1      47.850  28.912  27.381  1.00  0.00     0.049 A 
ATOM     33  H   UNL A   1      45.831  29.080  27.959  1.00  0.00     0.167 HD
ATOM     34  C   UNL A   1      46.923  26.642  26.950  1.00  0.00     0.074 A 
ATOM     35  C   UNL A   1      47.055  25.269  26.506  1.00  0.00     0.031 C 
ATOM     36  C   UNL A   1      47.945  27.536  26.962  1.00  0.00     0.031 A 
BRANCH  23  37
ATOM     37  C   UNL A   1      46.406  33.173  29.018  1.00  0.00    -0.014 A 
ATOM     38  C   UNL A   1      46.869  33.529  30.299  1.00  0.00     0.010 A 
ATOM     39  C   UNL A   1      46.276  34.170  28.036  1.00  0.00     0.010 A 
ATOM     40  C   UNL A   1      47.135  34.864  30.610  1.00  0.00     0.020 A 
ATOM     41  C   UNL A   1      46.569  35.503  28.334  1.00  0.00     0.020 A 
ATOM     42  C   UNL A   1      46.972  35.845  29.627  1.00  0.00     0.054 A 
BRANCH  42  43
ATOM     43  S   UNL A   1      47.304  37.573  30.062  1.00  0.00     0.124 S 
ATOM     44  O   UNL A   1      47.634  38.151  28.761  1.00  0.00    -0.237 OA
ATOM     45  O   UNL A   1      46.034  38.009  30.637  1.00  0.00    -0.237 OA
ATOM     46  O   UNL A   1      48.416  37.486  31.005  1.00  0.00    -0.744 OA
ENDBRANCH  42  43
ENDBRANCH  23  37
BRANCH  24  47
ATOM     47  C   UNL A   1      43.115  23.861  27.128  1.00  0.00    -0.014 A 
ATOM     48  C   UNL A   1      42.941  22.940  28.178  1.00  0.00     0.010 A 
ATOM     49  C   UNL A   1      42.875  23.435  25.809  1.00  0.00     0.010 A 
ATOM     50  C   UNL A   1      42.576  21.614  27.911  1.00  0.00     0.020 A 
ATOM     51  C   UNL A   1      42.482  22.119  25.540  1.00  0.00     0.020 A 
ATOM     52  C   UNL A   1      42.356  21.211  26.592  1.00  0.00     0.054 A 
BRANCH  52  53
ATOM     53  S   UNL A   1      41.901  19.483  26.269  1.00  0.00     0.124 S 
ATOM     54  O   UNL A   1      42.644  19.199  25.044  1.00  0.00    -0.237 OA
ATOM     55  O   UNL A   1      42.377  18.800  27.468  1.00  0.00    -0.237 OA
ATOM     56  O   UNL A   1      40.448  19.532  26.116  1.00  0.00    -0.744 OA
ENDBRANCH  52  53
ENDBRANCH  24  47
BRANCH  36  57
ATOM     57  C   UNL A   1      49.299  27.051  26.520  1.00  0.00    -0.014 A 
ATOM     58  C   UNL A   1      50.146  26.356  27.399  1.00  0.00     0.010 A 
ATOM     59  C   UNL A   1      49.684  27.213  25.176  1.00  0.00     0.010 A 
ATOM     60  C   UNL A   1      51.365  25.847  26.947  1.00  0.00     0.020 A 
ATOM     61  C   UNL A   1      50.888  26.681  24.713  1.00  0.00     0.020 A 
ATOM     62  C   UNL A   1      51.725  26.009  25.605  1.00  0.00     0.054 A 
BRANCH  62  63
ATOM     63  S   UNL A   1      53.280  25.275  25.026  1.00  0.00     0.124 S 
ATOM     64  O   UNL A   1      53.289  25.657  23.616  1.00  0.00    -0.237 OA
ATOM     65  O   UNL A   1      54.277  25.936  25.864  1.00  0.00    -0.237 OA
ATOM     66  O   UNL A   1      53.106  23.847  25.284  1.00  0.00    -0.744 OA
ENDBRANCH  62  63
ENDBRANCH  36  57
ENDBRANCH  10  11
ENDBRANCH   3   5
ENDBRANCH   2   3
ENDBRANCH   1   2
BRANCH   1  67
ATOM     67  C   UNL A   1      34.622  33.435  30.044  1.00  0.00     0.274 C 
BRANCH  67  68
ATOM     68  O   UNL A   1      33.765  32.780  29.098  1.00  0.00    -0.460 OA
BRANCH  68  69
ATOM     69  C   UNL A   1      34.368  32.163  28.037  1.00  0.00     0.335 C 
ATOM     70  O   UNL A   1      35.415  32.525  27.515  1.00  0.00    -0.249 OA
BRANCH  69  71
ATOM     71  C   UNL A   1      33.587  30.899  27.654  1.00  0.00     0.228 C 
ATOM     72  C   UNL A   1      34.546  29.773  27.300  1.00  0.00     0.047 C 
ATOM     73  O   UNL A   1      32.713  31.011  26.524  1.00  0.00    -0.361 OA
ATOM     74  C   UNL A   1      33.632  28.834  26.562  1.00  0.00     0.037 C 
ATOM     75  C   UNL A   1      32.850  29.821  25.714  1.00  0.00     0.138 C 
BRANCH  75  76
ATOM     76  C   UNL A   1      31.503  29.250  25.233  1.00  0.00     0.148 C 
BRANCH  76  77
ATOM     77  N   UNL A   1      31.510  28.855  23.837  1.00  0.00    -0.347 N 
ATOM     78  C   UNL A   1      30.449  28.845  22.958  1.00  0.00     0.289 C 
ATOM     79  H   UNL A   1      32.376  28.560  23.475  1.00  0.00     0.164 HD
ATOM     80  O   UNL A   1      30.520  28.082  21.997  1.00  0.00    -0.266 OA
BRANCH  78  81
ATOM     81  C   UNL A   1      29.331  29.720  23.208  1.00  0.00     0.224 A 
ATOM     82  C   UNL A   1      29.228  31.029  23.628  1.00  0.00     0.079 A 
ATOM     83  O   UNL A   1      28.076  29.241  22.968  1.00  0.00    -0.351 OA
ATOM     84  C   UNL A   1      27.848  31.275  23.671  1.00  0.00     0.159 A 
ATOM     85  N   UNL A   1      27.136  30.211  23.298  1.00  0.00    -0.088 NA
ENDBRANCH  78  81
ENDBRANCH  76  77
ENDBRANCH  75  76
ENDBRANCH  69  71
ENDBRANCH  68  69
ENDBRANCH  67  68
ENDBRANCH   1  67
TORSDOF 17
ENDMDL
MODEL 2
REMARK VINA RESULT:     -10.5      4.508      6.614
REMARK SMILES O=C(OCCOC(=O)[C@@H]1CC[C@@H](CNC(=O)c2ccno2)O1)c1ccc(-c2c3nc(c(-c4ccc(S(=O)(=O)[O-])cc4)c4ccc([nH]4)c(-c4ccc(S(=O)(=O)[O-])cc4)c4nc(c(-c5ccc(S(=O)(=O)[O-])cc5)c5ccc2[nH]5)C=C4)C=C3)cc1
REMARK SMILES IDX 4 1 3 2 2 3 1 4 23 5 24 6 82 7 25 8 81 9 26 10 27 11 28 12
REMARK SMILES IDX 75 13 29 14 80 15 74 16 76 17 30 18 79 19 73 20 72 21 31 23
REMARK SMILES IDX 61 24 42 25 60 26 43 27 46 28 59 29 77 30 44 31 45 32 58 34
REMARK SMILES IDX 78 35 47 36 32 37 33 38 41 39 34 40 40 41 35 42 36 43 37 44
REMARK SMILES IDX 38 45 39 46 62 47 63 48 71 49 64 50 70 51 65 52 66 53 67 54
REMARK SMILES IDX 68 55 69 56 48 57 49 58 57 59 50 60 56 61 51 62 52 63 53 64
REMARK SMILES IDX 54 65 55 66 5 67 6 68 7 69 8 70 9 71 10 72 22 73 11 74 12 75
REMARK SMILES IDX 13 76 14 77 15 78 16 80 17 81 18 82 21 83 19 84 20 85
REMARK H PARENT 76 22 46 33 14 79
REMARK Flexibility Score: inf
ROOT
ATOM      1  C   UNL A   1      34.544  32.880  28.002  1.00  0.00     0.275 C 
ENDROOT
BRANCH   1   2
ATOM      2  O   UNL A   1      33.916  31.586  28.005  1.00  0.00    -0.458 OA
BRANCH   2   3
ATOM      3  C   UNL A   1      34.431  30.372  27.695  1.00  0.00     0.338 C 
ATOM      4  O   UNL A   1      33.658  29.495  27.314  1.00  0.00    -0.246 OA
BRANCH   3   5
ATOM      5  C   UNL A   1      35.855  29.971  27.958  1.00  0.00     0.060 A 
ATOM      6  C   UNL A   1      36.919  30.025  27.057  1.00  0.00     0.016 A 
ATOM      7  C   UNL A   1      36.138  29.533  29.269  1.00  0.00     0.016 A 
ATOM      8  C   UNL A   1      38.227  29.738  27.462  1.00  0.00     0.010 A 
ATOM      9  C   UNL A   1      37.446  29.286  29.693  1.00  0.00     0.010 A 
ATOM     10  C   UNL A   1      38.501  29.376  28.781  1.00  0.00    -0.014 A 
BRANCH  10  11
ATOM     11  C   UNL A   1      39.857  28.904  29.136  1.00  0.00     0.031 A 
ATOM     12  C   UNL A   1      40.707  29.802  29.992  1.00  0.00     0.074 A 
ATOM     13  C   UNL A   1      40.285  27.682  28.766  1.00  0.00     0.049 A 
ATOM     14  N   UNL A   1      41.900  29.593  30.481  1.00  0.00    -0.248 NA
ATOM     15  C   UNL A   1      40.133  31.113  30.343  1.00  0.00     0.031 C 
ATOM     16  C   UNL A   1      39.524  26.718  27.967  1.00  0.00     0.029 A 
ATOM     17  N   UNL A   1      41.461  27.029  29.038  1.00  0.00    -0.354 N 
ATOM     18  C   UNL A   1      42.217  30.747  31.189  1.00  0.00     0.074 A 
ATOM     19  C   UNL A   1      41.124  31.673  31.017  1.00  0.00     0.031 C 
ATOM     20  C   UNL A   1      40.242  25.587  27.838  1.00  0.00     0.029 A 
ATOM     21  C   UNL A   1      41.521  25.754  28.525  1.00  0.00     0.049 A 
ATOM     22  H   UNL A   1      42.195  27.436  29.554  1.00  0.00     0.167 HD
ATOM     23  C   UNL A   1      43.309  31.003  31.944  1.00  0.00     0.031 A 
ATOM     24  C   UNL A   1      42.497  24.827  28.615  1.00  0.00     0.031 A 
ATOM     25  C   UNL A   1      44.391  30.076  32.112  1.00  0.00     0.049 A 
ATOM     26  C   UNL A   1      43.733  25.160  29.416  1.00  0.00     0.074 A 
ATOM     27  C   UNL A   1      45.555  30.230  32.839  1.00  0.00     0.029 A 
ATOM     28  N   UNL A   1      44.431  28.812  31.541  1.00  0.00    -0.354 N 
ATOM     29  N   UNL A   1      44.006  26.248  30.098  1.00  0.00    -0.248 NA
ATOM     30  C   UNL A   1      44.787  24.136  29.470  1.00  0.00     0.031 C 
ATOM     31  C   UNL A   1      46.322  29.072  32.671  1.00  0.00     0.029 A 
ATOM     32  C   UNL A   1      45.608  28.178  31.886  1.00  0.00     0.049 A 
ATOM     33  H   UNL A   1      43.725  28.425  30.974  1.00  0.00     0.167 HD
ATOM     34  C   UNL A   1      45.248  26.026  30.688  1.00  0.00     0.074 A 
ATOM     35  C   UNL A   1      45.664  24.696  30.293  1.00  0.00     0.031 C 
ATOM     36  C   UNL A   1      45.981  26.845  31.484  1.00  0.00     0.031 A 
BRANCH  23  37
ATOM     37  C   UNL A   1      43.376  32.352  32.606  1.00  0.00    -0.014 A 
ATOM     38  C   UNL A   1      44.018  33.438  31.979  1.00  0.00     0.010 A 
ATOM     39  C   UNL A   1      42.833  32.527  33.890  1.00  0.00     0.010 A 
ATOM     40  C   UNL A   1      44.170  34.653  32.650  1.00  0.00     0.020 A 
ATOM     41  C   UNL A   1      42.957  33.751  34.553  1.00  0.00     0.020 A 
ATOM     42  C   UNL A   1      43.648  34.798  33.938  1.00  0.00     0.054 A 
BRANCH  42  43
ATOM     43  S   UNL A   1      43.878  36.379  34.796  1.00  0.00     0.124 S 
ATOM     44  O   UNL A   1      45.320  36.385  35.029  1.00  0.00    -0.237 OA
ATOM     45  O   UNL A   1      43.396  37.349  33.815  1.00  0.00    -0.237 OA
ATOM     46  O   UNL A   1      43.053  36.246  35.994  1.00  0.00    -0.744 OA
ENDBRANCH  42  43
ENDBRANCH  23  37
BRANCH  24  47
ATOM     47  C   UNL A   1      42.355  23.501  27.944  1.00  0.00    -0.014 A 
ATOM     48  C   UNL A   1      41.383  22.576  28.369  1.00  0.00     0.010 A 
ATOM     49  C   UNL A   1      43.219  23.139  26.894  1.00  0.00     0.010 A 
ATOM     50  C   UNL A   1      41.305  21.305  27.786  1.00  0.00     0.020 A 
ATOM     51  C   UNL A   1      43.125  21.881  26.288  1.00  0.00     0.020 A 
ATOM     52  C   UNL A   1      42.182  20.963  26.754  1.00  0.00     0.054 A 
BRANCH  52  53
ATOM     53  S   UNL A   1      42.073  19.304  26.025  1.00  0.00     0.124 S 
ATOM     54  O   UNL A   1      42.648  18.473  27.080  1.00  0.00    -0.237 OA
ATOM     55  O   UNL A   1      40.637  19.146  25.810  1.00  0.00    -0.237 OA
ATOM     56  O   UNL A   1      42.877  19.408  24.809  1.00  0.00    -0.744 OA
ENDBRANCH  52  53
ENDBRANCH  24  47
BRANCH  36  57
ATOM     57  C   UNL A   1      47.286  26.315  32.013  1.00  0.00    -0.014 A 
ATOM     58  C   UNL A   1      47.344  25.591  33.215  1.00  0.00     0.010 A 
ATOM     59  C   UNL A   1      48.454  26.465  31.243  1.00  0.00     0.010 A 
ATOM     60  C   UNL A   1      48.553  25.041  33.648  1.00  0.00     0.020 A 
ATOM     61  C   UNL A   1      49.657  25.893  31.657  1.00  0.00     0.020 A 
ATOM     62  C   UNL A   1      49.700  25.192  32.863  1.00  0.00     0.054 A 
BRANCH  62  63
ATOM     63  S   UNL A   1      51.241  24.407  33.411  1.00  0.00     0.124 S 
ATOM     64  O   UNL A   1      51.631  23.646  32.228  1.00  0.00    -0.237 OA
ATOM     65  O   UNL A   1      52.088  25.553  33.731  1.00  0.00    -0.237 OA
ATOM     66  O   UNL A   1      50.830  23.604  34.562  1.00  0.00    -0.744 OA
ENDBRANCH  62  63
ENDBRANCH  36  57
ENDBRANCH  10  11
ENDBRANCH   3   5
ENDBRANCH   2   3
ENDBRANCH   1   2
BRANCH   1  67
ATOM     67  C   UNL A   1      33.544  34.037  28.052  1.00  0.00     0.274 C 
BRANCH  67  68
ATOM     68  O   UNL A   1      34.169  35.261  28.462  1.00  0.00    -0.460 OA
BRANCH  68  69
ATOM     69  C   UNL A   1      33.393  36.158  29.142  1.00  0.00     0.335 C 
ATOM     70  O   UNL A   1      32.912  37.177  28.662  1.00  0.00    -0.249 OA
BRANCH  69  71
ATOM     71  C   UNL A   1      33.140  35.655  30.569  1.00  0.00     0.228 C 
ATOM     72  C   UNL A   1      33.268  36.800  31.563  1.00  0.00     0.047 C 
ATOM     73  O   UNL A   1      34.031  34.643  31.052  1.00  0.00    -0.361 OA
ATOM     74  C   UNL A   1      33.426  36.047  32.855  1.00  0.00     0.037 C 
ATOM     75  C   UNL A   1      34.384  34.952  32.420  1.00  0.00     0.138 C 
BRANCH  75  76
ATOM     76  C   UNL A   1      34.347  33.729  33.354  1.00  0.00     0.148 C 
BRANCH  76  77
ATOM     77  N   UNL A   1      34.796  34.018  34.702  1.00  0.00    -0.347 N 
ATOM     78  C   UNL A   1      36.058  33.842  35.227  1.00  0.00     0.289 C 
ATOM     79  H   UNL A   1      34.120  34.385  35.315  1.00  0.00     0.164 HD
ATOM     80  O   UNL A   1      36.150  33.704  36.444  1.00  0.00    -0.266 OA
BRANCH  78  81
ATOM     81  C   UNL A   1      37.188  33.832  34.331  1.00  0.00     0.224 A 
ATOM     82  C   UNL A   1      37.644  32.932  33.392  1.00  0.00     0.079 A 
ATOM     83  O   UNL A   1      38.007  34.924  34.320  1.00  0.00    -0.351 OA
ATOM     84  C   UNL A   1      38.801  33.528  32.869  1.00  0.00     0.159 A 
ATOM     85  N   UNL A   1      39.049  34.715  33.424  1.00  0.00    -0.088 NA
ENDBRANCH  78  81
ENDBRANCH  76  77
ENDBRANCH  75  76
ENDBRANCH  69  71
ENDBRANCH  68  69
ENDBRANCH  67  68
ENDBRANCH   1  67
TORSDOF 17
ENDMDL
MODEL 3
REMARK VINA RESULT:     -10.3      6.788     13.918
REMARK SMILES O=C(OCCOC(=O)[C@@H]1CC[C@@H](CNC(=O)c2ccno2)O1)c1ccc(-c2c3nc(c(-c4ccc(S(=O)(=O)[O-])cc4)c4ccc([nH]4)c(-c4ccc(S(=O)(=O)[O-])cc4)c4nc(c(-c5ccc(S(=O)(=O)[O-])cc5)c5ccc2[nH]5)C=C4)C=C3)cc1
REMARK SMILES IDX 4 1 3 2 2 3 1 4 23 5 24 6 82 7 25 8 81 9 26 10 27 11 28 12
REMARK SMILES IDX 75 13 29 14 80 15 74 16 76 17 30 18 79 19 73 20 72 21 31 23
REMARK SMILES IDX 61 24 42 25 60 26 43 27 46 28 59 29 77 30 44 31 45 32 58 34
REMARK SMILES IDX 78 35 47 36 32 37 33 38 41 39 34 40 40 41 35 42 36 43 37 44
REMARK SMILES IDX 38 45 39 46 62 47 63 48 71 49 64 50 70 51 65 52 66 53 67 54
REMARK SMILES IDX 68 55 69 56 48 57 49 58 57 59 50 60 56 61 51 62 52 63 53 64
REMARK SMILES IDX 54 65 55 66 5 67 6 68 7 69 8 70 9 71 10 72 22 73 11 74 12 75
REMARK SMILES IDX 13 76 14 77 15 78 16 80 17 81 18 82 21 83 19 84 20 85
REMARK H PARENT 76 22 46 33 14 79
REMARK Flexibility Score: inf
ROOT
ATOM      1  C   UNL A   1      43.017  25.584  25.485  1.00  0.00     0.275 C 
ENDROOT
BRANCH   1   2
ATOM      2  O   UNL A   1      41.871  26.453  25.533  1.00  0.00    -0.458 OA
BRANCH   2   3
ATOM      3  C   UNL A   1      41.806  27.791  25.731  1.00  0.00     0.338 C 
ATOM      4  O   UNL A   1      42.048  28.529  24.777  1.00  0.00    -0.246 OA
BRANCH   3   5
ATOM      5  C   UNL A   1      41.635  28.435  27.077  1.00  0.00     0.060 A 
ATOM      6  C   UNL A   1      42.259  29.596  27.535  1.00  0.00     0.016 A 
ATOM      7  C   UNL A   1      40.714  27.810  27.944  1.00  0.00     0.016 A 
ATOM      8  C   UNL A   1      41.920  30.163  28.768  1.00  0.00     0.010 A 
ATOM      9  C   UNL A   1      40.339  28.391  29.158  1.00  0.00     0.010 A 
ATOM     10  C   UNL A   1      40.954  29.571  29.582  1.00  0.00    -0.014 A 
BRANCH  10  11
ATOM     11  C   UNL A   1      40.748  30.087  30.954  1.00  0.00     0.031 A 
ATOM     12  C   UNL A   1      41.811  29.796  31.976  1.00  0.00     0.074 A 
ATOM     13  C   UNL A   1      39.681  30.853  31.254  1.00  0.00     0.049 A 
ATOM     14  N   UNL A   1      41.890  30.181  33.222  1.00  0.00    -0.248 NA
ATOM     15  C   UNL A   1      42.937  28.954  31.534  1.00  0.00     0.031 C 
ATOM     16  C   UNL A   1      38.611  31.226  30.325  1.00  0.00     0.029 A 
ATOM     17  N   UNL A   1      39.334  31.479  32.425  1.00  0.00    -0.354 N 
ATOM     18  C   UNL A   1      43.068  29.624  33.708  1.00  0.00     0.074 A 
ATOM     19  C   UNL A   1      43.637  28.827  32.648  1.00  0.00     0.031 C 
ATOM     20  C   UNL A   1      37.743  32.038  30.955  1.00  0.00     0.029 A 
ATOM     21  C   UNL A   1      38.182  32.225  32.336  1.00  0.00     0.049 A 
ATOM     22  H   UNL A   1      39.862  31.400  33.253  1.00  0.00     0.167 HD
ATOM     23  C   UNL A   1      43.642  29.786  34.921  1.00  0.00     0.031 A 
ATOM     24  C   UNL A   1      37.564  32.982  33.266  1.00  0.00     0.031 A 
ATOM     25  C   UNL A   1      43.070  30.583  35.968  1.00  0.00     0.049 A 
ATOM     26  C   UNL A   1      38.197  33.100  34.633  1.00  0.00     0.074 A 
ATOM     27  C   UNL A   1      43.553  30.809  37.242  1.00  0.00     0.029 A 
ATOM     28  N   UNL A   1      41.881  31.289  35.851  1.00  0.00    -0.354 N 
ATOM     29  N   UNL A   1      39.323  32.584  35.068  1.00  0.00    -0.248 NA
ATOM     30  C   UNL A   1      37.483  33.912  35.629  1.00  0.00     0.031 C 
ATOM     31  C   UNL A   1      42.630  31.619  37.913  1.00  0.00     0.029 A 
ATOM     32  C   UNL A   1      41.604  31.941  37.036  1.00  0.00     0.049 A 
ATOM     33  H   UNL A   1      41.319  31.320  35.043  1.00  0.00     0.167 HD
ATOM     34  C   UNL A   1      39.468  33.036  36.377  1.00  0.00     0.074 A 
ATOM     35  C   UNL A   1      38.321  33.877  36.657  1.00  0.00     0.031 C 
ATOM     36  C   UNL A   1      40.457  32.782  37.271  1.00  0.00     0.031 A 
BRANCH  23  37
ATOM     37  C   UNL A   1      44.936  29.058  35.162  1.00  0.00    -0.014 A 
ATOM     38  C   UNL A   1      44.944  27.738  35.654  1.00  0.00     0.010 A 
ATOM     39  C   UNL A   1      46.159  29.714  34.940  1.00  0.00     0.010 A 
ATOM     40  C   UNL A   1      46.150  27.112  35.979  1.00  0.00     0.020 A 
ATOM     41  C   UNL A   1      47.368  29.080  35.236  1.00  0.00     0.020 A 
ATOM     42  C   UNL A   1      47.355  27.792  35.777  1.00  0.00     0.054 A 
BRANCH  42  43
ATOM     43  S   UNL A   1      48.904  26.965  36.227  1.00  0.00     0.124 S 
ATOM     44  O   UNL A   1      49.658  28.056  36.841  1.00  0.00    -0.237 OA
ATOM     45  O   UNL A   1      48.456  25.919  37.142  1.00  0.00    -0.237 OA
ATOM     46  O   UNL A   1      49.426  26.490  34.948  1.00  0.00    -0.744 OA
ENDBRANCH  42  43
ENDBRANCH  23  37
BRANCH  24  47
ATOM     47  C   UNL A   1      36.290  33.691  32.951  1.00  0.00    -0.014 A 
ATOM     48  C   UNL A   1      36.299  34.947  32.316  1.00  0.00     0.010 A 
ATOM     49  C   UNL A   1      35.053  33.129  33.317  1.00  0.00     0.010 A 
ATOM     50  C   UNL A   1      35.104  35.641  32.091  1.00  0.00     0.020 A 
ATOM     51  C   UNL A   1      33.854  33.806  33.068  1.00  0.00     0.020 A 
ATOM     52  C   UNL A   1      33.889  35.069  32.475  1.00  0.00     0.054 A 
BRANCH  52  53
ATOM     53  S   UNL A   1      32.354  35.996  32.188  1.00  0.00     0.124 S 
ATOM     54  O   UNL A   1      31.336  35.011  32.548  1.00  0.00    -0.237 OA
ATOM     55  O   UNL A   1      32.490  37.126  33.102  1.00  0.00    -0.237 OA
ATOM     56  O   UNL A   1      32.416  36.332  30.768  1.00  0.00    -0.744 OA
ENDBRANCH  52  53
ENDBRANCH  24  47
BRANCH  36  57
ATOM     57  C   UNL A   1      40.366  33.446  38.618  1.00  0.00    -0.014 A 
ATOM     58  C   UNL A   1      41.124  34.591  38.917  1.00  0.00     0.010 A 
ATOM     59  C   UNL A   1      39.435  32.971  39.559  1.00  0.00     0.010 A 
ATOM     60  C   UNL A   1      40.967  35.238  40.145  1.00  0.00     0.020 A 
ATOM     61  C   UNL A   1      39.254  33.631  40.776  1.00  0.00     0.020 A 
ATOM     62  C   UNL A   1      40.029  34.756  41.064  1.00  0.00     0.054 A 
BRANCH  62  63
ATOM     63  S   UNL A   1      39.791  35.657  42.620  1.00  0.00     0.124 S 
ATOM     64  O   UNL A   1      40.208  37.008  42.256  1.00  0.00    -0.237 OA
ATOM     65  O   UNL A   1      38.363  35.485  42.874  1.00  0.00    -0.237 OA
ATOM     66  O   UNL A   1      40.672  34.964  43.559  1.00  0.00    -0.744 OA
ENDBRANCH  62  63
ENDBRANCH  36  57
ENDBRANCH  10  11
ENDBRANCH   3   5
ENDBRANCH   2   3
ENDBRANCH   1   2
BRANCH   1  67
ATOM     67  C   UNL A   1      43.467  25.102  26.866  1.00  0.00     0.274 C 
BRANCH  67  68
ATOM     68  O   UNL A   1      42.352  24.717  27.682  1.00  0.00    -0.460 OA
BRANCH  68  69
ATOM     69  C   UNL A   1      42.397  23.473  28.248  1.00  0.00     0.335 C 
ATOM     70  O   UNL A   1      42.674  23.243  29.418  1.00  0.00    -0.249 OA
BRANCH  69  71
ATOM     71  C   UNL A   1      41.962  22.416  27.224  1.00  0.00     0.228 C 
ATOM     72  C   UNL A   1      40.728  21.677  27.720  1.00  0.00     0.047 C 
ATOM     73  O   UNL A   1      42.916  21.389  26.928  1.00  0.00    -0.361 OA
ATOM     74  C   UNL A   1      40.744  20.460  26.837  1.00  0.00     0.037 C 
ATOM     75  C   UNL A   1      42.224  20.121  26.863  1.00  0.00     0.138 C 
BRANCH  75  76
ATOM     76  C   UNL A   1      42.652  19.250  25.667  1.00  0.00     0.148 C 
BRANCH  76  77
ATOM     77  N   UNL A   1      43.998  18.723  25.790  1.00  0.00    -0.347 N 
ATOM     78  C   UNL A   1      45.138  19.162  25.152  1.00  0.00     0.289 C 
ATOM     79  H   UNL A   1      44.111  17.962  26.403  1.00  0.00     0.164 HD
ATOM     80  O   UNL A   1      46.055  18.356  25.016  1.00  0.00    -0.266 OA
BRANCH  78  81
ATOM     81  C   UNL A   1      45.191  20.526  24.688  1.00  0.00     0.224 A 
ATOM     82  C   UNL A   1      45.876  21.645  25.111  1.00  0.00     0.079 A 
ATOM     83  O   UNL A   1      44.469  20.854  23.577  1.00  0.00    -0.351 OA
ATOM     84  C   UNL A   1      45.479  22.655  24.223  1.00  0.00     0.159 A 
ATOM     85  N   UNL A   1      44.620  22.209  23.306  1.00  0.00    -0.088 NA
ENDBRANCH  78  81
ENDBRANCH  76  77
ENDBRANCH  75  76
ENDBRANCH  69  71
ENDBRANCH  68  69
ENDBRANCH  67  68
ENDBRANCH   1  67
TORSDOF 17
ENDMDL
