MODEL 1
REMARK VINA RESULT:     -10.2      0.000      0.000
REMARK SMILES C[C@@H](C(=O)OCCOC(=O)c1ccc(-c2c3nc(c(-c4ccc(S(=O)(=O)[O-])cc4)c4ccc([nH]4)c(-c4ccc(S(=O)(=O)[O-])cc4)c4nc(c(-c5ccc(S(=O)(=O)[O-])cc5)c5ccc2[nH]5)C=C4)C=C3)cc1)c1ccc(C[C@H]2CCCC2=O)cc1
REMARK SMILES IDX 6 1 5 2 3 3 4 4 2 5 1 6 71 7 72 8 83 9 73 10 82 11 74 12
REMARK SMILES IDX 75 13 76 14 77 15 80 16 78 17 79 18 81 19 7 20 8 21 9 22
REMARK SMILES IDX 10 23 11 24 12 25 70 26 13 27 69 28 14 29 15 30 16 31 63 32
REMARK SMILES IDX 17 33 68 34 62 35 64 36 18 37 67 38 61 39 60 40 19 42 49 43
REMARK SMILES IDX 30 44 48 45 31 46 34 47 47 48 65 49 32 50 33 51 46 53 66 54
REMARK SMILES IDX 35 55 20 56 21 57 29 58 22 59 28 60 23 61 24 62 25 63 26 64
REMARK SMILES IDX 27 65 50 66 51 67 59 68 52 69 58 70 53 71 54 72 55 73 56 74
REMARK SMILES IDX 57 75 36 76 37 77 45 78 38 79 44 80 39 81 40 82 41 83 42 84
REMARK SMILES IDX 43 85
REMARK H PARENT 64 41 34 52
REMARK Flexibility Score: inf
ROOT
ATOM      1  C   UNL A   1      36.204  21.806  24.543  1.00  0.00     0.274 C 
ENDROOT
BRANCH   1   2
ATOM      2  O   UNL A   1      35.088  21.011  24.985  1.00  0.00    -0.462 OA
BRANCH   2   3
ATOM      3  C   UNL A   1      34.243  21.613  25.871  1.00  0.00     0.313 C 
ATOM      4  O   UNL A   1      34.436  21.661  27.080  1.00  0.00    -0.252 OA
BRANCH   3   5
ATOM      5  C   UNL A   1      33.082  22.317  25.156  1.00  0.00     0.126 C 
ATOM      6  C   UNL A   1      32.944  21.809  23.716  1.00  0.00     0.025 C 
BRANCH   5   7
ATOM      7  C   UNL A   1      33.166  23.837  25.206  1.00  0.00    -0.034 A 
ATOM      8  C   UNL A   1      32.572  24.557  26.239  1.00  0.00     0.005 A 
ATOM      9  C   UNL A   1      33.886  24.565  24.245  1.00  0.00     0.005 A 
ATOM     10  C   UNL A   1      32.738  25.937  26.348  1.00  0.00     0.004 A 
ATOM     11  C   UNL A   1      34.032  25.961  24.348  1.00  0.00     0.004 A 
ATOM     12  C   UNL A   1      33.463  26.673  25.413  1.00  0.00    -0.047 A 
BRANCH  12  13
ATOM     13  C   UNL A   1      33.773  28.144  25.625  1.00  0.00     0.047 C 
BRANCH  13  14
ATOM     14  C   UNL A   1      33.694  28.777  27.026  1.00  0.00     0.060 C 
ATOM     15  C   UNL A   1      35.024  29.180  27.666  1.00  0.00     0.012 C 
ATOM     16  C   UNL A   1      32.929  30.072  27.085  1.00  0.00     0.136 C 
ATOM     17  C   UNL A   1      35.141  30.687  27.476  1.00  0.00     0.009 C 
ATOM     18  C   UNL A   1      33.726  31.212  27.641  1.00  0.00     0.076 C 
ATOM     19  O   UNL A   1      31.787  30.203  26.676  1.00  0.00    -0.299 OA
ENDBRANCH  13  14
ENDBRANCH  12  13
ENDBRANCH   5   7
ENDBRANCH   3   5
ENDBRANCH   2   3
ENDBRANCH   1   2
BRANCH   1  20
ATOM     20  C   UNL A   1      37.477  21.236  25.169  1.00  0.00     0.275 C 
BRANCH  20  21
ATOM     21  O   UNL A   1      38.204  22.319  25.781  1.00  0.00    -0.458 OA
BRANCH  21  22
ATOM     22  C   UNL A   1      39.421  22.017  26.305  1.00  0.00     0.338 C 
ATOM     23  O   UNL A   1      39.983  20.938  26.265  1.00  0.00    -0.246 OA
BRANCH  22  24
ATOM     24  C   UNL A   1      39.977  23.225  26.969  1.00  0.00     0.060 A 
ATOM     25  C   UNL A   1      39.516  24.484  26.599  1.00  0.00     0.016 A 
ATOM     26  C   UNL A   1      41.008  23.123  27.908  1.00  0.00     0.016 A 
ATOM     27  C   UNL A   1      40.084  25.631  27.148  1.00  0.00     0.010 A 
ATOM     28  C   UNL A   1      41.546  24.284  28.500  1.00  0.00     0.010 A 
ATOM     29  C   UNL A   1      41.089  25.555  28.118  1.00  0.00    -0.014 A 
BRANCH  29  30
ATOM     30  C   UNL A   1      41.700  26.832  28.590  1.00  0.00     0.031 A 
ATOM     31  C   UNL A   1      43.074  27.209  28.109  1.00  0.00     0.074 A 
ATOM     32  C   UNL A   1      40.976  27.736  29.284  1.00  0.00     0.049 A 
ATOM     33  N   UNL A   1      43.777  28.275  28.386  1.00  0.00    -0.248 NA
ATOM     34  C   UNL A   1      43.748  26.262  27.207  1.00  0.00     0.031 C 
ATOM     35  C   UNL A   1      39.595  27.545  29.718  1.00  0.00     0.029 A 
ATOM     36  N   UNL A   1      41.253  29.042  29.635  1.00  0.00    -0.354 N 
ATOM     37  C   UNL A   1      45.019  28.069  27.802  1.00  0.00     0.074 A 
ATOM     38  C   UNL A   1      44.942  26.822  27.072  1.00  0.00     0.031 C 
ATOM     39  C   UNL A   1      39.088  28.733  30.092  1.00  0.00     0.029 A 
ATOM     40  C   UNL A   1      40.133  29.750  30.025  1.00  0.00     0.049 A 
ATOM     41  H   UNL A   1      42.157  29.430  29.609  1.00  0.00     0.167 HD
ATOM     42  C   UNL A   1      46.137  28.820  27.933  1.00  0.00     0.031 A 
ATOM     43  C   UNL A   1      39.969  31.070  30.268  1.00  0.00     0.031 A 
ATOM     44  C   UNL A   1      46.184  30.072  28.640  1.00  0.00     0.049 A 
ATOM     45  C   UNL A   1      41.204  31.936  30.324  1.00  0.00     0.074 A 
ATOM     46  C   UNL A   1      47.286  30.844  28.966  1.00  0.00     0.029 A 
ATOM     47  N   UNL A   1      45.069  30.751  29.106  1.00  0.00    -0.354 N 
ATOM     48  N   UNL A   1      42.427  31.660  29.941  1.00  0.00    -0.248 NA
ATOM     49  C   UNL A   1      41.051  33.268  30.930  1.00  0.00     0.031 C 
ATOM     50  C   UNL A   1      46.838  31.973  29.663  1.00  0.00     0.029 A 
ATOM     51  C   UNL A   1      45.454  31.931  29.720  1.00  0.00     0.049 A 
ATOM     52  H   UNL A   1      44.140  30.440  29.014  1.00  0.00     0.167 HD
ATOM     53  C   UNL A   1      43.199  32.751  30.326  1.00  0.00     0.074 A 
ATOM     54  C   UNL A   1      42.292  33.735  30.879  1.00  0.00     0.031 C 
ATOM     55  C   UNL A   1      44.545  32.895  30.283  1.00  0.00     0.031 A 
BRANCH  42  56
ATOM     56  C   UNL A   1      47.425  28.212  27.457  1.00  0.00    -0.014 A 
ATOM     57  C   UNL A   1      47.934  28.418  26.166  1.00  0.00     0.010 A 
ATOM     58  C   UNL A   1      48.138  27.394  28.356  1.00  0.00     0.010 A 
ATOM     59  C   UNL A   1      49.119  27.787  25.772  1.00  0.00     0.020 A 
ATOM     60  C   UNL A   1      49.331  26.782  27.975  1.00  0.00     0.020 A 
ATOM     61  C   UNL A   1      49.806  26.968  26.676  1.00  0.00     0.054 A 
BRANCH  61  62
ATOM     62  S   UNL A   1      51.342  26.161  26.147  1.00  0.00     0.124 S 
ATOM     63  O   UNL A   1      51.234  26.236  24.692  1.00  0.00    -0.237 OA
ATOM     64  O   UNL A   1      52.372  27.007  26.745  1.00  0.00    -0.237 OA
ATOM     65  O   UNL A   1      51.241  24.818  26.710  1.00  0.00    -0.744 OA
ENDBRANCH  61  62
ENDBRANCH  42  56
BRANCH  43  66
ATOM     66  C   UNL A   1      38.625  31.671  30.538  1.00  0.00    -0.014 A 
ATOM     67  C   UNL A   1      37.925  32.337  29.511  1.00  0.00     0.010 A 
ATOM     68  C   UNL A   1      38.051  31.637  31.822  1.00  0.00     0.010 A 
ATOM     69  C   UNL A   1      36.698  32.965  29.766  1.00  0.00     0.020 A 
ATOM     70  C   UNL A   1      36.807  32.224  32.072  1.00  0.00     0.020 A 
ATOM     71  C   UNL A   1      36.145  32.902  31.047  1.00  0.00     0.054 A 
BRANCH  71  72
ATOM     72  S   UNL A   1      34.532  33.674  31.363  1.00  0.00     0.124 S 
ATOM     73  O   UNL A   1      33.961  33.742  30.022  1.00  0.00    -0.237 OA
ATOM     74  O   UNL A   1      33.896  32.728  32.277  1.00  0.00    -0.237 OA
ATOM     75  O   UNL A   1      34.889  34.959  31.960  1.00  0.00    -0.744 OA
ENDBRANCH  71  72
ENDBRANCH  43  66
BRANCH  55  76
ATOM     76  C   UNL A   1      45.129  34.138  30.898  1.00  0.00    -0.014 A 
ATOM     77  C   UNL A   1      45.506  34.151  32.255  1.00  0.00     0.010 A 
ATOM     78  C   UNL A   1      45.375  35.274  30.108  1.00  0.00     0.010 A 
ATOM     79  C   UNL A   1      46.091  35.288  32.816  1.00  0.00     0.020 A 
ATOM     80  C   UNL A   1      45.981  36.406  30.661  1.00  0.00     0.020 A 
ATOM     81  C   UNL A   1      46.325  36.410  32.016  1.00  0.00     0.054 A 
BRANCH  81  82
ATOM     82  S   UNL A   1      47.132  37.856  32.756  1.00  0.00     0.124 S 
ATOM     83  O   UNL A   1      48.417  37.875  32.061  1.00  0.00    -0.237 OA
ATOM     84  O   UNL A   1      46.218  38.943  32.417  1.00  0.00    -0.237 OA
ATOM     85  O   UNL A   1      47.197  37.527  34.178  1.00  0.00    -0.744 OA
ENDBRANCH  81  82
ENDBRANCH  55  76
ENDBRANCH  29  30
ENDBRANCH  22  24
ENDBRANCH  21  22
ENDBRANCH  20  21
ENDBRANCH   1  20
TORSDOF 17
ENDMDL
MODEL 2
REMARK VINA RESULT:     -10.1      5.224      6.497
REMARK SMILES C[C@@H](C(=O)OCCOC(=O)c1ccc(-c2c3nc(c(-c4ccc(S(=O)(=O)[O-])cc4)c4ccc([nH]4)c(-c4ccc(S(=O)(=O)[O-])cc4)c4nc(c(-c5ccc(S(=O)(=O)[O-])cc5)c5ccc2[nH]5)C=C4)C=C3)cc1)c1ccc(C[C@H]2CCCC2=O)cc1
REMARK SMILES IDX 6 1 5 2 3 3 4 4 2 5 1 6 71 7 72 8 83 9 73 10 82 11 74 12
REMARK SMILES IDX 75 13 76 14 77 15 80 16 78 17 79 18 81 19 7 20 8 21 9 22
REMARK SMILES IDX 10 23 11 24 12 25 70 26 13 27 69 28 14 29 15 30 16 31 63 32
REMARK SMILES IDX 17 33 68 34 62 35 64 36 18 37 67 38 61 39 60 40 19 42 49 43
REMARK SMILES IDX 30 44 48 45 31 46 34 47 47 48 65 49 32 50 33 51 46 53 66 54
REMARK SMILES IDX 35 55 20 56 21 57 29 58 22 59 28 60 23 61 24 62 25 63 26 64
REMARK SMILES IDX 27 65 50 66 51 67 59 68 52 69 58 70 53 71 54 72 55 73 56 74
REMARK SMILES IDX 57 75 36 76 37 77 45 78 38 79 44 80 39 81 40 82 41 83 42 84
REMARK SMILES IDX 43 85
REMARK H PARENT 64 41 34 52
REMARK Flexibility Score: inf
ROOT
ATOM      1  C   UNL A   1      37.688  23.154  25.980  1.00  0.00     0.274 C 
ENDROOT
BRANCH   1   2
ATOM      2  O   UNL A   1      36.851  22.044  25.604  1.00  0.00    -0.462 OA
BRANCH   2   3
ATOM      3  C   UNL A   1      35.554  22.349  25.315  1.00  0.00     0.313 C 
ATOM      4  O   UNL A   1      35.032  22.165  24.221  1.00  0.00    -0.252 OA
BRANCH   3   5
ATOM      5  C   UNL A   1      34.799  22.847  26.554  1.00  0.00     0.126 C 
ATOM      6  C   UNL A   1      34.003  21.707  27.199  1.00  0.00     0.025 C 
BRANCH   5   7
ATOM      7  C   UNL A   1      33.918  24.061  26.286  1.00  0.00    -0.034 A 
ATOM      8  C   UNL A   1      34.442  25.220  25.720  1.00  0.00     0.005 A 
ATOM      9  C   UNL A   1      32.539  24.040  26.551  1.00  0.00     0.005 A 
ATOM     10  C   UNL A   1      33.621  26.291  25.373  1.00  0.00     0.004 A 
ATOM     11  C   UNL A   1      31.717  25.134  26.219  1.00  0.00     0.004 A 
ATOM     12  C   UNL A   1      32.248  26.281  25.613  1.00  0.00    -0.047 A 
BRANCH  12  13
ATOM     13  C   UNL A   1      31.339  27.379  25.088  1.00  0.00     0.047 C 
BRANCH  13  14
ATOM     14  C   UNL A   1      30.869  27.385  23.623  1.00  0.00     0.060 C 
ATOM     15  C   UNL A   1      29.360  27.487  23.394  1.00  0.00     0.012 C 
ATOM     16  C   UNL A   1      31.374  28.545  22.808  1.00  0.00     0.136 C 
ATOM     17  C   UNL A   1      29.090  28.940  23.023  1.00  0.00     0.009 C 
ATOM     18  C   UNL A   1      30.282  29.357  22.181  1.00  0.00     0.076 C 
ATOM     19  O   UNL A   1      32.555  28.835  22.703  1.00  0.00    -0.299 OA
ENDBRANCH  13  14
ENDBRANCH  12  13
ENDBRANCH   5   7
ENDBRANCH   3   5
ENDBRANCH   2   3
ENDBRANCH   1   2
BRANCH   1  20
ATOM     20  C   UNL A   1      39.127  22.650  26.101  1.00  0.00     0.275 C 
BRANCH  20  21
ATOM     21  O   UNL A   1      39.782  23.397  27.144  1.00  0.00    -0.458 OA
BRANCH  21  22
ATOM     22  C   UNL A   1      40.353  24.577  26.782  1.00  0.00     0.338 C 
ATOM     23  O   UNL A   1      40.983  24.797  25.764  1.00  0.00    -0.246 OA
BRANCH  22  24
ATOM     24  C   UNL A   1      40.105  25.582  27.847  1.00  0.00     0.060 A 
ATOM     25  C   UNL A   1      40.896  26.725  27.909  1.00  0.00     0.016 A 
ATOM     26  C   UNL A   1      39.138  25.366  28.835  1.00  0.00     0.016 A 
ATOM     27  C   UNL A   1      40.735  27.638  28.949  1.00  0.00     0.010 A 
ATOM     28  C   UNL A   1      38.943  26.316  29.857  1.00  0.00     0.010 A 
ATOM     29  C   UNL A   1      39.749  27.464  29.925  1.00  0.00    -0.014 A 
BRANCH  29  30
ATOM     30  C   UNL A   1      39.703  28.443  31.051  1.00  0.00     0.031 A 
ATOM     31  C   UNL A   1      40.892  28.571  31.961  1.00  0.00     0.074 A 
ATOM     32  C   UNL A   1      38.698  29.340  31.153  1.00  0.00     0.049 A 
ATOM     33  N   UNL A   1      41.060  29.366  32.985  1.00  0.00    -0.248 NA
ATOM     34  C   UNL A   1      42.036  27.685  31.693  1.00  0.00     0.031 C 
ATOM     35  C   UNL A   1      37.538  29.400  30.267  1.00  0.00     0.029 A 
ATOM     36  N   UNL A   1      38.552  30.449  31.960  1.00  0.00    -0.354 N 
ATOM     37  C   UNL A   1      42.267  28.989  33.558  1.00  0.00     0.074 A 
ATOM     38  C   UNL A   1      42.836  27.963  32.713  1.00  0.00     0.031 C 
ATOM     39  C   UNL A   1      36.915  30.578  30.445  1.00  0.00     0.029 A 
ATOM     40  C   UNL A   1      37.564  31.312  31.527  1.00  0.00     0.049 A 
ATOM     41  H   UNL A   1      39.097  30.609  32.764  1.00  0.00     0.167 HD
ATOM     42  C   UNL A   1      42.804  29.415  34.726  1.00  0.00     0.031 A 
ATOM     43  C   UNL A   1      37.245  32.560  31.940  1.00  0.00     0.031 A 
ATOM     44  C   UNL A   1      42.236  30.458  35.537  1.00  0.00     0.049 A 
ATOM     45  C   UNL A   1      37.910  33.081  33.190  1.00  0.00     0.074 A 
ATOM     46  C   UNL A   1      42.606  30.869  36.806  1.00  0.00     0.029 A 
ATOM     47  N   UNL A   1      41.190  31.277  35.141  1.00  0.00    -0.354 N 
ATOM     48  N   UNL A   1      38.944  32.604  33.839  1.00  0.00    -0.248 NA
ATOM     49  C   UNL A   1      37.304  34.268  33.816  1.00  0.00     0.031 C 
ATOM     50  C   UNL A   1      41.756  31.914  37.192  1.00  0.00     0.029 A 
ATOM     51  C   UNL A   1      40.898  32.189  36.141  1.00  0.00     0.049 A 
ATOM     52  H   UNL A   1      40.724  31.219  34.276  1.00  0.00     0.167 HD
ATOM     53  C   UNL A   1      39.065  33.385  34.983  1.00  0.00     0.074 A 
ATOM     54  C   UNL A   1      38.066  34.429  34.889  1.00  0.00     0.031 C 
ATOM     55  C   UNL A   1      39.889  33.213  36.045  1.00  0.00     0.031 A 
BRANCH  42  56
ATOM     56  C   UNL A   1      43.958  28.624  35.272  1.00  0.00    -0.014 A 
ATOM     57  C   UNL A   1      45.298  28.974  35.045  1.00  0.00     0.010 A 
ATOM     58  C   UNL A   1      43.666  27.477  36.036  1.00  0.00     0.010 A 
ATOM     59  C   UNL A   1      46.326  28.170  35.548  1.00  0.00     0.020 A 
ATOM     60  C   UNL A   1      44.689  26.686  36.559  1.00  0.00     0.020 A 
ATOM     61  C   UNL A   1      46.015  27.028  36.295  1.00  0.00     0.054 A 
BRANCH  61  62
ATOM     62  S   UNL A   1      47.363  25.999  36.940  1.00  0.00     0.124 S 
ATOM     63  O   UNL A   1      48.503  26.476  36.161  1.00  0.00    -0.237 OA
ATOM     64  O   UNL A   1      47.382  26.347  38.358  1.00  0.00    -0.237 OA
ATOM     65  O   UNL A   1      46.932  24.636  36.642  1.00  0.00    -0.744 OA
ENDBRANCH  61  62
ENDBRANCH  42  56
BRANCH  43  66
ATOM     66  C   UNL A   1      36.225  33.398  31.233  1.00  0.00    -0.014 A 
ATOM     67  C   UNL A   1      35.030  33.764  31.887  1.00  0.00     0.010 A 
ATOM     68  C   UNL A   1      36.401  33.794  29.896  1.00  0.00     0.010 A 
ATOM     69  C   UNL A   1      34.036  34.489  31.217  1.00  0.00     0.020 A 
ATOM     70  C   UNL A   1      35.430  34.554  29.235  1.00  0.00     0.020 A 
ATOM     71  C   UNL A   1      34.244  34.882  29.893  1.00  0.00     0.054 A 
BRANCH  71  72
ATOM     72  S   UNL A   1      32.975  35.862  29.041  1.00  0.00     0.124 S 
ATOM     73  O   UNL A   1      33.775  36.895  28.393  1.00  0.00    -0.237 OA
ATOM     74  O   UNL A   1      32.358  34.884  28.149  1.00  0.00    -0.237 OA
ATOM     75  O   UNL A   1      32.119  36.321  30.133  1.00  0.00    -0.744 OA
ENDBRANCH  71  72
ENDBRANCH  43  66
BRANCH  55  76
ATOM     76  C   UNL A   1      39.711  34.138  37.218  1.00  0.00    -0.014 A 
ATOM     77  C   UNL A   1      38.983  33.721  38.349  1.00  0.00     0.010 A 
ATOM     78  C   UNL A   1      40.332  35.399  37.229  1.00  0.00     0.010 A 
ATOM     79  C   UNL A   1      38.856  34.561  39.458  1.00  0.00     0.020 A 
ATOM     80  C   UNL A   1      40.226  36.232  38.346  1.00  0.00     0.020 A 
ATOM     81  C   UNL A   1      39.478  35.812  39.450  1.00  0.00     0.054 A 
BRANCH  81  82
ATOM     82  S   UNL A   1      39.341  36.863  40.922  1.00  0.00     0.124 S 
ATOM     83  O   UNL A   1      38.748  38.080  40.373  1.00  0.00    -0.237 OA
ATOM     84  O   UNL A   1      38.471  36.081  41.797  1.00  0.00    -0.237 OA
ATOM     85  O   UNL A   1      40.721  36.996  41.383  1.00  0.00    -0.744 OA
ENDBRANCH  81  82
ENDBRANCH  55  76
ENDBRANCH  29  30
ENDBRANCH  22  24
ENDBRANCH  21  22
ENDBRANCH  20  21
ENDBRANCH   1  20
TORSDOF 17
ENDMDL
MODEL 3
REMARK VINA RESULT:     -10.1      1.747      4.461
REMARK SMILES C[C@@H](C(=O)OCCOC(=O)c1ccc(-c2c3nc(c(-c4ccc(S(=O)(=O)[O-])cc4)c4ccc([nH]4)c(-c4ccc(S(=O)(=O)[O-])cc4)c4nc(c(-c5ccc(S(=O)(=O)[O-])cc5)c5ccc2[nH]5)C=C4)C=C3)cc1)c1ccc(C[C@H]2CCCC2=O)cc1
REMARK SMILES IDX 6 1 5 2 3 3 4 4 2 5 1 6 71 7 72 8 83 9 73 10 82 11 74 12
REMARK SMILES IDX 75 13 76 14 77 15 80 16 78 17 79 18 81 19 7 20 8 21 9 22
REMARK SMILES IDX 10 23 11 24 12 25 70 26 13 27 69 28 14 29 15 30 16 31 63 32
REMARK SMILES IDX 17 33 68 34 62 35 64 36 18 37 67 38 61 39 60 40 19 42 49 43
REMARK SMILES IDX 30 44 48 45 31 46 34 47 47 48 65 49 32 50 33 51 46 53 66 54
REMARK SMILES IDX 35 55 20 56 21 57 29 58 22 59 28 60 23 61 24 62 25 63 26 64
REMARK SMILES IDX 27 65 50 66 51 67 59 68 52 69 58 70 53 71 54 72 55 73 56 74
REMARK SMILES IDX 57 75 36 76 37 77 45 78 38 79 44 80 39 81 40 82 41 83 42 84
REMARK SMILES IDX 43 85
REMARK H PARENT 64 41 34 52
REMARK Flexibility Score: inf
ROOT
ATOM      1  C   UNL A   1      36.624  21.768  24.272  1.00  0.00     0.274 C 
ENDROOT
BRANCH   1   2
ATOM      2  O   UNL A   1      36.239  22.936  25.020  1.00  0.00    -0.462 OA
BRANCH   2   3
ATOM      3  C   UNL A   1      35.069  23.526  24.640  1.00  0.00     0.313 C 
ATOM      4  O   UNL A   1      34.957  24.263  23.667  1.00  0.00    -0.252 OA
BRANCH   3   5
ATOM      5  C   UNL A   1      33.894  23.067  25.512  1.00  0.00     0.126 C 
ATOM      6  C   UNL A   1      34.284  23.075  26.995  1.00  0.00     0.025 C 
BRANCH   5   7
ATOM      7  C   UNL A   1      33.312  21.722  25.095  1.00  0.00    -0.034 A 
ATOM      8  C   UNL A   1      32.827  21.516  23.807  1.00  0.00     0.005 A 
ATOM      9  C   UNL A   1      33.291  20.628  25.975  1.00  0.00     0.005 A 
ATOM     10  C   UNL A   1      32.395  20.259  23.389  1.00  0.00     0.004 A 
ATOM     11  C   UNL A   1      32.833  19.365  25.553  1.00  0.00     0.004 A 
ATOM     12  C   UNL A   1      32.382  19.157  24.243  1.00  0.00    -0.047 A 
BRANCH  12  13
ATOM     13  C   UNL A   1      32.064  17.761  23.737  1.00  0.00     0.047 C 
BRANCH  13  14
ATOM     14  C   UNL A   1      33.165  16.693  23.614  1.00  0.00     0.060 C 
ATOM     15  C   UNL A   1      34.585  17.205  23.366  1.00  0.00     0.012 C 
ATOM     16  C   UNL A   1      33.361  15.852  24.847  1.00  0.00     0.136 C 
ATOM     17  C   UNL A   1      35.293  17.145  24.713  1.00  0.00     0.009 C 
ATOM     18  C   UNL A   1      34.762  15.888  25.378  1.00  0.00     0.076 C 
ATOM     19  O   UNL A   1      32.462  15.237  25.397  1.00  0.00    -0.299 OA
ENDBRANCH  13  14
ENDBRANCH  12  13
ENDBRANCH   5   7
ENDBRANCH   3   5
ENDBRANCH   2   3
ENDBRANCH   1   2
BRANCH   1  20
ATOM     20  C   UNL A   1      37.917  21.217  24.875  1.00  0.00     0.275 C 
BRANCH  20  21
ATOM     21  O   UNL A   1      38.457  22.208  25.770  1.00  0.00    -0.458 OA
BRANCH  21  22
ATOM     22  C   UNL A   1      39.569  21.858  26.470  1.00  0.00     0.338 C 
ATOM     23  O   UNL A   1      40.029  20.737  26.589  1.00  0.00    -0.246 OA
BRANCH  22  24
ATOM     24  C   UNL A   1      40.148  23.072  27.100  1.00  0.00     0.060 A 
ATOM     25  C   UNL A   1      39.637  24.324  26.775  1.00  0.00     0.016 A 
ATOM     26  C   UNL A   1      41.248  22.985  27.960  1.00  0.00     0.016 A 
ATOM     27  C   UNL A   1      40.222  25.479  27.290  1.00  0.00     0.010 A 
ATOM     28  C   UNL A   1      41.805  24.152  28.520  1.00  0.00     0.010 A 
ATOM     29  C   UNL A   1      41.296  25.416  28.182  1.00  0.00    -0.014 A 
BRANCH  29  30
ATOM     30  C   UNL A   1      41.916  26.702  28.618  1.00  0.00     0.031 A 
ATOM     31  C   UNL A   1      43.296  27.052  28.134  1.00  0.00     0.074 A 
ATOM     32  C   UNL A   1      41.196  27.634  29.279  1.00  0.00     0.049 A 
ATOM     33  N   UNL A   1      44.007  28.121  28.382  1.00  0.00    -0.248 NA
ATOM     34  C   UNL A   1      43.967  26.071  27.267  1.00  0.00     0.031 C 
ATOM     35  C   UNL A   1      39.810  27.468  29.710  1.00  0.00     0.029 A 
ATOM     36  N   UNL A   1      41.482  28.947  29.590  1.00  0.00    -0.354 N 
ATOM     37  C   UNL A   1      45.250  27.885  27.813  1.00  0.00     0.074 A 
ATOM     38  C   UNL A   1      45.167  26.617  27.122  1.00  0.00     0.031 C 
ATOM     39  C   UNL A   1      39.311  28.672  30.043  1.00  0.00     0.029 A 
ATOM     40  C   UNL A   1      40.366  29.678  29.951  1.00  0.00     0.049 A 
ATOM     41  H   UNL A   1      42.390  29.327  29.558  1.00  0.00     0.167 HD
ATOM     42  C   UNL A   1      46.374  28.631  27.927  1.00  0.00     0.031 A 
ATOM     43  C   UNL A   1      40.213  31.006  30.152  1.00  0.00     0.031 A 
ATOM     44  C   UNL A   1      46.428  29.904  28.595  1.00  0.00     0.049 A 
ATOM     45  C   UNL A   1      41.455  31.862  30.188  1.00  0.00     0.074 A 
ATOM     46  C   UNL A   1      47.535  30.676  28.904  1.00  0.00     0.029 A 
ATOM     47  N   UNL A   1      45.316  30.607  29.033  1.00  0.00    -0.354 N 
ATOM     48  N   UNL A   1      42.678  31.563  29.822  1.00  0.00    -0.248 NA
ATOM     49  C   UNL A   1      41.310  33.214  30.752  1.00  0.00     0.031 C 
ATOM     50  C   UNL A   1      47.092  31.830  29.562  1.00  0.00     0.029 A 
ATOM     51  C   UNL A   1      45.708  31.801  29.612  1.00  0.00     0.049 A 
ATOM     52  H   UNL A   1      44.385  30.301  28.944  1.00  0.00     0.167 HD
ATOM     53  C   UNL A   1      43.456  32.659  30.178  1.00  0.00     0.074 A 
ATOM     54  C   UNL A   1      42.554  33.668  30.694  1.00  0.00     0.031 C 
ATOM     55  C   UNL A   1      44.804  32.791  30.138  1.00  0.00     0.031 A 
BRANCH  42  56
ATOM     56  C   UNL A   1      47.659  27.996  27.479  1.00  0.00    -0.014 A 
ATOM     57  C   UNL A   1      48.410  27.136  28.295  1.00  0.00     0.010 A 
ATOM     58  C   UNL A   1      48.123  28.294  26.183  1.00  0.00     0.010 A 
ATOM     59  C   UNL A   1      49.621  26.611  27.831  1.00  0.00     0.020 A 
ATOM     60  C   UNL A   1      49.318  27.754  25.708  1.00  0.00     0.020 A 
ATOM     61  C   UNL A   1      50.070  26.929  26.543  1.00  0.00     0.054 A 
BRANCH  61  62
ATOM     62  S   UNL A   1      51.642  26.237  25.960  1.00  0.00     0.124 S 
ATOM     63  O   UNL A   1      52.615  27.109  26.613  1.00  0.00    -0.237 OA
ATOM     64  O   UNL A   1      51.594  24.865  26.460  1.00  0.00    -0.237 OA
ATOM     65  O   UNL A   1      51.563  26.370  24.508  1.00  0.00    -0.744 OA
ENDBRANCH  61  62
ENDBRANCH  42  56
BRANCH  43  66
ATOM     66  C   UNL A   1      38.872  31.627  30.395  1.00  0.00    -0.014 A 
ATOM     67  C   UNL A   1      38.314  31.630  31.690  1.00  0.00     0.010 A 
ATOM     68  C   UNL A   1      38.115  32.171  29.342  1.00  0.00     0.010 A 
ATOM     69  C   UNL A   1      37.031  32.145  31.920  1.00  0.00     0.020 A 
ATOM     70  C   UNL A   1      36.852  32.726  29.573  1.00  0.00     0.020 A 
ATOM     71  C   UNL A   1      36.308  32.692  30.857  1.00  0.00     0.054 A 
BRANCH  71  72
ATOM     72  S   UNL A   1      34.666  33.403  31.166  1.00  0.00     0.124 S 
ATOM     73  O   UNL A   1      34.120  32.485  32.160  1.00  0.00    -0.237 OA
ATOM     74  O   UNL A   1      34.982  34.745  31.649  1.00  0.00    -0.237 OA
ATOM     75  O   UNL A   1      34.030  33.358  29.851  1.00  0.00    -0.744 OA
ENDBRANCH  71  72
ENDBRANCH  43  66
BRANCH  55  76
ATOM     76  C   UNL A   1      45.395  34.047  30.718  1.00  0.00    -0.014 A 
ATOM     77  C   UNL A   1      45.579  35.186  29.910  1.00  0.00     0.010 A 
ATOM     78  C   UNL A   1      45.701  34.123  32.088  1.00  0.00     0.010 A 
ATOM     79  C   UNL A   1      46.084  36.368  30.456  1.00  0.00     0.020 A 
ATOM     80  C   UNL A   1      46.185  35.311  32.642  1.00  0.00     0.020 A 
ATOM     81  C   UNL A   1      46.384  36.424  31.820  1.00  0.00     0.054 A 
BRANCH  81  82
ATOM     82  S   UNL A   1      46.991  37.985  32.516  1.00  0.00     0.124 S 
ATOM     83  O   UNL A   1      48.125  37.539  33.321  1.00  0.00    -0.237 OA
ATOM     84  O   UNL A   1      47.332  38.758  31.324  1.00  0.00    -0.237 OA
ATOM     85  O   UNL A   1      45.850  38.493  33.273  1.00  0.00    -0.744 OA
ENDBRANCH  81  82
ENDBRANCH  55  76
ENDBRANCH  29  30
ENDBRANCH  22  24
ENDBRANCH  21  22
ENDBRANCH  20  21
ENDBRANCH   1  20
TORSDOF 17
ENDMDL
