MODEL 1
REMARK VINA RESULT:     -10.5      0.000      0.000
REMARK SMILES Cc1csc([C@H](C)Nc2cc(C)c(N)c(C(=O)OCCOC(=O)c3ccc(-c4c5nc(c(-c6ccc(S(=O)(=O)[O-])cc6)c6ccc([nH]6)c(-c6ccc(S(=O)(=O)[O-])cc6)c6nc(c(-c7ccc(S(=O)(=O)[O-])cc7)c7ccc4[nH]7)C=C6)C=C5)cc3)c2)n1
REMARK SMILES IDX 19 1 18 2 16 3 17 4 15 5 9 6 10 7 84 8 11 9 12 10 13 11 8 12
REMARK SMILES IDX 6 14 7 15 5 16 1 17 2 18 3 19 85 20 4 21 14 22 20 25 21 26
REMARK SMILES IDX 22 27 23 28 24 29 25 30 83 31 26 32 82 33 27 34 28 35 29 36
REMARK SMILES IDX 76 37 30 38 81 39 75 40 77 41 31 42 80 43 74 44 73 45 32 47
REMARK SMILES IDX 62 48 43 49 61 50 44 51 47 52 60 53 78 54 45 55 46 56 59 58
REMARK SMILES IDX 79 59 48 60 33 61 34 62 42 63 35 64 41 65 36 66 37 67 38 68
REMARK SMILES IDX 39 69 40 70 63 71 64 72 72 73 65 74 71 75 66 76 67 77 68 78
REMARK SMILES IDX 69 79 70 80 49 81 50 82 58 83 51 84 57 85 52 86 53 87 54 88
REMARK SMILES IDX 55 89 56 90
REMARK H PARENT 8 13 14 23 14 24 77 46 47 57
REMARK Flexibility Score: inf
ROOT
ATOM      1  C   UNL A   1      38.294  21.638  25.441  1.00  0.00     0.275 C 
ENDROOT
BRANCH   1   2
ATOM      2  O   UNL A   1      37.116  21.699  24.609  1.00  0.00    -0.458 OA
BRANCH   2   3
ATOM      3  C   UNL A   1      36.058  22.395  25.112  1.00  0.00     0.340 C 
ATOM      4  O   UNL A   1      36.113  23.287  25.938  1.00  0.00    -0.246 OA
BRANCH   3   5
ATOM      5  C   UNL A   1      34.797  21.958  24.448  1.00  0.00     0.085 A 
ATOM      6  C   UNL A   1      32.827  22.545  23.127  1.00  0.00     0.036 A 
ATOM      7  C   UNL A   1      32.354  21.249  23.338  1.00  0.00     0.031 A 
ATOM      8  C   UNL A   1      34.035  22.897  23.734  1.00  0.00     0.043 A 
ATOM      9  C   UNL A   1      33.110  20.279  24.023  1.00  0.00    -0.025 A 
ATOM     10  C   UNL A   1      32.517  18.908  24.217  1.00  0.00     0.047 C 
ATOM     11  C   UNL A   1      34.387  20.610  24.513  1.00  0.00     0.049 A 
BRANCH   6  12
ATOM     12  N   UNL A   1      32.134  23.511  22.426  1.00  0.00    -0.376 N 
ATOM     13  H   UNL A   1      31.325  23.228  21.943  1.00  0.00     0.161 HD
BRANCH  12  14
ATOM     14  C   UNL A   1      32.509  24.929  22.343  1.00  0.00     0.135 C 
ATOM     15  C   UNL A   1      32.904  25.165  20.876  1.00  0.00     0.039 C 
BRANCH  14  16
ATOM     16  C   UNL A   1      31.458  25.928  22.838  1.00  0.00     0.115 A 
ATOM     17  C   UNL A   1      29.742  29.074  22.386  1.00  0.00     0.067 C 
ATOM     18  C   UNL A   1      30.164  27.747  22.899  1.00  0.00     0.049 A 
ATOM     19  C   UNL A   1      29.558  27.020  23.902  1.00  0.00     0.090 A 
ATOM     20  N   UNL A   1      31.262  27.130  22.323  1.00  0.00    -0.244 NA
ATOM     21  S   UNL A   1      30.330  25.506  24.080  1.00  0.00    -0.125 S 
ENDBRANCH  14  16
ENDBRANCH  12  14
ENDBRANCH   6  12
BRANCH  11  22
ATOM     22  N   UNL A   1      35.153  19.642  25.163  1.00  0.00    -0.398 N 
ATOM     23  H   UNL A   1      36.007  19.892  25.584  1.00  0.00     0.156 HD
ATOM     24  H   UNL A   1      34.840  18.709  25.201  1.00  0.00     0.156 HD
ENDBRANCH  11  22
ENDBRANCH   3   5
ENDBRANCH   2   3
ENDBRANCH   1   2
BRANCH   1  25
ATOM     25  C   UNL A   1      38.840  20.211  25.492  1.00  0.00     0.275 C 
BRANCH  25  26
ATOM     26  O   UNL A   1      39.795  20.118  26.561  1.00  0.00    -0.458 OA
BRANCH  26  27
ATOM     27  C   UNL A   1      41.076  19.866  26.198  1.00  0.00     0.338 C 
ATOM     28  O   UNL A   1      41.512  18.818  25.747  1.00  0.00    -0.246 OA
BRANCH  27  29
ATOM     29  C   UNL A   1      41.904  21.073  26.432  1.00  0.00     0.060 A 
ATOM     30  C   UNL A   1      42.345  21.386  27.716  1.00  0.00     0.016 A 
ATOM     31  C   UNL A   1      42.181  21.951  25.386  1.00  0.00     0.016 A 
ATOM     32  C   UNL A   1      42.982  22.602  27.972  1.00  0.00     0.010 A 
ATOM     33  C   UNL A   1      42.909  23.127  25.630  1.00  0.00     0.010 A 
ATOM     34  C   UNL A   1      43.289  23.492  26.935  1.00  0.00    -0.014 A 
BRANCH  34  35
ATOM     35  C   UNL A   1      43.926  24.820  27.218  1.00  0.00     0.031 A 
ATOM     36  C   UNL A   1      43.101  25.940  27.813  1.00  0.00     0.074 A 
ATOM     37  C   UNL A   1      45.239  25.046  26.990  1.00  0.00     0.049 A 
ATOM     38  N   UNL A   1      43.380  27.217  27.906  1.00  0.00    -0.248 NA
ATOM     39  C   UNL A   1      41.783  25.578  28.358  1.00  0.00     0.031 C 
ATOM     40  C   UNL A   1      46.204  24.064  26.490  1.00  0.00     0.029 A 
ATOM     41  N   UNL A   1      45.998  26.181  27.170  1.00  0.00    -0.354 N 
ATOM     42  C   UNL A   1      42.242  27.818  28.436  1.00  0.00     0.074 A 
ATOM     43  C   UNL A   1      41.274  26.765  28.655  1.00  0.00     0.031 C 
ATOM     44  C   UNL A   1      47.428  24.613  26.472  1.00  0.00     0.029 A 
ATOM     45  C   UNL A   1      47.325  26.020  26.843  1.00  0.00     0.049 A 
ATOM     46  H   UNL A   1      45.624  27.029  27.502  1.00  0.00     0.167 HD
ATOM     47  C   UNL A   1      42.018  29.128  28.709  1.00  0.00     0.031 A 
ATOM     48  C   UNL A   1      48.341  26.906  26.792  1.00  0.00     0.031 A 
ATOM     49  C   UNL A   1      43.005  30.167  28.562  1.00  0.00     0.049 A 
ATOM     50  C   UNL A   1      48.071  28.357  27.076  1.00  0.00     0.074 A 
ATOM     51  C   UNL A   1      42.867  31.525  28.793  1.00  0.00     0.029 A 
ATOM     52  N   UNL A   1      44.321  29.959  28.184  1.00  0.00    -0.354 N 
ATOM     53  N   UNL A   1      46.951  28.930  27.447  1.00  0.00    -0.248 NA
ATOM     54  C   UNL A   1      49.195  29.289  26.901  1.00  0.00     0.031 C 
ATOM     55  C   UNL A   1      44.095  32.143  28.529  1.00  0.00     0.029 A 
ATOM     56  C   UNL A   1      45.007  31.162  28.179  1.00  0.00     0.049 A 
ATOM     57  H   UNL A   1      44.712  29.086  27.953  1.00  0.00     0.167 HD
ATOM     58  C   UNL A   1      47.235  30.286  27.547  1.00  0.00     0.074 A 
ATOM     59  C   UNL A   1      48.639  30.447  27.228  1.00  0.00     0.031 C 
ATOM     60  C   UNL A   1      46.404  31.310  27.861  1.00  0.00     0.031 A 
BRANCH  47  61
ATOM     61  C   UNL A   1      40.633  29.524  29.150  1.00  0.00    -0.014 A 
ATOM     62  C   UNL A   1      39.594  29.733  28.229  1.00  0.00     0.010 A 
ATOM     63  C   UNL A   1      40.363  29.652  30.527  1.00  0.00     0.010 A 
ATOM     64  C   UNL A   1      38.319  30.101  28.673  1.00  0.00     0.020 A 
ATOM     65  C   UNL A   1      39.084  29.992  30.976  1.00  0.00     0.020 A 
ATOM     66  C   UNL A   1      38.074  30.233  30.043  1.00  0.00     0.054 A 
BRANCH  66  67
ATOM     67  S   UNL A   1      36.408  30.693  30.595  1.00  0.00     0.124 S 
ATOM     68  O   UNL A   1      36.502  32.149  30.652  1.00  0.00    -0.237 OA
ATOM     69  O   UNL A   1      35.557  30.160  29.534  1.00  0.00    -0.237 OA
ATOM     70  O   UNL A   1      36.275  30.027  31.889  1.00  0.00    -0.744 OA
ENDBRANCH  66  67
ENDBRANCH  47  61
BRANCH  48  71
ATOM     71  C   UNL A   1      49.702  26.459  26.379  1.00  0.00    -0.014 A 
ATOM     72  C   UNL A   1      50.118  26.563  25.040  1.00  0.00     0.010 A 
ATOM     73  C   UNL A   1      50.594  25.929  27.330  1.00  0.00     0.010 A 
ATOM     74  C   UNL A   1      51.397  26.144  24.659  1.00  0.00     0.020 A 
ATOM     75  C   UNL A   1      51.884  25.539  26.960  1.00  0.00     0.020 A 
ATOM     76  C   UNL A   1      52.274  25.639  25.624  1.00  0.00     0.054 A 
BRANCH  76  77
ATOM     77  S   UNL A   1      53.955  25.166  25.131  1.00  0.00     0.124 S 
ATOM     78  O   UNL A   1      54.119  25.897  23.878  1.00  0.00    -0.237 OA
ATOM     79  O   UNL A   1      54.763  25.642  26.251  1.00  0.00    -0.237 OA
ATOM     80  O   UNL A   1      53.876  23.713  25.005  1.00  0.00    -0.744 OA
ENDBRANCH  76  77
ENDBRANCH  48  71
BRANCH  60  81
ATOM     81  C   UNL A   1      46.998  32.692  27.905  1.00  0.00    -0.014 A 
ATOM     82  C   UNL A   1      47.568  33.199  29.086  1.00  0.00     0.010 A 
ATOM     83  C   UNL A   1      47.016  33.477  26.739  1.00  0.00     0.010 A 
ATOM     84  C   UNL A   1      48.119  34.483  29.107  1.00  0.00     0.020 A 
ATOM     85  C   UNL A   1      47.585  34.754  26.752  1.00  0.00     0.020 A 
ATOM     86  C   UNL A   1      48.119  35.254  27.940  1.00  0.00     0.054 A 
BRANCH  86  87
ATOM     87  S   UNL A   1      48.868  36.906  27.983  1.00  0.00     0.124 S 
ATOM     88  O   UNL A   1      48.272  37.479  29.187  1.00  0.00    -0.237 OA
ATOM     89  O   UNL A   1      50.296  36.612  28.067  1.00  0.00    -0.237 OA
ATOM     90  O   UNL A   1      48.438  37.513  26.726  1.00  0.00    -0.744 OA
ENDBRANCH  86  87
ENDBRANCH  60  81
ENDBRANCH  34  35
ENDBRANCH  27  29
ENDBRANCH  26  27
ENDBRANCH  25  26
ENDBRANCH   1  25
TORSDOF 18
ENDMDL
MODEL 2
REMARK VINA RESULT:     -10.4      5.344     10.430
REMARK SMILES Cc1csc([C@H](C)Nc2cc(C)c(N)c(C(=O)OCCOC(=O)c3ccc(-c4c5nc(c(-c6ccc(S(=O)(=O)[O-])cc6)c6ccc([nH]6)c(-c6ccc(S(=O)(=O)[O-])cc6)c6nc(c(-c7ccc(S(=O)(=O)[O-])cc7)c7ccc4[nH]7)C=C6)C=C5)cc3)c2)n1
REMARK SMILES IDX 19 1 18 2 16 3 17 4 15 5 9 6 10 7 84 8 11 9 12 10 13 11 8 12
REMARK SMILES IDX 6 14 7 15 5 16 1 17 2 18 3 19 85 20 4 21 14 22 20 25 21 26
REMARK SMILES IDX 22 27 23 28 24 29 25 30 83 31 26 32 82 33 27 34 28 35 29 36
REMARK SMILES IDX 76 37 30 38 81 39 75 40 77 41 31 42 80 43 74 44 73 45 32 47
REMARK SMILES IDX 62 48 43 49 61 50 44 51 47 52 60 53 78 54 45 55 46 56 59 58
REMARK SMILES IDX 79 59 48 60 33 61 34 62 42 63 35 64 41 65 36 66 37 67 38 68
REMARK SMILES IDX 39 69 40 70 63 71 64 72 72 73 65 74 71 75 66 76 67 77 68 78
REMARK SMILES IDX 69 79 70 80 49 81 50 82 58 83 51 84 57 85 52 86 53 87 54 88
REMARK SMILES IDX 55 89 56 90
REMARK H PARENT 8 13 14 23 14 24 77 46 47 57
REMARK Flexibility Score: inf
ROOT
ATOM      1  C   UNL A   1      32.270  32.908  27.563  1.00  0.00     0.275 C 
ENDROOT
BRANCH   1   2
ATOM      2  O   UNL A   1      33.335  33.848  27.818  1.00  0.00    -0.458 OA
BRANCH   2   3
ATOM      3  C   UNL A   1      33.425  34.325  29.092  1.00  0.00     0.340 C 
ATOM      4  O   UNL A   1      32.594  35.005  29.663  1.00  0.00    -0.246 OA
BRANCH   3   5
ATOM      5  C   UNL A   1      34.676  33.830  29.736  1.00  0.00     0.085 A 
ATOM      6  C   UNL A   1      35.828  33.106  31.764  1.00  0.00     0.036 A 
ATOM      7  C   UNL A   1      37.013  33.074  31.027  1.00  0.00     0.031 A 
ATOM      8  C   UNL A   1      34.672  33.535  31.108  1.00  0.00     0.043 A 
ATOM      9  C   UNL A   1      37.040  33.335  29.644  1.00  0.00    -0.025 A 
ATOM     10  C   UNL A   1      38.365  33.291  28.928  1.00  0.00     0.047 C 
ATOM     11  C   UNL A   1      35.843  33.634  28.968  1.00  0.00     0.049 A 
BRANCH   6  12
ATOM     12  N   UNL A   1      35.755  32.817  33.112  1.00  0.00    -0.376 N 
ATOM     13  H   UNL A   1      35.073  32.169  33.401  1.00  0.00     0.161 HD
BRANCH  12  14
ATOM     14  C   UNL A   1      36.613  33.402  34.151  1.00  0.00     0.135 C 
ATOM     15  C   UNL A   1      35.652  34.028  35.175  1.00  0.00     0.039 C 
BRANCH  14  16
ATOM     16  C   UNL A   1      37.624  32.449  34.798  1.00  0.00     0.115 A 
ATOM     17  C   UNL A   1      40.178  29.927  34.395  1.00  0.00     0.067 C 
ATOM     18  C   UNL A   1      39.241  30.921  34.977  1.00  0.00     0.049 A 
ATOM     19  C   UNL A   1      39.187  31.330  36.294  1.00  0.00     0.090 A 
ATOM     20  N   UNL A   1      38.327  31.541  34.143  1.00  0.00    -0.244 NA
ATOM     21  S   UNL A   1      38.020  32.565  36.478  1.00  0.00    -0.125 S 
ENDBRANCH  14  16
ENDBRANCH  12  14
ENDBRANCH   6  12
BRANCH  11  22
ATOM     22  N   UNL A   1      35.860  33.860  27.591  1.00  0.00    -0.398 N 
ATOM     23  H   UNL A   1      35.130  33.518  27.027  1.00  0.00     0.156 HD
ATOM     24  H   UNL A   1      36.603  34.362  27.185  1.00  0.00     0.156 HD
ENDBRANCH  11  22
ENDBRANCH   3   5
ENDBRANCH   2   3
ENDBRANCH   1   2
BRANCH   1  25
ATOM     25  C   UNL A   1      32.825  31.630  26.932  1.00  0.00     0.275 C 
BRANCH  25  26
ATOM     26  O   UNL A   1      34.079  31.312  27.554  1.00  0.00    -0.458 OA
BRANCH  26  27
ATOM     27  C   UNL A   1      34.344  29.994  27.725  1.00  0.00     0.338 C 
ATOM     28  O   UNL A   1      33.566  29.067  27.558  1.00  0.00    -0.246 OA
BRANCH  27  29
ATOM     29  C   UNL A   1      35.751  29.823  28.160  1.00  0.00     0.060 A 
ATOM     30  C   UNL A   1      36.795  30.037  27.263  1.00  0.00     0.016 A 
ATOM     31  C   UNL A   1      36.041  29.367  29.445  1.00  0.00     0.016 A 
ATOM     32  C   UNL A   1      38.109  29.719  27.613  1.00  0.00     0.010 A 
ATOM     33  C   UNL A   1      37.374  29.143  29.825  1.00  0.00     0.010 A 
ATOM     34  C   UNL A   1      38.429  29.279  28.903  1.00  0.00    -0.014 A 
BRANCH  34  35
ATOM     35  C   UNL A   1      39.831  28.888  29.262  1.00  0.00     0.031 A 
ATOM     36  C   UNL A   1      40.687  29.824  30.088  1.00  0.00     0.074 A 
ATOM     37  C   UNL A   1      40.357  27.696  28.899  1.00  0.00     0.049 A 
ATOM     38  N   UNL A   1      41.980  29.798  30.299  1.00  0.00    -0.248 NA
ATOM     39  C   UNL A   1      39.999  30.946  30.747  1.00  0.00     0.031 C 
ATOM     40  C   UNL A   1      39.658  26.639  28.166  1.00  0.00     0.029 A 
ATOM     41  N   UNL A   1      41.608  27.165  29.119  1.00  0.00    -0.354 N 
ATOM     42  C   UNL A   1      42.268  30.942  31.037  1.00  0.00     0.074 A 
ATOM     43  C   UNL A   1      41.015  31.634  31.248  1.00  0.00     0.031 C 
ATOM     44  C   UNL A   1      40.459  25.568  28.061  1.00  0.00     0.029 A 
ATOM     45  C   UNL A   1      41.770  25.896  28.609  1.00  0.00     0.049 A 
ATOM     46  H   UNL A   1      42.322  27.648  29.595  1.00  0.00     0.167 HD
ATOM     47  C   UNL A   1      43.468  31.382  31.493  1.00  0.00     0.031 A 
ATOM     48  C   UNL A   1      42.856  25.099  28.537  1.00  0.00     0.031 A 
ATOM     49  C   UNL A   1      44.705  30.659  31.349  1.00  0.00     0.049 A 
ATOM     50  C   UNL A   1      44.182  25.611  29.028  1.00  0.00     0.074 A 
ATOM     51  C   UNL A   1      45.975  31.032  31.760  1.00  0.00     0.029 A 
ATOM     52  N   UNL A   1      44.823  29.399  30.786  1.00  0.00    -0.354 N 
ATOM     53  N   UNL A   1      44.461  26.756  29.603  1.00  0.00    -0.248 NA
ATOM     54  C   UNL A   1      45.347  24.737  28.826  1.00  0.00     0.031 C 
ATOM     55  C   UNL A   1      46.865  30.008  31.419  1.00  0.00     0.029 A 
ATOM     56  C   UNL A   1      46.142  28.979  30.840  1.00  0.00     0.049 A 
ATOM     57  H   UNL A   1      44.080  28.879  30.403  1.00  0.00     0.167 HD
ATOM     58  C   UNL A   1      45.832  26.740  29.831  1.00  0.00     0.074 A 
ATOM     59  C   UNL A   1      46.322  25.461  29.359  1.00  0.00     0.031 C 
ATOM     60  C   UNL A   1      46.618  27.704  30.368  1.00  0.00     0.031 A 
BRANCH  47  61
ATOM     61  C   UNL A   1      43.512  32.737  32.151  1.00  0.00    -0.014 A 
ATOM     62  C   UNL A   1      43.373  32.891  33.540  1.00  0.00     0.010 A 
ATOM     63  C   UNL A   1      43.738  33.878  31.356  1.00  0.00     0.010 A 
ATOM     64  C   UNL A   1      43.418  34.164  34.119  1.00  0.00     0.020 A 
ATOM     65  C   UNL A   1      43.811  35.149  31.933  1.00  0.00     0.020 A 
ATOM     66  C   UNL A   1      43.631  35.285  33.311  1.00  0.00     0.054 A 
BRANCH  66  67
ATOM     67  S   UNL A   1      43.704  36.924  34.087  1.00  0.00     0.124 S 
ATOM     68  O   UNL A   1      44.059  37.776  32.956  1.00  0.00    -0.237 OA
ATOM     69  O   UNL A   1      42.349  37.098  34.603  1.00  0.00    -0.237 OA
ATOM     70  O   UNL A   1      44.741  36.779  35.106  1.00  0.00    -0.744 OA
ENDBRANCH  66  67
ENDBRANCH  47  61
BRANCH  48  71
ATOM     71  C   UNL A   1      42.754  23.753  27.905  1.00  0.00    -0.014 A 
ATOM     72  C   UNL A   1      42.365  22.632  28.660  1.00  0.00     0.010 A 
ATOM     73  C   UNL A   1      43.040  23.587  26.537  1.00  0.00     0.010 A 
ATOM     74  C   UNL A   1      42.268  21.372  28.060  1.00  0.00     0.020 A 
ATOM     75  C   UNL A   1      42.913  22.337  25.927  1.00  0.00     0.020 A 
ATOM     76  C   UNL A   1      42.538  21.234  26.696  1.00  0.00     0.054 A 
BRANCH  76  77
ATOM     77  S   UNL A   1      42.338  19.608  25.914  1.00  0.00     0.124 S 
ATOM     78  O   UNL A   1      40.938  19.640  25.504  1.00  0.00    -0.237 OA
ATOM     79  O   UNL A   1      43.316  19.652  24.830  1.00  0.00    -0.237 OA
ATOM     80  O   UNL A   1      42.657  18.673  26.990  1.00  0.00    -0.744 OA
ENDBRANCH  76  77
ENDBRANCH  48  71
BRANCH  60  81
ATOM     81  C   UNL A   1      48.085  27.402  30.504  1.00  0.00    -0.014 A 
ATOM     82  C   UNL A   1      48.996  27.753  29.492  1.00  0.00     0.010 A 
ATOM     83  C   UNL A   1      48.563  26.790  31.677  1.00  0.00     0.010 A 
ATOM     84  C   UNL A   1      50.356  27.469  29.638  1.00  0.00     0.020 A 
ATOM     85  C   UNL A   1      49.925  26.522  31.834  1.00  0.00     0.020 A 
ATOM     86  C   UNL A   1      50.811  26.851  30.807  1.00  0.00     0.054 A 
BRANCH  86  87
ATOM     87  S   UNL A   1      52.586  26.520  30.987  1.00  0.00     0.124 S 
ATOM     88  O   UNL A   1      53.054  27.727  31.663  1.00  0.00    -0.237 OA
ATOM     89  O   UNL A   1      52.608  25.301  31.791  1.00  0.00    -0.237 OA
ATOM     90  O   UNL A   1      53.049  26.358  29.610  1.00  0.00    -0.744 OA
ENDBRANCH  86  87
ENDBRANCH  60  81
ENDBRANCH  34  35
ENDBRANCH  27  29
ENDBRANCH  26  27
ENDBRANCH  25  26
ENDBRANCH   1  25
TORSDOF 18
ENDMDL
MODEL 3
REMARK VINA RESULT:     -10.3      5.338      8.522
REMARK SMILES Cc1csc([C@H](C)Nc2cc(C)c(N)c(C(=O)OCCOC(=O)c3ccc(-c4c5nc(c(-c6ccc(S(=O)(=O)[O-])cc6)c6ccc([nH]6)c(-c6ccc(S(=O)(=O)[O-])cc6)c6nc(c(-c7ccc(S(=O)(=O)[O-])cc7)c7ccc4[nH]7)C=C6)C=C5)cc3)c2)n1
REMARK SMILES IDX 19 1 18 2 16 3 17 4 15 5 9 6 10 7 84 8 11 9 12 10 13 11 8 12
REMARK SMILES IDX 6 14 7 15 5 16 1 17 2 18 3 19 85 20 4 21 14 22 20 25 21 26
REMARK SMILES IDX 22 27 23 28 24 29 25 30 83 31 26 32 82 33 27 34 28 35 29 36
REMARK SMILES IDX 76 37 30 38 81 39 75 40 77 41 31 42 80 43 74 44 73 45 32 47
REMARK SMILES IDX 62 48 43 49 61 50 44 51 47 52 60 53 78 54 45 55 46 56 59 58
REMARK SMILES IDX 79 59 48 60 33 61 34 62 42 63 35 64 41 65 36 66 37 67 38 68
REMARK SMILES IDX 39 69 40 70 63 71 64 72 72 73 65 74 71 75 66 76 67 77 68 78
REMARK SMILES IDX 69 79 70 80 49 81 50 82 58 83 51 84 57 85 52 86 53 87 54 88
REMARK SMILES IDX 55 89 56 90
REMARK H PARENT 8 13 14 23 14 24 77 46 47 57
REMARK Flexibility Score: inf
ROOT
ATOM      1  C   UNL A   1      32.318  29.877  25.326  1.00  0.00     0.275 C 
ENDROOT
BRANCH   1   2
ATOM      2  O   UNL A   1      32.813  28.530  25.477  1.00  0.00    -0.458 OA
BRANCH   2   3
ATOM      3  C   UNL A   1      31.959  27.530  25.118  1.00  0.00     0.340 C 
ATOM      4  O   UNL A   1      30.906  27.665  24.525  1.00  0.00    -0.246 OA
BRANCH   3   5
ATOM      5  C   UNL A   1      32.536  26.207  25.493  1.00  0.00     0.085 A 
ATOM      6  C   UNL A   1      34.443  24.681  25.458  1.00  0.00     0.036 A 
ATOM      7  C   UNL A   1      33.614  23.702  26.005  1.00  0.00     0.031 A 
ATOM      8  C   UNL A   1      33.870  25.921  25.163  1.00  0.00     0.043 A 
ATOM      9  C   UNL A   1      32.282  23.970  26.373  1.00  0.00    -0.025 A 
ATOM     10  C   UNL A   1      31.453  22.850  26.944  1.00  0.00     0.047 C 
ATOM     11  C   UNL A   1      31.757  25.263  26.195  1.00  0.00     0.049 A 
BRANCH   6  12
ATOM     12  N   UNL A   1      35.766  24.468  25.122  1.00  0.00    -0.376 N 
ATOM     13  H   UNL A   1      36.338  25.260  25.007  1.00  0.00     0.161 HD
BRANCH  12  14
ATOM     14  C   UNL A   1      36.386  23.152  24.921  1.00  0.00     0.135 C 
ATOM     15  C   UNL A   1      36.573  23.013  23.400  1.00  0.00     0.039 C 
BRANCH  14  16
ATOM     16  C   UNL A   1      37.681  22.897  25.699  1.00  0.00     0.115 A 
ATOM     17  C   UNL A   1      40.443  20.694  26.450  1.00  0.00     0.067 C 
ATOM     18  C   UNL A   1      39.531  21.865  26.402  1.00  0.00     0.049 A 
ATOM     19  C   UNL A   1      39.751  23.105  26.966  1.00  0.00     0.090 A 
ATOM     20  N   UNL A   1      38.337  21.750  25.712  1.00  0.00    -0.244 NA
ATOM     21  S   UNL A   1      38.475  24.168  26.564  1.00  0.00    -0.125 S 
ENDBRANCH  14  16
ENDBRANCH  12  14
ENDBRANCH   6  12
BRANCH  11  22
ATOM     22  N   UNL A   1      30.449  25.542  26.589  1.00  0.00    -0.398 N 
ATOM     23  H   UNL A   1      30.270  25.884  27.494  1.00  0.00     0.156 HD
ATOM     24  H   UNL A   1      29.704  25.397  25.961  1.00  0.00     0.156 HD
ENDBRANCH  11  22
ENDBRANCH   3   5
ENDBRANCH   2   3
ENDBRANCH   1   2
BRANCH   1  25
ATOM     25  C   UNL A   1      32.331  30.606  26.670  1.00  0.00     0.275 C 
BRANCH  25  26
ATOM     26  O   UNL A   1      33.554  30.296  27.354  1.00  0.00    -0.458 OA
BRANCH  26  27
ATOM     27  C   UNL A   1      34.293  31.353  27.768  1.00  0.00     0.338 C 
ATOM     28  O   UNL A   1      33.951  32.526  27.765  1.00  0.00    -0.246 OA
BRANCH  27  29
ATOM     29  C   UNL A   1      35.617  30.880  28.239  1.00  0.00     0.060 A 
ATOM     30  C   UNL A   1      35.798  29.549  28.609  1.00  0.00     0.016 A 
ATOM     31  C   UNL A   1      36.671  31.778  28.395  1.00  0.00     0.016 A 
ATOM     32  C   UNL A   1      36.989  29.134  29.208  1.00  0.00     0.010 A 
ATOM     33  C   UNL A   1      37.901  31.335  28.906  1.00  0.00     0.010 A 
ATOM     34  C   UNL A   1      38.069  30.012  29.358  1.00  0.00    -0.014 A 
BRANCH  34  35
ATOM     35  C   UNL A   1      39.328  29.579  30.048  1.00  0.00     0.031 A 
ATOM     36  C   UNL A   1      39.718  30.205  31.368  1.00  0.00     0.074 A 
ATOM     37  C   UNL A   1      40.123  28.608  29.543  1.00  0.00     0.049 A 
ATOM     38  N   UNL A   1      40.864  30.161  32.003  1.00  0.00    -0.248 NA
ATOM     39  C   UNL A   1      38.689  31.001  32.056  1.00  0.00     0.031 C 
ATOM     40  C   UNL A   1      39.869  27.842  28.321  1.00  0.00     0.029 A 
ATOM     41  N   UNL A   1      41.307  28.085  30.012  1.00  0.00    -0.354 N 
ATOM     42  C   UNL A   1      40.719  30.990  33.111  1.00  0.00     0.074 A 
ATOM     43  C   UNL A   1      39.371  31.514  33.070  1.00  0.00     0.031 C 
ATOM     44  C   UNL A   1      40.820  26.907  28.178  1.00  0.00     0.029 A 
ATOM     45  C   UNL A   1      41.820  27.077  29.226  1.00  0.00     0.049 A 
ATOM     46  H   UNL A   1      41.746  28.402  30.834  1.00  0.00     0.167 HD
ATOM     47  C   UNL A   1      41.627  31.294  34.072  1.00  0.00     0.031 A 
ATOM     48  C   UNL A   1      42.984  26.399  29.298  1.00  0.00     0.031 A 
ATOM     49  C   UNL A   1      42.943  30.715  34.157  1.00  0.00     0.049 A 
ATOM     50  C   UNL A   1      43.987  26.764  30.357  1.00  0.00     0.074 A 
ATOM     51  C   UNL A   1      43.941  30.975  35.083  1.00  0.00     0.029 A 
ATOM     52  N   UNL A   1      43.431  29.734  33.311  1.00  0.00    -0.354 N 
ATOM     53  N   UNL A   1      43.885  27.650  31.319  1.00  0.00    -0.248 NA
ATOM     54  C   UNL A   1      45.278  26.062  30.318  1.00  0.00     0.031 C 
ATOM     55  C   UNL A   1      45.043  30.169  34.778  1.00  0.00     0.029 A 
ATOM     56  C   UNL A   1      44.713  29.375  33.693  1.00  0.00     0.049 A 
ATOM     57  H   UNL A   1      42.940  29.348  32.550  1.00  0.00     0.167 HD
ATOM     58  C   UNL A   1      45.097  27.611  31.998  1.00  0.00     0.074 A 
ATOM     59  C   UNL A   1      45.906  26.596  31.357  1.00  0.00     0.031 C 
ATOM     60  C   UNL A   1      45.509  28.361  33.048  1.00  0.00     0.031 A 
BRANCH  47  61
ATOM     61  C   UNL A   1      41.245  32.338  35.089  1.00  0.00    -0.014 A 
ATOM     62  C   UNL A   1      41.508  33.703  34.883  1.00  0.00     0.010 A 
ATOM     63  C   UNL A   1      40.573  31.941  36.261  1.00  0.00     0.010 A 
ATOM     64  C   UNL A   1      41.141  34.647  35.848  1.00  0.00     0.020 A 
ATOM     65  C   UNL A   1      40.180  32.884  37.215  1.00  0.00     0.020 A 
ATOM     66  C   UNL A   1      40.485  34.231  37.010  1.00  0.00     0.054 A 
BRANCH  66  67
ATOM     67  S   UNL A   1      40.002  35.476  38.239  1.00  0.00     0.124 S 
ATOM     68  O   UNL A   1      38.800  34.880  38.814  1.00  0.00    -0.237 OA
ATOM     69  O   UNL A   1      41.164  35.525  39.123  1.00  0.00    -0.237 OA
ATOM     70  O   UNL A   1      39.780  36.681  37.443  1.00  0.00    -0.744 OA
ENDBRANCH  66  67
ENDBRANCH  47  61
BRANCH  48  71
ATOM     71  C   UNL A   1      43.302  25.352  28.286  1.00  0.00    -0.014 A 
ATOM     72  C   UNL A   1      43.907  25.694  27.064  1.00  0.00     0.010 A 
ATOM     73  C   UNL A   1      43.004  24.001  28.545  1.00  0.00     0.010 A 
ATOM     74  C   UNL A   1      44.205  24.706  26.119  1.00  0.00     0.020 A 
ATOM     75  C   UNL A   1      43.329  23.007  27.618  1.00  0.00     0.020 A 
ATOM     76  C   UNL A   1      43.919  23.368  26.405  1.00  0.00     0.054 A 
BRANCH  76  77
ATOM     77  S   UNL A   1      44.376  22.088  25.203  1.00  0.00     0.124 S 
ATOM     78  O   UNL A   1      45.832  22.199  25.183  1.00  0.00    -0.237 OA
ATOM     79  O   UNL A   1      43.843  20.871  25.811  1.00  0.00    -0.237 OA
ATOM     80  O   UNL A   1      43.697  22.511  23.981  1.00  0.00    -0.744 OA
ENDBRANCH  76  77
ENDBRANCH  48  71
BRANCH  60  81
ATOM     81  C   UNL A   1      46.885  28.091  33.592  1.00  0.00    -0.014 A 
ATOM     82  C   UNL A   1      47.093  27.128  34.595  1.00  0.00     0.010 A 
ATOM     83  C   UNL A   1      47.989  28.785  33.065  1.00  0.00     0.010 A 
ATOM     84  C   UNL A   1      48.379  26.887  35.085  1.00  0.00     0.020 A 
ATOM     85  C   UNL A   1      49.279  28.531  33.538  1.00  0.00     0.020 A 
ATOM     86  C   UNL A   1      49.464  27.594  34.555  1.00  0.00     0.054 A 
BRANCH  86  87
ATOM     87  S   UNL A   1      51.129  27.241  35.184  1.00  0.00     0.124 S 
ATOM     88  O   UNL A   1      50.871  26.976  36.597  1.00  0.00    -0.237 OA
ATOM     89  O   UNL A   1      51.536  26.085  34.391  1.00  0.00    -0.237 OA
ATOM     90  O   UNL A   1      51.870  28.470  34.907  1.00  0.00    -0.744 OA
ENDBRANCH  86  87
ENDBRANCH  60  81
ENDBRANCH  34  35
ENDBRANCH  27  29
ENDBRANCH  26  27
ENDBRANCH  25  26
ENDBRANCH   1  25
TORSDOF 18
ENDMDL
