MODEL 1
REMARK VINA RESULT:     -11.5      0.000      0.000
REMARK SMILES Cc1nsc(N(C)C(=O)[C@@H](C)NC(N)=O)c1C(=O)OCCOC(=O)c1ccc(-c2c3nc(c(-c4ccc(S(=O)(=O)[O-])cc4)c4ccc([nH]4)c(-c4ccc(S(=O)(=O)[O-])cc4)c4nc(c(-c5ccc(S(=O)(=O)[O-])cc5)c5ccc2[nH]5)C=C4)C=C3)cc1
REMARK SMILES IDX 20 1 19 2 17 3 18 4 16 5 1 6 2 7 3 8 4 9 5 10 6 11 7 12 8 13
REMARK SMILES IDX 9 14 10 15 11 16 12 17 13 18 14 20 15 21 21 24 22 25 23 26
REMARK SMILES IDX 24 27 25 28 26 29 84 30 27 31 83 32 28 33 29 34 30 35 77 36
REMARK SMILES IDX 31 37 82 38 76 39 78 40 32 41 81 42 75 43 74 44 33 46 63 47
REMARK SMILES IDX 44 48 62 49 45 50 48 51 61 52 79 53 46 54 47 55 60 57 80 58
REMARK SMILES IDX 49 59 34 60 35 61 43 62 36 63 42 64 37 65 38 66 39 67 40 68
REMARK SMILES IDX 41 69 64 70 65 71 73 72 66 73 72 74 67 75 68 76 69 77 70 78
REMARK SMILES IDX 71 79 50 80 51 81 59 82 52 83 58 84 53 85 54 86 55 87 56 88
REMARK SMILES IDX 57 89
REMARK H PARENT 12 19 14 22 14 23 78 45 48 56
REMARK Flexibility Score: inf
ROOT
ATOM      1  C   UNL A   1      36.062  22.349  25.717  1.00  0.00     0.275 C 
ENDROOT
BRANCH   1   2
ATOM      2  O   UNL A   1      35.601  23.451  24.924  1.00  0.00    -0.458 OA
BRANCH   2   3
ATOM      3  C   UNL A   1      35.049  23.184  23.708  1.00  0.00     0.343 C 
ATOM      4  O   UNL A   1      35.699  23.022  22.675  1.00  0.00    -0.246 OA
BRANCH   3   5
ATOM      5  C   UNL A   1      33.593  23.236  23.756  1.00  0.00     0.117 A 
ATOM      6  C   UNL A   1      33.289  20.664  24.295  1.00  0.00     0.069 C 
ATOM      7  C   UNL A   1      32.795  22.055  24.067  1.00  0.00     0.068 A 
ATOM      8  N   UNL A   1      31.489  22.251  24.217  1.00  0.00    -0.195 NA
ATOM      9  S   UNL A   1      31.143  23.802  23.848  1.00  0.00    -0.017 S 
ATOM     10  C   UNL A   1      32.757  24.339  23.520  1.00  0.00     0.133 A 
BRANCH  10  11
ATOM     11  N   UNL A   1      32.887  25.694  23.059  1.00  0.00    -0.303 N 
ATOM     12  C   UNL A   1      33.090  25.995  21.637  1.00  0.00     0.154 C 
BRANCH  11  13
ATOM     13  C   UNL A   1      33.012  26.723  24.013  1.00  0.00     0.249 C 
ATOM     14  O   UNL A   1      34.067  26.947  24.615  1.00  0.00    -0.272 OA
BRANCH  13  15
ATOM     15  C   UNL A   1      31.826  27.700  24.320  1.00  0.00     0.170 C 
ATOM     16  C   UNL A   1      31.641  28.108  25.780  1.00  0.00     0.041 C 
BRANCH  15  17
ATOM     17  N   UNL A   1      31.756  28.857  23.432  1.00  0.00    -0.327 N 
ATOM     18  C   UNL A   1      30.869  28.927  22.403  1.00  0.00     0.312 C 
ATOM     19  H   UNL A   1      32.372  29.611  23.583  1.00  0.00     0.166 HD
ATOM     20  N   UNL A   1      30.968  30.080  21.701  1.00  0.00    -0.352 N 
ATOM     21  O   UNL A   1      30.040  28.080  22.110  1.00  0.00    -0.249 OA
ATOM     22  H   UNL A   1      31.642  30.752  21.950  1.00  0.00     0.161 HD
ATOM     23  H   UNL A   1      30.365  30.247  20.941  1.00  0.00     0.161 HD
ENDBRANCH  15  17
ENDBRANCH  13  15
ENDBRANCH  11  13
ENDBRANCH  10  11
ENDBRANCH   3   5
ENDBRANCH   2   3
ENDBRANCH   1   2
BRANCH   1  24
ATOM     24  C   UNL A   1      37.552  22.171  25.459  1.00  0.00     0.275 C 
BRANCH  24  25
ATOM     25  O   UNL A   1      38.290  23.128  26.206  1.00  0.00    -0.458 OA
BRANCH  25  26
ATOM     26  C   UNL A   1      39.498  22.747  26.683  1.00  0.00     0.338 C 
ATOM     27  O   UNL A   1      39.855  21.633  27.017  1.00  0.00    -0.246 OA
BRANCH  26  28
ATOM     28  C   UNL A   1      40.266  23.973  26.944  1.00  0.00     0.060 A 
ATOM     29  C   UNL A   1      41.290  23.921  27.897  1.00  0.00     0.016 A 
ATOM     30  C   UNL A   1      39.780  25.188  26.443  1.00  0.00     0.016 A 
ATOM     31  C   UNL A   1      41.681  25.098  28.502  1.00  0.00     0.010 A 
ATOM     32  C   UNL A   1      40.127  26.347  27.076  1.00  0.00     0.010 A 
ATOM     33  C   UNL A   1      41.018  26.273  28.142  1.00  0.00    -0.014 A 
BRANCH  33  34
ATOM     34  C   UNL A   1      41.271  27.491  28.871  1.00  0.00     0.031 A 
ATOM     35  C   UNL A   1      42.557  28.134  28.504  1.00  0.00     0.074 A 
ATOM     36  C   UNL A   1      40.299  28.046  29.621  1.00  0.00     0.049 A 
ATOM     37  N   UNL A   1      43.611  28.265  29.236  1.00  0.00    -0.248 NA
ATOM     38  C   UNL A   1      42.767  28.510  27.093  1.00  0.00     0.031 C 
ATOM     39  C   UNL A   1      38.888  27.653  29.736  1.00  0.00     0.029 A 
ATOM     40  N   UNL A   1      40.345  29.183  30.350  1.00  0.00    -0.354 N 
ATOM     41  C   UNL A   1      44.535  28.951  28.454  1.00  0.00     0.074 A 
ATOM     42  C   UNL A   1      44.045  28.889  27.103  1.00  0.00     0.031 C 
ATOM     43  C   UNL A   1      38.182  28.682  30.264  1.00  0.00     0.029 A 
ATOM     44  C   UNL A   1      39.108  29.734  30.651  1.00  0.00     0.049 A 
ATOM     45  H   UNL A   1      41.192  29.589  30.646  1.00  0.00     0.167 HD
ATOM     46  C   UNL A   1      45.496  29.736  29.014  1.00  0.00     0.031 A 
ATOM     47  C   UNL A   1      38.887  31.001  31.093  1.00  0.00     0.031 A 
ATOM     48  C   UNL A   1      45.610  29.490  30.429  1.00  0.00     0.049 A 
ATOM     49  C   UNL A   1      40.194  31.504  31.607  1.00  0.00     0.074 A 
ATOM     50  C   UNL A   1      45.937  28.390  31.195  1.00  0.00     0.029 A 
ATOM     51  N   UNL A   1      44.941  30.357  31.263  1.00  0.00    -0.354 N 
ATOM     52  N   UNL A   1      40.808  30.973  32.632  1.00  0.00    -0.248 NA
ATOM     53  C   UNL A   1      41.054  32.226  30.677  1.00  0.00     0.031 C 
ATOM     54  C   UNL A   1      45.025  28.432  32.289  1.00  0.00     0.029 A 
ATOM     55  C   UNL A   1      44.260  29.597  32.178  1.00  0.00     0.049 A 
ATOM     56  H   UNL A   1      44.950  31.340  31.213  1.00  0.00     0.167 HD
ATOM     57  C   UNL A   1      42.149  30.929  32.270  1.00  0.00     0.074 A 
ATOM     58  C   UNL A   1      42.249  31.779  31.082  1.00  0.00     0.031 C 
ATOM     59  C   UNL A   1      42.994  29.978  32.770  1.00  0.00     0.031 A 
BRANCH  46  60
ATOM     60  C   UNL A   1      46.020  31.008  28.393  1.00  0.00    -0.014 A 
ATOM     61  C   UNL A   1      45.318  32.205  28.643  1.00  0.00     0.010 A 
ATOM     62  C   UNL A   1      46.973  31.032  27.356  1.00  0.00     0.010 A 
ATOM     63  C   UNL A   1      45.478  33.327  27.824  1.00  0.00     0.020 A 
ATOM     64  C   UNL A   1      47.173  32.160  26.559  1.00  0.00     0.020 A 
ATOM     65  C   UNL A   1      46.392  33.288  26.772  1.00  0.00     0.054 A 
BRANCH  65  66
ATOM     66  S   UNL A   1      46.490  34.694  25.641  1.00  0.00     0.124 S 
ATOM     67  O   UNL A   1      47.890  34.649  25.229  1.00  0.00    -0.237 OA
ATOM     68  O   UNL A   1      45.514  34.333  24.617  1.00  0.00    -0.237 OA
ATOM     69  O   UNL A   1      46.118  35.832  26.478  1.00  0.00    -0.744 OA
ENDBRANCH  65  66
ENDBRANCH  46  60
BRANCH  47  70
ATOM     70  C   UNL A   1      37.764  31.898  30.698  1.00  0.00    -0.014 A 
ATOM     71  C   UNL A   1      37.913  32.891  29.711  1.00  0.00     0.010 A 
ATOM     72  C   UNL A   1      36.450  31.600  31.119  1.00  0.00     0.010 A 
ATOM     73  C   UNL A   1      36.791  33.527  29.141  1.00  0.00     0.020 A 
ATOM     74  C   UNL A   1      35.329  32.230  30.561  1.00  0.00     0.020 A 
ATOM     75  C   UNL A   1      35.503  33.179  29.559  1.00  0.00     0.054 A 
BRANCH  75  76
ATOM     76  S   UNL A   1      34.053  33.885  28.714  1.00  0.00     0.124 S 
ATOM     77  O   UNL A   1      34.652  34.933  27.893  1.00  0.00    -0.237 OA
ATOM     78  O   UNL A   1      33.520  32.738  27.985  1.00  0.00    -0.237 OA
ATOM     79  O   UNL A   1      33.214  34.363  29.812  1.00  0.00    -0.744 OA
ENDBRANCH  75  76
ENDBRANCH  47  70
BRANCH  59  80
ATOM     80  C   UNL A   1      42.515  29.083  33.891  1.00  0.00    -0.014 A 
ATOM     81  C   UNL A   1      41.702  27.948  33.693  1.00  0.00     0.010 A 
ATOM     82  C   UNL A   1      43.114  29.269  35.147  1.00  0.00     0.010 A 
ATOM     83  C   UNL A   1      41.499  27.024  34.733  1.00  0.00     0.020 A 
ATOM     84  C   UNL A   1      42.930  28.346  36.177  1.00  0.00     0.020 A 
ATOM     85  C   UNL A   1      42.123  27.227  35.968  1.00  0.00     0.054 A 
BRANCH  85  86
ATOM     86  S   UNL A   1      41.939  25.990  37.285  1.00  0.00     0.124 S 
ATOM     87  O   UNL A   1      42.289  24.748  36.603  1.00  0.00    -0.237 OA
ATOM     88  O   UNL A   1      42.890  26.446  38.295  1.00  0.00    -0.237 OA
ATOM     89  O   UNL A   1      40.533  26.106  37.676  1.00  0.00    -0.744 OA
ENDBRANCH  85  86
ENDBRANCH  59  80
ENDBRANCH  33  34
ENDBRANCH  26  28
ENDBRANCH  25  26
ENDBRANCH  24  25
ENDBRANCH   1  24
TORSDOF 18
ENDMDL
MODEL 2
REMARK VINA RESULT:     -11.1      1.598      3.520
REMARK SMILES Cc1nsc(N(C)C(=O)[C@@H](C)NC(N)=O)c1C(=O)OCCOC(=O)c1ccc(-c2c3nc(c(-c4ccc(S(=O)(=O)[O-])cc4)c4ccc([nH]4)c(-c4ccc(S(=O)(=O)[O-])cc4)c4nc(c(-c5ccc(S(=O)(=O)[O-])cc5)c5ccc2[nH]5)C=C4)C=C3)cc1
REMARK SMILES IDX 20 1 19 2 17 3 18 4 16 5 1 6 2 7 3 8 4 9 5 10 6 11 7 12 8 13
REMARK SMILES IDX 9 14 10 15 11 16 12 17 13 18 14 20 15 21 21 24 22 25 23 26
REMARK SMILES IDX 24 27 25 28 26 29 84 30 27 31 83 32 28 33 29 34 30 35 77 36
REMARK SMILES IDX 31 37 82 38 76 39 78 40 32 41 81 42 75 43 74 44 33 46 63 47
REMARK SMILES IDX 44 48 62 49 45 50 48 51 61 52 79 53 46 54 47 55 60 57 80 58
REMARK SMILES IDX 49 59 34 60 35 61 43 62 36 63 42 64 37 65 38 66 39 67 40 68
REMARK SMILES IDX 41 69 64 70 65 71 73 72 66 73 72 74 67 75 68 76 69 77 70 78
REMARK SMILES IDX 71 79 50 80 51 81 59 82 52 83 58 84 53 85 54 86 55 87 56 88
REMARK SMILES IDX 57 89
REMARK H PARENT 12 19 14 22 14 23 78 45 48 56
REMARK Flexibility Score: inf
ROOT
ATOM      1  C   UNL A   1      35.989  23.066  25.722  1.00  0.00     0.275 C 
ENDROOT
BRANCH   1   2
ATOM      2  O   UNL A   1      35.544  24.264  25.073  1.00  0.00    -0.458 OA
BRANCH   2   3
ATOM      3  C   UNL A   1      34.547  24.165  24.151  1.00  0.00     0.343 C 
ATOM      4  O   UNL A   1      34.684  24.421  22.955  1.00  0.00    -0.246 OA
BRANCH   3   5
ATOM      5  C   UNL A   1      33.270  23.841  24.774  1.00  0.00     0.117 A 
ATOM      6  C   UNL A   1      32.961  26.210  25.911  1.00  0.00     0.069 C 
ATOM      7  C   UNL A   1      32.530  24.823  25.561  1.00  0.00     0.068 A 
ATOM      8  N   UNL A   1      31.317  24.460  25.966  1.00  0.00    -0.195 NA
ATOM      9  S   UNL A   1      31.072  22.899  25.559  1.00  0.00    -0.017 S 
ATOM     10  C   UNL A   1      32.575  22.621  24.745  1.00  0.00     0.133 A 
BRANCH  10  11
ATOM     11  N   UNL A   1      32.802  21.278  24.284  1.00  0.00    -0.303 N 
ATOM     12  C   UNL A   1      32.202  20.794  23.036  1.00  0.00     0.154 C 
BRANCH  11  13
ATOM     13  C   UNL A   1      33.450  20.370  25.143  1.00  0.00     0.249 C 
ATOM     14  O   UNL A   1      33.296  20.387  26.368  1.00  0.00    -0.272 OA
BRANCH  13  15
ATOM     15  C   UNL A   1      34.363  19.226  24.583  1.00  0.00     0.170 C 
ATOM     16  C   UNL A   1      35.863  19.365  24.838  1.00  0.00     0.041 C 
BRANCH  15  17
ATOM     17  N   UNL A   1      33.895  17.877  24.895  1.00  0.00    -0.327 N 
ATOM     18  C   UNL A   1      33.299  17.085  23.964  1.00  0.00     0.312 C 
ATOM     19  H   UNL A   1      34.014  17.531  25.809  1.00  0.00     0.166 HD
ATOM     20  N   UNL A   1      32.938  15.877  24.454  1.00  0.00    -0.352 N 
ATOM     21  O   UNL A   1      33.103  17.374  22.793  1.00  0.00    -0.249 OA
ATOM     22  H   UNL A   1      33.103  15.660  25.400  1.00  0.00     0.161 HD
ATOM     23  H   UNL A   1      32.510  15.214  23.865  1.00  0.00     0.161 HD
ENDBRANCH  15  17
ENDBRANCH  13  15
ENDBRANCH  11  13
ENDBRANCH  10  11
ENDBRANCH   3   5
ENDBRANCH   2   3
ENDBRANCH   1   2
BRANCH   1  24
ATOM     24  C   UNL A   1      37.460  22.863  25.383  1.00  0.00     0.275 C 
BRANCH  24  25
ATOM     25  O   UNL A   1      38.272  23.344  26.446  1.00  0.00    -0.458 OA
BRANCH  25  26
ATOM     26  C   UNL A   1      39.564  22.941  26.472  1.00  0.00     0.338 C 
ATOM     27  O   UNL A   1      39.996  21.804  26.436  1.00  0.00    -0.246 OA
BRANCH  26  28
ATOM     28  C   UNL A   1      40.380  24.125  26.778  1.00  0.00     0.060 A 
ATOM     29  C   UNL A   1      41.348  24.018  27.783  1.00  0.00     0.016 A 
ATOM     30  C   UNL A   1      39.984  25.365  26.257  1.00  0.00     0.016 A 
ATOM     31  C   UNL A   1      41.767  25.173  28.412  1.00  0.00     0.010 A 
ATOM     32  C   UNL A   1      40.357  26.503  26.913  1.00  0.00     0.010 A 
ATOM     33  C   UNL A   1      41.185  26.381  28.023  1.00  0.00    -0.014 A 
BRANCH  33  34
ATOM     34  C   UNL A   1      41.463  27.584  28.769  1.00  0.00     0.031 A 
ATOM     35  C   UNL A   1      42.790  28.171  28.457  1.00  0.00     0.074 A 
ATOM     36  C   UNL A   1      40.488  28.176  29.485  1.00  0.00     0.049 A 
ATOM     37  N   UNL A   1      43.819  28.252  29.230  1.00  0.00    -0.248 NA
ATOM     38  C   UNL A   1      43.070  28.545  27.058  1.00  0.00     0.031 C 
ATOM     39  C   UNL A   1      39.058  27.845  29.543  1.00  0.00     0.029 A 
ATOM     40  N   UNL A   1      40.555  29.307  30.223  1.00  0.00    -0.354 N 
ATOM     41  C   UNL A   1      44.801  28.901  28.488  1.00  0.00     0.074 A 
ATOM     42  C   UNL A   1      44.362  28.867  27.119  1.00  0.00     0.031 C 
ATOM     43  C   UNL A   1      38.377  28.901  30.050  1.00  0.00     0.029 A 
ATOM     44  C   UNL A   1      39.332  29.910  30.480  1.00  0.00     0.049 A 
ATOM     45  H   UNL A   1      41.407  29.674  30.555  1.00  0.00     0.167 HD
ATOM     46  C   UNL A   1      45.773  29.641  29.091  1.00  0.00     0.031 A 
ATOM     47  C   UNL A   1      39.150  31.183  30.921  1.00  0.00     0.031 A 
ATOM     48  C   UNL A   1      45.821  29.382  30.507  1.00  0.00     0.049 A 
ATOM     49  C   UNL A   1      40.456  31.625  31.488  1.00  0.00     0.074 A 
ATOM     50  C   UNL A   1      46.070  28.266  31.278  1.00  0.00     0.029 A 
ATOM     51  N   UNL A   1      45.159  30.274  31.320  1.00  0.00    -0.354 N 
ATOM     52  N   UNL A   1      41.006  31.064  32.533  1.00  0.00    -0.248 NA
ATOM     53  C   UNL A   1      41.382  32.314  30.597  1.00  0.00     0.031 C 
ATOM     54  C   UNL A   1      45.119  28.343  32.336  1.00  0.00     0.029 A 
ATOM     55  C   UNL A   1      44.410  29.540  32.204  1.00  0.00     0.049 A 
ATOM     56  H   UNL A   1      45.212  31.256  31.277  1.00  0.00     0.167 HD
ATOM     57  C   UNL A   1      42.357  30.963  32.222  1.00  0.00     0.074 A 
ATOM     58  C   UNL A   1      42.540  31.814  31.045  1.00  0.00     0.031 C 
ATOM     59  C   UNL A   1      43.140  29.974  32.749  1.00  0.00     0.031 A 
BRANCH  46  60
ATOM     60  C   UNL A   1      46.375  30.892  28.499  1.00  0.00    -0.014 A 
ATOM     61  C   UNL A   1      45.693  32.110  28.692  1.00  0.00     0.010 A 
ATOM     62  C   UNL A   1      47.398  30.879  27.530  1.00  0.00     0.010 A 
ATOM     63  C   UNL A   1      45.942  33.220  27.878  1.00  0.00     0.020 A 
ATOM     64  C   UNL A   1      47.685  31.994  26.741  1.00  0.00     0.020 A 
ATOM     65  C   UNL A   1      46.924  33.145  26.892  1.00  0.00     0.054 A 
BRANCH  65  66
ATOM     66  S   UNL A   1      47.142  34.538  25.761  1.00  0.00     0.124 S 
ATOM     67  O   UNL A   1      48.476  34.283  25.226  1.00  0.00    -0.237 OA
ATOM     68  O   UNL A   1      46.035  34.351  24.827  1.00  0.00    -0.237 OA
ATOM     69  O   UNL A   1      47.027  35.706  26.632  1.00  0.00    -0.744 OA
ENDBRANCH  65  66
ENDBRANCH  46  60
BRANCH  47  70
ATOM     70  C   UNL A   1      38.082  32.130  30.489  1.00  0.00    -0.014 A 
ATOM     71  C   UNL A   1      37.878  32.456  29.134  1.00  0.00     0.010 A 
ATOM     72  C   UNL A   1      37.082  32.521  31.405  1.00  0.00     0.010 A 
ATOM     73  C   UNL A   1      36.701  33.109  28.711  1.00  0.00     0.020 A 
ATOM     74  C   UNL A   1      35.911  33.173  30.993  1.00  0.00     0.020 A 
ATOM     75  C   UNL A   1      35.716  33.448  29.644  1.00  0.00     0.054 A 
BRANCH  75  76
ATOM     76  S   UNL A   1      34.134  34.147  29.077  1.00  0.00     0.124 S 
ATOM     77  O   UNL A   1      33.410  34.337  30.331  1.00  0.00    -0.237 OA
ATOM     78  O   UNL A   1      34.550  35.369  28.396  1.00  0.00    -0.237 OA
ATOM     79  O   UNL A   1      33.593  33.107  28.203  1.00  0.00    -0.744 OA
ENDBRANCH  75  76
ENDBRANCH  47  70
BRANCH  59  80
ATOM     80  C   UNL A   1      42.579  29.095  33.844  1.00  0.00    -0.014 A 
ATOM     81  C   UNL A   1      41.868  27.901  33.604  1.00  0.00     0.010 A 
ATOM     82  C   UNL A   1      43.003  29.370  35.154  1.00  0.00     0.010 A 
ATOM     83  C   UNL A   1      41.592  27.008  34.654  1.00  0.00     0.020 A 
ATOM     84  C   UNL A   1      42.747  28.480  36.197  1.00  0.00     0.020 A 
ATOM     85  C   UNL A   1      42.042  27.302  35.945  1.00  0.00     0.054 A 
BRANCH  85  86
ATOM     86  S   UNL A   1      41.769  26.110  37.287  1.00  0.00     0.124 S 
ATOM     87  O   UNL A   1      42.878  26.394  38.193  1.00  0.00    -0.237 OA
ATOM     88  O   UNL A   1      40.443  26.473  37.781  1.00  0.00    -0.237 OA
ATOM     89  O   UNL A   1      41.835  24.811  36.617  1.00  0.00    -0.744 OA
ENDBRANCH  85  86
ENDBRANCH  59  80
ENDBRANCH  33  34
ENDBRANCH  26  28
ENDBRANCH  25  26
ENDBRANCH  24  25
ENDBRANCH   1  24
TORSDOF 18
ENDMDL
MODEL 3
REMARK VINA RESULT:     -10.8      1.598      2.050
REMARK SMILES Cc1nsc(N(C)C(=O)[C@@H](C)NC(N)=O)c1C(=O)OCCOC(=O)c1ccc(-c2c3nc(c(-c4ccc(S(=O)(=O)[O-])cc4)c4ccc([nH]4)c(-c4ccc(S(=O)(=O)[O-])cc4)c4nc(c(-c5ccc(S(=O)(=O)[O-])cc5)c5ccc2[nH]5)C=C4)C=C3)cc1
REMARK SMILES IDX 20 1 19 2 17 3 18 4 16 5 1 6 2 7 3 8 4 9 5 10 6 11 7 12 8 13
REMARK SMILES IDX 9 14 10 15 11 16 12 17 13 18 14 20 15 21 21 24 22 25 23 26
REMARK SMILES IDX 24 27 25 28 26 29 84 30 27 31 83 32 28 33 29 34 30 35 77 36
REMARK SMILES IDX 31 37 82 38 76 39 78 40 32 41 81 42 75 43 74 44 33 46 63 47
REMARK SMILES IDX 44 48 62 49 45 50 48 51 61 52 79 53 46 54 47 55 60 57 80 58
REMARK SMILES IDX 49 59 34 60 35 61 43 62 36 63 42 64 37 65 38 66 39 67 40 68
REMARK SMILES IDX 41 69 64 70 65 71 73 72 66 73 72 74 67 75 68 76 69 77 70 78
REMARK SMILES IDX 71 79 50 80 51 81 59 82 52 83 58 84 53 85 54 86 55 87 56 88
REMARK SMILES IDX 57 89
REMARK H PARENT 12 19 14 22 14 23 78 45 48 56
REMARK Flexibility Score: inf
ROOT
ATOM      1  C   UNL A   1      36.431  22.038  25.232  1.00  0.00     0.275 C 
ENDROOT
BRANCH   1   2
ATOM      2  O   UNL A   1      35.642  20.999  25.826  1.00  0.00    -0.458 OA
BRANCH   2   3
ATOM      3  C   UNL A   1      34.359  21.287  26.180  1.00  0.00     0.343 C 
ATOM      4  O   UNL A   1      33.969  21.385  27.343  1.00  0.00    -0.246 OA
BRANCH   3   5
ATOM      5  C   UNL A   1      33.480  21.342  25.018  1.00  0.00     0.117 A 
ATOM      6  C   UNL A   1      33.803  18.798  24.367  1.00  0.00     0.069 C 
ATOM      7  C   UNL A   1      33.207  20.159  24.208  1.00  0.00     0.068 A 
ATOM      8  N   UNL A   1      32.287  20.296  23.259  1.00  0.00    -0.195 NA
ATOM      9  S   UNL A   1      31.825  21.859  23.194  1.00  0.00    -0.017 S 
ATOM     10  C   UNL A   1      32.798  22.453  24.499  1.00  0.00     0.133 A 
BRANCH  10  11
ATOM     11  N   UNL A   1      32.743  23.872  24.729  1.00  0.00    -0.303 N 
ATOM     12  C   UNL A   1      33.850  24.748  24.328  1.00  0.00     0.154 C 
BRANCH  11  13
ATOM     13  C   UNL A   1      31.699  24.387  25.521  1.00  0.00     0.249 C 
ATOM     14  O   UNL A   1      31.135  23.722  26.394  1.00  0.00    -0.272 OA
BRANCH  13  15
ATOM     15  C   UNL A   1      31.232  25.878  25.386  1.00  0.00     0.170 C 
ATOM     16  C   UNL A   1      30.123  26.154  24.372  1.00  0.00     0.041 C 
BRANCH  15  17
ATOM     17  N   UNL A   1      30.964  26.540  26.660  1.00  0.00    -0.327 N 
ATOM     18  C   UNL A   1      31.654  27.641  27.062  1.00  0.00     0.312 C 
ATOM     19  H   UNL A   1      30.261  26.177  27.247  1.00  0.00     0.166 HD
ATOM     20  N   UNL A   1      31.255  28.100  28.270  1.00  0.00    -0.352 N 
ATOM     21  O   UNL A   1      32.534  28.207  26.432  1.00  0.00    -0.249 OA
ATOM     22  H   UNL A   1      30.544  27.632  28.765  1.00  0.00     0.161 HD
ATOM     23  H   UNL A   1      31.675  28.902  28.656  1.00  0.00     0.161 HD
ENDBRANCH  15  17
ENDBRANCH  13  15
ENDBRANCH  11  13
ENDBRANCH  10  11
ENDBRANCH   3   5
ENDBRANCH   2   3
ENDBRANCH   1   2
BRANCH   1  24
ATOM     24  C   UNL A   1      37.899  21.705  25.460  1.00  0.00     0.275 C 
BRANCH  24  25
ATOM     25  O   UNL A   1      38.567  22.823  26.030  1.00  0.00    -0.458 OA
BRANCH  25  26
ATOM     26  C   UNL A   1      39.717  22.583  26.702  1.00  0.00     0.338 C 
ATOM     27  O   UNL A   1      40.098  21.534  27.186  1.00  0.00    -0.246 OA
BRANCH  26  28
ATOM     28  C   UNL A   1      40.353  23.885  26.950  1.00  0.00     0.060 A 
ATOM     29  C   UNL A   1      41.397  23.944  27.881  1.00  0.00     0.016 A 
ATOM     30  C   UNL A   1      39.726  25.040  26.463  1.00  0.00     0.016 A 
ATOM     31  C   UNL A   1      41.670  25.156  28.481  1.00  0.00     0.010 A 
ATOM     32  C   UNL A   1      39.958  26.230  27.092  1.00  0.00     0.010 A 
ATOM     33  C   UNL A   1      40.875  26.253  28.138  1.00  0.00    -0.014 A 
BRANCH  33  34
ATOM     34  C   UNL A   1      41.011  27.491  28.865  1.00  0.00     0.031 A 
ATOM     35  C   UNL A   1      42.205  28.275  28.466  1.00  0.00     0.074 A 
ATOM     36  C   UNL A   1      40.004  27.931  29.645  1.00  0.00     0.049 A 
ATOM     37  N   UNL A   1      43.258  28.523  29.168  1.00  0.00    -0.248 NA
ATOM     38  C   UNL A   1      42.331  28.674  27.051  1.00  0.00     0.031 C 
ATOM     39  C   UNL A   1      38.650  27.382  29.797  1.00  0.00     0.029 A 
ATOM     40  N   UNL A   1      39.942  29.066  30.377  1.00  0.00    -0.354 N 
ATOM     41  C   UNL A   1      44.076  29.310  28.363  1.00  0.00     0.074 A 
ATOM     42  C   UNL A   1      43.558  29.194  27.026  1.00  0.00     0.031 C 
ATOM     43  C   UNL A   1      37.848  28.324  30.350  1.00  0.00     0.029 A 
ATOM     44  C   UNL A   1      38.660  29.473  30.715  1.00  0.00     0.049 A 
ATOM     45  H   UNL A   1      40.746  29.564  30.652  1.00  0.00     0.167 HD
ATOM     46  C   UNL A   1      44.958  30.197  28.900  1.00  0.00     0.031 A 
ATOM     47  C   UNL A   1      38.310  30.707  31.169  1.00  0.00     0.031 A 
ATOM     48  C   UNL A   1      45.139  29.964  30.309  1.00  0.00     0.049 A 
ATOM     49  C   UNL A   1      39.566  31.353  31.648  1.00  0.00     0.074 A 
ATOM     50  C   UNL A   1      45.609  28.907  31.061  1.00  0.00     0.029 A 
ATOM     51  N   UNL A   1      44.400  30.749  31.166  1.00  0.00    -0.354 N 
ATOM     52  N   UNL A   1      40.265  30.894  32.653  1.00  0.00    -0.248 NA
ATOM     53  C   UNL A   1      40.313  32.168  30.697  1.00  0.00     0.031 C 
ATOM     54  C   UNL A   1      44.730  28.845  32.181  1.00  0.00     0.029 A 
ATOM     55  C   UNL A   1      43.836  29.916  32.096  1.00  0.00     0.049 A 
ATOM     56  H   UNL A   1      44.297  31.727  31.120  1.00  0.00     0.167 HD
ATOM     57  C   UNL A   1      41.591  31.002  32.253  1.00  0.00     0.074 A 
ATOM     58  C   UNL A   1      41.561  31.859  31.066  1.00  0.00     0.031 C 
ATOM     59  C   UNL A   1      42.552  30.152  32.726  1.00  0.00     0.031 A 
BRANCH  46  60
ATOM     60  C   UNL A   1      45.317  31.521  28.270  1.00  0.00    -0.014 A 
ATOM     61  C   UNL A   1      45.872  32.519  29.096  1.00  0.00     0.010 A 
ATOM     62  C   UNL A   1      44.866  31.924  26.997  1.00  0.00     0.010 A 
ATOM     63  C   UNL A   1      45.868  33.864  28.715  1.00  0.00     0.020 A 
ATOM     64  C   UNL A   1      44.898  33.258  26.588  1.00  0.00     0.020 A 
ATOM     65  C   UNL A   1      45.360  34.226  27.469  1.00  0.00     0.054 A 
BRANCH  65  66
ATOM     66  S   UNL A   1      45.237  35.979  27.045  1.00  0.00     0.124 S 
ATOM     67  O   UNL A   1      45.803  36.614  28.230  1.00  0.00    -0.237 OA
ATOM     68  O   UNL A   1      46.046  36.059  25.832  1.00  0.00    -0.237 OA
ATOM     69  O   UNL A   1      43.803  36.182  26.847  1.00  0.00    -0.744 OA
ENDBRANCH  65  66
ENDBRANCH  46  60
BRANCH  47  70
ATOM     70  C   UNL A   1      37.082  31.472  30.809  1.00  0.00    -0.014 A 
ATOM     71  C   UNL A   1      36.766  32.703  31.415  1.00  0.00     0.010 A 
ATOM     72  C   UNL A   1      36.340  31.107  29.665  1.00  0.00     0.010 A 
ATOM     73  C   UNL A   1      35.778  33.550  30.872  1.00  0.00     0.020 A 
ATOM     74  C   UNL A   1      35.355  31.941  29.120  1.00  0.00     0.020 A 
ATOM     75  C   UNL A   1      35.090  33.170  29.716  1.00  0.00     0.054 A 
BRANCH  75  76
ATOM     76  S   UNL A   1      33.930  34.331  28.928  1.00  0.00     0.124 S 
ATOM     77  O   UNL A   1      33.242  33.478  27.964  1.00  0.00    -0.237 OA
ATOM     78  O   UNL A   1      33.122  34.789  30.055  1.00  0.00    -0.237 OA
ATOM     79  O   UNL A   1      34.804  35.347  28.343  1.00  0.00    -0.744 OA
ENDBRANCH  75  76
ENDBRANCH  47  70
BRANCH  59  80
ATOM     80  C   UNL A   1      42.209  29.207  33.855  1.00  0.00    -0.014 A 
ATOM     81  C   UNL A   1      41.545  27.976  33.673  1.00  0.00     0.010 A 
ATOM     82  C   UNL A   1      42.798  29.473  35.102  1.00  0.00     0.010 A 
ATOM     83  C   UNL A   1      41.478  27.038  34.717  1.00  0.00     0.020 A 
ATOM     84  C   UNL A   1      42.750  28.538  36.136  1.00  0.00     0.020 A 
ATOM     85  C   UNL A   1      42.090  27.324  35.942  1.00  0.00     0.054 A 
BRANCH  85  86
ATOM     86  S   UNL A   1      42.086  26.079  37.264  1.00  0.00     0.124 S 
ATOM     87  O   UNL A   1      40.687  26.062  37.679  1.00  0.00    -0.237 OA
ATOM     88  O   UNL A   1      42.556  24.876  36.580  1.00  0.00    -0.237 OA
ATOM     89  O   UNL A   1      43.018  26.620  38.253  1.00  0.00    -0.744 OA
ENDBRANCH  85  86
ENDBRANCH  59  80
ENDBRANCH  33  34
ENDBRANCH  26  28
ENDBRANCH  25  26
ENDBRANCH  24  25
ENDBRANCH   1  24
TORSDOF 18
ENDMDL
