MODEL 1
REMARK VINA RESULT:     -12.5      0.000      0.000
REMARK SMILES CC1=CC[C@@](C(=O)N/N=C/C2=C([O-])CC(C)(C)CC2=O)(C(=O)OCCOC(=O)c2ccc(-c3c4nc(c(-c5ccc(S(=O)(=O)[O-])cc5)c5ccc([nH]5)c(-c5ccc(S(=O)(=O)[O-])cc5)c5nc(c(-c6ccc(S(=O)(=O)[O-])cc6)c6ccc3[nH]6)C=C5)C=C4)cc2)C[C@@H]1c1ccccc1
REMARK SMILES IDX 24 1 23 2 21 3 22 4 5 5 1 6 2 7 3 8 90 9 4 10 89 11 91 12
REMARK SMILES IDX 92 13 96 14 93 15 95 16 94 17 6 18 7 19 8 20 9 22 10 23
REMARK SMILES IDX 11 24 12 25 19 26 13 27 14 28 18 29 20 30 15 31 16 32 17 33
REMARK SMILES IDX 25 34 26 35 27 36 28 37 29 38 30 39 88 40 31 41 87 42 32 43
REMARK SMILES IDX 33 44 34 45 81 46 35 47 86 48 80 49 82 50 36 51 85 52 79 53
REMARK SMILES IDX 78 54 37 56 67 57 48 58 66 59 49 60 52 61 65 62 83 63 50 64
REMARK SMILES IDX 51 65 64 67 84 68 53 69 38 70 39 71 47 72 40 73 46 74 41 75
REMARK SMILES IDX 42 76 43 77 44 78 45 79 68 80 69 81 77 82 70 83 76 84 71 85
REMARK SMILES IDX 72 86 73 87 74 88 75 89 54 90 55 91 63 92 56 93 62 94 57 95
REMARK SMILES IDX 58 96 59 97 60 98 61 99
REMARK H PARENT 8 21 82 55 52 66
REMARK Flexibility Score: inf
ROOT
ATOM      1  C   UNL A   1      36.590  23.073  26.139  1.00  0.00     0.274 C 
ENDROOT
BRANCH   1   2
ATOM      2  O   UNL A   1      35.698  23.782  25.252  1.00  0.00    -0.461 OA
BRANCH   2   3
ATOM      3  C   UNL A   1      34.409  23.870  25.691  1.00  0.00     0.322 C 
ATOM      4  O   UNL A   1      34.098  23.811  26.877  1.00  0.00    -0.251 OA
BRANCH   3   5
ATOM      5  C   UNL A   1      33.408  24.113  24.547  1.00  0.00     0.152 C 
ATOM      6  C   UNL A   1      32.446  25.654  20.494  1.00  0.00     0.040 C 
ATOM      7  C   UNL A   1      32.944  25.191  21.836  1.00  0.00    -0.070 C 
ATOM      8  C   UNL A   1      33.497  23.972  21.982  1.00  0.00    -0.026 C 
ATOM      9  C   UNL A   1      32.934  26.189  22.969  1.00  0.00     0.046 C 
ATOM     10  C   UNL A   1      33.916  23.369  23.299  1.00  0.00     0.056 C 
ATOM     11  C   UNL A   1      33.476  25.648  24.305  1.00  0.00     0.042 C 
BRANCH   9  12
ATOM     12  C   UNL A   1      31.683  27.000  23.262  1.00  0.00    -0.041 A 
ATOM     13  C   UNL A   1      30.472  26.286  23.396  1.00  0.00     0.004 A 
ATOM     14  C   UNL A   1      31.633  28.394  23.220  1.00  0.00     0.004 A 
ATOM     15  C   UNL A   1      29.247  26.945  23.434  1.00  0.00     0.000 A 
ATOM     16  C   UNL A   1      30.401  29.056  23.260  1.00  0.00     0.000 A 
ATOM     17  C   UNL A   1      29.212  28.332  23.351  1.00  0.00     0.000 A 
ENDBRANCH   9  12
BRANCH   5  18
ATOM     18  C   UNL A   1      32.006  23.727  25.077  1.00  0.00     0.257 C 
ATOM     19  O   UNL A   1      31.247  24.586  25.548  1.00  0.00    -0.272 OA
ATOM     20  N   UNL A   1      31.494  22.452  24.992  1.00  0.00    -0.246 N 
ATOM     21  H   UNL A   1      30.553  22.317  25.246  1.00  0.00     0.193 HD
BRANCH  20  22
ATOM     22  N   UNL A   1      32.196  21.378  24.582  1.00  0.00    -0.181 NA
ATOM     23  C   UNL A   1      32.804  20.661  25.471  1.00  0.00     0.144 C 
BRANCH  23  24
ATOM     24  C   UNL A   1      33.472  19.373  25.129  1.00  0.00     0.026 C 
ATOM     25  C   UNL A   1      34.796  19.304  24.872  1.00  0.00    -0.119 C 
ATOM     26  C   UNL A   1      32.712  18.087  25.184  1.00  0.00     0.164 C 
ATOM     27  O   UNL A   1      35.640  20.396  24.782  1.00  0.00    -0.875 OA
ATOM     28  C   UNL A   1      35.566  18.005  24.739  1.00  0.00     0.026 C 
ATOM     29  C   UNL A   1      33.485  16.827  25.510  1.00  0.00     0.087 C 
ATOM     30  O   UNL A   1      31.505  18.050  24.957  1.00  0.00    -0.294 OA
ATOM     31  C   UNL A   1      34.729  16.714  24.623  1.00  0.00    -0.025 C 
ATOM     32  C   UNL A   1      34.312  16.467  23.160  1.00  0.00     0.012 C 
ATOM     33  C   UNL A   1      35.579  15.516  25.088  1.00  0.00     0.012 C 
ENDBRANCH  23  24
ENDBRANCH  20  22
ENDBRANCH   5  18
ENDBRANCH   3   5
ENDBRANCH   2   3
ENDBRANCH   1   2
BRANCH   1  34
ATOM     34  C   UNL A   1      38.023  23.205  25.622  1.00  0.00     0.275 C 
BRANCH  34  35
ATOM     35  O   UNL A   1      38.568  24.473  26.031  1.00  0.00    -0.458 OA
BRANCH  35  36
ATOM     36  C   UNL A   1      39.740  24.414  26.711  1.00  0.00     0.338 C 
ATOM     37  O   UNL A   1      40.616  23.572  26.550  1.00  0.00    -0.246 OA
BRANCH  36  38
ATOM     38  C   UNL A   1      39.853  25.545  27.673  1.00  0.00     0.060 A 
ATOM     39  C   UNL A   1      40.736  26.603  27.455  1.00  0.00     0.016 A 
ATOM     40  C   UNL A   1      39.108  25.531  28.854  1.00  0.00     0.016 A 
ATOM     41  C   UNL A   1      40.937  27.583  28.430  1.00  0.00     0.010 A 
ATOM     42  C   UNL A   1      39.223  26.583  29.776  1.00  0.00     0.010 A 
ATOM     43  C   UNL A   1      40.148  27.625  29.586  1.00  0.00    -0.014 A 
BRANCH  43  44
ATOM     44  C   UNL A   1      40.259  28.756  30.564  1.00  0.00     0.031 A 
ATOM     45  C   UNL A   1      41.272  28.711  31.685  1.00  0.00     0.074 A 
ATOM     46  C   UNL A   1      39.425  29.819  30.492  1.00  0.00     0.049 A 
ATOM     47  N   UNL A   1      41.333  29.441  32.772  1.00  0.00    -0.248 NA
ATOM     48  C   UNL A   1      42.343  27.707  31.582  1.00  0.00     0.031 C 
ATOM     49  C   UNL A   1      38.407  30.043  29.462  1.00  0.00     0.029 A 
ATOM     50  N   UNL A   1      39.294  30.915  31.317  1.00  0.00    -0.354 N 
ATOM     51  C   UNL A   1      42.389  28.930  33.519  1.00  0.00     0.074 A 
ATOM     52  C   UNL A   1      42.957  27.842  32.751  1.00  0.00     0.031 C 
ATOM     53  C   UNL A   1      37.791  31.211  29.689  1.00  0.00     0.029 A 
ATOM     54  C   UNL A   1      38.281  31.769  30.943  1.00  0.00     0.049 A 
ATOM     55  H   UNL A   1      39.871  31.072  32.098  1.00  0.00     0.167 HD
ATOM     56  C   UNL A   1      42.837  29.322  34.737  1.00  0.00     0.031 A 
ATOM     57  C   UNL A   1      37.743  32.841  31.559  1.00  0.00     0.031 A 
ATOM     58  C   UNL A   1      42.323  30.450  35.472  1.00  0.00     0.049 A 
ATOM     59  C   UNL A   1      38.245  33.247  32.914  1.00  0.00     0.074 A 
ATOM     60  C   UNL A   1      42.751  30.943  36.695  1.00  0.00     0.029 A 
ATOM     61  N   UNL A   1      41.286  31.268  35.055  1.00  0.00    -0.354 N 
ATOM     62  N   UNL A   1      39.208  32.716  33.628  1.00  0.00    -0.248 NA
ATOM     63  C   UNL A   1      37.567  34.382  33.560  1.00  0.00     0.031 C 
ATOM     64  C   UNL A   1      41.945  32.035  37.035  1.00  0.00     0.029 A 
ATOM     65  C   UNL A   1      41.048  32.248  36.004  1.00  0.00     0.049 A 
ATOM     66  H   UNL A   1      40.792  31.167  34.209  1.00  0.00     0.167 HD
ATOM     67  C   UNL A   1      39.244  33.446  34.810  1.00  0.00     0.074 A 
ATOM     68  C   UNL A   1      38.235  34.477  34.702  1.00  0.00     0.031 C 
ATOM     69  C   UNL A   1      40.036  33.266  35.894  1.00  0.00     0.031 A 
BRANCH  56  70
ATOM     70  C   UNL A   1      43.921  28.507  35.391  1.00  0.00    -0.014 A 
ATOM     71  C   UNL A   1      45.278  28.846  35.264  1.00  0.00     0.010 A 
ATOM     72  C   UNL A   1      43.557  27.436  36.231  1.00  0.00     0.010 A 
ATOM     73  C   UNL A   1      46.254  28.116  35.951  1.00  0.00     0.020 A 
ATOM     74  C   UNL A   1      44.527  26.720  36.938  1.00  0.00     0.020 A 
ATOM     75  C   UNL A   1      45.873  27.059  36.785  1.00  0.00     0.054 A 
BRANCH  75  76
ATOM     76  S   UNL A   1      47.154  26.167  37.709  1.00  0.00     0.124 S 
ATOM     77  O   UNL A   1      46.827  24.775  37.407  1.00  0.00    -0.237 OA
ATOM     78  O   UNL A   1      48.389  26.664  37.108  1.00  0.00    -0.237 OA
ATOM     79  O   UNL A   1      46.931  26.573  39.094  1.00  0.00    -0.744 OA
ENDBRANCH  75  76
ENDBRANCH  56  70
BRANCH  57  80
ATOM     80  C   UNL A   1      36.590  33.550  30.939  1.00  0.00    -0.014 A 
ATOM     81  C   UNL A   1      35.364  33.663  31.619  1.00  0.00     0.010 A 
ATOM     82  C   UNL A   1      36.717  34.121  29.659  1.00  0.00     0.010 A 
ATOM     83  C   UNL A   1      34.286  34.325  31.024  1.00  0.00     0.020 A 
ATOM     84  C   UNL A   1      35.652  34.811  29.076  1.00  0.00     0.020 A 
ATOM     85  C   UNL A   1      34.437  34.897  29.757  1.00  0.00     0.054 A 
BRANCH  85  86
ATOM     86  S   UNL A   1      33.049  35.805  29.024  1.00  0.00     0.124 S 
ATOM     87  O   UNL A   1      32.368  34.759  28.269  1.00  0.00    -0.237 OA
ATOM     88  O   UNL A   1      32.336  36.304  30.198  1.00  0.00    -0.237 OA
ATOM     89  O   UNL A   1      33.705  36.836  28.222  1.00  0.00    -0.744 OA
ENDBRANCH  85  86
ENDBRANCH  57  80
BRANCH  69  90
ATOM     90  C   UNL A   1      39.851  34.214  37.046  1.00  0.00    -0.014 A 
ATOM     91  C   UNL A   1      40.531  35.445  37.084  1.00  0.00     0.010 A 
ATOM     92  C   UNL A   1      38.962  33.888  38.085  1.00  0.00     0.010 A 
ATOM     93  C   UNL A   1      40.349  36.318  38.159  1.00  0.00     0.020 A 
ATOM     94  C   UNL A   1      38.761  34.769  39.151  1.00  0.00     0.020 A 
ATOM     95  C   UNL A   1      39.467  35.973  39.188  1.00  0.00     0.054 A 
BRANCH  95  96
ATOM     96  S   UNL A   1      39.222  37.137  40.558  1.00  0.00     0.124 S 
ATOM     97  O   UNL A   1      40.575  37.642  40.774  1.00  0.00    -0.237 OA
ATOM     98  O   UNL A   1      38.273  38.098  40.000  1.00  0.00    -0.237 OA
ATOM     99  O   UNL A   1      38.690  36.299  41.631  1.00  0.00    -0.744 OA
ENDBRANCH  95  96
ENDBRANCH  69  90
ENDBRANCH  43  44
ENDBRANCH  36  38
ENDBRANCH  35  36
ENDBRANCH  34  35
ENDBRANCH   1  34
TORSDOF 18
ENDMDL
MODEL 2
REMARK VINA RESULT:     -12.4      2.226      7.718
REMARK SMILES CC1=CC[C@@](C(=O)N/N=C/C2=C([O-])CC(C)(C)CC2=O)(C(=O)OCCOC(=O)c2ccc(-c3c4nc(c(-c5ccc(S(=O)(=O)[O-])cc5)c5ccc([nH]5)c(-c5ccc(S(=O)(=O)[O-])cc5)c5nc(c(-c6ccc(S(=O)(=O)[O-])cc6)c6ccc3[nH]6)C=C5)C=C4)cc2)C[C@@H]1c1ccccc1
REMARK SMILES IDX 24 1 23 2 21 3 22 4 5 5 1 6 2 7 3 8 90 9 4 10 89 11 91 12
REMARK SMILES IDX 92 13 96 14 93 15 95 16 94 17 6 18 7 19 8 20 9 22 10 23
REMARK SMILES IDX 11 24 12 25 19 26 13 27 14 28 18 29 20 30 15 31 16 32 17 33
REMARK SMILES IDX 25 34 26 35 27 36 28 37 29 38 30 39 88 40 31 41 87 42 32 43
REMARK SMILES IDX 33 44 34 45 81 46 35 47 86 48 80 49 82 50 36 51 85 52 79 53
REMARK SMILES IDX 78 54 37 56 67 57 48 58 66 59 49 60 52 61 65 62 83 63 50 64
REMARK SMILES IDX 51 65 64 67 84 68 53 69 38 70 39 71 47 72 40 73 46 74 41 75
REMARK SMILES IDX 42 76 43 77 44 78 45 79 68 80 69 81 77 82 70 83 76 84 71 85
REMARK SMILES IDX 72 86 73 87 74 88 75 89 54 90 55 91 63 92 56 93 62 94 57 95
REMARK SMILES IDX 58 96 59 97 60 98 61 99
REMARK H PARENT 8 21 82 55 52 66
REMARK Flexibility Score: inf
ROOT
ATOM      1  C   UNL A   1      33.381  31.260  27.432  1.00  0.00     0.274 C 
ENDROOT
BRANCH   1   2
ATOM      2  O   UNL A   1      33.327  30.492  26.212  1.00  0.00    -0.461 OA
BRANCH   2   3
ATOM      3  C   UNL A   1      33.822  29.225  26.312  1.00  0.00     0.322 C 
ATOM      4  O   UNL A   1      34.779  28.932  27.024  1.00  0.00    -0.251 OA
BRANCH   3   5
ATOM      5  C   UNL A   1      33.013  28.204  25.491  1.00  0.00     0.152 C 
ATOM      6  C   UNL A   1      32.309  25.922  21.747  1.00  0.00     0.040 C 
ATOM      7  C   UNL A   1      32.692  26.770  22.929  1.00  0.00    -0.070 C 
ATOM      8  C   UNL A   1      33.591  26.330  23.830  1.00  0.00    -0.026 C 
ATOM      9  C   UNL A   1      32.147  28.177  22.987  1.00  0.00     0.046 C 
ATOM     10  C   UNL A   1      33.953  27.048  25.105  1.00  0.00     0.056 C 
ATOM     11  C   UNL A   1      32.598  28.990  24.215  1.00  0.00     0.042 C 
BRANCH   9  12
ATOM     12  C   UNL A   1      30.664  28.432  22.773  1.00  0.00    -0.041 A 
ATOM     13  C   UNL A   1      30.310  29.591  22.050  1.00  0.00     0.004 A 
ATOM     14  C   UNL A   1      29.653  27.702  23.400  1.00  0.00     0.004 A 
ATOM     15  C   UNL A   1      28.991  30.034  21.998  1.00  0.00     0.000 A 
ATOM     16  C   UNL A   1      28.327  28.147  23.346  1.00  0.00     0.000 A 
ATOM     17  C   UNL A   1      28.001  29.318  22.660  1.00  0.00     0.000 A 
ENDBRANCH   9  12
BRANCH   5  18
ATOM     18  C   UNL A   1      31.755  27.845  26.320  1.00  0.00     0.257 C 
ATOM     19  O   UNL A   1      30.991  28.731  26.728  1.00  0.00    -0.272 OA
ATOM     20  N   UNL A   1      31.372  26.550  26.583  1.00  0.00    -0.246 N 
ATOM     21  H   UNL A   1      30.499  26.407  27.015  1.00  0.00     0.193 HD
BRANCH  20  22
ATOM     22  N   UNL A   1      32.112  25.463  26.286  1.00  0.00    -0.181 NA
ATOM     23  C   UNL A   1      31.662  24.299  26.622  1.00  0.00     0.144 C 
BRANCH  23  24
ATOM     24  C   UNL A   1      32.335  23.037  26.200  1.00  0.00     0.026 C 
ATOM     25  C   UNL A   1      32.326  22.622  24.916  1.00  0.00    -0.119 C 
ATOM     26  C   UNL A   1      33.154  22.251  27.173  1.00  0.00     0.164 C 
ATOM     27  O   UNL A   1      31.618  23.231  23.894  1.00  0.00    -0.875 OA
ATOM     28  C   UNL A   1      33.171  21.478  24.389  1.00  0.00     0.026 C 
ATOM     29  C   UNL A   1      34.312  21.445  26.627  1.00  0.00     0.087 C 
ATOM     30  O   UNL A   1      32.887  22.248  28.373  1.00  0.00    -0.294 OA
ATOM     31  C   UNL A   1      33.858  20.585  25.444  1.00  0.00    -0.025 C 
ATOM     32  C   UNL A   1      32.898  19.482  25.930  1.00  0.00     0.012 C 
ATOM     33  C   UNL A   1      35.086  19.906  24.807  1.00  0.00     0.012 C 
ENDBRANCH  23  24
ENDBRANCH  20  22
ENDBRANCH   5  18
ENDBRANCH   3   5
ENDBRANCH   2   3
ENDBRANCH   1   2
BRANCH   1  34
ATOM     34  C   UNL A   1      32.520  32.515  27.277  1.00  0.00     0.275 C 
BRANCH  34  35
ATOM     35  O   UNL A   1      33.337  33.685  27.465  1.00  0.00    -0.458 OA
BRANCH  35  36
ATOM     36  C   UNL A   1      33.369  34.179  28.728  1.00  0.00     0.338 C 
ATOM     37  O   UNL A   1      32.497  34.867  29.247  1.00  0.00    -0.246 OA
BRANCH  36  38
ATOM     38  C   UNL A   1      34.602  33.742  29.437  1.00  0.00     0.060 A 
ATOM     39  C   UNL A   1      34.549  32.860  30.518  1.00  0.00     0.016 A 
ATOM     40  C   UNL A   1      35.843  34.263  29.063  1.00  0.00     0.016 A 
ATOM     41  C   UNL A   1      35.694  32.569  31.264  1.00  0.00     0.010 A 
ATOM     42  C   UNL A   1      37.009  33.871  29.739  1.00  0.00     0.010 A 
ATOM     43  C   UNL A   1      36.955  33.024  30.860  1.00  0.00    -0.014 A 
BRANCH  43  44
ATOM     44  C   UNL A   1      38.203  32.595  31.572  1.00  0.00     0.031 A 
ATOM     45  C   UNL A   1      39.075  31.496  31.010  1.00  0.00     0.074 A 
ATOM     46  C   UNL A   1      38.551  33.151  32.756  1.00  0.00     0.049 A 
ATOM     47  N   UNL A   1      40.018  30.806  31.604  1.00  0.00    -0.248 NA
ATOM     48  C   UNL A   1      38.845  31.108  29.609  1.00  0.00     0.031 C 
ATOM     49  C   UNL A   1      37.844  34.243  33.432  1.00  0.00     0.029 A 
ATOM     50  N   UNL A   1      39.591  32.863  33.612  1.00  0.00    -0.354 N 
ATOM     51  C   UNL A   1      40.433  29.851  30.681  1.00  0.00     0.074 A 
ATOM     52  C   UNL A   1      39.654  30.064  29.479  1.00  0.00     0.031 C 
ATOM     53  C   UNL A   1      38.487  34.557  34.566  1.00  0.00     0.029 A 
ATOM     54  C   UNL A   1      39.584  33.618  34.763  1.00  0.00     0.049 A 
ATOM     55  H   UNL A   1      40.275  32.182  33.418  1.00  0.00     0.167 HD
ATOM     56  C   UNL A   1      41.367  28.879  30.826  1.00  0.00     0.031 A 
ATOM     57  C   UNL A   1      40.318  33.534  35.891  1.00  0.00     0.031 A 
ATOM     58  C   UNL A   1      42.195  28.708  31.993  1.00  0.00     0.049 A 
ATOM     59  C   UNL A   1      41.335  32.440  36.035  1.00  0.00     0.074 A 
ATOM     60  C   UNL A   1      43.197  27.774  32.204  1.00  0.00     0.029 A 
ATOM     61  N   UNL A   1      42.133  29.489  33.135  1.00  0.00    -0.354 N 
ATOM     62  N   UNL A   1      41.673  31.513  35.172  1.00  0.00    -0.248 NA
ATOM     63  C   UNL A   1      42.051  32.364  37.318  1.00  0.00     0.031 C 
ATOM     64  C   UNL A   1      43.714  27.967  33.490  1.00  0.00     0.029 A 
ATOM     65  C   UNL A   1      43.064  29.047  34.060  1.00  0.00     0.049 A 
ATOM     66  H   UNL A   1      41.518  30.247  33.269  1.00  0.00     0.167 HD
ATOM     67  C   UNL A   1      42.633  30.738  35.812  1.00  0.00     0.074 A 
ATOM     68  C   UNL A   1      42.850  31.325  37.117  1.00  0.00     0.031 C 
ATOM     69  C   UNL A   1      43.268  29.630  35.361  1.00  0.00     0.031 A 
BRANCH  56  70
ATOM     70  C   UNL A   1      41.531  27.881  29.711  1.00  0.00    -0.014 A 
ATOM     71  C   UNL A   1      40.555  26.908  29.441  1.00  0.00     0.010 A 
ATOM     72  C   UNL A   1      42.646  27.989  28.857  1.00  0.00     0.010 A 
ATOM     73  C   UNL A   1      40.701  26.048  28.347  1.00  0.00     0.020 A 
ATOM     74  C   UNL A   1      42.783  27.148  27.749  1.00  0.00     0.020 A 
ATOM     75  C   UNL A   1      41.813  26.174  27.507  1.00  0.00     0.054 A 
BRANCH  75  76
ATOM     76  S   UNL A   1      41.947  25.084  26.063  1.00  0.00     0.124 S 
ATOM     77  O   UNL A   1      41.614  25.994  24.969  1.00  0.00    -0.237 OA
ATOM     78  O   UNL A   1      43.342  24.652  26.114  1.00  0.00    -0.237 OA
ATOM     79  O   UNL A   1      40.963  24.037  26.324  1.00  0.00    -0.744 OA
ENDBRANCH  75  76
ENDBRANCH  56  70
BRANCH  57  80
ATOM     80  C   UNL A   1      40.044  34.462  37.024  1.00  0.00    -0.014 A 
ATOM     81  C   UNL A   1      39.152  34.102  38.050  1.00  0.00     0.010 A 
ATOM     82  C   UNL A   1      40.682  35.716  37.080  1.00  0.00     0.010 A 
ATOM     83  C   UNL A   1      38.897  34.984  39.104  1.00  0.00     0.020 A 
ATOM     84  C   UNL A   1      40.453  36.585  38.149  1.00  0.00     0.020 A 
ATOM     85  C   UNL A   1      39.551  36.219  39.149  1.00  0.00     0.054 A 
BRANCH  85  86
ATOM     86  S   UNL A   1      39.257  37.326  40.555  1.00  0.00     0.124 S 
ATOM     87  O   UNL A   1      38.798  36.396  41.580  1.00  0.00    -0.237 OA
ATOM     88  O   UNL A   1      40.574  37.917  40.779  1.00  0.00    -0.237 OA
ATOM     89  O   UNL A   1      38.247  38.254  40.049  1.00  0.00    -0.744 OA
ENDBRANCH  85  86
ENDBRANCH  57  80
BRANCH  69  90
ATOM     90  C   UNL A   1      44.267  28.986  36.281  1.00  0.00    -0.014 A 
ATOM     91  C   UNL A   1      43.915  27.871  37.062  1.00  0.00     0.010 A 
ATOM     92  C   UNL A   1      45.582  29.479  36.343  1.00  0.00     0.010 A 
ATOM     93  C   UNL A   1      44.852  27.280  37.912  1.00  0.00     0.020 A 
ATOM     94  C   UNL A   1      46.529  28.877  37.175  1.00  0.00     0.020 A 
ATOM     95  C   UNL A   1      46.154  27.789  37.966  1.00  0.00     0.054 A 
BRANCH  95  96
ATOM     96  S   UNL A   1      47.363  26.987  39.054  1.00  0.00     0.124 S 
ATOM     97  O   UNL A   1      46.718  25.707  39.334  1.00  0.00    -0.237 OA
ATOM     98  O   UNL A   1      48.558  26.918  38.214  1.00  0.00    -0.237 OA
ATOM     99  O   UNL A   1      47.462  27.899  40.192  1.00  0.00    -0.744 OA
ENDBRANCH  95  96
ENDBRANCH  69  90
ENDBRANCH  43  44
ENDBRANCH  36  38
ENDBRANCH  35  36
ENDBRANCH  34  35
ENDBRANCH   1  34
TORSDOF 18
ENDMDL
MODEL 3
REMARK VINA RESULT:     -12.3      5.435     11.001
REMARK SMILES CC1=CC[C@@](C(=O)N/N=C/C2=C([O-])CC(C)(C)CC2=O)(C(=O)OCCOC(=O)c2ccc(-c3c4nc(c(-c5ccc(S(=O)(=O)[O-])cc5)c5ccc([nH]5)c(-c5ccc(S(=O)(=O)[O-])cc5)c5nc(c(-c6ccc(S(=O)(=O)[O-])cc6)c6ccc3[nH]6)C=C5)C=C4)cc2)C[C@@H]1c1ccccc1
REMARK SMILES IDX 24 1 23 2 21 3 22 4 5 5 1 6 2 7 3 8 90 9 4 10 89 11 91 12
REMARK SMILES IDX 92 13 96 14 93 15 95 16 94 17 6 18 7 19 8 20 9 22 10 23
REMARK SMILES IDX 11 24 12 25 19 26 13 27 14 28 18 29 20 30 15 31 16 32 17 33
REMARK SMILES IDX 25 34 26 35 27 36 28 37 29 38 30 39 88 40 31 41 87 42 32 43
REMARK SMILES IDX 33 44 34 45 81 46 35 47 86 48 80 49 82 50 36 51 85 52 79 53
REMARK SMILES IDX 78 54 37 56 67 57 48 58 66 59 49 60 52 61 65 62 83 63 50 64
REMARK SMILES IDX 51 65 64 67 84 68 53 69 38 70 39 71 47 72 40 73 46 74 41 75
REMARK SMILES IDX 42 76 43 77 44 78 45 79 68 80 69 81 77 82 70 83 76 84 71 85
REMARK SMILES IDX 72 86 73 87 74 88 75 89 54 90 55 91 63 92 56 93 62 94 57 95
REMARK SMILES IDX 58 96 59 97 60 98 61 99
REMARK H PARENT 8 21 82 55 52 66
REMARK Flexibility Score: inf
ROOT
ATOM      1  C   UNL A   1      32.185  28.447  27.246  1.00  0.00     0.274 C 
ENDROOT
BRANCH   1   2
ATOM      2  O   UNL A   1      31.809  27.669  26.090  1.00  0.00    -0.461 OA
BRANCH   2   3
ATOM      3  C   UNL A   1      31.251  26.457  26.375  1.00  0.00     0.322 C 
ATOM      4  O   UNL A   1      30.227  26.329  27.040  1.00  0.00    -0.251 OA
BRANCH   3   5
ATOM      5  C   UNL A   1      32.006  25.286  25.720  1.00  0.00     0.152 C 
ATOM      6  C   UNL A   1      35.790  23.320  24.478  1.00  0.00     0.040 C 
ATOM      7  C   UNL A   1      34.614  24.123  24.964  1.00  0.00    -0.070 C 
ATOM      8  C   UNL A   1      34.171  23.999  26.230  1.00  0.00    -0.026 C 
ATOM      9  C   UNL A   1      34.047  25.168  24.034  1.00  0.00     0.046 C 
ATOM     10  C   UNL A   1      32.935  24.664  26.779  1.00  0.00     0.056 C 
ATOM     11  C   UNL A   1      32.858  25.961  24.608  1.00  0.00     0.042 C 
BRANCH   9  12
ATOM     12  C   UNL A   1      33.723  24.813  22.592  1.00  0.00    -0.041 A 
ATOM     13  C   UNL A   1      33.312  25.867  21.748  1.00  0.00     0.004 A 
ATOM     14  C   UNL A   1      33.629  23.503  22.117  1.00  0.00     0.004 A 
ATOM     15  C   UNL A   1      32.776  25.615  20.488  1.00  0.00     0.000 A 
ATOM     16  C   UNL A   1      33.092  23.252  20.850  1.00  0.00     0.000 A 
ATOM     17  C   UNL A   1      32.653  24.304  20.045  1.00  0.00     0.000 A 
ENDBRANCH   9  12
BRANCH   5  18
ATOM     18  C   UNL A   1      30.945  24.358  25.079  1.00  0.00     0.257 C 
ATOM     19  O   UNL A   1      30.858  23.168  25.414  1.00  0.00    -0.272 OA
ATOM     20  N   UNL A   1      30.004  24.802  24.179  1.00  0.00    -0.246 N 
ATOM     21  H   UNL A   1      29.294  24.175  23.909  1.00  0.00     0.193 HD
BRANCH  20  22
ATOM     22  N   UNL A   1      29.988  26.038  23.642  1.00  0.00    -0.181 NA
ATOM     23  C   UNL A   1      28.870  26.686  23.616  1.00  0.00     0.144 C 
BRANCH  23  24
ATOM     24  C   UNL A   1      28.790  28.111  23.186  1.00  0.00     0.026 C 
ATOM     25  C   UNL A   1      29.887  28.808  22.822  1.00  0.00    -0.119 C 
ATOM     26  C   UNL A   1      27.463  28.781  23.022  1.00  0.00     0.164 C 
ATOM     27  O   UNL A   1      31.186  28.338  22.915  1.00  0.00    -0.875 OA
ATOM     28  C   UNL A   1      29.846  30.175  22.170  1.00  0.00     0.026 C 
ATOM     29  C   UNL A   1      27.356  29.887  21.995  1.00  0.00     0.087 C 
ATOM     30  O   UNL A   1      26.496  28.454  23.707  1.00  0.00    -0.294 OA
ATOM     31  C   UNL A   1      28.485  30.905  22.181  1.00  0.00    -0.025 C 
ATOM     32  C   UNL A   1      28.292  31.672  23.504  1.00  0.00     0.012 C 
ATOM     33  C   UNL A   1      28.449  31.923  21.026  1.00  0.00     0.012 C 
ENDBRANCH  23  24
ENDBRANCH  20  22
ENDBRANCH   5  18
ENDBRANCH   3   5
ENDBRANCH   2   3
ENDBRANCH   1   2
BRANCH   1  34
ATOM     34  C   UNL A   1      33.710  28.514  27.334  1.00  0.00     0.275 C 
BRANCH  34  35
ATOM     35  O   UNL A   1      34.154  29.841  26.992  1.00  0.00    -0.458 OA
BRANCH  35  36
ATOM     36  C   UNL A   1      34.673  30.564  28.015  1.00  0.00     0.338 C 
ATOM     37  O   UNL A   1      34.062  31.383  28.691  1.00  0.00    -0.246 OA
BRANCH  36  38
ATOM     38  C   UNL A   1      36.100  30.206  28.247  1.00  0.00     0.060 A 
ATOM     39  C   UNL A   1      37.036  30.228  27.211  1.00  0.00     0.016 A 
ATOM     40  C   UNL A   1      36.513  29.778  29.510  1.00  0.00     0.016 A 
ATOM     41  C   UNL A   1      38.335  29.754  27.408  1.00  0.00     0.010 A 
ATOM     42  C   UNL A   1      37.853  29.420  29.734  1.00  0.00     0.010 A 
ATOM     43  C   UNL A   1      38.787  29.391  28.683  1.00  0.00    -0.014 A 
BRANCH  43  44
ATOM     44  C   UNL A   1      40.220  29.022  28.926  1.00  0.00     0.031 A 
ATOM     45  C   UNL A   1      41.212  30.052  29.414  1.00  0.00     0.074 A 
ATOM     46  C   UNL A   1      40.665  27.770  28.671  1.00  0.00     0.049 A 
ATOM     47  N   UNL A   1      42.521  30.001  29.415  1.00  0.00    -0.248 NA
ATOM     48  C   UNL A   1      40.664  31.308  29.951  1.00  0.00     0.031 C 
ATOM     49  C   UNL A   1      39.844  26.641  28.223  1.00  0.00     0.029 A 
ATOM     50  N   UNL A   1      41.933  27.236  28.742  1.00  0.00    -0.354 N 
ATOM     51  C   UNL A   1      42.953  31.243  29.869  1.00  0.00     0.074 A 
ATOM     52  C   UNL A   1      41.765  32.020  30.156  1.00  0.00     0.031 C 
ATOM     53  C   UNL A   1      40.613  25.550  28.101  1.00  0.00     0.029 A 
ATOM     54  C   UNL A   1      42.001  25.919  28.345  1.00  0.00     0.049 A 
ATOM     55  H   UNL A   1      42.716  27.747  29.049  1.00  0.00     0.167 HD
ATOM     56  C   UNL A   1      44.221  31.698  30.021  1.00  0.00     0.031 A 
ATOM     57  C   UNL A   1      43.054  25.105  28.126  1.00  0.00     0.031 A 
ATOM     58  C   UNL A   1      45.405  30.906  29.807  1.00  0.00     0.049 A 
ATOM     59  C   UNL A   1      44.448  25.636  28.287  1.00  0.00     0.074 A 
ATOM     60  C   UNL A   1      46.729  31.278  29.981  1.00  0.00     0.029 A 
ATOM     61  N   UNL A   1      45.416  29.586  29.389  1.00  0.00    -0.354 N 
ATOM     62  N   UNL A   1      44.835  26.830  28.663  1.00  0.00    -0.248 NA
ATOM     63  C   UNL A   1      45.549  24.716  27.964  1.00  0.00     0.031 C 
ATOM     64  C   UNL A   1      47.541  30.194  29.631  1.00  0.00     0.029 A 
ATOM     65  C   UNL A   1      46.721  29.135  29.282  1.00  0.00     0.049 A 
ATOM     66  H   UNL A   1      44.614  29.047  29.197  1.00  0.00     0.167 HD
ATOM     67  C   UNL A   1      46.224  26.807  28.613  1.00  0.00     0.074 A 
ATOM     68  C   UNL A   1      46.610  25.473  28.206  1.00  0.00     0.031 C 
ATOM     69  C   UNL A   1      47.099  27.809  28.868  1.00  0.00     0.031 A 
BRANCH  56  70
ATOM     70  C   UNL A   1      44.416  33.142  30.405  1.00  0.00    -0.014 A 
ATOM     71  C   UNL A   1      44.640  34.138  29.440  1.00  0.00     0.010 A 
ATOM     72  C   UNL A   1      44.272  33.515  31.755  1.00  0.00     0.010 A 
ATOM     73  C   UNL A   1      44.736  35.480  29.822  1.00  0.00     0.020 A 
ATOM     74  C   UNL A   1      44.343  34.857  32.138  1.00  0.00     0.020 A 
ATOM     75  C   UNL A   1      44.585  35.832  31.168  1.00  0.00     0.054 A 
BRANCH  75  76
ATOM     76  S   UNL A   1      44.656  37.586  31.628  1.00  0.00     0.124 S 
ATOM     77  O   UNL A   1      44.160  37.555  33.002  1.00  0.00    -0.237 OA
ATOM     78  O   UNL A   1      46.076  37.899  31.482  1.00  0.00    -0.237 OA
ATOM     79  O   UNL A   1      43.775  38.235  30.661  1.00  0.00    -0.744 OA
ENDBRANCH  75  76
ENDBRANCH  56  70
BRANCH  57  80
ATOM     80  C   UNL A   1      42.827  23.719  27.629  1.00  0.00    -0.014 A 
ATOM     81  C   UNL A   1      42.699  22.645  28.527  1.00  0.00     0.010 A 
ATOM     82  C   UNL A   1      42.734  23.471  26.247  1.00  0.00     0.010 A 
ATOM     83  C   UNL A   1      42.494  21.347  28.049  1.00  0.00     0.020 A 
ATOM     84  C   UNL A   1      42.497  22.181  25.768  1.00  0.00     0.020 A 
ATOM     85  C   UNL A   1      42.391  21.123  26.673  1.00  0.00     0.054 A 
BRANCH  85  86
ATOM     86  S   UNL A   1      42.063  19.444  26.070  1.00  0.00     0.124 S 
ATOM     87  O   UNL A   1      42.470  18.630  27.210  1.00  0.00    -0.237 OA
ATOM     88  O   UNL A   1      40.629  19.477  25.796  1.00  0.00    -0.237 OA
ATOM     89  O   UNL A   1      42.912  19.338  24.885  1.00  0.00    -0.744 OA
ENDBRANCH  85  86
ENDBRANCH  57  80
BRANCH  69  90
ATOM     90  C   UNL A   1      48.563  27.497  28.728  1.00  0.00    -0.014 A 
ATOM     91  C   UNL A   1      49.241  27.747  27.521  1.00  0.00     0.010 A 
ATOM     92  C   UNL A   1      49.277  26.978  29.822  1.00  0.00     0.010 A 
ATOM     93  C   UNL A   1      50.602  27.455  27.403  1.00  0.00     0.020 A 
ATOM     94  C   UNL A   1      50.642  26.705  29.714  1.00  0.00     0.020 A 
ATOM     95  C   UNL A   1      51.294  26.932  28.500  1.00  0.00     0.054 A 
BRANCH  95  96
ATOM     96  S   UNL A   1      53.067  26.589  28.334  1.00  0.00     0.124 S 
ATOM     97  O   UNL A   1      53.581  27.869  27.854  1.00  0.00    -0.237 OA
ATOM     98  O   UNL A   1      53.456  26.226  29.695  1.00  0.00    -0.237 OA
ATOM     99  O   UNL A   1      53.117  25.494  27.366  1.00  0.00    -0.744 OA
ENDBRANCH  95  96
ENDBRANCH  69  90
ENDBRANCH  43  44
ENDBRANCH  36  38
ENDBRANCH  35  36
ENDBRANCH  34  35
ENDBRANCH   1  34
TORSDOF 18
ENDMDL
