MODEL 1
REMARK VINA RESULT:     -12.8      0.000      0.000
REMARK SMILES O=C(CSc1nnc2sc3ccccc3n12)N[C@H](Cc1c[nH]c2ccccc12)C(=O)OCCOC(=O)c1ccc(-c2c3nc(c(-c4ccc(S(=O)(=O)[O-])cc4)c4ccc([nH]4)c(-c4ccc(S(=O)(=O)[O-])cc4)c4nc(c(-c5ccc(S(=O)(=O)[O-])cc5)c5ccc2[nH]5)C=C4)C=C3)cc1
REMARK SMILES IDX 32 1 31 2 29 3 30 4 18 5 17 6 1 7 2 8 3 10 4 11 5 12 6 13
REMARK SMILES IDX 16 14 7 15 8 16 15 17 9 18 10 19 14 20 11 21 13 22 12 23
REMARK SMILES IDX 19 24 20 25 21 26 28 27 22 28 23 29 27 30 24 32 26 33 25 34
REMARK SMILES IDX 33 35 34 36 35 37 36 38 37 39 38 40 96 41 39 42 95 43 40 44
REMARK SMILES IDX 41 45 42 46 89 47 43 48 94 49 88 50 90 51 44 52 93 53 87 54
REMARK SMILES IDX 86 55 45 57 75 58 56 59 74 60 57 61 60 62 73 63 91 64 58 65
REMARK SMILES IDX 59 66 72 68 92 69 61 70 46 71 47 72 55 73 48 74 54 75 49 76
REMARK SMILES IDX 50 77 51 78 52 79 53 80 76 81 77 82 85 83 78 84 84 85 79 86
REMARK SMILES IDX 80 87 81 88 82 89 83 90 62 91 63 92 71 93 64 94 70 95 65 96
REMARK SMILES IDX 66 97 67 98 68 99 69 100
REMARK H PARENT 17 9 22 31 90 56 60 67
REMARK Flexibility Score: inf
ROOT
ATOM      1  C   UNL A   1      36.521  21.494  24.908  1.00  0.00     0.274 C 
ENDROOT
BRANCH   1   2
ATOM      2  O   UNL A   1      35.617  21.340  26.031  1.00  0.00    -0.461 OA
BRANCH   2   3
ATOM      3  C   UNL A   1      34.726  22.350  26.253  1.00  0.00     0.329 C 
ATOM      4  O   UNL A   1      34.496  22.825  27.361  1.00  0.00    -0.250 OA
BRANCH   3   5
ATOM      5  C   UNL A   1      34.027  22.860  24.967  1.00  0.00     0.196 C 
BRANCH   5   6
ATOM      6  N   UNL A   1      34.177  24.325  24.911  1.00  0.00    -0.342 N 
ATOM      7  O   UNL A   1      34.318  24.464  22.637  1.00  0.00    -0.274 OA
ATOM      8  C   UNL A   1      34.203  25.030  23.725  1.00  0.00     0.231 C 
ATOM      9  H   UNL A   1      34.263  24.823  25.756  1.00  0.00     0.164 HD
BRANCH   8  10
ATOM     10  C   UNL A   1      34.010  26.546  23.804  1.00  0.00     0.178 C 
BRANCH  10  11
ATOM     11  S   UNL A   1      33.210  27.171  25.310  1.00  0.00    -0.076 SA
BRANCH  11  12
ATOM     12  C   UNL A   1      31.672  26.403  25.216  1.00  0.00     0.197 A 
ATOM     13  N   UNL A   1      31.288  25.337  25.898  1.00  0.00    -0.122 NA
ATOM     14  N   UNL A   1      30.615  26.878  24.498  1.00  0.00    -0.260 N 
ATOM     15  N   UNL A   1      29.928  25.136  25.666  1.00  0.00    -0.118 NA
ATOM     16  C   UNL A   1      29.561  26.087  24.850  1.00  0.00     0.217 A 
ATOM     17  C   UNL A   1      30.324  27.910  23.610  1.00  0.00     0.068 A 
ATOM     18  S   UNL A   1      28.063  26.578  24.141  1.00  0.00    -0.094 S 
ATOM     19  C   UNL A   1      28.951  27.902  23.312  1.00  0.00     0.055 A 
ATOM     20  C   UNL A   1      31.191  28.842  23.067  1.00  0.00     0.028 A 
ATOM     21  C   UNL A   1      28.419  28.854  22.460  1.00  0.00     0.021 A 
ATOM     22  C   UNL A   1      30.651  29.806  22.215  1.00  0.00     0.002 A 
ATOM     23  C   UNL A   1      29.281  29.807  21.907  1.00  0.00     0.002 A 
ENDBRANCH  11  12
ENDBRANCH  10  11
ENDBRANCH   8  10
ENDBRANCH   5   6
BRANCH   5  24
ATOM     24  C   UNL A   1      32.569  22.363  24.832  1.00  0.00     0.074 C 
BRANCH  24  25
ATOM     25  C   UNL A   1      32.368  21.240  23.850  1.00  0.00    -0.020 A 
ATOM     26  C   UNL A   1      31.758  21.360  22.618  1.00  0.00     0.087 A 
ATOM     27  C   UNL A   1      32.701  19.847  23.977  1.00  0.00     0.003 A 
ATOM     28  N   UNL A   1      31.924  20.202  21.919  1.00  0.00    -0.361 N 
ATOM     29  C   UNL A   1      32.402  19.231  22.757  1.00  0.00     0.046 A 
ATOM     30  C   UNL A   1      33.218  19.038  25.010  1.00  0.00     0.010 A 
ATOM     31  H   UNL A   1      31.731  20.083  20.961  1.00  0.00     0.166 HD
ATOM     32  C   UNL A   1      32.589  17.870  22.509  1.00  0.00     0.026 A 
ATOM     33  C   UNL A   1      33.366  17.658  24.794  1.00  0.00     0.001 A 
ATOM     34  C   UNL A   1      33.055  17.086  23.561  1.00  0.00     0.002 A 
ENDBRANCH  24  25
ENDBRANCH   5  24
ENDBRANCH   3   5
ENDBRANCH   2   3
ENDBRANCH   1   2
BRANCH   1  35
ATOM     35  C   UNL A   1      37.977  21.256  25.327  1.00  0.00     0.275 C 
BRANCH  35  36
ATOM     36  O   UNL A   1      38.440  22.382  26.082  1.00  0.00    -0.458 OA
BRANCH  36  37
ATOM     37  C   UNL A   1      39.745  22.319  26.434  1.00  0.00     0.338 C 
ATOM     38  O   UNL A   1      40.527  21.418  26.152  1.00  0.00    -0.246 OA
BRANCH  37  39
ATOM     39  C   UNL A   1      40.148  23.676  26.856  1.00  0.00     0.060 A 
ATOM     40  C   UNL A   1      41.289  23.896  27.642  1.00  0.00     0.016 A 
ATOM     41  C   UNL A   1      39.208  24.692  26.674  1.00  0.00     0.016 A 
ATOM     42  C   UNL A   1      41.408  25.080  28.366  1.00  0.00     0.010 A 
ATOM     43  C   UNL A   1      39.334  25.867  27.405  1.00  0.00     0.010 A 
ATOM     44  C   UNL A   1      40.389  26.033  28.307  1.00  0.00    -0.014 A 
BRANCH  44  45
ATOM     45  C   UNL A   1      40.554  27.333  28.955  1.00  0.00     0.031 A 
ATOM     46  C   UNL A   1      41.700  28.083  28.397  1.00  0.00     0.074 A 
ATOM     47  C   UNL A   1      39.800  27.917  29.909  1.00  0.00     0.049 A 
ATOM     48  N   UNL A   1      42.811  28.292  29.017  1.00  0.00    -0.248 NA
ATOM     49  C   UNL A   1      41.699  28.483  26.986  1.00  0.00     0.031 C 
ATOM     50  C   UNL A   1      38.608  27.433  30.595  1.00  0.00     0.029 A 
ATOM     51  N   UNL A   1      39.947  29.175  30.427  1.00  0.00    -0.354 N 
ATOM     52  C   UNL A   1      43.615  28.981  28.128  1.00  0.00     0.074 A 
ATOM     53  C   UNL A   1      42.949  28.927  26.851  1.00  0.00     0.031 C 
ATOM     54  C   UNL A   1      38.023  28.459  31.263  1.00  0.00     0.029 A 
ATOM     55  C   UNL A   1      38.848  29.645  31.133  1.00  0.00     0.049 A 
ATOM     56  H   UNL A   1      40.768  29.706  30.308  1.00  0.00     0.167 HD
ATOM     57  C   UNL A   1      44.690  29.699  28.548  1.00  0.00     0.031 A 
ATOM     58  C   UNL A   1      38.660  30.886  31.657  1.00  0.00     0.031 A 
ATOM     59  C   UNL A   1      45.031  29.416  29.917  1.00  0.00     0.049 A 
ATOM     60  C   UNL A   1      40.012  31.413  31.950  1.00  0.00     0.074 A 
ATOM     61  C   UNL A   1      45.433  28.281  30.593  1.00  0.00     0.029 A 
ATOM     62  N   UNL A   1      44.585  30.294  30.879  1.00  0.00    -0.354 N 
ATOM     63  N   UNL A   1      40.759  30.929  32.900  1.00  0.00    -0.248 NA
ATOM     64  C   UNL A   1      40.709  32.169  30.922  1.00  0.00     0.031 C 
ATOM     65  C   UNL A   1      44.776  28.347  31.853  1.00  0.00     0.029 A 
ATOM     66  C   UNL A   1      44.063  29.546  31.906  1.00  0.00     0.049 A 
ATOM     67  H   UNL A   1      44.630  31.277  30.838  1.00  0.00     0.167 HD
ATOM     68  C   UNL A   1      42.029  30.897  32.348  1.00  0.00     0.074 A 
ATOM     69  C   UNL A   1      41.957  31.771  31.177  1.00  0.00     0.031 C 
ATOM     70  C   UNL A   1      42.938  29.950  32.723  1.00  0.00     0.031 A 
BRANCH  57  71
ATOM     71  C   UNL A   1      45.243  30.867  27.794  1.00  0.00    -0.014 A 
ATOM     72  C   UNL A   1      44.450  31.967  27.406  1.00  0.00     0.010 A 
ATOM     73  C   UNL A   1      46.635  30.986  27.639  1.00  0.00     0.010 A 
ATOM     74  C   UNL A   1      45.006  33.112  26.842  1.00  0.00     0.020 A 
ATOM     75  C   UNL A   1      47.208  32.152  27.119  1.00  0.00     0.020 A 
ATOM     76  C   UNL A   1      46.385  33.202  26.713  1.00  0.00     0.054 A 
BRANCH  76  77
ATOM     77  S   UNL A   1      47.074  34.744  26.072  1.00  0.00     0.124 S 
ATOM     78  O   UNL A   1      45.873  35.450  25.632  1.00  0.00    -0.237 OA
ATOM     79  O   UNL A   1      47.739  35.302  27.247  1.00  0.00    -0.237 OA
ATOM     80  O   UNL A   1      47.967  34.303  25.003  1.00  0.00    -0.744 OA
ENDBRANCH  76  77
ENDBRANCH  57  71
BRANCH  58  81
ATOM     81  C   UNL A   1      37.525  31.820  31.396  1.00  0.00    -0.014 A 
ATOM     82  C   UNL A   1      37.702  33.213  31.493  1.00  0.00     0.010 A 
ATOM     83  C   UNL A   1      36.199  31.335  31.367  1.00  0.00     0.010 A 
ATOM     84  C   UNL A   1      36.611  34.085  31.612  1.00  0.00     0.020 A 
ATOM     85  C   UNL A   1      35.098  32.200  31.514  1.00  0.00     0.020 A 
ATOM     86  C   UNL A   1      35.317  33.569  31.669  1.00  0.00     0.054 A 
BRANCH  86  87
ATOM     87  S   UNL A   1      33.954  34.702  32.077  1.00  0.00     0.124 S 
ATOM     88  O   UNL A   1      33.346  34.930  30.769  1.00  0.00    -0.237 OA
ATOM     89  O   UNL A   1      33.154  33.911  33.009  1.00  0.00    -0.237 OA
ATOM     90  O   UNL A   1      34.624  35.860  32.663  1.00  0.00    -0.744 OA
ENDBRANCH  86  87
ENDBRANCH  58  81
BRANCH  70  91
ATOM     91  C   UNL A   1      42.627  29.065  33.916  1.00  0.00    -0.014 A 
ATOM     92  C   UNL A   1      43.362  29.279  35.095  1.00  0.00     0.010 A 
ATOM     93  C   UNL A   1      41.805  27.920  33.842  1.00  0.00     0.010 A 
ATOM     94  C   UNL A   1      43.319  28.363  36.148  1.00  0.00     0.020 A 
ATOM     95  C   UNL A   1      41.734  27.011  34.910  1.00  0.00     0.020 A 
ATOM     96  C   UNL A   1      42.517  27.225  36.045  1.00  0.00     0.054 A 
BRANCH  96  97
ATOM     97  S   UNL A   1      42.553  26.025  37.404  1.00  0.00     0.124 S 
ATOM     98  O   UNL A   1      43.175  24.862  36.773  1.00  0.00    -0.237 OA
ATOM     99  O   UNL A   1      43.371  26.698  38.410  1.00  0.00    -0.237 OA
ATOM    100  O   UNL A   1      41.147  25.853  37.764  1.00  0.00    -0.744 OA
ENDBRANCH  96  97
ENDBRANCH  70  91
ENDBRANCH  44  45
ENDBRANCH  37  39
ENDBRANCH  36  37
ENDBRANCH  35  36
ENDBRANCH   1  35
TORSDOF 20
ENDMDL
MODEL 2
REMARK VINA RESULT:     -11.9      1.288      2.282
REMARK SMILES O=C(CSc1nnc2sc3ccccc3n12)N[C@H](Cc1c[nH]c2ccccc12)C(=O)OCCOC(=O)c1ccc(-c2c3nc(c(-c4ccc(S(=O)(=O)[O-])cc4)c4ccc([nH]4)c(-c4ccc(S(=O)(=O)[O-])cc4)c4nc(c(-c5ccc(S(=O)(=O)[O-])cc5)c5ccc2[nH]5)C=C4)C=C3)cc1
REMARK SMILES IDX 32 1 31 2 29 3 30 4 18 5 17 6 1 7 2 8 3 10 4 11 5 12 6 13
REMARK SMILES IDX 16 14 7 15 8 16 15 17 9 18 10 19 14 20 11 21 13 22 12 23
REMARK SMILES IDX 19 24 20 25 21 26 28 27 22 28 23 29 27 30 24 32 26 33 25 34
REMARK SMILES IDX 33 35 34 36 35 37 36 38 37 39 38 40 96 41 39 42 95 43 40 44
REMARK SMILES IDX 41 45 42 46 89 47 43 48 94 49 88 50 90 51 44 52 93 53 87 54
REMARK SMILES IDX 86 55 45 57 75 58 56 59 74 60 57 61 60 62 73 63 91 64 58 65
REMARK SMILES IDX 59 66 72 68 92 69 61 70 46 71 47 72 55 73 48 74 54 75 49 76
REMARK SMILES IDX 50 77 51 78 52 79 53 80 76 81 77 82 85 83 78 84 84 85 79 86
REMARK SMILES IDX 80 87 81 88 82 89 83 90 62 91 63 92 71 93 64 94 70 95 65 96
REMARK SMILES IDX 66 97 67 98 68 99 69 100
REMARK H PARENT 17 9 22 31 90 56 60 67
REMARK Flexibility Score: inf
ROOT
ATOM      1  C   UNL A   1      36.691  21.739  24.802  1.00  0.00     0.274 C 
ENDROOT
BRANCH   1   2
ATOM      2  O   UNL A   1      35.691  21.797  25.850  1.00  0.00    -0.461 OA
BRANCH   2   3
ATOM      3  C   UNL A   1      34.841  22.865  25.838  1.00  0.00     0.329 C 
ATOM      4  O   UNL A   1      35.193  24.020  26.063  1.00  0.00    -0.250 OA
BRANCH   3   5
ATOM      5  C   UNL A   1      33.375  22.494  25.501  1.00  0.00     0.196 C 
BRANCH   5   6
ATOM      6  N   UNL A   1      32.526  23.665  25.782  1.00  0.00    -0.342 N 
ATOM      7  O   UNL A   1      30.807  23.051  24.412  1.00  0.00    -0.274 OA
ATOM      8  C   UNL A   1      31.244  23.797  25.289  1.00  0.00     0.231 C 
ATOM      9  H   UNL A   1      32.889  24.386  26.347  1.00  0.00     0.164 HD
BRANCH   8  10
ATOM     10  C   UNL A   1      30.352  24.864  25.926  1.00  0.00     0.178 C 
BRANCH  10  11
ATOM     11  S   UNL A   1      29.620  26.076  24.786  1.00  0.00    -0.076 SA
BRANCH  11  12
ATOM     12  C   UNL A   1      30.975  26.464  23.796  1.00  0.00     0.197 A 
ATOM     13  N   UNL A   1      31.121  26.157  22.518  1.00  0.00    -0.122 NA
ATOM     14  N   UNL A   1      32.022  27.242  24.191  1.00  0.00    -0.260 N 
ATOM     15  N   UNL A   1      32.267  26.795  22.044  1.00  0.00    -0.118 NA
ATOM     16  C   UNL A   1      32.757  27.449  23.062  1.00  0.00     0.217 A 
ATOM     17  C   UNL A   1      32.483  27.884  25.338  1.00  0.00     0.068 A 
ATOM     18  S   UNL A   1      34.095  28.519  23.297  1.00  0.00    -0.094 S 
ATOM     19  C   UNL A   1      33.620  28.648  25.025  1.00  0.00     0.055 A 
ATOM     20  C   UNL A   1      31.957  27.834  26.617  1.00  0.00     0.028 A 
ATOM     21  C   UNL A   1      34.248  29.394  26.006  1.00  0.00     0.021 A 
ATOM     22  C   UNL A   1      32.586  28.596  27.602  1.00  0.00     0.002 A 
ATOM     23  C   UNL A   1      33.725  29.360  27.303  1.00  0.00     0.002 A 
ENDBRANCH  11  12
ENDBRANCH  10  11
ENDBRANCH   8  10
ENDBRANCH   5   6
BRANCH   5  24
ATOM     24  C   UNL A   1      32.907  21.188  26.185  1.00  0.00     0.074 C 
BRANCH  24  25
ATOM     25  C   UNL A   1      32.867  19.980  25.288  1.00  0.00    -0.020 A 
ATOM     26  C   UNL A   1      33.201  18.696  25.667  1.00  0.00     0.087 A 
ATOM     27  C   UNL A   1      32.536  19.891  23.892  1.00  0.00     0.003 A 
ATOM     28  N   UNL A   1      32.863  17.830  24.673  1.00  0.00    -0.361 N 
ATOM     29  C   UNL A   1      32.552  18.536  23.542  1.00  0.00     0.046 A 
ATOM     30  C   UNL A   1      32.232  20.825  22.879  1.00  0.00     0.010 A 
ATOM     31  H   UNL A   1      32.844  16.849  24.753  1.00  0.00     0.166 HD
ATOM     32  C   UNL A   1      32.284  18.064  22.256  1.00  0.00     0.026 A 
ATOM     33  C   UNL A   1      32.009  20.371  21.570  1.00  0.00     0.001 A 
ATOM     34  C   UNL A   1      32.035  19.011  21.266  1.00  0.00     0.002 A 
ENDBRANCH  24  25
ENDBRANCH   5  24
ENDBRANCH   3   5
ENDBRANCH   2   3
ENDBRANCH   1   2
BRANCH   1  35
ATOM     35  C   UNL A   1      38.076  21.407  25.370  1.00  0.00     0.275 C 
BRANCH  35  36
ATOM     36  O   UNL A   1      38.502  22.471  26.229  1.00  0.00    -0.458 OA
BRANCH  36  37
ATOM     37  C   UNL A   1      39.828  22.476  26.496  1.00  0.00     0.338 C 
ATOM     38  O   UNL A   1      40.641  21.632  26.136  1.00  0.00    -0.246 OA
BRANCH  37  39
ATOM     39  C   UNL A   1      40.178  23.843  26.936  1.00  0.00     0.060 A 
ATOM     40  C   UNL A   1      41.356  24.110  27.647  1.00  0.00     0.016 A 
ATOM     41  C   UNL A   1      39.168  24.803  26.855  1.00  0.00     0.016 A 
ATOM     42  C   UNL A   1      41.456  25.276  28.402  1.00  0.00     0.010 A 
ATOM     43  C   UNL A   1      39.275  25.961  27.616  1.00  0.00     0.010 A 
ATOM     44  C   UNL A   1      40.380  26.166  28.447  1.00  0.00    -0.014 A 
BRANCH  44  45
ATOM     45  C   UNL A   1      40.513  27.452  29.126  1.00  0.00     0.031 A 
ATOM     46  C   UNL A   1      41.644  28.240  28.594  1.00  0.00     0.074 A 
ATOM     47  C   UNL A   1      39.740  27.997  30.089  1.00  0.00     0.049 A 
ATOM     48  N   UNL A   1      42.748  28.459  29.225  1.00  0.00    -0.248 NA
ATOM     49  C   UNL A   1      41.643  28.674  27.193  1.00  0.00     0.031 C 
ATOM     50  C   UNL A   1      38.556  27.471  30.756  1.00  0.00     0.029 A 
ATOM     51  N   UNL A   1      39.857  29.246  30.638  1.00  0.00    -0.354 N 
ATOM     52  C   UNL A   1      43.541  29.187  28.358  1.00  0.00     0.074 A 
ATOM     53  C   UNL A   1      42.884  29.148  27.076  1.00  0.00     0.031 C 
ATOM     54  C   UNL A   1      37.943  28.469  31.445  1.00  0.00     0.029 A 
ATOM     55  C   UNL A   1      38.743  29.675  31.347  1.00  0.00     0.049 A 
ATOM     56  H   UNL A   1      40.666  29.797  30.537  1.00  0.00     0.167 HD
ATOM     57  C   UNL A   1      44.597  29.917  28.802  1.00  0.00     0.031 A 
ATOM     58  C   UNL A   1      38.525  30.898  31.900  1.00  0.00     0.031 A 
ATOM     59  C   UNL A   1      44.936  29.610  30.166  1.00  0.00     0.049 A 
ATOM     60  C   UNL A   1      39.863  31.447  32.214  1.00  0.00     0.074 A 
ATOM     61  C   UNL A   1      45.359  28.468  30.817  1.00  0.00     0.029 A 
ATOM     62  N   UNL A   1      44.466  30.455  31.145  1.00  0.00    -0.354 N 
ATOM     63  N   UNL A   1      40.615  30.958  33.157  1.00  0.00    -0.248 NA
ATOM     64  C   UNL A   1      40.549  32.243  31.208  1.00  0.00     0.031 C 
ATOM     65  C   UNL A   1      44.694  28.490  32.075  1.00  0.00     0.029 A 
ATOM     66  C   UNL A   1      43.954  29.671  32.151  1.00  0.00     0.049 A 
ATOM     67  H   UNL A   1      44.490  31.439  31.128  1.00  0.00     0.167 HD
ATOM     68  C   UNL A   1      41.889  30.966  32.612  1.00  0.00     0.074 A 
ATOM     69  C   UNL A   1      41.805  31.867  31.462  1.00  0.00     0.031 C 
ATOM     70  C   UNL A   1      42.816  30.032  32.970  1.00  0.00     0.031 A 
BRANCH  57  71
ATOM     71  C   UNL A   1      45.129  31.115  28.079  1.00  0.00    -0.014 A 
ATOM     72  C   UNL A   1      46.089  31.017  27.049  1.00  0.00     0.010 A 
ATOM     73  C   UNL A   1      44.515  32.363  28.274  1.00  0.00     0.010 A 
ATOM     74  C   UNL A   1      46.461  32.118  26.284  1.00  0.00     0.020 A 
ATOM     75  C   UNL A   1      44.845  33.465  27.477  1.00  0.00     0.020 A 
ATOM     76  C   UNL A   1      45.827  33.335  26.495  1.00  0.00     0.054 A 
BRANCH  76  77
ATOM     77  S   UNL A   1      46.263  34.715  25.412  1.00  0.00     0.124 S 
ATOM     78  O   UNL A   1      47.698  34.510  25.230  1.00  0.00    -0.237 OA
ATOM     79  O   UNL A   1      45.435  34.463  24.236  1.00  0.00    -0.237 OA
ATOM     80  O   UNL A   1      45.894  35.893  26.193  1.00  0.00    -0.744 OA
ENDBRANCH  76  77
ENDBRANCH  57  71
BRANCH  58  81
ATOM     81  C   UNL A   1      37.371  31.813  31.654  1.00  0.00    -0.014 A 
ATOM     82  C   UNL A   1      37.583  33.161  31.309  1.00  0.00     0.010 A 
ATOM     83  C   UNL A   1      36.072  31.445  32.068  1.00  0.00     0.010 A 
ATOM     84  C   UNL A   1      36.563  34.116  31.425  1.00  0.00     0.020 A 
ATOM     85  C   UNL A   1      35.050  32.402  32.214  1.00  0.00     0.020 A 
ATOM     86  C   UNL A   1      35.315  33.739  31.920  1.00  0.00     0.054 A 
BRANCH  86  87
ATOM     87  S   UNL A   1      34.105  35.046  32.294  1.00  0.00     0.124 S 
ATOM     88  O   UNL A   1      33.796  35.562  30.963  1.00  0.00    -0.237 OA
ATOM     89  O   UNL A   1      33.028  34.302  32.942  1.00  0.00    -0.237 OA
ATOM     90  O   UNL A   1      34.836  35.962  33.164  1.00  0.00    -0.744 OA
ENDBRANCH  86  87
ENDBRANCH  58  81
BRANCH  70  91
ATOM     91  C   UNL A   1      42.518  29.111  34.140  1.00  0.00    -0.014 A 
ATOM     92  C   UNL A   1      43.309  29.247  35.293  1.00  0.00     0.010 A 
ATOM     93  C   UNL A   1      41.646  28.004  34.057  1.00  0.00     0.010 A 
ATOM     94  C   UNL A   1      43.272  28.292  36.311  1.00  0.00     0.020 A 
ATOM     95  C   UNL A   1      41.581  27.056  35.091  1.00  0.00     0.020 A 
ATOM     96  C   UNL A   1      42.419  27.192  36.198  1.00  0.00     0.054 A 
BRANCH  96  97
ATOM     97  S   UNL A   1      42.461  25.937  37.506  1.00  0.00     0.124 S 
ATOM     98  O   UNL A   1      43.278  26.584  38.531  1.00  0.00    -0.237 OA
ATOM     99  O   UNL A   1      41.049  25.776  37.846  1.00  0.00    -0.237 OA
ATOM    100  O   UNL A   1      43.078  24.777  36.865  1.00  0.00    -0.744 OA
ENDBRANCH  96  97
ENDBRANCH  70  91
ENDBRANCH  44  45
ENDBRANCH  37  39
ENDBRANCH  36  37
ENDBRANCH  35  36
ENDBRANCH   1  35
TORSDOF 20
ENDMDL
MODEL 3
REMARK VINA RESULT:     -11.7      3.168      7.845
REMARK SMILES O=C(CSc1nnc2sc3ccccc3n12)N[C@H](Cc1c[nH]c2ccccc12)C(=O)OCCOC(=O)c1ccc(-c2c3nc(c(-c4ccc(S(=O)(=O)[O-])cc4)c4ccc([nH]4)c(-c4ccc(S(=O)(=O)[O-])cc4)c4nc(c(-c5ccc(S(=O)(=O)[O-])cc5)c5ccc2[nH]5)C=C4)C=C3)cc1
REMARK SMILES IDX 32 1 31 2 29 3 30 4 18 5 17 6 1 7 2 8 3 10 4 11 5 12 6 13
REMARK SMILES IDX 16 14 7 15 8 16 15 17 9 18 10 19 14 20 11 21 13 22 12 23
REMARK SMILES IDX 19 24 20 25 21 26 28 27 22 28 23 29 27 30 24 32 26 33 25 34
REMARK SMILES IDX 33 35 34 36 35 37 36 38 37 39 38 40 96 41 39 42 95 43 40 44
REMARK SMILES IDX 41 45 42 46 89 47 43 48 94 49 88 50 90 51 44 52 93 53 87 54
REMARK SMILES IDX 86 55 45 57 75 58 56 59 74 60 57 61 60 62 73 63 91 64 58 65
REMARK SMILES IDX 59 66 72 68 92 69 61 70 46 71 47 72 55 73 48 74 54 75 49 76
REMARK SMILES IDX 50 77 51 78 52 79 53 80 76 81 77 82 85 83 78 84 84 85 79 86
REMARK SMILES IDX 80 87 81 88 82 89 83 90 62 91 63 92 71 93 64 94 70 95 65 96
REMARK SMILES IDX 66 97 67 98 68 99 69 100
REMARK H PARENT 17 9 22 31 90 56 60 67
REMARK Flexibility Score: inf
ROOT
ATOM      1  C   UNL A   1      35.076  23.004  26.679  1.00  0.00     0.274 C 
ENDROOT
BRANCH   1   2
ATOM      2  O   UNL A   1      33.962  23.709  26.078  1.00  0.00    -0.461 OA
BRANCH   2   3
ATOM      3  C   UNL A   1      32.853  22.973  25.775  1.00  0.00     0.329 C 
ATOM      4  O   UNL A   1      31.802  23.031  26.407  1.00  0.00    -0.250 OA
BRANCH   3   5
ATOM      5  C   UNL A   1      33.032  22.052  24.542  1.00  0.00     0.196 C 
BRANCH   5   6
ATOM      6  N   UNL A   1      33.303  22.902  23.367  1.00  0.00    -0.342 N 
ATOM      7  O   UNL A   1      31.179  23.713  23.164  1.00  0.00    -0.274 OA
ATOM      8  C   UNL A   1      32.364  23.760  22.832  1.00  0.00     0.231 C 
ATOM      9  H   UNL A   1      34.191  22.855  22.947  1.00  0.00     0.164 HD
BRANCH   8  10
ATOM     10  C   UNL A   1      32.863  24.827  21.856  1.00  0.00     0.178 C 
BRANCH  10  11
ATOM     11  S   UNL A   1      31.862  26.340  21.749  1.00  0.00    -0.076 SA
BRANCH  11  12
ATOM     12  C   UNL A   1      32.270  27.117  23.231  1.00  0.00     0.197 A 
ATOM     13  N   UNL A   1      33.299  26.824  24.008  1.00  0.00    -0.122 NA
ATOM     14  N   UNL A   1      31.633  28.214  23.728  1.00  0.00    -0.260 N 
ATOM     15  N   UNL A   1      33.375  27.788  25.013  1.00  0.00    -0.118 NA
ATOM     16  C   UNL A   1      32.383  28.609  24.796  1.00  0.00     0.217 A 
ATOM     17  C   UNL A   1      30.535  29.019  23.432  1.00  0.00     0.068 A 
ATOM     18  S   UNL A   1      31.824  30.071  25.529  1.00  0.00    -0.094 S 
ATOM     19  C   UNL A   1      30.493  30.104  24.323  1.00  0.00     0.055 A 
ATOM     20  C   UNL A   1      29.594  28.848  22.431  1.00  0.00     0.028 A 
ATOM     21  C   UNL A   1      29.494  31.056  24.213  1.00  0.00     0.021 A 
ATOM     22  C   UNL A   1      28.595  29.815  22.315  1.00  0.00     0.002 A 
ATOM     23  C   UNL A   1      28.539  30.902  23.202  1.00  0.00     0.002 A 
ENDBRANCH  11  12
ENDBRANCH  10  11
ENDBRANCH   8  10
ENDBRANCH   5   6
BRANCH   5  24
ATOM     24  C   UNL A   1      31.863  21.058  24.352  1.00  0.00     0.074 C 
BRANCH  24  25
ATOM     25  C   UNL A   1      32.243  19.743  23.726  1.00  0.00    -0.020 A 
ATOM     26  C   UNL A   1      32.229  19.473  22.372  1.00  0.00     0.087 A 
ATOM     27  C   UNL A   1      32.640  18.513  24.355  1.00  0.00     0.003 A 
ATOM     28  N   UNL A   1      32.814  18.264  22.148  1.00  0.00    -0.361 N 
ATOM     29  C   UNL A   1      32.980  17.612  23.340  1.00  0.00     0.046 A 
ATOM     30  C   UNL A   1      32.737  18.064  25.689  1.00  0.00     0.010 A 
ATOM     31  H   UNL A   1      33.076  17.913  21.267  1.00  0.00     0.166 HD
ATOM     32  C   UNL A   1      33.408  16.304  23.575  1.00  0.00     0.026 A 
ATOM     33  C   UNL A   1      33.118  16.736  25.941  1.00  0.00     0.001 A 
ATOM     34  C   UNL A   1      33.448  15.872  24.899  1.00  0.00     0.002 A 
ENDBRANCH  24  25
ENDBRANCH   5  24
ENDBRANCH   3   5
ENDBRANCH   2   3
ENDBRANCH   1   2
BRANCH   1  35
ATOM     35  C   UNL A   1      35.223  21.592  26.098  1.00  0.00     0.275 C 
BRANCH  35  36
ATOM     36  O   UNL A   1      36.607  21.225  26.094  1.00  0.00    -0.458 OA
BRANCH  36  37
ATOM     37  C   UNL A   1      37.323  21.760  25.078  1.00  0.00     0.338 C 
ATOM     38  O   UNL A   1      36.941  21.900  23.920  1.00  0.00    -0.246 OA
BRANCH  37  39
ATOM     39  C   UNL A   1      38.456  22.491  25.681  1.00  0.00     0.060 A 
ATOM     40  C   UNL A   1      39.498  21.823  26.340  1.00  0.00     0.016 A 
ATOM     41  C   UNL A   1      38.311  23.874  25.806  1.00  0.00     0.016 A 
ATOM     42  C   UNL A   1      40.298  22.518  27.243  1.00  0.00     0.010 A 
ATOM     43  C   UNL A   1      39.112  24.557  26.713  1.00  0.00     0.010 A 
ATOM     44  C   UNL A   1      40.053  23.871  27.488  1.00  0.00    -0.014 A 
BRANCH  44  45
ATOM     45  C   UNL A   1      40.960  24.647  28.331  1.00  0.00     0.031 A 
ATOM     46  C   UNL A   1      40.414  25.985  28.640  1.00  0.00     0.074 A 
ATOM     47  C   UNL A   1      42.143  24.289  28.871  1.00  0.00     0.049 A 
ATOM     48  N   UNL A   1      40.864  27.092  28.154  1.00  0.00    -0.248 NA
ATOM     49  C   UNL A   1      39.165  26.112  29.399  1.00  0.00     0.031 C 
ATOM     50  C   UNL A   1      42.885  23.038  28.771  1.00  0.00     0.029 A 
ATOM     51  N   UNL A   1      42.920  25.024  29.726  1.00  0.00    -0.354 N 
ATOM     52  C   UNL A   1      40.047  28.085  28.657  1.00  0.00     0.074 A 
ATOM     53  C   UNL A   1      38.929  27.418  29.277  1.00  0.00     0.031 C 
ATOM     54  C   UNL A   1      43.875  23.023  29.700  1.00  0.00     0.029 A 
ATOM     55  C   UNL A   1      43.898  24.298  30.392  1.00  0.00     0.049 A 
ATOM     56  H   UNL A   1      42.795  25.992  29.858  1.00  0.00     0.167 HD
ATOM     57  C   UNL A   1      40.437  29.387  28.680  1.00  0.00     0.031 A 
ATOM     58  C   UNL A   1      44.734  24.728  31.375  1.00  0.00     0.031 A 
ATOM     59  C   UNL A   1      41.616  29.614  27.886  1.00  0.00     0.049 A 
ATOM     60  C   UNL A   1      44.909  26.181  31.152  1.00  0.00     0.074 A 
ATOM     61  C   UNL A   1      41.913  29.472  26.545  1.00  0.00     0.029 A 
ATOM     62  N   UNL A   1      42.825  29.666  28.541  1.00  0.00    -0.354 N 
ATOM     63  N   UNL A   1      45.568  26.657  30.136  1.00  0.00    -0.248 NA
ATOM     64  C   UNL A   1      43.993  27.106  31.800  1.00  0.00     0.031 C 
ATOM     65  C   UNL A   1      43.245  28.973  26.511  1.00  0.00     0.029 A 
ATOM     66  C   UNL A   1      43.711  28.899  27.825  1.00  0.00     0.049 A 
ATOM     67  H   UNL A   1      43.018  30.160  29.370  1.00  0.00     0.167 HD
ATOM     68  C   UNL A   1      44.815  27.743  29.723  1.00  0.00     0.074 A 
ATOM     69  C   UNL A   1      43.924  28.037  30.846  1.00  0.00     0.031 C 
ATOM     70  C   UNL A   1      44.784  28.125  28.414  1.00  0.00     0.031 A 
BRANCH  57  71
ATOM     71  C   UNL A   1      39.907  30.387  29.658  1.00  0.00    -0.014 A 
ATOM     72  C   UNL A   1      38.704  31.093  29.449  1.00  0.00     0.010 A 
ATOM     73  C   UNL A   1      40.504  30.488  30.927  1.00  0.00     0.010 A 
ATOM     74  C   UNL A   1      38.146  31.904  30.433  1.00  0.00     0.020 A 
ATOM     75  C   UNL A   1      39.924  31.260  31.940  1.00  0.00     0.020 A 
ATOM     76  C   UNL A   1      38.755  31.973  31.679  1.00  0.00     0.054 A 
BRANCH  76  77
ATOM     77  S   UNL A   1      37.944  32.954  32.962  1.00  0.00     0.124 S 
ATOM     78  O   UNL A   1      38.991  33.043  33.977  1.00  0.00    -0.237 OA
ATOM     79  O   UNL A   1      37.640  34.198  32.259  1.00  0.00    -0.237 OA
ATOM     80  O   UNL A   1      36.784  32.147  33.329  1.00  0.00    -0.744 OA
ENDBRANCH  76  77
ENDBRANCH  57  71
BRANCH  58  81
ATOM     81  C   UNL A   1      44.909  24.145  32.738  1.00  0.00    -0.014 A 
ATOM     82  C   UNL A   1      46.081  24.387  33.479  1.00  0.00     0.010 A 
ATOM     83  C   UNL A   1      44.069  23.098  33.177  1.00  0.00     0.010 A 
ATOM     84  C   UNL A   1      46.435  23.587  34.574  1.00  0.00     0.020 A 
ATOM     85  C   UNL A   1      44.429  22.273  34.258  1.00  0.00     0.020 A 
ATOM     86  C   UNL A   1      45.629  22.506  34.930  1.00  0.00     0.054 A 
BRANCH  86  87
ATOM     87  S   UNL A   1      46.248  21.347  36.188  1.00  0.00     0.124 S 
ATOM     88  O   UNL A   1      45.525  20.122  35.853  1.00  0.00    -0.237 OA
ATOM     89  O   UNL A   1      47.682  21.320  35.914  1.00  0.00    -0.237 OA
ATOM     90  O   UNL A   1      45.869  21.968  37.454  1.00  0.00    -0.744 OA
ENDBRANCH  86  87
ENDBRANCH  58  81
BRANCH  70  91
ATOM     91  C   UNL A   1      45.759  27.488  27.440  1.00  0.00    -0.014 A 
ATOM     92  C   UNL A   1      46.884  28.241  27.059  1.00  0.00     0.010 A 
ATOM     93  C   UNL A   1      45.495  26.289  26.745  1.00  0.00     0.010 A 
ATOM     94  C   UNL A   1      47.693  27.842  25.993  1.00  0.00     0.020 A 
ATOM     95  C   UNL A   1      46.321  25.866  25.692  1.00  0.00     0.020 A 
ATOM     96  C   UNL A   1      47.399  26.663  25.304  1.00  0.00     0.054 A 
BRANCH  96  97
ATOM     97  S   UNL A   1      48.429  26.224  23.878  1.00  0.00     0.124 S 
ATOM     98  O   UNL A   1      47.934  24.893  23.536  1.00  0.00    -0.237 OA
ATOM     99  O   UNL A   1      48.111  27.274  22.913  1.00  0.00    -0.237 OA
ATOM    100  O   UNL A   1      49.794  26.260  24.401  1.00  0.00    -0.744 OA
ENDBRANCH  96  97
ENDBRANCH  70  91
ENDBRANCH  44  45
ENDBRANCH  37  39
ENDBRANCH  36  37
ENDBRANCH  35  36
ENDBRANCH   1  35
TORSDOF 20
ENDMDL
