MODEL 1
REMARK VINA RESULT:     -11.7      0.000      0.000
REMARK SMILES O=C(Nc1ccccc1)N[C@H]1C[C@@H](C(=O)OCCOC(=O)c2ccc(-c3c4nc(c(-c5ccc(S(=O)(=O)[O-])cc5)c5ccc([nH]5)c(-c5ccc(S(=O)(=O)[O-])cc5)c5nc(c(-c6ccc(S(=O)(=O)[O-])cc6)c6ccc3[nH]6)C=C5)C=C4)cc2)Nc2cc(Cl)cc(Cl)c21
REMARK SMILES IDX 18 1 17 2 16 3 14 4 15 5 13 6 11 7 12 8 90 9 83 10 88 11
REMARK SMILES IDX 82 12 84 13 87 14 89 15 85 17 86 18 10 19 1 20 2 21 3 22
REMARK SMILES IDX 4 25 5 26 9 27 6 28 8 29 7 30 19 31 20 32 21 33 22 34 23 35
REMARK SMILES IDX 81 36 24 37 80 38 25 39 26 40 27 41 74 42 28 43 79 44 73 45
REMARK SMILES IDX 75 46 29 47 78 48 72 49 71 50 30 52 60 53 41 54 59 55 42 56
REMARK SMILES IDX 45 57 58 58 76 59 43 60 44 61 57 63 77 64 46 65 31 66 32 67
REMARK SMILES IDX 40 68 33 69 39 70 34 71 35 72 36 73 37 74 38 75 61 76 62 77
REMARK SMILES IDX 70 78 63 79 69 80 64 81 65 82 66 83 67 84 68 85 47 86 48 87
REMARK SMILES IDX 56 88 49 89 55 90 50 91 51 92 52 93 53 94 54 95
REMARK H PARENT 82 16 3 23 10 24 75 51 45 62
REMARK Flexibility Score: inf
ROOT
ATOM      1  C   UNL A   1      34.740  32.029  29.250  1.00  0.00     0.275 C 
ENDROOT
BRANCH   1   2
ATOM      2  C   UNL A   1      34.891  31.860  27.738  1.00  0.00     0.274 C 
BRANCH   2   3
ATOM      3  O   UNL A   1      33.745  31.149  27.237  1.00  0.00    -0.461 OA
BRANCH   3   4
ATOM      4  C   UNL A   1      33.932  29.842  26.903  1.00  0.00     0.328 C 
ATOM      5  O   UNL A   1      34.969  29.216  27.087  1.00  0.00    -0.250 OA
BRANCH   4   6
ATOM      6  C   UNL A   1      32.658  29.242  26.293  1.00  0.00     0.192 C 
ATOM      7  C   UNL A   1      31.508  27.036  25.686  1.00  0.00     0.120 C 
ATOM      8  C   UNL A   1      32.567  27.746  26.554  1.00  0.00     0.067 C 
ATOM      9  C   UNL A   1      30.790  27.907  24.668  1.00  0.00     0.016 A 
ATOM     10  C   UNL A   1      31.409  29.095  24.252  1.00  0.00     0.043 A 
ATOM     11  C   UNL A   1      29.595  27.510  24.037  1.00  0.00     0.049 A 
ATOM     12  N   UNL A   1      32.599  29.504  24.851  1.00  0.00    -0.372 N 
ATOM     13  C   UNL A   1      30.884  29.817  23.179  1.00  0.00     0.046 A 
ATOM     14  C   UNL A   1      29.049  28.263  22.996  1.00  0.00     0.041 A 
ATOM     15  Cl  UNL A   1      28.754  26.068  24.490  1.00  0.00    -0.084 Cl
ATOM     16  H   UNL A   1      33.333  29.930  24.353  1.00  0.00     0.161 HD
ATOM     17  C   UNL A   1      29.704  29.409  22.565  1.00  0.00     0.044 A 
ATOM     18  Cl  UNL A   1      29.057  30.331  21.267  1.00  0.00    -0.084 Cl
BRANCH   7  19
ATOM     19  N   UNL A   1      32.137  25.941  24.953  1.00  0.00    -0.331 N 
ATOM     20  O   UNL A   1      33.993  27.090  24.310  1.00  0.00    -0.248 OA
ATOM     21  C   UNL A   1      33.372  26.032  24.396  1.00  0.00     0.319 C 
ATOM     22  N   UNL A   1      33.982  24.856  24.074  1.00  0.00    -0.308 N 
ATOM     23  H   UNL A   1      34.962  24.914  23.996  1.00  0.00     0.171 HD
ATOM     24  H   UNL A   1      31.641  25.096  24.856  1.00  0.00     0.166 HD
BRANCH  22  25
ATOM     25  C   UNL A   1      33.458  23.575  23.831  1.00  0.00     0.042 A 
ATOM     26  C   UNL A   1      33.676  22.594  24.804  1.00  0.00     0.026 A 
ATOM     27  C   UNL A   1      32.799  23.229  22.648  1.00  0.00     0.026 A 
ATOM     28  C   UNL A   1      33.197  21.295  24.620  1.00  0.00     0.002 A 
ATOM     29  C   UNL A   1      32.341  21.923  22.455  1.00  0.00     0.002 A 
ATOM     30  C   UNL A   1      32.532  20.959  23.443  1.00  0.00     0.000 A 
ENDBRANCH  22  25
ENDBRANCH   7  19
ENDBRANCH   4   6
ENDBRANCH   3   4
ENDBRANCH   2   3
ENDBRANCH   1   2
BRANCH   1  31
ATOM     31  O   UNL A   1      35.586  31.092  29.946  1.00  0.00    -0.458 OA
BRANCH  31  32
ATOM     32  C   UNL A   1      36.696  31.628  30.501  1.00  0.00     0.338 C 
ATOM     33  O   UNL A   1      36.767  32.576  31.271  1.00  0.00    -0.246 OA
BRANCH  32  34
ATOM     34  C   UNL A   1      37.875  30.840  30.128  1.00  0.00     0.060 A 
ATOM     35  C   UNL A   1      38.789  30.488  31.121  1.00  0.00     0.016 A 
ATOM     36  C   UNL A   1      38.162  30.622  28.780  1.00  0.00     0.016 A 
ATOM     37  C   UNL A   1      40.040  29.988  30.755  1.00  0.00     0.010 A 
ATOM     38  C   UNL A   1      39.393  30.062  28.424  1.00  0.00     0.010 A 
ATOM     39  C   UNL A   1      40.363  29.782  29.403  1.00  0.00    -0.014 A 
BRANCH  39  40
ATOM     40  C   UNL A   1      41.724  29.322  29.015  1.00  0.00     0.031 A 
ATOM     41  C   UNL A   1      42.892  30.278  29.028  1.00  0.00     0.074 A 
ATOM     42  C   UNL A   1      41.922  28.042  28.643  1.00  0.00     0.049 A 
ATOM     43  N   UNL A   1      44.114  30.094  28.594  1.00  0.00    -0.248 NA
ATOM     44  C   UNL A   1      42.651  31.622  29.580  1.00  0.00     0.031 C 
ATOM     45  C   UNL A   1      40.891  27.002  28.592  1.00  0.00     0.029 A 
ATOM     46  N   UNL A   1      43.064  27.397  28.239  1.00  0.00    -0.354 N 
ATOM     47  C   UNL A   1      44.769  31.309  28.764  1.00  0.00     0.074 A 
ATOM     48  C   UNL A   1      43.810  32.224  29.348  1.00  0.00     0.031 C 
ATOM     49  C   UNL A   1      41.453  25.846  28.205  1.00  0.00     0.029 A 
ATOM     50  C   UNL A   1      42.867  26.073  27.927  1.00  0.00     0.049 A 
ATOM     51  H   UNL A   1      43.941  27.840  28.177  1.00  0.00     0.167 HD
ATOM     52  C   UNL A   1      46.048  31.636  28.458  1.00  0.00     0.031 A 
ATOM     53  C   UNL A   1      43.718  25.147  27.447  1.00  0.00     0.031 A 
ATOM     54  C   UNL A   1      47.025  30.715  27.940  1.00  0.00     0.049 A 
ATOM     55  C   UNL A   1      45.144  25.520  27.168  1.00  0.00     0.074 A 
ATOM     56  C   UNL A   1      48.355  30.953  27.635  1.00  0.00     0.029 A 
ATOM     57  N   UNL A   1      46.788  29.377  27.674  1.00  0.00    -0.354 N 
ATOM     58  N   UNL A   1      45.732  26.684  27.309  1.00  0.00    -0.248 NA
ATOM     59  C   UNL A   1      46.021  24.455  26.661  1.00  0.00     0.031 C 
ATOM     60  C   UNL A   1      48.918  29.761  27.165  1.00  0.00     0.029 A 
ATOM     61  C   UNL A   1      47.946  28.776  27.206  1.00  0.00     0.049 A 
ATOM     62  H   UNL A   1      45.926  28.920  27.799  1.00  0.00     0.167 HD
ATOM     63  C   UNL A   1      47.049  26.488  26.912  1.00  0.00     0.074 A 
ATOM     64  C   UNL A   1      47.177  25.092  26.548  1.00  0.00     0.031 C 
ATOM     65  C   UNL A   1      48.060  27.388  26.848  1.00  0.00     0.031 A 
BRANCH  52  66
ATOM     66  C   UNL A   1      46.465  33.069  28.645  1.00  0.00    -0.014 A 
ATOM     67  C   UNL A   1      46.322  34.015  27.616  1.00  0.00     0.010 A 
ATOM     68  C   UNL A   1      46.950  33.486  29.898  1.00  0.00     0.010 A 
ATOM     69  C   UNL A   1      46.683  35.349  27.829  1.00  0.00     0.020 A 
ATOM     70  C   UNL A   1      47.295  34.821  30.121  1.00  0.00     0.020 A 
ATOM     71  C   UNL A   1      47.174  35.743  29.079  1.00  0.00     0.054 A 
BRANCH  71  72
ATOM     72  S   UNL A   1      47.607  37.485  29.349  1.00  0.00     0.124 S 
ATOM     73  O   UNL A   1      48.695  37.674  28.393  1.00  0.00    -0.237 OA
ATOM     74  O   UNL A   1      46.365  38.183  29.031  1.00  0.00    -0.237 OA
ATOM     75  O   UNL A   1      47.998  37.528  30.756  1.00  0.00    -0.744 OA
ENDBRANCH  71  72
ENDBRANCH  52  66
BRANCH  53  76
ATOM     76  C   UNL A   1      43.228  23.772  27.171  1.00  0.00    -0.014 A 
ATOM     77  C   UNL A   1      42.862  23.393  25.868  1.00  0.00     0.010 A 
ATOM     78  C   UNL A   1      43.139  22.833  28.214  1.00  0.00     0.010 A 
ATOM     79  C   UNL A   1      42.401  22.099  25.614  1.00  0.00     0.020 A 
ATOM     80  C   UNL A   1      42.700  21.533  27.959  1.00  0.00     0.020 A 
ATOM     81  C   UNL A   1      42.320  21.177  26.663  1.00  0.00     0.054 A 
BRANCH  81  82
ATOM     82  S   UNL A   1      41.776  19.481  26.317  1.00  0.00     0.124 S 
ATOM     83  O   UNL A   1      42.516  19.170  25.098  1.00  0.00    -0.237 OA
ATOM     84  O   UNL A   1      42.194  18.756  27.514  1.00  0.00    -0.237 OA
ATOM     85  O   UNL A   1      40.330  19.620  26.159  1.00  0.00    -0.744 OA
ENDBRANCH  81  82
ENDBRANCH  53  76
BRANCH  65  86
ATOM     86  C   UNL A   1      49.396  26.879  26.388  1.00  0.00    -0.014 A 
ATOM     87  C   UNL A   1      49.792  27.003  25.044  1.00  0.00     0.010 A 
ATOM     88  C   UNL A   1      50.270  26.280  27.312  1.00  0.00     0.010 A 
ATOM     89  C   UNL A   1      51.026  26.501  24.624  1.00  0.00     0.020 A 
ATOM     90  C   UNL A   1      51.512  25.791  26.898  1.00  0.00     0.020 A 
ATOM     91  C   UNL A   1      51.874  25.888  25.553  1.00  0.00     0.054 A 
BRANCH  91  92
ATOM     92  S   UNL A   1      53.480  25.252  24.996  1.00  0.00     0.124 S 
ATOM     93  O   UNL A   1      53.359  23.827  25.289  1.00  0.00    -0.237 OA
ATOM     94  O   UNL A   1      53.499  25.602  23.578  1.00  0.00    -0.237 OA
ATOM     95  O   UNL A   1      54.440  25.981  25.822  1.00  0.00    -0.744 OA
ENDBRANCH  91  92
ENDBRANCH  65  86
ENDBRANCH  39  40
ENDBRANCH  32  34
ENDBRANCH  31  32
ENDBRANCH   1  31
TORSDOF 16
ENDMDL
MODEL 2
REMARK VINA RESULT:     -11.6      6.075      8.108
REMARK SMILES O=C(Nc1ccccc1)N[C@H]1C[C@@H](C(=O)OCCOC(=O)c2ccc(-c3c4nc(c(-c5ccc(S(=O)(=O)[O-])cc5)c5ccc([nH]5)c(-c5ccc(S(=O)(=O)[O-])cc5)c5nc(c(-c6ccc(S(=O)(=O)[O-])cc6)c6ccc3[nH]6)C=C5)C=C4)cc2)Nc2cc(Cl)cc(Cl)c21
REMARK SMILES IDX 18 1 17 2 16 3 14 4 15 5 13 6 11 7 12 8 90 9 83 10 88 11
REMARK SMILES IDX 82 12 84 13 87 14 89 15 85 17 86 18 10 19 1 20 2 21 3 22
REMARK SMILES IDX 4 25 5 26 9 27 6 28 8 29 7 30 19 31 20 32 21 33 22 34 23 35
REMARK SMILES IDX 81 36 24 37 80 38 25 39 26 40 27 41 74 42 28 43 79 44 73 45
REMARK SMILES IDX 75 46 29 47 78 48 72 49 71 50 30 52 60 53 41 54 59 55 42 56
REMARK SMILES IDX 45 57 58 58 76 59 43 60 44 61 57 63 77 64 46 65 31 66 32 67
REMARK SMILES IDX 40 68 33 69 39 70 34 71 35 72 36 73 37 74 38 75 61 76 62 77
REMARK SMILES IDX 70 78 63 79 69 80 64 81 65 82 66 83 67 84 68 85 47 86 48 87
REMARK SMILES IDX 56 88 49 89 55 90 50 91 51 92 52 93 53 94 54 95
REMARK H PARENT 82 16 3 23 10 24 75 51 45 62
REMARK Flexibility Score: inf
ROOT
ATOM      1  C   UNL A   1      33.304  33.399  27.627  1.00  0.00     0.275 C 
ENDROOT
BRANCH   1   2
ATOM      2  C   UNL A   1      33.382  31.910  27.960  1.00  0.00     0.274 C 
BRANCH   2   3
ATOM      3  O   UNL A   1      34.569  31.363  27.359  1.00  0.00    -0.461 OA
BRANCH   3   4
ATOM      4  C   UNL A   1      34.696  30.007  27.374  1.00  0.00     0.328 C 
ATOM      5  O   UNL A   1      35.675  29.403  27.794  1.00  0.00    -0.250 OA
BRANCH   4   6
ATOM      6  C   UNL A   1      33.434  29.331  26.822  1.00  0.00     0.192 C 
ATOM      7  C   UNL A   1      32.231  27.080  26.608  1.00  0.00     0.120 C 
ATOM      8  C   UNL A   1      33.269  27.923  27.377  1.00  0.00     0.067 C 
ATOM      9  C   UNL A   1      31.604  27.743  25.393  1.00  0.00     0.016 A 
ATOM     10  C   UNL A   1      32.291  28.803  24.782  1.00  0.00     0.043 A 
ATOM     11  C   UNL A   1      30.430  27.258  24.784  1.00  0.00     0.049 A 
ATOM     12  N   UNL A   1      33.463  29.292  25.356  1.00  0.00    -0.372 N 
ATOM     13  C   UNL A   1      31.854  29.302  23.555  1.00  0.00     0.046 A 
ATOM     14  C   UNL A   1      29.971  27.796  23.581  1.00  0.00     0.041 A 
ATOM     15  Cl  UNL A   1      29.509  25.964  25.469  1.00  0.00    -0.084 Cl
ATOM     16  H   UNL A   1      34.239  29.586  24.827  1.00  0.00     0.161 HD
ATOM     17  C   UNL A   1      30.693  28.810  22.966  1.00  0.00     0.044 A 
ATOM     18  Cl  UNL A   1      30.154  29.463  21.470  1.00  0.00    -0.084 Cl
BRANCH   7  19
ATOM     19  N   UNL A   1      32.855  25.841  26.153  1.00  0.00    -0.331 N 
ATOM     20  O   UNL A   1      31.466  24.426  27.267  1.00  0.00    -0.248 OA
ATOM     21  C   UNL A   1      32.366  24.610  26.451  1.00  0.00     0.319 C 
ATOM     22  N   UNL A   1      32.809  23.576  25.679  1.00  0.00    -0.308 N 
ATOM     23  H   UNL A   1      32.219  22.788  25.679  1.00  0.00     0.171 HD
ATOM     24  H   UNL A   1      33.670  25.901  25.603  1.00  0.00     0.166 HD
BRANCH  22  25
ATOM     25  C   UNL A   1      33.959  23.438  24.885  1.00  0.00     0.042 A 
ATOM     26  C   UNL A   1      33.775  23.220  23.516  1.00  0.00     0.026 A 
ATOM     27  C   UNL A   1      35.255  23.440  25.408  1.00  0.00     0.026 A 
ATOM     28  C   UNL A   1      34.875  23.057  22.670  1.00  0.00     0.002 A 
ATOM     29  C   UNL A   1      36.354  23.254  24.564  1.00  0.00     0.002 A 
ATOM     30  C   UNL A   1      36.165  23.071  23.195  1.00  0.00     0.000 A 
ENDBRANCH  22  25
ENDBRANCH   7  19
ENDBRANCH   4   6
ENDBRANCH   3   4
ENDBRANCH   2   3
ENDBRANCH   1   2
BRANCH   1  31
ATOM     31  O   UNL A   1      32.458  34.081  28.575  1.00  0.00    -0.458 OA
BRANCH  31  32
ATOM     32  C   UNL A   1      33.018  35.158  29.170  1.00  0.00     0.338 C 
ATOM     33  O   UNL A   1      32.646  36.322  29.115  1.00  0.00    -0.246 OA
BRANCH  32  34
ATOM     34  C   UNL A   1      34.137  34.739  30.018  1.00  0.00     0.060 A 
ATOM     35  C   UNL A   1      35.427  34.760  29.488  1.00  0.00     0.016 A 
ATOM     36  C   UNL A   1      33.883  34.151  31.258  1.00  0.00     0.016 A 
ATOM     37  C   UNL A   1      36.459  34.112  30.168  1.00  0.00     0.010 A 
ATOM     38  C   UNL A   1      34.935  33.559  31.963  1.00  0.00     0.010 A 
ATOM     39  C   UNL A   1      36.224  33.492  31.406  1.00  0.00    -0.014 A 
BRANCH  39  40
ATOM     40  C   UNL A   1      37.310  32.738  32.090  1.00  0.00     0.031 A 
ATOM     41  C   UNL A   1      37.793  33.157  33.457  1.00  0.00     0.074 A 
ATOM     42  C   UNL A   1      37.876  31.674  31.487  1.00  0.00     0.049 A 
ATOM     43  N   UNL A   1      38.814  32.708  34.145  1.00  0.00    -0.248 NA
ATOM     44  C   UNL A   1      37.045  34.232  34.132  1.00  0.00     0.031 C 
ATOM     45  C   UNL A   1      37.506  31.148  30.170  1.00  0.00     0.029 A 
ATOM     46  N   UNL A   1      38.884  30.842  31.906  1.00  0.00    -0.354 N 
ATOM     47  C   UNL A   1      38.868  33.481  35.300  1.00  0.00     0.074 A 
ATOM     48  C   UNL A   1      37.772  34.425  35.225  1.00  0.00     0.031 C 
ATOM     49  C   UNL A   1      38.258  30.068  29.903  1.00  0.00     0.029 A 
ATOM     50  C   UNL A   1      39.199  29.859  30.999  1.00  0.00     0.049 A 
ATOM     51  H   UNL A   1      39.338  30.940  32.774  1.00  0.00     0.167 HD
ATOM     52  C   UNL A   1      39.751  33.417  36.326  1.00  0.00     0.031 A 
ATOM     53  C   UNL A   1      40.152  28.910  31.026  1.00  0.00     0.031 A 
ATOM     54  C   UNL A   1      40.802  32.440  36.439  1.00  0.00     0.049 A 
ATOM     55  C   UNL A   1      41.083  28.825  32.201  1.00  0.00     0.074 A 
ATOM     56  C   UNL A   1      41.721  32.279  37.463  1.00  0.00     0.029 A 
ATOM     57  N   UNL A   1      41.059  31.443  35.513  1.00  0.00    -0.354 N 
ATOM     58  N   UNL A   1      41.133  29.587  33.267  1.00  0.00    -0.248 NA
ATOM     59  C   UNL A   1      42.089  27.754  32.172  1.00  0.00     0.031 C 
ATOM     60  C   UNL A   1      42.548  31.196  37.146  1.00  0.00     0.029 A 
ATOM     61  C   UNL A   1      42.124  30.666  35.939  1.00  0.00     0.049 A 
ATOM     62  H   UNL A   1      40.560  31.307  34.677  1.00  0.00     0.167 HD
ATOM     63  C   UNL A   1      42.173  29.083  34.038  1.00  0.00     0.074 A 
ATOM     64  C   UNL A   1      42.710  27.939  33.328  1.00  0.00     0.031 C 
ATOM     65  C   UNL A   1      42.646  29.532  35.225  1.00  0.00     0.031 A 
BRANCH  52  66
ATOM     66  C   UNL A   1      39.643  34.460  37.405  1.00  0.00    -0.014 A 
ATOM     67  C   UNL A   1      38.975  34.199  38.613  1.00  0.00     0.010 A 
ATOM     68  C   UNL A   1      40.280  35.702  37.226  1.00  0.00     0.010 A 
ATOM     69  C   UNL A   1      38.923  35.175  39.614  1.00  0.00     0.020 A 
ATOM     70  C   UNL A   1      40.245  36.672  38.231  1.00  0.00     0.020 A 
ATOM     71  C   UNL A   1      39.553  36.408  39.414  1.00  0.00     0.054 A 
BRANCH  71  72
ATOM     72  S   UNL A   1      39.503  37.650  40.737  1.00  0.00     0.124 S 
ATOM     73  O   UNL A   1      38.494  38.580  40.236  1.00  0.00    -0.237 OA
ATOM     74  O   UNL A   1      39.109  36.867  41.905  1.00  0.00    -0.237 OA
ATOM     75  O   UNL A   1      40.868  38.170  40.772  1.00  0.00    -0.744 OA
ENDBRANCH  71  72
ENDBRANCH  52  66
BRANCH  53  76
ATOM     76  C   UNL A   1      40.291  27.974  29.881  1.00  0.00    -0.014 A 
ATOM     77  C   UNL A   1      39.440  26.863  29.760  1.00  0.00     0.010 A 
ATOM     78  C   UNL A   1      41.272  28.203  28.901  1.00  0.00     0.010 A 
ATOM     79  C   UNL A   1      39.577  25.984  28.681  1.00  0.00     0.020 A 
ATOM     80  C   UNL A   1      41.396  27.340  27.810  1.00  0.00     0.020 A 
ATOM     81  C   UNL A   1      40.557  26.228  27.714  1.00  0.00     0.054 A 
BRANCH  81  82
ATOM     82  S   UNL A   1      40.691  25.118  26.285  1.00  0.00     0.124 S 
ATOM     83  O   UNL A   1      41.151  26.027  25.240  1.00  0.00    -0.237 OA
ATOM     84  O   UNL A   1      41.664  24.126  26.736  1.00  0.00    -0.237 OA
ATOM     85  O   UNL A   1      39.330  24.613  26.126  1.00  0.00    -0.744 OA
ENDBRANCH  81  82
ENDBRANCH  53  76
BRANCH  65  86
ATOM     86  C   UNL A   1      43.786  28.769  35.837  1.00  0.00    -0.014 A 
ATOM     87  C   UNL A   1      45.120  29.131  35.576  1.00  0.00     0.010 A 
ATOM     88  C   UNL A   1      43.520  27.684  36.691  1.00  0.00     0.010 A 
ATOM     89  C   UNL A   1      46.171  28.395  36.130  1.00  0.00     0.020 A 
ATOM     90  C   UNL A   1      44.568  26.957  37.260  1.00  0.00     0.020 A 
ATOM     91  C   UNL A   1      45.887  27.305  36.960  1.00  0.00     0.054 A 
BRANCH  91  92
ATOM     92  S   UNL A   1      47.261  26.368  37.684  1.00  0.00     0.124 S 
ATOM     93  O   UNL A   1      46.895  24.993  37.356  1.00  0.00    -0.237 OA
ATOM     94  O   UNL A   1      48.427  26.893  36.978  1.00  0.00    -0.237 OA
ATOM     95  O   UNL A   1      47.197  26.709  39.104  1.00  0.00    -0.744 OA
ENDBRANCH  91  92
ENDBRANCH  65  86
ENDBRANCH  39  40
ENDBRANCH  32  34
ENDBRANCH  31  32
ENDBRANCH   1  31
TORSDOF 16
ENDMDL
MODEL 3
REMARK VINA RESULT:     -11.5      1.495      3.257
REMARK SMILES O=C(Nc1ccccc1)N[C@H]1C[C@@H](C(=O)OCCOC(=O)c2ccc(-c3c4nc(c(-c5ccc(S(=O)(=O)[O-])cc5)c5ccc([nH]5)c(-c5ccc(S(=O)(=O)[O-])cc5)c5nc(c(-c6ccc(S(=O)(=O)[O-])cc6)c6ccc3[nH]6)C=C5)C=C4)cc2)Nc2cc(Cl)cc(Cl)c21
REMARK SMILES IDX 18 1 17 2 16 3 14 4 15 5 13 6 11 7 12 8 90 9 83 10 88 11
REMARK SMILES IDX 82 12 84 13 87 14 89 15 85 17 86 18 10 19 1 20 2 21 3 22
REMARK SMILES IDX 4 25 5 26 9 27 6 28 8 29 7 30 19 31 20 32 21 33 22 34 23 35
REMARK SMILES IDX 81 36 24 37 80 38 25 39 26 40 27 41 74 42 28 43 79 44 73 45
REMARK SMILES IDX 75 46 29 47 78 48 72 49 71 50 30 52 60 53 41 54 59 55 42 56
REMARK SMILES IDX 45 57 58 58 76 59 43 60 44 61 57 63 77 64 46 65 31 66 32 67
REMARK SMILES IDX 40 68 33 69 39 70 34 71 35 72 36 73 37 74 38 75 61 76 62 77
REMARK SMILES IDX 70 78 63 79 69 80 64 81 65 82 66 83 67 84 68 85 47 86 48 87
REMARK SMILES IDX 56 88 49 89 55 90 50 91 51 92 52 93 53 94 54 95
REMARK H PARENT 82 16 3 23 10 24 75 51 45 62
REMARK Flexibility Score: inf
ROOT
ATOM      1  C   UNL A   1      34.526  31.646  29.266  1.00  0.00     0.275 C 
ENDROOT
BRANCH   1   2
ATOM      2  C   UNL A   1      34.397  31.333  27.776  1.00  0.00     0.274 C 
BRANCH   2   3
ATOM      3  O   UNL A   1      33.843  30.014  27.626  1.00  0.00    -0.461 OA
BRANCH   3   4
ATOM      4  C   UNL A   1      34.714  29.015  27.316  1.00  0.00     0.328 C 
ATOM      5  O   UNL A   1      35.862  28.934  27.736  1.00  0.00    -0.250 OA
BRANCH   4   6
ATOM      6  C   UNL A   1      34.058  27.981  26.391  1.00  0.00     0.192 C 
ATOM      7  C   UNL A   1      32.946  27.678  24.104  1.00  0.00     0.120 C 
ATOM      8  C   UNL A   1      33.896  28.522  24.978  1.00  0.00     0.067 C 
ATOM      9  C   UNL A   1      32.269  26.507  24.797  1.00  0.00     0.016 A 
ATOM     10  C   UNL A   1      32.157  26.533  26.195  1.00  0.00     0.043 A 
ATOM     11  C   UNL A   1      31.644  25.463  24.088  1.00  0.00     0.049 A 
ATOM     12  N   UNL A   1      32.755  27.562  26.920  1.00  0.00    -0.372 N 
ATOM     13  C   UNL A   1      31.372  25.584  26.850  1.00  0.00     0.046 A 
ATOM     14  C   UNL A   1      30.900  24.488  24.755  1.00  0.00     0.041 A 
ATOM     15  Cl  UNL A   1      31.738  25.339  22.366  1.00  0.00    -0.084 Cl
ATOM     16  H   UNL A   1      32.343  27.971  27.714  1.00  0.00     0.161 HD
ATOM     17  C   UNL A   1      30.759  24.561  26.134  1.00  0.00     0.044 A 
ATOM     18  Cl  UNL A   1      29.822  23.382  26.964  1.00  0.00    -0.084 Cl
BRANCH   7  19
ATOM     19  N   UNL A   1      31.891  28.533  23.569  1.00  0.00    -0.331 N 
ATOM     20  O   UNL A   1      33.089  29.364  21.823  1.00  0.00    -0.248 OA
ATOM     21  C   UNL A   1      32.021  29.242  22.419  1.00  0.00     0.319 C 
ATOM     22  N   UNL A   1      30.867  29.693  21.848  1.00  0.00    -0.308 N 
ATOM     23  H   UNL A   1      30.941  29.896  20.887  1.00  0.00     0.171 HD
ATOM     24  H   UNL A   1      31.044  28.600  24.068  1.00  0.00     0.166 HD
BRANCH  22  25
ATOM     25  C   UNL A   1      29.590  29.919  22.390  1.00  0.00     0.042 A 
ATOM     26  C   UNL A   1      29.316  31.200  22.879  1.00  0.00     0.026 A 
ATOM     27  C   UNL A   1      28.625  28.917  22.520  1.00  0.00     0.026 A 
ATOM     28  C   UNL A   1      28.073  31.491  23.446  1.00  0.00     0.002 A 
ATOM     29  C   UNL A   1      27.390  29.204  23.108  1.00  0.00     0.002 A 
ATOM     30  C   UNL A   1      27.111  30.491  23.564  1.00  0.00     0.000 A 
ENDBRANCH  22  25
ENDBRANCH   7  19
ENDBRANCH   4   6
ENDBRANCH   3   4
ENDBRANCH   2   3
ENDBRANCH   1   2
BRANCH   1  31
ATOM     31  O   UNL A   1      35.910  31.843  29.619  1.00  0.00    -0.458 OA
BRANCH  31  32
ATOM     32  C   UNL A   1      36.455  30.859  30.368  1.00  0.00     0.338 C 
ATOM     33  O   UNL A   1      35.883  30.101  31.140  1.00  0.00    -0.246 OA
BRANCH  32  34
ATOM     34  C   UNL A   1      37.883  30.728  30.065  1.00  0.00     0.060 A 
ATOM     35  C   UNL A   1      38.300  30.820  28.737  1.00  0.00     0.016 A 
ATOM     36  C   UNL A   1      38.768  30.327  31.066  1.00  0.00     0.016 A 
ATOM     37  C   UNL A   1      39.594  30.426  28.396  1.00  0.00     0.010 A 
ATOM     38  C   UNL A   1      40.082  29.995  30.726  1.00  0.00     0.010 A 
ATOM     39  C   UNL A   1      40.497  29.996  29.382  1.00  0.00    -0.014 A 
BRANCH  39  40
ATOM     40  C   UNL A   1      41.850  29.506  29.004  1.00  0.00     0.031 A 
ATOM     41  C   UNL A   1      43.035  30.441  29.009  1.00  0.00     0.074 A 
ATOM     42  C   UNL A   1      42.026  28.219  28.647  1.00  0.00     0.049 A 
ATOM     43  N   UNL A   1      44.256  30.229  28.582  1.00  0.00    -0.248 NA
ATOM     44  C   UNL A   1      42.818  31.796  29.545  1.00  0.00     0.031 C 
ATOM     45  C   UNL A   1      40.976  27.198  28.603  1.00  0.00     0.029 A 
ATOM     46  N   UNL A   1      43.157  27.548  28.253  1.00  0.00    -0.354 N 
ATOM     47  C   UNL A   1      44.932  31.434  28.740  1.00  0.00     0.074 A 
ATOM     48  C   UNL A   1      43.989  32.373  29.310  1.00  0.00     0.031 C 
ATOM     49  C   UNL A   1      41.518  26.027  28.231  1.00  0.00     0.029 A 
ATOM     50  C   UNL A   1      42.937  26.225  27.956  1.00  0.00     0.049 A 
ATOM     51  H   UNL A   1      44.042  27.975  28.189  1.00  0.00     0.167 HD
ATOM     52  C   UNL A   1      46.218  31.733  28.434  1.00  0.00     0.031 A 
ATOM     53  C   UNL A   1      43.771  25.278  27.489  1.00  0.00     0.031 A 
ATOM     54  C   UNL A   1      47.180  30.789  27.929  1.00  0.00     0.049 A 
ATOM     55  C   UNL A   1      45.205  25.621  27.210  1.00  0.00     0.074 A 
ATOM     56  C   UNL A   1      48.515  30.998  27.626  1.00  0.00     0.029 A 
ATOM     57  N   UNL A   1      46.919  29.452  27.678  1.00  0.00    -0.354 N 
ATOM     58  N   UNL A   1      45.814  26.775  27.339  1.00  0.00    -0.248 NA
ATOM     59  C   UNL A   1      46.063  24.534  26.717  1.00  0.00     0.031 C 
ATOM     60  C   UNL A   1      49.057  29.791  27.171  1.00  0.00     0.029 A 
ATOM     61  C   UNL A   1      48.067  28.825  27.220  1.00  0.00     0.049 A 
ATOM     62  H   UNL A   1      46.048  29.013  27.805  1.00  0.00     0.167 HD
ATOM     63  C   UNL A   1      47.128  26.551  26.949  1.00  0.00     0.074 A 
ATOM     64  C   UNL A   1      47.232  25.148  26.601  1.00  0.00     0.031 C 
ATOM     65  C   UNL A   1      48.156  27.431  26.878  1.00  0.00     0.031 A 
BRANCH  52  66
ATOM     66  C   UNL A   1      46.661  33.161  28.606  1.00  0.00    -0.014 A 
ATOM     67  C   UNL A   1      47.261  33.606  29.796  1.00  0.00     0.010 A 
ATOM     68  C   UNL A   1      46.529  34.055  27.527  1.00  0.00     0.010 A 
ATOM     69  C   UNL A   1      47.697  34.929  29.913  1.00  0.00     0.020 A 
ATOM     70  C   UNL A   1      46.980  35.374  27.635  1.00  0.00     0.020 A 
ATOM     71  C   UNL A   1      47.548  35.807  28.834  1.00  0.00     0.054 A 
BRANCH  71  72
ATOM     72  S   UNL A   1      48.149  37.512  28.993  1.00  0.00     0.124 S 
ATOM     73  O   UNL A   1      49.373  37.327  29.767  1.00  0.00    -0.237 OA
ATOM     74  O   UNL A   1      48.341  37.922  27.605  1.00  0.00    -0.237 OA
ATOM     75  O   UNL A   1      47.064  38.195  29.695  1.00  0.00    -0.744 OA
ENDBRANCH  71  72
ENDBRANCH  52  66
BRANCH  53  76
ATOM     76  C   UNL A   1      43.257  23.909  27.227  1.00  0.00    -0.014 A 
ATOM     77  C   UNL A   1      43.058  23.007  28.285  1.00  0.00     0.010 A 
ATOM     78  C   UNL A   1      42.952  23.511  25.913  1.00  0.00     0.010 A 
ATOM     79  C   UNL A   1      42.575  21.719  28.033  1.00  0.00     0.020 A 
ATOM     80  C   UNL A   1      42.448  22.233  25.661  1.00  0.00     0.020 A 
ATOM     81  C   UNL A   1      42.276  21.341  26.720  1.00  0.00     0.054 A 
BRANCH  81  82
ATOM     82  S   UNL A   1      41.594  19.689  26.405  1.00  0.00     0.124 S 
ATOM     83  O   UNL A   1      42.317  19.290  25.202  1.00  0.00    -0.237 OA
ATOM     84  O   UNL A   1      41.937  18.958  27.622  1.00  0.00    -0.237 OA
ATOM     85  O   UNL A   1      40.167  19.946  26.227  1.00  0.00    -0.744 OA
ENDBRANCH  81  82
ENDBRANCH  53  76
BRANCH  65  86
ATOM     86  C   UNL A   1      49.484  26.892  26.428  1.00  0.00    -0.014 A 
ATOM     87  C   UNL A   1      49.920  27.064  25.102  1.00  0.00     0.010 A 
ATOM     88  C   UNL A   1      50.309  26.216  27.344  1.00  0.00     0.010 A 
ATOM     89  C   UNL A   1      51.146  26.534  24.689  1.00  0.00     0.020 A 
ATOM     90  C   UNL A   1      51.542  25.699  26.939  1.00  0.00     0.020 A 
ATOM     91  C   UNL A   1      51.943  25.845  25.609  1.00  0.00     0.054 A 
BRANCH  91  92
ATOM     92  S   UNL A   1      53.539  25.174  25.064  1.00  0.00     0.124 S 
ATOM     93  O   UNL A   1      53.583  25.597  23.666  1.00  0.00    -0.237 OA
ATOM     94  O   UNL A   1      54.494  25.835  25.950  1.00  0.00    -0.237 OA
ATOM     95  O   UNL A   1      53.395  23.736  25.277  1.00  0.00    -0.744 OA
ENDBRANCH  91  92
ENDBRANCH  65  86
ENDBRANCH  39  40
ENDBRANCH  32  34
ENDBRANCH  31  32
ENDBRANCH   1  31
TORSDOF 16
ENDMDL
