MODEL 1
REMARK VINA RESULT:     -11.8      0.000      0.000
REMARK SMILES O=C(OCCOC(=O)c1ccc(N2C(=O)/C(=C/c3ccco3)SC2=S)cc1)c1ccc(-c2c3nc(c(-c4ccc(S(=O)(=O)[O-])cc4)c4ccc([nH]4)c(-c4ccc(S(=O)(=O)[O-])cc4)c4nc(c(-c5ccc(S(=O)(=O)[O-])cc5)c5ccc2[nH]5)C=C4)C=C3)cc1
REMARK SMILES IDX 4 1 3 2 2 3 1 4 28 5 29 6 87 7 30 8 86 9 31 10 32 11 33 12
REMARK SMILES IDX 80 13 34 14 85 15 79 16 81 17 35 18 84 19 78 20 77 21 36 23
REMARK SMILES IDX 66 24 47 25 65 26 48 27 51 28 64 29 82 30 49 31 50 32 63 34
REMARK SMILES IDX 83 35 52 36 37 37 38 38 46 39 39 40 45 41 40 42 41 43 42 44
REMARK SMILES IDX 43 45 44 46 67 47 68 48 76 49 69 50 75 51 70 52 71 53 72 54
REMARK SMILES IDX 73 55 74 56 53 57 54 58 62 59 55 60 61 61 56 62 57 63 58 64
REMARK SMILES IDX 59 65 60 66 5 67 6 68 7 69 8 70 9 71 10 72 27 73 11 74 26 75
REMARK SMILES IDX 12 76 13 77 14 78 24 79 15 80 16 81 23 82 25 83 17 84 18 85
REMARK SMILES IDX 19 86 22 87 20 88 21 89
REMARK H PARENT 81 22 51 33
REMARK Flexibility Score: inf
ROOT
ATOM      1  C   UNL A   1      32.201  29.903  26.855  1.00  0.00     0.275 C 
ENDROOT
BRANCH   1   2
ATOM      2  O   UNL A   1      33.445  29.647  27.530  1.00  0.00    -0.458 OA
BRANCH   2   3
ATOM      3  C   UNL A   1      34.376  30.497  28.024  1.00  0.00     0.338 C 
ATOM      4  O   UNL A   1      34.095  31.693  28.091  1.00  0.00    -0.246 OA
BRANCH   3   5
ATOM      5  C   UNL A   1      35.774  30.093  28.389  1.00  0.00     0.060 A 
ATOM      6  C   UNL A   1      36.194  29.625  29.634  1.00  0.00     0.016 A 
ATOM      7  C   UNL A   1      36.738  30.180  27.364  1.00  0.00     0.016 A 
ATOM      8  C   UNL A   1      37.498  29.171  29.832  1.00  0.00     0.010 A 
ATOM      9  C   UNL A   1      38.044  29.717  27.551  1.00  0.00     0.010 A 
ATOM     10  C   UNL A   1      38.425  29.201  28.792  1.00  0.00    -0.014 A 
BRANCH  10  11
ATOM     11  C   UNL A   1      39.820  28.806  29.075  1.00  0.00     0.031 A 
ATOM     12  C   UNL A   1      40.710  29.795  29.759  1.00  0.00     0.074 A 
ATOM     13  C   UNL A   1      40.235  27.550  28.826  1.00  0.00     0.049 A 
ATOM     14  N   UNL A   1      41.923  29.626  30.209  1.00  0.00    -0.248 NA
ATOM     15  C   UNL A   1      40.146  31.131  30.020  1.00  0.00     0.031 C 
ATOM     16  C   UNL A   1      39.396  26.482  28.283  1.00  0.00     0.029 A 
ATOM     17  N   UNL A   1      41.452  26.947  29.005  1.00  0.00    -0.354 N 
ATOM     18  C   UNL A   1      42.250  30.815  30.846  1.00  0.00     0.074 A 
ATOM     19  C   UNL A   1      41.136  31.720  30.673  1.00  0.00     0.031 C 
ATOM     20  C   UNL A   1      40.134  25.373  28.115  1.00  0.00     0.029 A 
ATOM     21  C   UNL A   1      41.495  25.647  28.558  1.00  0.00     0.049 A 
ATOM     22  H   UNL A   1      42.222  27.402  29.415  1.00  0.00     0.167 HD
ATOM     23  C   UNL A   1      43.370  31.109  31.542  1.00  0.00     0.031 A 
ATOM     24  C   UNL A   1      42.520  24.775  28.517  1.00  0.00     0.031 A 
ATOM     25  C   UNL A   1      44.485  30.211  31.662  1.00  0.00     0.049 A 
ATOM     26  C   UNL A   1      43.819  25.192  29.150  1.00  0.00     0.074 A 
ATOM     27  C   UNL A   1      45.692  30.417  32.304  1.00  0.00     0.029 A 
ATOM     28  N   UNL A   1      44.533  28.939  31.110  1.00  0.00    -0.354 N 
ATOM     29  N   UNL A   1      44.103  26.313  29.772  1.00  0.00    -0.248 NA
ATOM     30  C   UNL A   1      44.918  24.221  29.117  1.00  0.00     0.031 C 
ATOM     31  C   UNL A   1      46.493  29.291  32.087  1.00  0.00     0.029 A 
ATOM     32  C   UNL A   1      45.761  28.358  31.368  1.00  0.00     0.049 A 
ATOM     33  H   UNL A   1      43.800  28.512  30.608  1.00  0.00     0.167 HD
ATOM     34  C   UNL A   1      45.401  26.164  30.244  1.00  0.00     0.074 A 
ATOM     35  C   UNL A   1      45.837  24.840  29.845  1.00  0.00     0.031 C 
ATOM     36  C   UNL A   1      46.163  27.038  30.948  1.00  0.00     0.031 A 
BRANCH  23  37
ATOM     37  C   UNL A   1      43.439  32.462  32.192  1.00  0.00    -0.014 A 
ATOM     38  C   UNL A   1      42.972  32.659  33.504  1.00  0.00     0.010 A 
ATOM     39  C   UNL A   1      43.987  33.548  31.488  1.00  0.00     0.010 A 
ATOM     40  C   UNL A   1      43.032  33.923  34.095  1.00  0.00     0.020 A 
ATOM     41  C   UNL A   1      44.070  34.809  32.083  1.00  0.00     0.020 A 
ATOM     42  C   UNL A   1      43.583  34.991  33.379  1.00  0.00     0.054 A 
BRANCH  42  43
ATOM     43  S   UNL A   1      43.685  36.612  34.184  1.00  0.00     0.124 S 
ATOM     44  O   UNL A   1      42.641  36.511  35.202  1.00  0.00    -0.237 OA
ATOM     45  O   UNL A   1      45.055  36.631  34.690  1.00  0.00    -0.237 OA
ATOM     46  O   UNL A   1      43.410  37.556  33.103  1.00  0.00    -0.744 OA
ENDBRANCH  42  43
ENDBRANCH  23  37
BRANCH  24  47
ATOM     47  C   UNL A   1      42.366  23.445  27.860  1.00  0.00    -0.014 A 
ATOM     48  C   UNL A   1      41.883  22.330  28.565  1.00  0.00     0.010 A 
ATOM     49  C   UNL A   1      42.748  23.282  26.514  1.00  0.00     0.010 A 
ATOM     50  C   UNL A   1      41.829  21.071  27.956  1.00  0.00     0.020 A 
ATOM     51  C   UNL A   1      42.669  22.032  25.891  1.00  0.00     0.020 A 
ATOM     52  C   UNL A   1      42.230  20.929  26.624  1.00  0.00     0.054 A 
BRANCH  52  53
ATOM     53  S   UNL A   1      42.162  19.283  25.861  1.00  0.00     0.124 S 
ATOM     54  O   UNL A   1      42.995  19.464  24.676  1.00  0.00    -0.237 OA
ATOM     55  O   UNL A   1      42.723  18.431  26.906  1.00  0.00    -0.237 OA
ATOM     56  O   UNL A   1      40.738  19.085  25.600  1.00  0.00    -0.744 OA
ENDBRANCH  52  53
ENDBRANCH  24  47
BRANCH  36  57
ATOM     57  C   UNL A   1      47.533  26.569  31.352  1.00  0.00    -0.014 A 
ATOM     58  C   UNL A   1      47.737  25.872  32.556  1.00  0.00     0.010 A 
ATOM     59  C   UNL A   1      48.622  26.795  30.492  1.00  0.00     0.010 A 
ATOM     60  C   UNL A   1      49.017  25.450  32.915  1.00  0.00     0.020 A 
ATOM     61  C   UNL A   1      49.899  26.343  30.831  1.00  0.00     0.020 A 
ATOM     62  C   UNL A   1      50.090  25.689  32.049  1.00  0.00     0.054 A 
BRANCH  62  63
ATOM     63  S   UNL A   1      51.737  25.103  32.525  1.00  0.00     0.124 S 
ATOM     64  O   UNL A   1      51.522  23.665  32.654  1.00  0.00    -0.237 OA
ATOM     65  O   UNL A   1      52.563  25.517  31.393  1.00  0.00    -0.237 OA
ATOM     66  O   UNL A   1      52.008  25.808  33.776  1.00  0.00    -0.744 OA
ENDBRANCH  62  63
ENDBRANCH  36  57
ENDBRANCH  10  11
ENDBRANCH   3   5
ENDBRANCH   2   3
ENDBRANCH   1   2
BRANCH   1  67
ATOM     67  C   UNL A   1      32.191  29.586  25.355  1.00  0.00     0.275 C 
BRANCH  67  68
ATOM     68  O   UNL A   1      33.466  29.197  24.823  1.00  0.00    -0.458 OA
BRANCH  68  69
ATOM     69  C   UNL A   1      33.426  28.588  23.608  1.00  0.00     0.338 C 
ATOM     70  O   UNL A   1      33.372  29.136  22.519  1.00  0.00    -0.246 OA
BRANCH  69  71
ATOM     71  C   UNL A   1      33.577  27.128  23.778  1.00  0.00     0.060 A 
ATOM     72  C   UNL A   1      33.703  26.604  25.069  1.00  0.00     0.018 A 
ATOM     73  C   UNL A   1      33.593  26.272  22.679  1.00  0.00     0.018 A 
ATOM     74  C   UNL A   1      33.785  25.219  25.265  1.00  0.00     0.028 A 
ATOM     75  C   UNL A   1      33.736  24.893  22.878  1.00  0.00     0.028 A 
ATOM     76  C   UNL A   1      33.828  24.347  24.168  1.00  0.00     0.051 A 
BRANCH  76  77
ATOM     77  N   UNL A   1      33.997  22.940  24.353  1.00  0.00    -0.261 N 
ATOM     78  C   UNL A   1      32.945  22.055  24.105  1.00  0.00     0.270 C 
ATOM     79  C   UNL A   1      35.166  22.378  24.853  1.00  0.00     0.152 C 
ATOM     80  O   UNL A   1      31.809  22.334  23.739  1.00  0.00    -0.268 OA
ATOM     81  C   UNL A   1      33.373  20.652  24.394  1.00  0.00     0.084 C 
ATOM     82  S   UNL A   1      35.004  20.632  24.933  1.00  0.00    -0.054 SA
ATOM     83  S   UNL A   1      36.532  23.120  25.478  1.00  0.00    -0.051 S 
ATOM     84  C   UNL A   1      32.559  19.597  24.232  1.00  0.00     0.068 C 
BRANCH  84  85
ATOM     85  C   UNL A   1      32.914  18.265  24.596  1.00  0.00     0.127 A 
ATOM     86  C   UNL A   1      33.991  17.483  24.183  1.00  0.00     0.050 A 
ATOM     87  O   UNL A   1      32.201  17.522  25.511  1.00  0.00    -0.465 OA
ATOM     88  C   UNL A   1      33.895  16.227  24.825  1.00  0.00     0.042 A 
ATOM     89  C   UNL A   1      32.779  16.300  25.616  1.00  0.00     0.195 A 
ENDBRANCH  84  85
ENDBRANCH  76  77
ENDBRANCH  69  71
ENDBRANCH  68  69
ENDBRANCH  67  68
ENDBRANCH   1  67
TORSDOF 16
ENDMDL
MODEL 2
REMARK VINA RESULT:     -11.8      3.121      9.968
REMARK SMILES O=C(OCCOC(=O)c1ccc(N2C(=O)/C(=C/c3ccco3)SC2=S)cc1)c1ccc(-c2c3nc(c(-c4ccc(S(=O)(=O)[O-])cc4)c4ccc([nH]4)c(-c4ccc(S(=O)(=O)[O-])cc4)c4nc(c(-c5ccc(S(=O)(=O)[O-])cc5)c5ccc2[nH]5)C=C4)C=C3)cc1
REMARK SMILES IDX 4 1 3 2 2 3 1 4 28 5 29 6 87 7 30 8 86 9 31 10 32 11 33 12
REMARK SMILES IDX 80 13 34 14 85 15 79 16 81 17 35 18 84 19 78 20 77 21 36 23
REMARK SMILES IDX 66 24 47 25 65 26 48 27 51 28 64 29 82 30 49 31 50 32 63 34
REMARK SMILES IDX 83 35 52 36 37 37 38 38 46 39 39 40 45 41 40 42 41 43 42 44
REMARK SMILES IDX 43 45 44 46 67 47 68 48 76 49 69 50 75 51 70 52 71 53 72 54
REMARK SMILES IDX 73 55 74 56 53 57 54 58 62 59 55 60 61 61 56 62 57 63 58 64
REMARK SMILES IDX 59 65 60 66 5 67 6 68 7 69 8 70 9 71 10 72 27 73 11 74 26 75
REMARK SMILES IDX 12 76 13 77 14 78 24 79 15 80 16 81 23 82 25 83 17 84 18 85
REMARK SMILES IDX 19 86 22 87 20 88 21 89
REMARK H PARENT 81 22 51 33
REMARK Flexibility Score: inf
ROOT
ATOM      1  C   UNL A   1      37.113  21.771  24.636  1.00  0.00     0.275 C 
ENDROOT
BRANCH   1   2
ATOM      2  O   UNL A   1      37.650  22.838  25.437  1.00  0.00    -0.458 OA
BRANCH   2   3
ATOM      3  C   UNL A   1      38.811  22.929  26.128  1.00  0.00     0.338 C 
ATOM      4  O   UNL A   1      39.453  21.897  26.325  1.00  0.00    -0.246 OA
BRANCH   3   5
ATOM      5  C   UNL A   1      39.311  24.188  26.770  1.00  0.00     0.060 A 
ATOM      6  C   UNL A   1      40.113  25.156  26.165  1.00  0.00     0.016 A 
ATOM      7  C   UNL A   1      38.908  24.414  28.103  1.00  0.00     0.016 A 
ATOM      8  C   UNL A   1      40.428  26.346  26.821  1.00  0.00     0.010 A 
ATOM      9  C   UNL A   1      39.210  25.609  28.763  1.00  0.00     0.010 A 
ATOM     10  C   UNL A   1      39.969  26.585  28.115  1.00  0.00    -0.014 A 
BRANCH  10  11
ATOM     11  C   UNL A   1      40.412  27.813  28.807  1.00  0.00     0.031 A 
ATOM     12  C   UNL A   1      41.811  27.862  29.336  1.00  0.00     0.074 A 
ATOM     13  C   UNL A   1      39.611  28.894  28.853  1.00  0.00     0.049 A 
ATOM     14  N   UNL A   1      42.447  28.869  29.868  1.00  0.00    -0.248 NA
ATOM     15  C   UNL A   1      42.617  26.637  29.202  1.00  0.00     0.031 C 
ATOM     16  C   UNL A   1      38.282  28.979  28.248  1.00  0.00     0.029 A 
ATOM     17  N   UNL A   1      39.790  30.130  29.416  1.00  0.00    -0.354 N 
ATOM     18  C   UNL A   1      43.740  28.415  30.087  1.00  0.00     0.074 A 
ATOM     19  C   UNL A   1      43.783  27.025  29.692  1.00  0.00     0.031 C 
ATOM     20  C   UNL A   1      37.740  30.177  28.522  1.00  0.00     0.029 A 
ATOM     21  C   UNL A   1      38.693  30.952  29.306  1.00  0.00     0.049 A 
ATOM     22  H   UNL A   1      40.626  30.403  29.858  1.00  0.00     0.167 HD
ATOM     23  C   UNL A   1      44.802  29.110  30.549  1.00  0.00     0.031 A 
ATOM     24  C   UNL A   1      38.485  32.193  29.782  1.00  0.00     0.031 A 
ATOM     25  C   UNL A   1      44.725  30.478  30.981  1.00  0.00     0.049 A 
ATOM     26  C   UNL A   1      39.640  32.889  30.450  1.00  0.00     0.074 A 
ATOM     27  C   UNL A   1      45.724  31.273  31.509  1.00  0.00     0.029 A 
ATOM     28  N   UNL A   1      43.571  31.249  30.948  1.00  0.00    -0.354 N 
ATOM     29  N   UNL A   1      40.866  32.453  30.628  1.00  0.00    -0.248 NA
ATOM     30  C   UNL A   1      39.403  34.251  30.942  1.00  0.00     0.031 C 
ATOM     31  C   UNL A   1      45.159  32.506  31.852  1.00  0.00     0.029 A 
ATOM     32  C   UNL A   1      43.824  32.501  31.477  1.00  0.00     0.049 A 
ATOM     33  H   UNL A   1      42.700  30.949  30.600  1.00  0.00     0.167 HD
ATOM     34  C   UNL A   1      41.560  33.504  31.213  1.00  0.00     0.074 A 
ATOM     35  C   UNL A   1      40.618  34.599  31.345  1.00  0.00     0.031 C 
ATOM     36  C   UNL A   1      42.859  33.565  31.600  1.00  0.00     0.031 A 
BRANCH  23  37
ATOM     37  C   UNL A   1      46.114  28.384  30.630  1.00  0.00    -0.014 A 
ATOM     38  C   UNL A   1      46.446  27.612  31.759  1.00  0.00     0.010 A 
ATOM     39  C   UNL A   1      47.024  28.463  29.560  1.00  0.00     0.010 A 
ATOM     40  C   UNL A   1      47.674  26.949  31.826  1.00  0.00     0.020 A 
ATOM     41  C   UNL A   1      48.243  27.782  29.614  1.00  0.00     0.020 A 
ATOM     42  C   UNL A   1      48.564  27.037  30.751  1.00  0.00     0.054 A 
BRANCH  42  43
ATOM     43  S   UNL A   1      50.133  26.134  30.849  1.00  0.00     0.124 S 
ATOM     44  O   UNL A   1      49.868  24.975  30.000  1.00  0.00    -0.237 OA
ATOM     45  O   UNL A   1      51.090  27.099  30.314  1.00  0.00    -0.237 OA
ATOM     46  O   UNL A   1      50.277  25.842  32.273  1.00  0.00    -0.744 OA
ENDBRANCH  42  43
ENDBRANCH  23  37
BRANCH  24  47
ATOM     47  C   UNL A   1      37.152  32.849  29.653  1.00  0.00    -0.014 A 
ATOM     48  C   UNL A   1      36.791  33.554  28.492  1.00  0.00     0.010 A 
ATOM     49  C   UNL A   1      36.242  32.801  30.727  1.00  0.00     0.010 A 
ATOM     50  C   UNL A   1      35.571  34.236  28.424  1.00  0.00     0.020 A 
ATOM     51  C   UNL A   1      35.009  33.457  30.653  1.00  0.00     0.020 A 
ATOM     52  C   UNL A   1      34.690  34.189  29.509  1.00  0.00     0.054 A 
BRANCH  52  53
ATOM     53  S   UNL A   1      33.119  35.092  29.401  1.00  0.00     0.124 S 
ATOM     54  O   UNL A   1      32.405  34.337  28.377  1.00  0.00    -0.237 OA
ATOM     55  O   UNL A   1      32.595  34.973  30.759  1.00  0.00    -0.237 OA
ATOM     56  O   UNL A   1      33.527  36.441  29.013  1.00  0.00    -0.744 OA
ENDBRANCH  52  53
ENDBRANCH  24  47
BRANCH  36  57
ATOM     57  C   UNL A   1      43.333  34.870  32.175  1.00  0.00    -0.014 A 
ATOM     58  C   UNL A   1      43.780  35.912  31.343  1.00  0.00     0.010 A 
ATOM     59  C   UNL A   1      43.291  35.068  33.567  1.00  0.00     0.010 A 
ATOM     60  C   UNL A   1      44.221  37.113  31.898  1.00  0.00     0.020 A 
ATOM     61  C   UNL A   1      43.698  36.282  34.123  1.00  0.00     0.020 A 
ATOM     62  C   UNL A   1      44.178  37.290  33.284  1.00  0.00     0.054 A 
BRANCH  62  63
ATOM     63  S   UNL A   1      44.728  38.871  33.977  1.00  0.00     0.124 S 
ATOM     64  O   UNL A   1      44.042  39.833  33.118  1.00  0.00    -0.237 OA
ATOM     65  O   UNL A   1      44.246  38.802  35.354  1.00  0.00    -0.237 OA
ATOM     66  O   UNL A   1      46.181  38.828  33.829  1.00  0.00    -0.744 OA
ENDBRANCH  62  63
ENDBRANCH  36  57
ENDBRANCH  10  11
ENDBRANCH   3   5
ENDBRANCH   2   3
ENDBRANCH   1   2
BRANCH   1  67
ATOM     67  C   UNL A   1      36.126  20.844  25.355  1.00  0.00     0.275 C 
BRANCH  67  68
ATOM     68  O   UNL A   1      34.753  21.257  25.266  1.00  0.00    -0.458 OA
BRANCH  68  69
ATOM     69  C   UNL A   1      34.255  21.857  26.379  1.00  0.00     0.338 C 
ATOM     70  O   UNL A   1      34.389  21.480  27.532  1.00  0.00    -0.246 OA
BRANCH  69  71
ATOM     71  C   UNL A   1      33.605  23.131  26.009  1.00  0.00     0.060 A 
ATOM     72  C   UNL A   1      34.110  23.862  24.928  1.00  0.00     0.018 A 
ATOM     73  C   UNL A   1      32.503  23.610  26.715  1.00  0.00     0.018 A 
ATOM     74  C   UNL A   1      33.477  25.042  24.516  1.00  0.00     0.028 A 
ATOM     75  C   UNL A   1      31.912  24.821  26.335  1.00  0.00     0.028 A 
ATOM     76  C   UNL A   1      32.383  25.550  25.230  1.00  0.00     0.051 A 
BRANCH  76  77
ATOM     77  N   UNL A   1      31.783  26.796  24.870  1.00  0.00    -0.261 N 
ATOM     78  C   UNL A   1      30.652  26.834  24.050  1.00  0.00     0.270 C 
ATOM     79  C   UNL A   1      32.314  28.026  25.238  1.00  0.00     0.152 C 
ATOM     80  O   UNL A   1      30.068  25.882  23.546  1.00  0.00    -0.268 OA
ATOM     81  C   UNL A   1      30.238  28.250  23.808  1.00  0.00     0.084 C 
ATOM     82  S   UNL A   1      31.305  29.323  24.622  1.00  0.00    -0.054 SA
ATOM     83  S   UNL A   1      33.761  28.384  26.002  1.00  0.00    -0.051 S 
ATOM     84  C   UNL A   1      29.174  28.577  23.059  1.00  0.00     0.068 C 
BRANCH  84  85
ATOM     85  C   UNL A   1      28.822  29.920  22.735  1.00  0.00     0.127 A 
ATOM     86  C   UNL A   1      28.066  30.843  23.454  1.00  0.00     0.050 A 
ATOM     87  O   UNL A   1      29.249  30.551  21.587  1.00  0.00    -0.465 OA
ATOM     88  C   UNL A   1      27.995  32.038  22.700  1.00  0.00     0.042 A 
ATOM     89  C   UNL A   1      28.726  31.802  21.565  1.00  0.00     0.195 A 
ENDBRANCH  84  85
ENDBRANCH  76  77
ENDBRANCH  69  71
ENDBRANCH  68  69
ENDBRANCH  67  68
ENDBRANCH   1  67
TORSDOF 16
ENDMDL
MODEL 3
REMARK VINA RESULT:     -11.4      3.721      4.559
REMARK SMILES O=C(OCCOC(=O)c1ccc(N2C(=O)/C(=C/c3ccco3)SC2=S)cc1)c1ccc(-c2c3nc(c(-c4ccc(S(=O)(=O)[O-])cc4)c4ccc([nH]4)c(-c4ccc(S(=O)(=O)[O-])cc4)c4nc(c(-c5ccc(S(=O)(=O)[O-])cc5)c5ccc2[nH]5)C=C4)C=C3)cc1
REMARK SMILES IDX 4 1 3 2 2 3 1 4 28 5 29 6 87 7 30 8 86 9 31 10 32 11 33 12
REMARK SMILES IDX 80 13 34 14 85 15 79 16 81 17 35 18 84 19 78 20 77 21 36 23
REMARK SMILES IDX 66 24 47 25 65 26 48 27 51 28 64 29 82 30 49 31 50 32 63 34
REMARK SMILES IDX 83 35 52 36 37 37 38 38 46 39 39 40 45 41 40 42 41 43 42 44
REMARK SMILES IDX 43 45 44 46 67 47 68 48 76 49 69 50 75 51 70 52 71 53 72 54
REMARK SMILES IDX 73 55 74 56 53 57 54 58 62 59 55 60 61 61 56 62 57 63 58 64
REMARK SMILES IDX 59 65 60 66 5 67 6 68 7 69 8 70 9 71 10 72 27 73 11 74 26 75
REMARK SMILES IDX 12 76 13 77 14 78 24 79 15 80 16 81 23 82 25 83 17 84 18 85
REMARK SMILES IDX 19 86 22 87 20 88 21 89
REMARK H PARENT 81 22 51 33
REMARK Flexibility Score: inf
ROOT
ATOM      1  C   UNL A   1      35.551  31.085  28.653  1.00  0.00     0.275 C 
ENDROOT
BRANCH   1   2
ATOM      2  O   UNL A   1      36.093  29.755  28.724  1.00  0.00    -0.458 OA
BRANCH   2   3
ATOM      3  C   UNL A   1      37.115  29.253  29.458  1.00  0.00     0.338 C 
ATOM      4  O   UNL A   1      36.912  29.009  30.647  1.00  0.00    -0.246 OA
BRANCH   3   5
ATOM      5  C   UNL A   1      38.513  29.082  28.945  1.00  0.00     0.060 A 
ATOM      6  C   UNL A   1      38.925  29.225  27.620  1.00  0.00     0.016 A 
ATOM      7  C   UNL A   1      39.498  28.767  29.905  1.00  0.00     0.016 A 
ATOM      8  C   UNL A   1      40.273  29.152  27.271  1.00  0.00     0.010 A 
ATOM      9  C   UNL A   1      40.853  28.703  29.564  1.00  0.00     0.010 A 
ATOM     10  C   UNL A   1      41.244  28.905  28.239  1.00  0.00    -0.014 A 
BRANCH  10  11
ATOM     11  C   UNL A   1      42.647  28.735  27.808  1.00  0.00     0.031 A 
ATOM     12  C   UNL A   1      43.577  29.899  27.952  1.00  0.00     0.074 A 
ATOM     13  C   UNL A   1      43.094  27.531  27.407  1.00  0.00     0.049 A 
ATOM     14  N   UNL A   1      44.865  29.943  27.751  1.00  0.00    -0.248 NA
ATOM     15  C   UNL A   1      42.993  31.162  28.435  1.00  0.00     0.031 C 
ATOM     16  C   UNL A   1      42.290  26.310  27.361  1.00  0.00     0.029 A 
ATOM     17  N   UNL A   1      44.328  27.122  26.974  1.00  0.00    -0.354 N 
ATOM     18  C   UNL A   1      45.254  31.221  28.128  1.00  0.00     0.074 A 
ATOM     19  C   UNL A   1      44.061  31.942  28.510  1.00  0.00     0.031 C 
ATOM     20  C   UNL A   1      43.029  25.303  26.869  1.00  0.00     0.029 A 
ATOM     21  C   UNL A   1      44.367  25.804  26.583  1.00  0.00     0.049 A 
ATOM     22  H   UNL A   1      45.112  27.716  26.946  1.00  0.00     0.167 HD
ATOM     23  C   UNL A   1      46.504  31.732  28.180  1.00  0.00     0.031 A 
ATOM     24  C   UNL A   1      45.375  25.083  26.058  1.00  0.00     0.031 A 
ATOM     25  C   UNL A   1      47.671  31.013  27.751  1.00  0.00     0.049 A 
ATOM     26  C   UNL A   1      46.728  25.734  25.965  1.00  0.00     0.074 A 
ATOM     27  C   UNL A   1      48.984  31.444  27.715  1.00  0.00     0.029 A 
ATOM     28  N   UNL A   1      47.659  29.713  27.266  1.00  0.00    -0.354 N 
ATOM     29  N   UNL A   1      47.084  26.937  26.351  1.00  0.00    -0.248 NA
ATOM     30  C   UNL A   1      47.821  24.925  25.412  1.00  0.00     0.031 C 
ATOM     31  C   UNL A   1      49.757  30.424  27.150  1.00  0.00     0.029 A 
ATOM     32  C   UNL A   1      48.937  29.335  26.897  1.00  0.00     0.049 A 
ATOM     33  H   UNL A   1      46.859  29.143  27.195  1.00  0.00     0.167 HD
ATOM     34  C   UNL A   1      48.453  27.016  26.127  1.00  0.00     0.074 A 
ATOM     35  C   UNL A   1      48.858  25.733  25.586  1.00  0.00     0.031 C 
ATOM     36  C   UNL A   1      49.302  28.050  26.354  1.00  0.00     0.031 A 
BRANCH  23  37
ATOM     37  C   UNL A   1      46.649  33.137  28.691  1.00  0.00    -0.014 A 
ATOM     38  C   UNL A   1      46.510  34.240  27.829  1.00  0.00     0.010 A 
ATOM     39  C   UNL A   1      46.915  33.360  30.054  1.00  0.00     0.010 A 
ATOM     40  C   UNL A   1      46.657  35.541  28.314  1.00  0.00     0.020 A 
ATOM     41  C   UNL A   1      47.039  34.661  30.548  1.00  0.00     0.020 A 
ATOM     42  C   UNL A   1      46.919  35.743  29.673  1.00  0.00     0.054 A 
BRANCH  42  43
ATOM     43  S   UNL A   1      47.065  37.444  30.284  1.00  0.00     0.124 S 
ATOM     44  O   UNL A   1      46.905  38.221  29.057  1.00  0.00    -0.237 OA
ATOM     45  O   UNL A   1      45.960  37.537  31.234  1.00  0.00    -0.237 OA
ATOM     46  O   UNL A   1      48.399  37.487  30.878  1.00  0.00    -0.744 OA
ENDBRANCH  42  43
ENDBRANCH  23  37
BRANCH  24  47
ATOM     47  C   UNL A   1      45.150  23.688  25.581  1.00  0.00    -0.014 A 
ATOM     48  C   UNL A   1      45.338  22.583  26.429  1.00  0.00     0.010 A 
ATOM     49  C   UNL A   1      44.777  23.458  24.242  1.00  0.00     0.010 A 
ATOM     50  C   UNL A   1      45.206  21.279  25.938  1.00  0.00     0.020 A 
ATOM     51  C   UNL A   1      44.616  22.157  23.754  1.00  0.00     0.020 A 
ATOM     52  C   UNL A   1      44.853  21.074  24.601  1.00  0.00     0.054 A 
BRANCH  52  53
ATOM     53  S   UNL A   1      44.701  19.373  23.986  1.00  0.00     0.124 S 
ATOM     54  O   UNL A   1      45.978  18.791  24.387  1.00  0.00    -0.237 OA
ATOM     55  O   UNL A   1      43.528  18.884  24.705  1.00  0.00    -0.237 OA
ATOM     56  O   UNL A   1      44.516  19.545  22.547  1.00  0.00    -0.744 OA
ENDBRANCH  52  53
ENDBRANCH  24  47
BRANCH  36  57
ATOM     57  C   UNL A   1      50.753  27.815  26.040  1.00  0.00    -0.014 A 
ATOM     58  C   UNL A   1      51.618  27.241  26.989  1.00  0.00     0.010 A 
ATOM     59  C   UNL A   1      51.245  28.138  24.763  1.00  0.00     0.010 A 
ATOM     60  C   UNL A   1      52.963  27.037  26.680  1.00  0.00     0.020 A 
ATOM     61  C   UNL A   1      52.582  27.903  24.438  1.00  0.00     0.020 A 
ATOM     62  C   UNL A   1      53.436  27.370  25.406  1.00  0.00     0.054 A 
BRANCH  62  63
ATOM     63  S   UNL A   1      55.180  27.066  25.020  1.00  0.00     0.124 S 
ATOM     64  O   UNL A   1      55.610  26.271  26.167  1.00  0.00    -0.237 OA
ATOM     65  O   UNL A   1      55.106  26.350  23.749  1.00  0.00    -0.237 OA
ATOM     66  O   UNL A   1      55.756  28.407  24.940  1.00  0.00    -0.744 OA
ENDBRANCH  62  63
ENDBRANCH  36  57
ENDBRANCH  10  11
ENDBRANCH   3   5
ENDBRANCH   2   3
ENDBRANCH   1   2
BRANCH   1  67
ATOM     67  C   UNL A   1      34.332  31.248  27.738  1.00  0.00     0.275 C 
BRANCH  67  68
ATOM     68  O   UNL A   1      34.078  30.123  26.882  1.00  0.00    -0.458 OA
BRANCH  68  69
ATOM     69  C   UNL A   1      32.818  29.617  26.949  1.00  0.00     0.338 C 
ATOM     70  O   UNL A   1      31.805  30.222  27.262  1.00  0.00    -0.246 OA
BRANCH  69  71
ATOM     71  C   UNL A   1      32.817  28.220  26.467  1.00  0.00     0.060 A 
ATOM     72  C   UNL A   1      31.655  27.454  26.610  1.00  0.00     0.018 A 
ATOM     73  C   UNL A   1      33.946  27.661  25.874  1.00  0.00     0.018 A 
ATOM     74  C   UNL A   1      31.604  26.147  26.107  1.00  0.00     0.028 A 
ATOM     75  C   UNL A   1      33.908  26.334  25.427  1.00  0.00     0.028 A 
ATOM     76  C   UNL A   1      32.740  25.562  25.531  1.00  0.00     0.051 A 
BRANCH  76  77
ATOM     77  N   UNL A   1      32.725  24.202  25.092  1.00  0.00    -0.261 N 
ATOM     78  C   UNL A   1      33.023  23.162  25.976  1.00  0.00     0.270 C 
ATOM     79  C   UNL A   1      32.496  23.836  23.771  1.00  0.00     0.152 C 
ATOM     80  O   UNL A   1      33.331  23.257  27.158  1.00  0.00    -0.268 OA
ATOM     81  C   UNL A   1      32.959  21.847  25.267  1.00  0.00     0.084 C 
ATOM     82  S   UNL A   1      32.548  22.088  23.615  1.00  0.00    -0.054 SA
ATOM     83  S   UNL A   1      32.342  24.792  22.404  1.00  0.00    -0.051 S 
ATOM     84  C   UNL A   1      33.193  20.678  25.882  1.00  0.00     0.068 C 
BRANCH  84  85
ATOM     85  C   UNL A   1      33.236  19.425  25.203  1.00  0.00     0.127 A 
ATOM     86  C   UNL A   1      34.296  18.798  24.554  1.00  0.00     0.050 A 
ATOM     87  O   UNL A   1      32.152  18.578  25.124  1.00  0.00    -0.465 OA
ATOM     88  C   UNL A   1      33.828  17.571  24.029  1.00  0.00     0.042 A 
ATOM     89  C   UNL A   1      32.510  17.490  24.397  1.00  0.00     0.195 A 
ENDBRANCH  84  85
ENDBRANCH  76  77
ENDBRANCH  69  71
ENDBRANCH  68  69
ENDBRANCH  67  68
ENDBRANCH   1  67
TORSDOF 16
ENDMDL
