MODEL 1
REMARK VINA RESULT:     -11.9      0.000      0.000
REMARK SMILES O=C(OCCOC(=O)c1nccnc1C(=O)Nc1n[nH]c2ncccc12)c1ccc(-c2c3nc(c(-c4ccc(S(=O)(=O)[O-])cc4)c4ccc([nH]4)c(-c4ccc(S(=O)(=O)[O-])cc4)c4nc(c(-c5ccc(S(=O)(=O)[O-])cc5)c5ccc2[nH]5)C=C4)C=C3)cc1
REMARK SMILES IDX 4 1 3 2 2 3 1 4 27 5 28 6 86 7 29 8 85 9 30 10 31 11 32 12
REMARK SMILES IDX 79 13 33 14 84 15 78 16 80 17 34 18 83 19 77 20 76 21 35 23
REMARK SMILES IDX 65 24 46 25 64 26 47 27 50 28 63 29 81 30 48 31 49 32 62 34
REMARK SMILES IDX 82 35 51 36 36 37 37 38 45 39 38 40 44 41 39 42 40 43 41 44
REMARK SMILES IDX 42 45 43 46 66 47 67 48 75 49 68 50 74 51 69 52 70 53 71 54
REMARK SMILES IDX 72 55 73 56 52 57 53 58 61 59 54 60 60 61 55 62 56 63 57 64
REMARK SMILES IDX 58 65 59 66 5 67 6 68 7 69 8 70 9 71 10 72 14 73 11 74 13 75
REMARK SMILES IDX 12 76 15 77 16 78 17 79 18 81 19 82 26 83 20 84 21 85 25 86
REMARK SMILES IDX 22 88 24 89 23 90
REMARK H PARENT 80 22 50 33 17 80 20 87
REMARK Flexibility Score: inf
ROOT
ATOM      1  C   UNL A   1      31.794  29.094  26.947  1.00  0.00     0.275 C 
ENDROOT
BRANCH   1   2
ATOM      2  O   UNL A   1      33.222  29.554  27.122  1.00  0.00    -0.458 OA
BRANCH   2   3
ATOM      3  C   UNL A   1      34.410  28.883  26.940  1.00  0.00     0.338 C 
ATOM      4  O   UNL A   1      34.535  27.847  26.310  1.00  0.00    -0.246 OA
BRANCH   3   5
ATOM      5  C   UNL A   1      35.531  29.478  27.778  1.00  0.00     0.060 A 
ATOM      6  C   UNL A   1      36.444  30.336  27.201  1.00  0.00     0.016 A 
ATOM      7  C   UNL A   1      35.831  29.124  29.077  1.00  0.00     0.016 A 
ATOM      8  C   UNL A   1      37.809  30.279  27.562  1.00  0.00     0.010 A 
ATOM      9  C   UNL A   1      37.171  29.253  29.527  1.00  0.00     0.010 A 
ATOM     10  C   UNL A   1      38.228  29.522  28.630  1.00  0.00    -0.014 A 
BRANCH  10  11
ATOM     11  C   UNL A   1      39.655  28.987  28.813  1.00  0.00     0.031 A 
ATOM     12  C   UNL A   1      40.677  29.942  29.375  1.00  0.00     0.074 A 
ATOM     13  C   UNL A   1      40.141  27.712  28.809  1.00  0.00     0.049 A 
ATOM     14  N   UNL A   1      41.959  30.024  29.159  1.00  0.00    -0.248 NA
ATOM     15  C   UNL A   1      40.167  30.937  30.334  1.00  0.00     0.031 C 
ATOM     16  C   UNL A   1      39.394  26.473  28.957  1.00  0.00     0.029 A 
ATOM     17  N   UNL A   1      41.442  27.240  28.675  1.00  0.00    -0.354 N 
ATOM     18  C   UNL A   1      42.361  31.178  29.814  1.00  0.00     0.074 A 
ATOM     19  C   UNL A   1      41.195  31.761  30.433  1.00  0.00     0.031 C 
ATOM     20  C   UNL A   1      40.179  25.408  28.711  1.00  0.00     0.029 A 
ATOM     21  C   UNL A   1      41.520  25.877  28.421  1.00  0.00     0.049 A 
ATOM     22  H   UNL A   1      42.235  27.819  28.752  1.00  0.00     0.167 HD
ATOM     23  C   UNL A   1      43.600  31.702  29.894  1.00  0.00     0.031 A 
ATOM     24  C   UNL A   1      42.535  25.097  27.981  1.00  0.00     0.031 A 
ATOM     25  C   UNL A   1      44.777  31.014  29.453  1.00  0.00     0.049 A 
ATOM     26  C   UNL A   1      43.898  25.728  27.855  1.00  0.00     0.074 A 
ATOM     27  C   UNL A   1      46.082  31.466  29.437  1.00  0.00     0.029 A 
ATOM     28  N   UNL A   1      44.795  29.701  29.011  1.00  0.00    -0.354 N 
ATOM     29  N   UNL A   1      44.261  26.937  28.210  1.00  0.00    -0.248 NA
ATOM     30  C   UNL A   1      44.987  24.906  27.307  1.00  0.00     0.031 C 
ATOM     31  C   UNL A   1      46.885  30.442  28.926  1.00  0.00     0.029 A 
ATOM     32  C   UNL A   1      46.085  29.338  28.679  1.00  0.00     0.049 A 
ATOM     33  H   UNL A   1      44.006  29.116  28.944  1.00  0.00     0.167 HD
ATOM     34  C   UNL A   1      45.626  27.006  27.969  1.00  0.00     0.074 A 
ATOM     35  C   UNL A   1      46.028  25.717  27.447  1.00  0.00     0.031 C 
ATOM     36  C   UNL A   1      46.469  28.049  28.168  1.00  0.00     0.031 A 
BRANCH  23  37
ATOM     37  C   UNL A   1      43.713  33.119  30.362  1.00  0.00    -0.014 A 
ATOM     38  C   UNL A   1      43.527  34.223  29.516  1.00  0.00     0.010 A 
ATOM     39  C   UNL A   1      44.024  33.329  31.719  1.00  0.00     0.010 A 
ATOM     40  C   UNL A   1      43.665  35.518  30.021  1.00  0.00     0.020 A 
ATOM     41  C   UNL A   1      44.131  34.620  32.233  1.00  0.00     0.020 A 
ATOM     42  C   UNL A   1      43.958  35.706  31.378  1.00  0.00     0.054 A 
BRANCH  42  43
ATOM     43  S   UNL A   1      44.057  37.397  32.023  1.00  0.00     0.124 S 
ATOM     44  O   UNL A   1      45.486  37.532  32.295  1.00  0.00    -0.237 OA
ATOM     45  O   UNL A   1      43.552  38.192  30.906  1.00  0.00    -0.237 OA
ATOM     46  O   UNL A   1      43.197  37.368  33.203  1.00  0.00    -0.744 OA
ENDBRANCH  42  43
ENDBRANCH  23  37
BRANCH  24  47
ATOM     47  C   UNL A   1      42.317  23.678  27.533  1.00  0.00    -0.014 A 
ATOM     48  C   UNL A   1      42.339  22.593  28.430  1.00  0.00     0.010 A 
ATOM     49  C   UNL A   1      42.203  23.396  26.156  1.00  0.00     0.010 A 
ATOM     50  C   UNL A   1      42.292  21.268  27.962  1.00  0.00     0.020 A 
ATOM     51  C   UNL A   1      42.130  22.076  25.685  1.00  0.00     0.020 A 
ATOM     52  C   UNL A   1      42.197  21.019  26.590  1.00  0.00     0.054 A 
BRANCH  52  53
ATOM     53  S   UNL A   1      42.167  19.298  26.000  1.00  0.00     0.124 S 
ATOM     54  O   UNL A   1      43.078  19.350  24.860  1.00  0.00    -0.237 OA
ATOM     55  O   UNL A   1      42.649  18.557  27.162  1.00  0.00    -0.237 OA
ATOM     56  O   UNL A   1      40.762  19.077  25.666  1.00  0.00    -0.744 OA
ENDBRANCH  52  53
ENDBRANCH  24  47
BRANCH  36  57
ATOM     57  C   UNL A   1      47.916  27.838  27.841  1.00  0.00    -0.014 A 
ATOM     58  C   UNL A   1      48.416  28.147  26.564  1.00  0.00     0.010 A 
ATOM     59  C   UNL A   1      48.798  27.402  28.845  1.00  0.00     0.010 A 
ATOM     60  C   UNL A   1      49.776  28.002  26.291  1.00  0.00     0.020 A 
ATOM     61  C   UNL A   1      50.163  27.285  28.584  1.00  0.00     0.020 A 
ATOM     62  C   UNL A   1      50.640  27.576  27.304  1.00  0.00     0.054 A 
BRANCH  62  63
ATOM     63  S   UNL A   1      52.411  27.457  26.938  1.00  0.00     0.124 S 
ATOM     64  O   UNL A   1      52.574  26.027  26.695  1.00  0.00    -0.237 OA
ATOM     65  O   UNL A   1      52.552  28.316  25.765  1.00  0.00    -0.237 OA
ATOM     66  O   UNL A   1      53.049  27.961  28.152  1.00  0.00    -0.744 OA
ENDBRANCH  62  63
ENDBRANCH  36  57
ENDBRANCH  10  11
ENDBRANCH   3   5
ENDBRANCH   2   3
ENDBRANCH   1   2
BRANCH   1  67
ATOM     67  C   UNL A   1      31.190  27.523  27.684  1.00  0.00     0.275 C 
BRANCH  67  68
ATOM     68  O   UNL A   1      31.563  25.607  27.050  1.00  0.00    -0.457 OA
BRANCH  68  69
ATOM     69  C   UNL A   1      31.733  24.521  26.066  1.00  0.00     0.359 C 
ATOM     70  O   UNL A   1      30.710  24.000  25.609  1.00  0.00    -0.244 OA
BRANCH  69  71
ATOM     71  C   UNL A   1      33.061  23.912  25.545  1.00  0.00     0.179 A 
ATOM     72  N   UNL A   1      33.894  23.717  26.632  1.00  0.00    -0.245 NA
ATOM     73  C   UNL A   1      33.477  23.418  24.291  1.00  0.00     0.161 A 
ATOM     74  C   UNL A   1      35.102  23.116  26.456  1.00  0.00     0.132 A 
ATOM     75  N   UNL A   1      34.757  22.885  24.154  1.00  0.00    -0.247 NA
ATOM     76  C   UNL A   1      35.549  22.740  25.224  1.00  0.00     0.132 A 
BRANCH  73  77
ATOM     77  C   UNL A   1      32.878  23.331  22.890  1.00  0.00     0.278 C 
ATOM     78  O   UNL A   1      32.649  22.211  22.409  1.00  0.00    -0.267 OA
ATOM     79  N   UNL A   1      32.577  24.350  22.040  1.00  0.00    -0.303 N 
ATOM     80  H   UNL A   1      32.342  24.094  21.119  1.00  0.00     0.172 HD
BRANCH  79  81
ATOM     81  C   UNL A   1      32.562  25.664  22.315  1.00  0.00     0.164 A 
ATOM     82  N   UNL A   1      33.622  26.372  21.896  1.00  0.00    -0.155 NA
ATOM     83  C   UNL A   1      31.491  26.409  22.809  1.00  0.00     0.063 A 
ATOM     84  N   UNL A   1      33.211  27.640  21.646  1.00  0.00    -0.259 N 
ATOM     85  C   UNL A   1      32.035  27.964  22.228  1.00  0.00     0.157 A 
ATOM     86  C   UNL A   1      29.760  26.339  23.479  1.00  0.00     0.017 A 
ATOM     87  H   UNL A   1      33.725  28.270  21.091  1.00  0.00     0.192 HD
ATOM     88  N   UNL A   1      31.091  29.367  22.206  1.00  0.00    -0.237 NA
ATOM     89  C   UNL A   1      28.739  27.787  23.441  1.00  0.00     0.021 A 
ATOM     90  C   UNL A   1      29.470  29.218  22.805  1.00  0.00     0.113 A 
ENDBRANCH  79  81
ENDBRANCH  73  77
ENDBRANCH  69  71
ENDBRANCH  68  69
ENDBRANCH  67  68
ENDBRANCH   1  67
TORSDOF 16
ENDMDL
MODEL 2
REMARK VINA RESULT:     -11.8      4.314      9.801
REMARK SMILES O=C(OCCOC(=O)c1nccnc1C(=O)Nc1n[nH]c2ncccc12)c1ccc(-c2c3nc(c(-c4ccc(S(=O)(=O)[O-])cc4)c4ccc([nH]4)c(-c4ccc(S(=O)(=O)[O-])cc4)c4nc(c(-c5ccc(S(=O)(=O)[O-])cc5)c5ccc2[nH]5)C=C4)C=C3)cc1
REMARK SMILES IDX 4 1 3 2 2 3 1 4 27 5 28 6 86 7 29 8 85 9 30 10 31 11 32 12
REMARK SMILES IDX 79 13 33 14 84 15 78 16 80 17 34 18 83 19 77 20 76 21 35 23
REMARK SMILES IDX 65 24 46 25 64 26 47 27 50 28 63 29 81 30 48 31 49 32 62 34
REMARK SMILES IDX 82 35 51 36 36 37 37 38 45 39 38 40 44 41 39 42 40 43 41 44
REMARK SMILES IDX 42 45 43 46 66 47 67 48 75 49 68 50 74 51 69 52 70 53 71 54
REMARK SMILES IDX 72 55 73 56 52 57 53 58 61 59 54 60 60 61 55 62 56 63 57 64
REMARK SMILES IDX 58 65 59 66 5 67 6 68 7 69 8 70 9 71 10 72 14 73 11 74 13 75
REMARK SMILES IDX 12 76 15 77 16 78 17 79 18 81 19 82 26 83 20 84 21 85 25 86
REMARK SMILES IDX 22 88 24 89 23 90
REMARK H PARENT 80 22 50 33 17 80 20 87
REMARK Flexibility Score: inf
ROOT
ATOM      1  C   UNL A   1      39.661  20.339  26.002  1.00  0.00     0.275 C 
ENDROOT
BRANCH   1   2
ATOM      2  O   UNL A   1      40.021  21.199  27.190  1.00  0.00    -0.458 OA
BRANCH   2   3
ATOM      3  C   UNL A   1      41.014  22.138  27.351  1.00  0.00     0.338 C 
ATOM      4  O   UNL A   1      42.131  21.903  27.779  1.00  0.00    -0.246 OA
BRANCH   3   5
ATOM      5  C   UNL A   1      40.503  23.550  27.113  1.00  0.00     0.060 A 
ATOM      6  C   UNL A   1      41.327  24.495  26.537  1.00  0.00     0.016 A 
ATOM      7  C   UNL A   1      39.298  24.049  27.560  1.00  0.00     0.016 A 
ATOM      8  C   UNL A   1      41.303  25.835  26.985  1.00  0.00     0.010 A 
ATOM      9  C   UNL A   1      39.191  25.439  27.824  1.00  0.00     0.010 A 
ATOM     10  C   UNL A   1      40.329  26.275  27.850  1.00  0.00    -0.014 A 
BRANCH  10  11
ATOM     11  C   UNL A   1      40.467  27.496  28.769  1.00  0.00     0.031 A 
ATOM     12  C   UNL A   1      41.664  27.531  29.685  1.00  0.00     0.074 A 
ATOM     13  C   UNL A   1      39.847  28.711  28.745  1.00  0.00     0.049 A 
ATOM     14  N   UNL A   1      41.800  28.052  30.871  1.00  0.00    -0.248 NA
ATOM     15  C   UNL A   1      42.888  26.894  29.167  1.00  0.00     0.031 C 
ATOM     16  C   UNL A   1      39.115  29.316  27.643  1.00  0.00     0.029 A 
ATOM     17  N   UNL A   1      39.740  29.693  29.724  1.00  0.00    -0.354 N 
ATOM     18  C   UNL A   1      43.057  27.650  31.298  1.00  0.00     0.074 A 
ATOM     19  C   UNL A   1      43.642  26.848  30.252  1.00  0.00     0.031 C 
ATOM     20  C   UNL A   1      38.481  30.432  28.045  1.00  0.00     0.029 A 
ATOM     21  C   UNL A   1      38.787  30.662  29.444  1.00  0.00     0.049 A 
ATOM     22  H   UNL A   1      40.291  29.700  30.540  1.00  0.00     0.167 HD
ATOM     23  C   UNL A   1      43.669  27.933  32.465  1.00  0.00     0.031 A 
ATOM     24  C   UNL A   1      38.204  31.607  30.219  1.00  0.00     0.031 A 
ATOM     25  C   UNL A   1      43.171  28.891  33.406  1.00  0.00     0.049 A 
ATOM     26  C   UNL A   1      38.737  31.791  31.616  1.00  0.00     0.074 A 
ATOM     27  C   UNL A   1      43.680  29.225  34.646  1.00  0.00     0.029 A 
ATOM     28  N   UNL A   1      42.082  29.717  33.178  1.00  0.00    -0.354 N 
ATOM     29  N   UNL A   1      39.776  31.208  32.165  1.00  0.00    -0.248 NA
ATOM     30  C   UNL A   1      38.059  32.762  32.487  1.00  0.00     0.031 C 
ATOM     31  C   UNL A   1      42.859  30.214  35.195  1.00  0.00     0.029 A 
ATOM     32  C   UNL A   1      41.877  30.533  34.272  1.00  0.00     0.049 A 
ATOM     33  H   UNL A   1      41.537  29.721  32.358  1.00  0.00     0.167 HD
ATOM     34  C   UNL A   1      39.902  31.772  33.426  1.00  0.00     0.074 A 
ATOM     35  C   UNL A   1      38.841  32.749  33.559  1.00  0.00     0.031 C 
ATOM     36  C   UNL A   1      40.821  31.504  34.385  1.00  0.00     0.031 A 
BRANCH  23  37
ATOM     37  C   UNL A   1      44.865  27.107  32.825  1.00  0.00    -0.014 A 
ATOM     38  C   UNL A   1      44.772  25.863  33.467  1.00  0.00     0.010 A 
ATOM     39  C   UNL A   1      46.132  27.626  32.497  1.00  0.00     0.010 A 
ATOM     40  C   UNL A   1      45.934  25.156  33.788  1.00  0.00     0.020 A 
ATOM     41  C   UNL A   1      47.291  26.909  32.787  1.00  0.00     0.020 A 
ATOM     42  C   UNL A   1      47.184  25.681  33.438  1.00  0.00     0.054 A 
BRANCH  42  43
ATOM     43  S   UNL A   1      48.671  24.709  33.797  1.00  0.00     0.124 S 
ATOM     44  O   UNL A   1      49.305  25.506  34.843  1.00  0.00    -0.237 OA
ATOM     45  O   UNL A   1      48.114  23.430  34.231  1.00  0.00    -0.237 OA
ATOM     46  O   UNL A   1      49.380  24.677  32.520  1.00  0.00    -0.744 OA
ENDBRANCH  42  43
ENDBRANCH  23  37
BRANCH  24  47
ATOM     47  C   UNL A   1      37.002  32.386  29.762  1.00  0.00    -0.014 A 
ATOM     48  C   UNL A   1      37.087  33.732  29.355  1.00  0.00     0.010 A 
ATOM     49  C   UNL A   1      35.722  31.802  29.850  1.00  0.00     0.010 A 
ATOM     50  C   UNL A   1      35.927  34.480  29.088  1.00  0.00     0.020 A 
ATOM     51  C   UNL A   1      34.562  32.536  29.559  1.00  0.00     0.020 A 
ATOM     52  C   UNL A   1      34.671  33.878  29.200  1.00  0.00     0.054 A 
BRANCH  52  53
ATOM     53  S   UNL A   1      33.179  34.869  28.878  1.00  0.00     0.124 S 
ATOM     54  O   UNL A   1      32.603  34.997  30.214  1.00  0.00    -0.237 OA
ATOM     55  O   UNL A   1      33.731  36.095  28.307  1.00  0.00    -0.237 OA
ATOM     56  O   UNL A   1      32.415  34.043  27.946  1.00  0.00    -0.744 OA
ENDBRANCH  52  53
ENDBRANCH  24  47
BRANCH  36  57
ATOM     57  C   UNL A   1      40.737  32.288  35.660  1.00  0.00    -0.014 A 
ATOM     58  C   UNL A   1      39.770  31.978  36.631  1.00  0.00     0.010 A 
ATOM     59  C   UNL A   1      41.686  33.293  35.920  1.00  0.00     0.010 A 
ATOM     60  C   UNL A   1      39.742  32.677  37.838  1.00  0.00     0.020 A 
ATOM     61  C   UNL A   1      41.678  33.972  37.138  1.00  0.00     0.020 A 
ATOM     62  C   UNL A   1      40.698  33.666  38.084  1.00  0.00     0.054 A 
BRANCH  62  63
ATOM     63  S   UNL A   1      40.675  34.514  39.685  1.00  0.00     0.124 S 
ATOM     64  O   UNL A   1      40.007  33.533  40.536  1.00  0.00    -0.237 OA
ATOM     65  O   UNL A   1      42.094  34.722  39.957  1.00  0.00    -0.237 OA
ATOM     66  O   UNL A   1      39.912  35.732  39.420  1.00  0.00    -0.744 OA
ENDBRANCH  62  63
ENDBRANCH  36  57
ENDBRANCH  10  11
ENDBRANCH   3   5
ENDBRANCH   2   3
ENDBRANCH   1   2
BRANCH   1  67
ATOM     67  C   UNL A   1      38.035  20.490  25.160  1.00  0.00     0.275 C 
BRANCH  67  68
ATOM     68  O   UNL A   1      36.979  22.203  24.753  1.00  0.00    -0.457 OA
BRANCH  68  69
ATOM     69  C   UNL A   1      35.801  23.091  24.743  1.00  0.00     0.359 C 
ATOM     70  O   UNL A   1      35.969  24.257  24.370  1.00  0.00    -0.244 OA
BRANCH  69  71
ATOM     71  C   UNL A   1      34.353  22.751  25.183  1.00  0.00     0.179 A 
ATOM     72  N   UNL A   1      34.265  22.958  26.549  1.00  0.00    -0.245 NA
ATOM     73  C   UNL A   1      33.170  22.447  24.479  1.00  0.00     0.161 A 
ATOM     74  C   UNL A   1      33.068  22.805  27.177  1.00  0.00     0.132 A 
ATOM     75  N   UNL A   1      31.990  22.223  25.185  1.00  0.00    -0.247 NA
ATOM     76  C   UNL A   1      31.948  22.402  26.511  1.00  0.00     0.132 A 
BRANCH  73  77
ATOM     77  C   UNL A   1      32.786  22.230  23.018  1.00  0.00     0.278 C 
ATOM     78  O   UNL A   1      32.636  21.068  22.609  1.00  0.00    -0.267 OA
ATOM     79  N   UNL A   1      32.608  23.166  22.048  1.00  0.00    -0.303 N 
ATOM     80  H   UNL A   1      32.513  22.828  21.128  1.00  0.00     0.172 HD
BRANCH  79  81
ATOM     81  C   UNL A   1      32.545  24.499  22.201  1.00  0.00     0.164 A 
ATOM     82  N   UNL A   1      33.403  25.224  21.466  1.00  0.00    -0.155 NA
ATOM     83  C   UNL A   1      31.567  25.223  22.884  1.00  0.00     0.063 A 
ATOM     84  N   UNL A   1      32.834  26.429  21.220  1.00  0.00    -0.259 N 
ATOM     85  C   UNL A   1      31.812  26.738  22.050  1.00  0.00     0.157 A 
ATOM     86  C   UNL A   1      30.067  25.115  23.973  1.00  0.00     0.017 A 
ATOM     87  H   UNL A   1      33.137  27.027  20.499  1.00  0.00     0.192 HD
ATOM     88  N   UNL A   1      30.773  28.068  22.146  1.00  0.00    -0.237 NA
ATOM     89  C   UNL A   1      28.945  26.483  24.069  1.00  0.00     0.021 A 
ATOM     90  C   UNL A   1      29.368  27.881  23.146  1.00  0.00     0.113 A 
ENDBRANCH  79  81
ENDBRANCH  73  77
ENDBRANCH  69  71
ENDBRANCH  68  69
ENDBRANCH  67  68
ENDBRANCH   1  67
TORSDOF 16
ENDMDL
MODEL 3
REMARK VINA RESULT:     -11.7      2.448      8.992
REMARK SMILES O=C(OCCOC(=O)c1nccnc1C(=O)Nc1n[nH]c2ncccc12)c1ccc(-c2c3nc(c(-c4ccc(S(=O)(=O)[O-])cc4)c4ccc([nH]4)c(-c4ccc(S(=O)(=O)[O-])cc4)c4nc(c(-c5ccc(S(=O)(=O)[O-])cc5)c5ccc2[nH]5)C=C4)C=C3)cc1
REMARK SMILES IDX 4 1 3 2 2 3 1 4 27 5 28 6 86 7 29 8 85 9 30 10 31 11 32 12
REMARK SMILES IDX 79 13 33 14 84 15 78 16 80 17 34 18 83 19 77 20 76 21 35 23
REMARK SMILES IDX 65 24 46 25 64 26 47 27 50 28 63 29 81 30 48 31 49 32 62 34
REMARK SMILES IDX 82 35 51 36 36 37 37 38 45 39 38 40 44 41 39 42 40 43 41 44
REMARK SMILES IDX 42 45 43 46 66 47 67 48 75 49 68 50 74 51 69 52 70 53 71 54
REMARK SMILES IDX 72 55 73 56 52 57 53 58 61 59 54 60 60 61 55 62 56 63 57 64
REMARK SMILES IDX 58 65 59 66 5 67 6 68 7 69 8 70 9 71 10 72 14 73 11 74 13 75
REMARK SMILES IDX 12 76 15 77 16 78 17 79 18 81 19 82 26 83 20 84 21 85 25 86
REMARK SMILES IDX 22 88 24 89 23 90
REMARK H PARENT 80 22 50 33 17 80 20 87
REMARK Flexibility Score: inf
ROOT
ATOM      1  C   UNL A   1      36.234  30.125  27.920  1.00  0.00     0.275 C 
ENDROOT
BRANCH   1   2
ATOM      2  O   UNL A   1      37.042  29.244  28.843  1.00  0.00    -0.458 OA
BRANCH   2   3
ATOM      3  C   UNL A   1      37.221  29.298  30.207  1.00  0.00     0.338 C 
ATOM      4  O   UNL A   1      36.322  29.242  31.029  1.00  0.00    -0.246 OA
BRANCH   3   5
ATOM      5  C   UNL A   1      38.657  29.630  30.577  1.00  0.00     0.060 A 
ATOM      6  C   UNL A   1      39.204  30.842  30.206  1.00  0.00     0.016 A 
ATOM      7  C   UNL A   1      39.559  28.754  31.144  1.00  0.00     0.016 A 
ATOM      8  C   UNL A   1      40.547  30.920  29.776  1.00  0.00     0.010 A 
ATOM      9  C   UNL A   1      40.943  28.938  30.889  1.00  0.00     0.010 A 
ATOM     10  C   UNL A   1      41.397  29.848  29.909  1.00  0.00    -0.014 A 
BRANCH  10  11
ATOM     11  C   UNL A   1      42.662  29.629  29.068  1.00  0.00     0.031 A 
ATOM     12  C   UNL A   1      42.812  28.290  28.391  1.00  0.00     0.074 A 
ATOM     13  C   UNL A   1      43.581  30.515  28.585  1.00  0.00     0.049 A 
ATOM     14  N   UNL A   1      43.884  27.608  28.106  1.00  0.00    -0.248 NA
ATOM     15  C   UNL A   1      41.559  27.642  27.965  1.00  0.00     0.031 C 
ATOM     16  C   UNL A   1      43.446  31.957  28.455  1.00  0.00     0.029 A 
ATOM     17  N   UNL A   1      44.865  30.308  28.090  1.00  0.00    -0.354 N 
ATOM     18  C   UNL A   1      43.420  26.390  27.633  1.00  0.00     0.074 A 
ATOM     19  C   UNL A   1      41.978  26.424  27.669  1.00  0.00     0.031 C 
ATOM     20  C   UNL A   1      44.622  32.520  28.122  1.00  0.00     0.029 A 
ATOM     21  C   UNL A   1      45.612  31.471  27.969  1.00  0.00     0.049 A 
ATOM     22  H   UNL A   1      45.210  29.419  27.849  1.00  0.00     0.167 HD
ATOM     23  C   UNL A   1      44.140  25.335  27.203  1.00  0.00     0.031 A 
ATOM     24  C   UNL A   1      46.937  31.679  27.786  1.00  0.00     0.031 A 
ATOM     25  C   UNL A   1      45.555  25.382  26.979  1.00  0.00     0.049 A 
ATOM     26  C   UNL A   1      47.803  30.475  27.516  1.00  0.00     0.074 A 
ATOM     27  C   UNL A   1      46.399  24.361  26.592  1.00  0.00     0.029 A 
ATOM     28  N   UNL A   1      46.320  26.535  27.061  1.00  0.00    -0.354 N 
ATOM     29  N   UNL A   1      47.420  29.232  27.340  1.00  0.00    -0.248 NA
ATOM     30  C   UNL A   1      49.252  30.685  27.391  1.00  0.00     0.031 C 
ATOM     31  C   UNL A   1      47.692  24.885  26.498  1.00  0.00     0.029 A 
ATOM     32  C   UNL A   1      47.637  26.242  26.771  1.00  0.00     0.049 A 
ATOM     33  H   UNL A   1      45.974  27.428  27.291  1.00  0.00     0.167 HD
ATOM     34  C   UNL A   1      48.575  28.522  27.041  1.00  0.00     0.074 A 
ATOM     35  C   UNL A   1      49.668  29.472  27.050  1.00  0.00     0.031 C 
ATOM     36  C   UNL A   1      48.711  27.200  26.778  1.00  0.00     0.031 A 
BRANCH  23  37
ATOM     37  C   UNL A   1      43.423  24.027  27.071  1.00  0.00    -0.014 A 
ATOM     38  C   UNL A   1      42.968  23.288  28.174  1.00  0.00     0.010 A 
ATOM     39  C   UNL A   1      43.208  23.535  25.770  1.00  0.00     0.010 A 
ATOM     40  C   UNL A   1      42.321  22.066  27.974  1.00  0.00     0.020 A 
ATOM     41  C   UNL A   1      42.535  22.333  25.566  1.00  0.00     0.020 A 
ATOM     42  C   UNL A   1      42.102  21.602  26.671  1.00  0.00     0.054 A 
BRANCH  42  43
ATOM     43  S   UNL A   1      41.192  20.052  26.437  1.00  0.00     0.124 S 
ATOM     44  O   UNL A   1      41.951  19.418  25.363  1.00  0.00    -0.237 OA
ATOM     45  O   UNL A   1      41.308  19.418  27.748  1.00  0.00    -0.237 OA
ATOM     46  O   UNL A   1      39.847  20.492  26.076  1.00  0.00    -0.744 OA
ENDBRANCH  42  43
ENDBRANCH  23  37
BRANCH  24  47
ATOM     47  C   UNL A   1      47.563  33.037  27.940  1.00  0.00    -0.014 A 
ATOM     48  C   UNL A   1      47.877  33.583  29.200  1.00  0.00     0.010 A 
ATOM     49  C   UNL A   1      47.739  33.853  26.804  1.00  0.00     0.010 A 
ATOM     50  C   UNL A   1      48.311  34.915  29.322  1.00  0.00     0.020 A 
ATOM     51  C   UNL A   1      48.196  35.175  26.918  1.00  0.00     0.020 A 
ATOM     52  C   UNL A   1      48.459  35.705  28.179  1.00  0.00     0.054 A 
BRANCH  52  53
ATOM     53  S   UNL A   1      48.994  37.435  28.358  1.00  0.00     0.124 S 
ATOM     54  O   UNL A   1      49.074  37.875  26.969  1.00  0.00    -0.237 OA
ATOM     55  O   UNL A   1      47.912  38.020  29.147  1.00  0.00    -0.237 OA
ATOM     56  O   UNL A   1      50.275  37.326  29.053  1.00  0.00    -0.744 OA
ENDBRANCH  52  53
ENDBRANCH  24  47
BRANCH  36  57
ATOM     57  C   UNL A   1      50.087  26.698  26.459  1.00  0.00    -0.014 A 
ATOM     58  C   UNL A   1      50.891  26.125  27.458  1.00  0.00     0.010 A 
ATOM     59  C   UNL A   1      50.546  26.728  25.131  1.00  0.00     0.010 A 
ATOM     60  C   UNL A   1      52.146  25.608  27.136  1.00  0.00     0.020 A 
ATOM     61  C   UNL A   1      51.786  26.185  24.800  1.00  0.00     0.020 A 
ATOM     62  C   UNL A   1      52.583  25.638  25.808  1.00  0.00     0.054 A 
BRANCH  62  63
ATOM     63  S   UNL A   1      54.190  24.902  25.409  1.00  0.00     0.124 S 
ATOM     64  O   UNL A   1      53.805  23.578  24.932  1.00  0.00    -0.237 OA
ATOM     65  O   UNL A   1      54.713  25.811  24.392  1.00  0.00    -0.237 OA
ATOM     66  O   UNL A   1      54.905  24.923  26.683  1.00  0.00    -0.744 OA
ENDBRANCH  62  63
ENDBRANCH  36  57
ENDBRANCH  10  11
ENDBRANCH   3   5
ENDBRANCH   2   3
ENDBRANCH   1   2
BRANCH   1  67
ATOM     67  C   UNL A   1      34.560  29.636  27.342  1.00  0.00     0.275 C 
BRANCH  67  68
ATOM     68  O   UNL A   1      34.077  28.329  25.834  1.00  0.00    -0.457 OA
BRANCH  68  69
ATOM     69  C   UNL A   1      33.746  27.925  24.454  1.00  0.00     0.359 C 
ATOM     70  O   UNL A   1      34.301  28.533  23.533  1.00  0.00    -0.244 OA
BRANCH  69  71
ATOM     71  C   UNL A   1      32.741  26.833  24.001  1.00  0.00     0.179 A 
ATOM     72  N   UNL A   1      32.975  26.570  22.663  1.00  0.00    -0.245 NA
ATOM     73  C   UNL A   1      31.818  26.018  24.688  1.00  0.00     0.161 A 
ATOM     74  C   UNL A   1      32.275  25.586  22.037  1.00  0.00     0.132 A 
ATOM     75  N   UNL A   1      31.071  25.079  23.978  1.00  0.00    -0.247 NA
ATOM     76  C   UNL A   1      31.303  24.873  22.676  1.00  0.00     0.132 A 
BRANCH  73  77
ATOM     77  C   UNL A   1      31.324  25.887  26.126  1.00  0.00     0.278 C 
ATOM     78  O   UNL A   1      30.598  26.780  26.589  1.00  0.00    -0.267 OA
ATOM     79  N   UNL A   1      31.604  24.905  27.025  1.00  0.00    -0.303 N 
ATOM     80  H   UNL A   1      31.320  25.070  27.953  1.00  0.00     0.172 HD
BRANCH  79  81
ATOM     81  C   UNL A   1      32.223  23.737  26.791  1.00  0.00     0.164 A 
ATOM     82  N   UNL A   1      31.465  22.633  26.873  1.00  0.00    -0.155 NA
ATOM     83  C   UNL A   1      33.511  23.553  26.284  1.00  0.00     0.063 A 
ATOM     84  N   UNL A   1      31.981  21.702  26.034  1.00  0.00    -0.259 N 
ATOM     85  C   UNL A   1      33.260  21.938  25.667  1.00  0.00     0.157 A 
ATOM     86  C   UNL A   1      35.091  24.390  25.785  1.00  0.00     0.017 A 
ATOM     87  H   UNL A   1      31.469  20.922  25.719  1.00  0.00     0.192 HD
ATOM     88  N   UNL A   1      34.328  21.124  24.639  1.00  0.00    -0.237 NA
ATOM     89  C   UNL A   1      36.214  23.573  24.684  1.00  0.00     0.021 A 
ATOM     90  C   UNL A   1      35.762  21.984  24.177  1.00  0.00     0.113 A 
ENDBRANCH  79  81
ENDBRANCH  73  77
ENDBRANCH  69  71
ENDBRANCH  68  69
ENDBRANCH  67  68
ENDBRANCH   1  67
TORSDOF 16
ENDMDL
