MODEL 1
REMARK VINA RESULT:     -11.1      0.000      0.000
REMARK SMILES CC[C@](C)(NC(=O)[C@H]1CNc2ccccc2O1)C(=O)OCCOC(=O)c1ccc(-c2c3nc(c(-c4ccc(S(=O)(=O)[O-])cc4)c4ccc([nH]4)c(-c4ccc(S(=O)(=O)[O-])cc4)c4nc(c(-c5ccc(S(=O)(=O)[O-])cc5)c5ccc2[nH]5)C=C4)C=C3)cc1
REMARK SMILES IDX 22 1 21 2 20 3 18 4 19 5 3 6 4 7 2 8 1 9 5 10 6 11 7 13 8 14
REMARK SMILES IDX 9 15 17 16 10 17 16 18 11 19 15 21 12 22 14 23 13 24 23 25
REMARK SMILES IDX 24 26 25 27 26 28 27 29 85 30 28 31 84 32 29 33 30 34 31 35
REMARK SMILES IDX 78 36 32 37 83 38 77 39 79 40 33 41 82 42 76 43 75 44 34 46
REMARK SMILES IDX 64 47 45 48 63 49 46 50 49 51 62 52 80 53 47 54 48 55 61 57
REMARK SMILES IDX 81 58 50 59 35 60 36 61 44 62 37 63 43 64 38 65 39 66 40 67
REMARK SMILES IDX 41 68 42 69 65 70 66 71 74 72 67 73 73 74 68 75 69 76 70 77
REMARK SMILES IDX 71 78 72 79 51 80 52 81 60 82 53 83 59 84 54 85 55 86 56 87
REMARK SMILES IDX 57 88 58 89
REMARK H PARENT 5 12 10 20 79 45 49 56
REMARK Flexibility Score: inf
ROOT
ATOM      1  C   UNL A   1      32.333  30.521  26.978  1.00  0.00     0.275 C 
ENDROOT
BRANCH   1   2
ATOM      2  C   UNL A   1      31.454  30.455  25.719  1.00  0.00     0.274 C 
BRANCH   2   3
ATOM      3  O   UNL A   1      32.043  29.664  24.661  1.00  0.00    -0.460 OA
BRANCH   3   4
ATOM      4  C   UNL A   1      31.254  28.697  24.131  1.00  0.00     0.331 C 
ATOM      5  O   UNL A   1      30.085  28.889  23.804  1.00  0.00    -0.249 OA
BRANCH   4   6
ATOM      6  C   UNL A   1      31.917  27.287  24.083  1.00  0.00     0.135 C 
ATOM      7  C   UNL A   1      31.270  26.409  25.176  1.00  0.00     0.047 C 
BRANCH   6   8
ATOM      8  C   UNL A   1      33.390  27.560  24.543  1.00  0.00     0.037 C 
ATOM      9  C   UNL A   1      33.713  27.045  25.944  1.00  0.00     0.007 C 
ENDBRANCH   6   8
BRANCH   6  10
ATOM     10  N   UNL A   1      32.005  26.454  22.838  1.00  0.00    -0.337 N 
ATOM     11  C   UNL A   1      33.075  25.747  22.336  1.00  0.00     0.263 C 
ATOM     12  H   UNL A   1      31.180  26.405  22.303  1.00  0.00     0.164 HD
ATOM     13  O   UNL A   1      33.404  25.992  21.171  1.00  0.00    -0.271 OA
BRANCH  11  14
ATOM     14  C   UNL A   1      33.644  24.556  23.102  1.00  0.00     0.281 C 
ATOM     15  C   UNL A   1      32.543  23.487  23.154  1.00  0.00     0.168 C 
ATOM     16  O   UNL A   1      34.823  23.954  22.554  1.00  0.00    -0.477 OA
ATOM     17  N   UNL A   1      32.934  22.438  24.092  1.00  0.00    -0.378 N 
ATOM     18  C   UNL A   1      35.232  22.932  23.400  1.00  0.00     0.143 A 
ATOM     19  C   UNL A   1      34.304  22.174  24.151  1.00  0.00     0.077 A 
ATOM     20  H   UNL A   1      32.278  21.952  24.643  1.00  0.00     0.160 HD
ATOM     21  C   UNL A   1      36.605  22.718  23.523  1.00  0.00     0.049 A 
ATOM     22  C   UNL A   1      34.796  21.257  25.083  1.00  0.00     0.029 A 
ATOM     23  C   UNL A   1      37.076  21.798  24.459  1.00  0.00     0.004 A 
ATOM     24  C   UNL A   1      36.174  21.076  25.243  1.00  0.00     0.002 A 
ENDBRANCH  11  14
ENDBRANCH   6  10
ENDBRANCH   4   6
ENDBRANCH   3   4
ENDBRANCH   2   3
ENDBRANCH   1   2
BRANCH   1  25
ATOM     25  O   UNL A   1      33.721  30.797  26.705  1.00  0.00    -0.458 OA
BRANCH  25  26
ATOM     26  C   UNL A   1      34.316  31.636  27.579  1.00  0.00     0.338 C 
ATOM     27  O   UNL A   1      33.911  32.714  27.969  1.00  0.00    -0.246 OA
BRANCH  26  28
ATOM     28  C   UNL A   1      35.507  31.051  28.177  1.00  0.00     0.060 A 
ATOM     29  C   UNL A   1      36.601  31.895  28.357  1.00  0.00     0.016 A 
ATOM     30  C   UNL A   1      35.599  29.679  28.401  1.00  0.00     0.016 A 
ATOM     31  C   UNL A   1      37.805  31.377  28.792  1.00  0.00     0.010 A 
ATOM     32  C   UNL A   1      36.795  29.164  28.901  1.00  0.00     0.010 A 
ATOM     33  C   UNL A   1      37.886  30.019  29.125  1.00  0.00    -0.014 A 
BRANCH  33  34
ATOM     34  C   UNL A   1      39.043  29.570  29.919  1.00  0.00     0.031 A 
ATOM     35  C   UNL A   1      40.060  28.635  29.360  1.00  0.00     0.074 A 
ATOM     36  C   UNL A   1      39.131  30.056  31.174  1.00  0.00     0.049 A 
ATOM     37  N   UNL A   1      41.085  28.097  29.965  1.00  0.00    -0.248 NA
ATOM     38  C   UNL A   1      39.913  28.243  27.950  1.00  0.00     0.031 C 
ATOM     39  C   UNL A   1      38.173  30.993  31.782  1.00  0.00     0.029 A 
ATOM     40  N   UNL A   1      40.056  29.849  32.156  1.00  0.00    -0.354 N 
ATOM     41  C   UNL A   1      41.692  27.278  29.023  1.00  0.00     0.074 A 
ATOM     42  C   UNL A   1      40.926  27.396  27.800  1.00  0.00     0.031 C 
ATOM     43  C   UNL A   1      38.580  31.298  33.020  1.00  0.00     0.029 A 
ATOM     44  C   UNL A   1      39.778  30.529  33.317  1.00  0.00     0.049 A 
ATOM     45  H   UNL A   1      40.845  29.270  32.044  1.00  0.00     0.167 HD
ATOM     46  C   UNL A   1      42.781  26.491  29.187  1.00  0.00     0.031 A 
ATOM     47  C   UNL A   1      40.400  30.503  34.509  1.00  0.00     0.031 A 
ATOM     48  C   UNL A   1      43.517  26.396  30.423  1.00  0.00     0.049 A 
ATOM     49  C   UNL A   1      41.589  29.609  34.661  1.00  0.00     0.074 A 
ATOM     50  C   UNL A   1      44.640  25.640  30.703  1.00  0.00     0.029 A 
ATOM     51  N   UNL A   1      43.196  27.082  31.588  1.00  0.00    -0.354 N 
ATOM     52  N   UNL A   1      42.148  28.835  33.761  1.00  0.00    -0.248 NA
ATOM     53  C   UNL A   1      42.220  29.568  35.983  1.00  0.00     0.031 C 
ATOM     54  C   UNL A   1      44.977  25.839  32.047  1.00  0.00     0.029 A 
ATOM     55  C   UNL A   1      44.084  26.748  32.594  1.00  0.00     0.049 A 
ATOM     56  H   UNL A   1      42.446  27.713  31.682  1.00  0.00     0.167 HD
ATOM     57  C   UNL A   1      43.190  28.196  34.414  1.00  0.00     0.074 A 
ATOM     58  C   UNL A   1      43.205  28.705  35.773  1.00  0.00     0.031 C 
ATOM     59  C   UNL A   1      44.048  27.261  33.940  1.00  0.00     0.031 A 
BRANCH  46  60
ATOM     60  C   UNL A   1      43.213  25.637  28.028  1.00  0.00    -0.014 A 
ATOM     61  C   UNL A   1      44.131  26.110  27.074  1.00  0.00     0.010 A 
ATOM     62  C   UNL A   1      42.737  24.316  27.927  1.00  0.00     0.010 A 
ATOM     63  C   UNL A   1      44.552  25.282  26.028  1.00  0.00     0.020 A 
ATOM     64  C   UNL A   1      43.168  23.481  26.891  1.00  0.00     0.020 A 
ATOM     65  C   UNL A   1      44.065  23.973  25.941  1.00  0.00     0.054 A 
BRANCH  65  66
ATOM     66  S   UNL A   1      44.658  22.903  24.600  1.00  0.00     0.124 S 
ATOM     67  O   UNL A   1      45.641  23.759  23.943  1.00  0.00    -0.237 OA
ATOM     68  O   UNL A   1      45.206  21.756  25.321  1.00  0.00    -0.237 OA
ATOM     69  O   UNL A   1      43.454  22.625  23.822  1.00  0.00    -0.744 OA
ENDBRANCH  65  66
ENDBRANCH  46  60
BRANCH  47  70
ATOM     70  C   UNL A   1      39.854  31.297  35.639  1.00  0.00    -0.014 A 
ATOM     71  C   UNL A   1      38.652  30.927  36.263  1.00  0.00     0.010 A 
ATOM     72  C   UNL A   1      40.576  32.397  36.139  1.00  0.00     0.010 A 
ATOM     73  C   UNL A   1      38.178  31.646  37.365  1.00  0.00     0.020 A 
ATOM     74  C   UNL A   1      40.120  33.102  37.254  1.00  0.00     0.020 A 
ATOM     75  C   UNL A   1      38.917  32.729  37.854  1.00  0.00     0.054 A 
BRANCH  75  76
ATOM     76  S   UNL A   1      38.331  33.609  39.329  1.00  0.00     0.124 S 
ATOM     77  O   UNL A   1      36.925  33.224  39.372  1.00  0.00    -0.237 OA
ATOM     78  O   UNL A   1      39.171  33.058  40.390  1.00  0.00    -0.237 OA
ATOM     79  O   UNL A   1      38.591  35.011  39.009  1.00  0.00    -0.744 OA
ENDBRANCH  75  76
ENDBRANCH  47  70
BRANCH  59  80
ATOM     80  C   UNL A   1      45.054  26.732  34.917  1.00  0.00    -0.014 A 
ATOM     81  C   UNL A   1      46.301  27.364  35.067  1.00  0.00     0.010 A 
ATOM     82  C   UNL A   1      44.746  25.606  35.700  1.00  0.00     0.010 A 
ATOM     83  C   UNL A   1      47.239  26.858  35.967  1.00  0.00     0.020 A 
ATOM     84  C   UNL A   1      45.676  25.110  36.615  1.00  0.00     0.020 A 
ATOM     85  C   UNL A   1      46.922  25.730  36.730  1.00  0.00     0.054 A 
BRANCH  85  86
ATOM     86  S   UNL A   1      48.144  25.104  37.915  1.00  0.00     0.124 S 
ATOM     87  O   UNL A   1      49.051  24.359  37.046  1.00  0.00    -0.237 OA
ATOM     88  O   UNL A   1      48.692  26.329  38.494  1.00  0.00    -0.237 OA
ATOM     89  O   UNL A   1      47.347  24.292  38.831  1.00  0.00    -0.744 OA
ENDBRANCH  85  86
ENDBRANCH  59  80
ENDBRANCH  33  34
ENDBRANCH  26  28
ENDBRANCH  25  26
ENDBRANCH   1  25
TORSDOF 17
ENDMDL
MODEL 2
REMARK VINA RESULT:     -11.1      5.588      9.473
REMARK SMILES CC[C@](C)(NC(=O)[C@H]1CNc2ccccc2O1)C(=O)OCCOC(=O)c1ccc(-c2c3nc(c(-c4ccc(S(=O)(=O)[O-])cc4)c4ccc([nH]4)c(-c4ccc(S(=O)(=O)[O-])cc4)c4nc(c(-c5ccc(S(=O)(=O)[O-])cc5)c5ccc2[nH]5)C=C4)C=C3)cc1
REMARK SMILES IDX 22 1 21 2 20 3 18 4 19 5 3 6 4 7 2 8 1 9 5 10 6 11 7 13 8 14
REMARK SMILES IDX 9 15 17 16 10 17 16 18 11 19 15 21 12 22 14 23 13 24 23 25
REMARK SMILES IDX 24 26 25 27 26 28 27 29 85 30 28 31 84 32 29 33 30 34 31 35
REMARK SMILES IDX 78 36 32 37 83 38 77 39 79 40 33 41 82 42 76 43 75 44 34 46
REMARK SMILES IDX 64 47 45 48 63 49 46 50 49 51 62 52 80 53 47 54 48 55 61 57
REMARK SMILES IDX 81 58 50 59 35 60 36 61 44 62 37 63 43 64 38 65 39 66 40 67
REMARK SMILES IDX 41 68 42 69 65 70 66 71 74 72 67 73 73 74 68 75 69 76 70 77
REMARK SMILES IDX 71 78 72 79 51 80 52 81 60 82 53 83 59 84 54 85 55 86 56 87
REMARK SMILES IDX 57 88 58 89
REMARK H PARENT 5 12 10 20 79 45 49 56
REMARK Flexibility Score: inf
ROOT
ATOM      1  C   UNL A   1      34.605  29.754  27.313  1.00  0.00     0.275 C 
ENDROOT
BRANCH   1   2
ATOM      2  C   UNL A   1      34.009  28.508  26.639  1.00  0.00     0.274 C 
BRANCH   2   3
ATOM      3  O   UNL A   1      33.269  28.817  25.437  1.00  0.00    -0.460 OA
BRANCH   3   4
ATOM      4  C   UNL A   1      32.598  27.785  24.869  1.00  0.00     0.331 C 
ATOM      5  O   UNL A   1      32.184  26.820  25.508  1.00  0.00    -0.249 OA
BRANCH   4   6
ATOM      6  C   UNL A   1      32.499  27.865  23.314  1.00  0.00     0.135 C 
ATOM      7  C   UNL A   1      33.778  28.546  22.782  1.00  0.00     0.047 C 
BRANCH   6   8
ATOM      8  C   UNL A   1      31.323  28.872  23.074  1.00  0.00     0.037 C 
ATOM      9  C   UNL A   1      29.938  28.231  23.095  1.00  0.00     0.007 C 
ENDBRANCH   6   8
BRANCH   6  10
ATOM     10  N   UNL A   1      32.231  26.676  22.438  1.00  0.00    -0.337 N 
ATOM     11  C   UNL A   1      33.099  25.699  22.006  1.00  0.00     0.263 C 
ATOM     12  H   UNL A   1      31.301  26.580  22.131  1.00  0.00     0.164 HD
ATOM     13  O   UNL A   1      33.158  25.511  20.786  1.00  0.00    -0.271 OA
BRANCH  11  14
ATOM     14  C   UNL A   1      33.750  24.744  23.002  1.00  0.00     0.281 C 
ATOM     15  C   UNL A   1      32.623  23.915  23.632  1.00  0.00     0.168 C 
ATOM     16  O   UNL A   1      34.724  23.838  22.469  1.00  0.00    -0.477 OA
ATOM     17  N   UNL A   1      33.151  23.172  24.774  1.00  0.00    -0.378 N 
ATOM     18  C   UNL A   1      35.250  23.090  23.514  1.00  0.00     0.143 A 
ATOM     19  C   UNL A   1      34.475  22.749  24.647  1.00  0.00     0.077 A 
ATOM     20  H   UNL A   1      32.612  22.984  25.577  1.00  0.00     0.160 HD
ATOM     21  C   UNL A   1      36.596  22.734  23.427  1.00  0.00     0.049 A 
ATOM     22  C   UNL A   1      35.110  22.115  25.717  1.00  0.00     0.029 A 
ATOM     23  C   UNL A   1      37.210  22.100  24.507  1.00  0.00     0.004 A 
ATOM     24  C   UNL A   1      36.471  21.799  25.652  1.00  0.00     0.002 A 
ENDBRANCH  11  14
ENDBRANCH   6  10
ENDBRANCH   4   6
ENDBRANCH   3   4
ENDBRANCH   2   3
ENDBRANCH   1   2
BRANCH   1  25
ATOM     25  O   UNL A   1      35.399  29.460  28.480  1.00  0.00    -0.458 OA
BRANCH  25  26
ATOM     26  C   UNL A   1      36.319  30.398  28.792  1.00  0.00     0.338 C 
ATOM     27  O   UNL A   1      36.122  31.521  29.214  1.00  0.00    -0.246 OA
BRANCH  26  28
ATOM     28  C   UNL A   1      37.677  29.882  28.712  1.00  0.00     0.060 A 
ATOM     29  C   UNL A   1      38.216  29.717  27.437  1.00  0.00     0.016 A 
ATOM     30  C   UNL A   1      38.339  29.422  29.848  1.00  0.00     0.016 A 
ATOM     31  C   UNL A   1      39.445  29.106  27.283  1.00  0.00     0.010 A 
ATOM     32  C   UNL A   1      39.609  28.863  29.701  1.00  0.00     0.010 A 
ATOM     33  C   UNL A   1      40.172  28.735  28.421  1.00  0.00    -0.014 A 
BRANCH  33  34
ATOM     34  C   UNL A   1      41.605  28.433  28.257  1.00  0.00     0.031 A 
ATOM     35  C   UNL A   1      42.647  29.491  28.389  1.00  0.00     0.074 A 
ATOM     36  C   UNL A   1      41.917  27.150  27.985  1.00  0.00     0.049 A 
ATOM     37  N   UNL A   1      43.935  29.387  28.196  1.00  0.00    -0.248 NA
ATOM     38  C   UNL A   1      42.198  30.836  28.779  1.00  0.00     0.031 C 
ATOM     39  C   UNL A   1      40.942  26.056  27.857  1.00  0.00     0.029 A 
ATOM     40  N   UNL A   1      43.122  26.542  27.778  1.00  0.00    -0.354 N 
ATOM     41  C   UNL A   1      44.452  30.657  28.410  1.00  0.00     0.074 A 
ATOM     42  C   UNL A   1      43.339  31.516  28.757  1.00  0.00     0.031 C 
ATOM     43  C   UNL A   1      41.593  24.910  27.623  1.00  0.00     0.029 A 
ATOM     44  C   UNL A   1      43.015  25.198  27.513  1.00  0.00     0.049 A 
ATOM     45  H   UNL A   1      43.983  27.019  27.816  1.00  0.00     0.167 HD
ATOM     46  C   UNL A   1      45.741  31.057  28.304  1.00  0.00     0.031 A 
ATOM     47  C   UNL A   1      43.957  24.301  27.176  1.00  0.00     0.031 A 
ATOM     48  C   UNL A   1      46.823  30.172  27.951  1.00  0.00     0.049 A 
ATOM     49  C   UNL A   1      45.369  24.780  27.051  1.00  0.00     0.074 A 
ATOM     50  C   UNL A   1      48.168  30.463  27.824  1.00  0.00     0.029 A 
ATOM     51  N   UNL A   1      46.677  28.820  27.667  1.00  0.00    -0.354 N 
ATOM     52  N   UNL A   1      45.842  25.988  27.250  1.00  0.00    -0.248 NA
ATOM     53  C   UNL A   1      46.368  23.790  26.639  1.00  0.00     0.031 C 
ATOM     54  C   UNL A   1      48.831  29.296  27.425  1.00  0.00     0.029 A 
ATOM     55  C   UNL A   1      47.903  28.269  27.341  1.00  0.00     0.049 A 
ATOM     56  H   UNL A   1      45.825  28.327  27.695  1.00  0.00     0.167 HD
ATOM     57  C   UNL A   1      47.196  25.910  26.970  1.00  0.00     0.074 A 
ATOM     58  C   UNL A   1      47.471  24.526  26.624  1.00  0.00     0.031 C 
ATOM     59  C   UNL A   1      48.128  26.892  26.981  1.00  0.00     0.031 A 
BRANCH  46  60
ATOM     60  C   UNL A   1      46.046  32.512  28.521  1.00  0.00    -0.014 A 
ATOM     61  C   UNL A   1      45.983  33.438  27.465  1.00  0.00     0.010 A 
ATOM     62  C   UNL A   1      46.341  32.970  29.818  1.00  0.00     0.010 A 
ATOM     63  C   UNL A   1      46.228  34.796  27.700  1.00  0.00     0.020 A 
ATOM     64  C   UNL A   1      46.572  34.329  30.059  1.00  0.00     0.020 A 
ATOM     65  C   UNL A   1      46.524  35.232  28.996  1.00  0.00     0.054 A 
BRANCH  65  66
ATOM     66  S   UNL A   1      46.797  37.003  29.285  1.00  0.00     0.124 S 
ATOM     67  O   UNL A   1      47.923  36.987  30.215  1.00  0.00    -0.237 OA
ATOM     68  O   UNL A   1      47.095  37.506  27.947  1.00  0.00    -0.237 OA
ATOM     69  O   UNL A   1      45.530  37.461  29.849  1.00  0.00    -0.744 OA
ENDBRANCH  65  66
ENDBRANCH  46  60
BRANCH  47  70
ATOM     70  C   UNL A   1      43.565  22.900  26.876  1.00  0.00    -0.014 A 
ATOM     71  C   UNL A   1      43.938  22.293  25.667  1.00  0.00     0.010 A 
ATOM     72  C   UNL A   1      42.866  22.145  27.837  1.00  0.00     0.010 A 
ATOM     73  C   UNL A   1      43.615  20.954  25.420  1.00  0.00     0.020 A 
ATOM     74  C   UNL A   1      42.564  20.802  27.605  1.00  0.00     0.020 A 
ATOM     75  C   UNL A   1      42.931  20.218  26.393  1.00  0.00     0.054 A 
BRANCH  75  76
ATOM     76  S   UNL A   1      42.581  18.462  26.093  1.00  0.00     0.124 S 
ATOM     77  O   UNL A   1      41.160  18.488  25.766  1.00  0.00    -0.237 OA
ATOM     78  O   UNL A   1      43.480  18.137  24.988  1.00  0.00    -0.237 OA
ATOM     79  O   UNL A   1      42.923  17.830  27.366  1.00  0.00    -0.744 OA
ENDBRANCH  75  76
ENDBRANCH  47  70
BRANCH  59  80
ATOM     80  C   UNL A   1      49.518  26.490  26.590  1.00  0.00    -0.014 A 
ATOM     81  C   UNL A   1      49.970  26.684  25.273  1.00  0.00     0.010 A 
ATOM     82  C   UNL A   1      50.381  25.929  27.547  1.00  0.00     0.010 A 
ATOM     83  C   UNL A   1      51.259  26.294  24.910  1.00  0.00     0.020 A 
ATOM     84  C   UNL A   1      51.677  25.555  27.191  1.00  0.00     0.020 A 
ATOM     85  C   UNL A   1      52.102  25.726  25.871  1.00  0.00     0.054 A 
BRANCH  85  86
ATOM     86  S   UNL A   1      53.784  25.250  25.388  1.00  0.00     0.124 S 
ATOM     87  O   UNL A   1      54.590  25.919  26.405  1.00  0.00    -0.237 OA
ATOM     88  O   UNL A   1      53.747  23.792  25.472  1.00  0.00    -0.237 OA
ATOM     89  O   UNL A   1      53.915  25.786  24.034  1.00  0.00    -0.744 OA
ENDBRANCH  85  86
ENDBRANCH  59  80
ENDBRANCH  33  34
ENDBRANCH  26  28
ENDBRANCH  25  26
ENDBRANCH   1  25
TORSDOF 17
ENDMDL
MODEL 3
REMARK VINA RESULT:     -11.0      4.198      8.672
REMARK SMILES CC[C@](C)(NC(=O)[C@H]1CNc2ccccc2O1)C(=O)OCCOC(=O)c1ccc(-c2c3nc(c(-c4ccc(S(=O)(=O)[O-])cc4)c4ccc([nH]4)c(-c4ccc(S(=O)(=O)[O-])cc4)c4nc(c(-c5ccc(S(=O)(=O)[O-])cc5)c5ccc2[nH]5)C=C4)C=C3)cc1
REMARK SMILES IDX 22 1 21 2 20 3 18 4 19 5 3 6 4 7 2 8 1 9 5 10 6 11 7 13 8 14
REMARK SMILES IDX 9 15 17 16 10 17 16 18 11 19 15 21 12 22 14 23 13 24 23 25
REMARK SMILES IDX 24 26 25 27 26 28 27 29 85 30 28 31 84 32 29 33 30 34 31 35
REMARK SMILES IDX 78 36 32 37 83 38 77 39 79 40 33 41 82 42 76 43 75 44 34 46
REMARK SMILES IDX 64 47 45 48 63 49 46 50 49 51 62 52 80 53 47 54 48 55 61 57
REMARK SMILES IDX 81 58 50 59 35 60 36 61 44 62 37 63 43 64 38 65 39 66 40 67
REMARK SMILES IDX 41 68 42 69 65 70 66 71 74 72 67 73 73 74 68 75 69 76 70 77
REMARK SMILES IDX 71 78 72 79 51 80 52 81 60 82 53 83 59 84 54 85 55 86 56 87
REMARK SMILES IDX 57 88 58 89
REMARK H PARENT 5 12 10 20 79 45 49 56
REMARK Flexibility Score: inf
ROOT
ATOM      1  C   UNL A   1      33.088  30.056  26.156  1.00  0.00     0.275 C 
ENDROOT
BRANCH   1   2
ATOM      2  C   UNL A   1      31.841  29.245  25.770  1.00  0.00     0.274 C 
BRANCH   2   3
ATOM      3  O   UNL A   1      32.102  28.269  24.735  1.00  0.00    -0.460 OA
BRANCH   3   4
ATOM      4  C   UNL A   1      31.477  27.073  24.874  1.00  0.00     0.331 C 
ATOM      5  O   UNL A   1      30.255  26.947  24.851  1.00  0.00    -0.249 OA
BRANCH   4   6
ATOM      6  C   UNL A   1      32.437  25.884  25.186  1.00  0.00     0.135 C 
ATOM      7  C   UNL A   1      33.888  26.358  24.954  1.00  0.00     0.047 C 
BRANCH   6   8
ATOM      8  C   UNL A   1      32.117  24.850  24.053  1.00  0.00     0.037 C 
ATOM      9  C   UNL A   1      33.090  24.892  22.877  1.00  0.00     0.007 C 
ENDBRANCH   6   8
BRANCH   6  10
ATOM     10  N   UNL A   1      32.419  25.122  26.479  1.00  0.00    -0.337 N 
ATOM     11  C   UNL A   1      32.593  23.774  26.698  1.00  0.00     0.263 C 
ATOM     12  H   UNL A   1      32.262  25.663  27.286  1.00  0.00     0.164 HD
ATOM     13  O   UNL A   1      31.704  23.196  27.333  1.00  0.00    -0.271 OA
BRANCH  11  14
ATOM     14  C   UNL A   1      33.929  23.105  26.390  1.00  0.00     0.281 C 
ATOM     15  C   UNL A   1      33.669  22.066  25.290  1.00  0.00     0.168 C 
ATOM     16  O   UNL A   1      34.984  23.968  25.947  1.00  0.00    -0.477 OA
ATOM     17  N   UNL A   1      34.848  21.217  25.140  1.00  0.00    -0.378 N 
ATOM     18  C   UNL A   1      36.132  23.207  25.769  1.00  0.00     0.143 A 
ATOM     19  C   UNL A   1      36.071  21.855  25.360  1.00  0.00     0.077 A 
ATOM     20  H   UNL A   1      34.785  20.264  24.900  1.00  0.00     0.160 HD
ATOM     21  C   UNL A   1      37.351  23.816  26.065  1.00  0.00     0.049 A 
ATOM     22  C   UNL A   1      37.255  21.116  25.335  1.00  0.00     0.029 A 
ATOM     23  C   UNL A   1      38.522  23.060  26.034  1.00  0.00     0.004 A 
ATOM     24  C   UNL A   1      38.473  21.711  25.678  1.00  0.00     0.002 A 
ENDBRANCH  11  14
ENDBRANCH   6  10
ENDBRANCH   4   6
ENDBRANCH   3   4
ENDBRANCH   2   3
ENDBRANCH   1   2
BRANCH   1  25
ATOM     25  O   UNL A   1      33.618  29.725  27.454  1.00  0.00    -0.458 OA
BRANCH  25  26
ATOM     26  C   UNL A   1      34.361  30.695  28.029  1.00  0.00     0.338 C 
ATOM     27  O   UNL A   1      33.994  31.796  28.391  1.00  0.00    -0.246 OA
BRANCH  26  28
ATOM     28  C   UNL A   1      35.709  30.243  28.337  1.00  0.00     0.060 A 
ATOM     29  C   UNL A   1      36.613  30.186  27.277  1.00  0.00     0.016 A 
ATOM     30  C   UNL A   1      36.029  29.737  29.595  1.00  0.00     0.016 A 
ATOM     31  C   UNL A   1      37.867  29.640  27.470  1.00  0.00     0.010 A 
ATOM     32  C   UNL A   1      37.316  29.244  29.809  1.00  0.00     0.010 A 
ATOM     33  C   UNL A   1      38.242  29.225  28.754  1.00  0.00    -0.014 A 
BRANCH  33  34
ATOM     34  C   UNL A   1      39.674  28.995  29.013  1.00  0.00     0.031 A 
ATOM     35  C   UNL A   1      40.545  30.061  29.587  1.00  0.00     0.074 A 
ATOM     36  C   UNL A   1      40.148  27.771  28.707  1.00  0.00     0.049 A 
ATOM     37  N   UNL A   1      41.834  30.026  29.798  1.00  0.00    -0.248 NA
ATOM     38  C   UNL A   1      39.901  31.326  29.969  1.00  0.00     0.031 C 
ATOM     39  C   UNL A   1      39.342  26.672  28.154  1.00  0.00     0.029 A 
ATOM     40  N   UNL A   1      41.399  27.236  28.821  1.00  0.00    -0.354 N 
ATOM     41  C   UNL A   1      42.166  31.274  30.309  1.00  0.00     0.074 A 
ATOM     42  C   UNL A   1      40.940  32.041  30.386  1.00  0.00     0.031 C 
ATOM     43  C   UNL A   1      40.116  25.589  28.006  1.00  0.00     0.029 A 
ATOM     44  C   UNL A   1      41.477  25.937  28.382  1.00  0.00     0.049 A 
ATOM     45  H   UNL A   1      42.170  27.732  29.182  1.00  0.00     0.167 HD
ATOM     46  C   UNL A   1      43.392  31.727  30.659  1.00  0.00     0.031 A 
ATOM     47  C   UNL A   1      42.541  25.124  28.256  1.00  0.00     0.031 A 
ATOM     48  C   UNL A   1      44.592  30.933  30.565  1.00  0.00     0.049 A 
ATOM     49  C   UNL A   1      43.883  25.663  28.637  1.00  0.00     0.074 A 
ATOM     50  C   UNL A   1      45.887  31.284  30.900  1.00  0.00     0.029 A 
ATOM     51  N   UNL A   1      44.639  29.627  30.095  1.00  0.00    -0.354 N 
ATOM     52  N   UNL A   1      44.183  26.848  29.113  1.00  0.00    -0.248 NA
ATOM     53  C   UNL A   1      45.030  24.770  28.448  1.00  0.00     0.031 C 
ATOM     54  C   UNL A   1      46.723  30.203  30.598  1.00  0.00     0.029 A 
ATOM     55  C   UNL A   1      45.944  29.165  30.109  1.00  0.00     0.049 A 
ATOM     56  H   UNL A   1      43.859  29.106  29.797  1.00  0.00     0.167 HD
ATOM     57  C   UNL A   1      45.559  26.854  29.264  1.00  0.00     0.074 A 
ATOM     58  C   UNL A   1      46.028  25.538  28.866  1.00  0.00     0.031 C 
ATOM     59  C   UNL A   1      46.368  27.857  29.681  1.00  0.00     0.031 A 
BRANCH  46  60
ATOM     60  C   UNL A   1      43.508  33.150  31.128  1.00  0.00    -0.014 A 
ATOM     61  C   UNL A   1      43.420  33.480  32.492  1.00  0.00     0.010 A 
ATOM     62  C   UNL A   1      43.772  34.167  30.193  1.00  0.00     0.010 A 
ATOM     63  C   UNL A   1      43.575  34.806  32.910  1.00  0.00     0.020 A 
ATOM     64  C   UNL A   1      43.942  35.492  30.608  1.00  0.00     0.020 A 
ATOM     65  C   UNL A   1      43.833  35.805  31.964  1.00  0.00     0.054 A 
BRANCH  65  66
ATOM     66  S   UNL A   1      44.073  37.511  32.533  1.00  0.00     0.124 S 
ATOM     67  O   UNL A   1      45.464  37.489  32.977  1.00  0.00    -0.237 OA
ATOM     68  O   UNL A   1      43.812  38.293  31.326  1.00  0.00    -0.237 OA
ATOM     69  O   UNL A   1      43.083  37.665  33.595  1.00  0.00    -0.744 OA
ENDBRANCH  65  66
ENDBRANCH  46  60
BRANCH  47  70
ATOM     70  C   UNL A   1      42.363  23.764  27.688  1.00  0.00    -0.014 A 
ATOM     71  C   UNL A   1      42.706  23.491  26.355  1.00  0.00     0.010 A 
ATOM     72  C   UNL A   1      41.906  22.714  28.509  1.00  0.00     0.010 A 
ATOM     73  C   UNL A   1      42.591  22.192  25.848  1.00  0.00     0.020 A 
ATOM     74  C   UNL A   1      41.815  21.412  28.013  1.00  0.00     0.020 A 
ATOM     75  C   UNL A   1      42.147  21.161  26.682  1.00  0.00     0.054 A 
BRANCH  75  76
ATOM     76  S   UNL A   1      42.072  19.466  26.036  1.00  0.00     0.124 S 
ATOM     77  O   UNL A   1      42.913  19.559  24.848  1.00  0.00    -0.237 OA
ATOM     78  O   UNL A   1      42.616  18.676  27.138  1.00  0.00    -0.237 OA
ATOM     79  O   UNL A   1      40.647  19.266  25.784  1.00  0.00    -0.744 OA
ENDBRANCH  75  76
ENDBRANCH  47  70
BRANCH  59  80
ATOM     80  C   UNL A   1      47.837  27.557  29.703  1.00  0.00    -0.014 A 
ATOM     81  C   UNL A   1      48.630  27.805  28.569  1.00  0.00     0.010 A 
ATOM     82  C   UNL A   1      48.429  27.038  30.866  1.00  0.00     0.010 A 
ATOM     83  C   UNL A   1      49.993  27.510  28.589  1.00  0.00     0.020 A 
ATOM     84  C   UNL A   1      49.796  26.759  30.895  1.00  0.00     0.020 A 
ATOM     85  C   UNL A   1      50.566  26.982  29.750  1.00  0.00     0.054 A 
BRANCH  85  86
ATOM     86  S   UNL A   1      52.345  26.631  29.766  1.00  0.00     0.124 S 
ATOM     87  O   UNL A   1      52.457  25.697  30.883  1.00  0.00    -0.237 OA
ATOM     88  O   UNL A   1      52.575  26.058  28.442  1.00  0.00    -0.237 OA
ATOM     89  O   UNL A   1      52.950  27.942  29.984  1.00  0.00    -0.744 OA
ENDBRANCH  85  86
ENDBRANCH  59  80
ENDBRANCH  33  34
ENDBRANCH  26  28
ENDBRANCH  25  26
ENDBRANCH   1  25
TORSDOF 17
ENDMDL
