MODEL 1
REMARK VINA RESULT:      -9.7      0.000      0.000
REMARK SMILES CO[C@H]1C[C@@H](C(=O)OCCOC(=O)c2ccc(-c3c4nc(c(-c5ccc(S(=O)(=O)[O-])cc5)c5ccc([nH]5)c(-c5ccc(S(=O)(=O)[O-])cc5)c5nc(c(-c6ccc(S(=O)(=O)[O-])cc6)c6ccc3[nH]6)C=C5)C=C4)cc2)N(C(=O)c2cscc2C)C1
REMARK SMILES IDX 10 1 9 2 8 3 6 4 7 5 5 6 3 7 4 8 83 9 74 10 2 11 1 12 75 13
REMARK SMILES IDX 76 14 77 15 78 16 81 17 79 18 80 19 82 20 11 21 12 22 13 23
REMARK SMILES IDX 14 24 15 25 73 26 16 27 72 28 17 29 18 30 19 31 66 32 20 33
REMARK SMILES IDX 71 34 65 35 67 36 21 37 70 38 64 39 63 40 22 42 52 43 33 44
REMARK SMILES IDX 51 45 34 46 37 47 50 48 68 49 35 50 36 51 49 53 69 54 38 55
REMARK SMILES IDX 23 56 24 57 32 58 25 59 31 60 26 61 27 62 28 63 29 64 30 65
REMARK SMILES IDX 53 66 54 67 62 68 55 69 61 70 56 71 57 72 58 73 59 74 60 75
REMARK SMILES IDX 39 76 40 77 48 78 41 79 47 80 42 81 43 82 44 83 45 84 46 85
REMARK H PARENT 67 41 37 52
REMARK Flexibility Score: inf
ROOT
ATOM      1  C   UNL A   1      34.410  32.027  27.643  1.00  0.00     0.275 C 
ENDROOT
BRANCH   1   2
ATOM      2  C   UNL A   1      33.466  33.190  28.013  1.00  0.00     0.274 C 
BRANCH   2   3
ATOM      3  O   UNL A   1      33.903  34.502  27.591  1.00  0.00    -0.461 OA
BRANCH   3   4
ATOM      4  C   UNL A   1      34.075  35.359  28.636  1.00  0.00     0.329 C 
ATOM      5  O   UNL A   1      34.814  36.324  28.581  1.00  0.00    -0.250 OA
BRANCH   4   6
ATOM      6  C   UNL A   1      33.228  35.007  29.859  1.00  0.00     0.198 C 
ATOM      7  C   UNL A   1      32.463  36.260  31.851  1.00  0.00     0.140 C 
ATOM      8  C   UNL A   1      32.461  36.262  30.320  1.00  0.00     0.071 C 
ATOM      9  C   UNL A   1      33.436  35.155  32.258  1.00  0.00     0.152 C 
ATOM     10  N   UNL A   1      34.002  34.595  31.047  1.00  0.00    -0.322 N 
BRANCH   7  11
ATOM     11  O   UNL A   1      32.941  37.486  32.409  1.00  0.00    -0.380 OA
ATOM     12  C   UNL A   1      33.905  37.342  33.442  1.00  0.00     0.195 C 
ENDBRANCH   7  11
BRANCH  10  13
ATOM     13  C   UNL A   1      34.940  33.571  31.201  1.00  0.00     0.255 C 
ATOM     14  O   UNL A   1      34.603  32.390  31.144  1.00  0.00    -0.269 OA
BRANCH  13  15
ATOM     15  C   UNL A   1      36.341  33.905  31.446  1.00  0.00     0.053 A 
ATOM     16  C   UNL A   1      36.843  34.066  32.729  1.00  0.00     0.079 A 
ATOM     17  C   UNL A   1      37.416  33.906  30.485  1.00  0.00    -0.028 A 
ATOM     18  S   UNL A   1      38.488  34.525  32.749  1.00  0.00    -0.151 S 
ATOM     19  C   UNL A   1      38.605  34.318  31.060  1.00  0.00     0.069 A 
ATOM     20  C   UNL A   1      37.292  33.480  29.064  1.00  0.00     0.046 C 
ENDBRANCH  13  15
ENDBRANCH  10  13
ENDBRANCH   4   6
ENDBRANCH   3   4
ENDBRANCH   2   3
ENDBRANCH   1   2
BRANCH   1  21
ATOM     21  O   UNL A   1      33.920  30.713  27.996  1.00  0.00    -0.458 OA
BRANCH  21  22
ATOM     22  C   UNL A   1      34.627  29.676  27.481  1.00  0.00     0.338 C 
ATOM     23  O   UNL A   1      34.251  28.928  26.587  1.00  0.00    -0.246 OA
BRANCH  22  24
ATOM     24  C   UNL A   1      36.004  29.616  28.021  1.00  0.00     0.060 A 
ATOM     25  C   UNL A   1      37.075  29.713  27.126  1.00  0.00     0.016 A 
ATOM     26  C   UNL A   1      36.256  29.294  29.351  1.00  0.00     0.016 A 
ATOM     27  C   UNL A   1      38.379  29.453  27.517  1.00  0.00     0.010 A 
ATOM     28  C   UNL A   1      37.578  29.053  29.760  1.00  0.00     0.010 A 
ATOM     29  C   UNL A   1      38.645  29.107  28.839  1.00  0.00    -0.014 A 
BRANCH  29  30
ATOM     30  C   UNL A   1      40.024  28.712  29.213  1.00  0.00     0.031 A 
ATOM     31  C   UNL A   1      40.899  29.691  29.946  1.00  0.00     0.074 A 
ATOM     32  C   UNL A   1      40.473  27.469  28.948  1.00  0.00     0.049 A 
ATOM     33  N   UNL A   1      42.167  29.601  30.249  1.00  0.00    -0.248 NA
ATOM     34  C   UNL A   1      40.260  30.940  30.393  1.00  0.00     0.031 C 
ATOM     35  C   UNL A   1      39.686  26.395  28.336  1.00  0.00     0.029 A 
ATOM     36  N   UNL A   1      41.703  26.900  29.160  1.00  0.00    -0.354 N 
ATOM     37  C   UNL A   1      42.490  30.798  30.878  1.00  0.00     0.074 A 
ATOM     38  C   UNL A   1      41.287  31.600  30.909  1.00  0.00     0.031 C 
ATOM     39  C   UNL A   1      40.455  25.302  28.217  1.00  0.00     0.029 A 
ATOM     40  C   UNL A   1      41.803  25.616  28.677  1.00  0.00     0.049 A 
ATOM     41  H   UNL A   1      42.443  27.365  29.614  1.00  0.00     0.167 HD
ATOM     42  C   UNL A   1      43.687  31.190  31.376  1.00  0.00     0.031 A 
ATOM     43  C   UNL A   1      42.871  24.801  28.570  1.00  0.00     0.031 A 
ATOM     44  C   UNL A   1      44.872  30.371  31.352  1.00  0.00     0.049 A 
ATOM     45  C   UNL A   1      44.209  25.292  29.056  1.00  0.00     0.074 A 
ATOM     46  C   UNL A   1      46.132  30.669  31.838  1.00  0.00     0.029 A 
ATOM     47  N   UNL A   1      44.943  29.094  30.814  1.00  0.00    -0.354 N 
ATOM     48  N   UNL A   1      44.511  26.435  29.624  1.00  0.00    -0.248 NA
ATOM     49  C   UNL A   1      45.350  24.383  28.884  1.00  0.00     0.031 C 
ATOM     50  C   UNL A   1      46.982  29.601  31.534  1.00  0.00     0.029 A 
ATOM     51  C   UNL A   1      46.234  28.605  30.927  1.00  0.00     0.049 A 
ATOM     52  H   UNL A   1      44.188  28.608  30.411  1.00  0.00     0.167 HD
ATOM     53  C   UNL A   1      45.872  26.372  29.904  1.00  0.00     0.074 A 
ATOM     54  C   UNL A   1      46.329  25.072  29.457  1.00  0.00     0.031 C 
ATOM     55  C   UNL A   1      46.670  27.305  30.479  1.00  0.00     0.031 A 
BRANCH  42  56
ATOM     56  C   UNL A   1      43.795  32.587  31.930  1.00  0.00    -0.014 A 
ATOM     57  C   UNL A   1      43.644  32.855  33.302  1.00  0.00     0.010 A 
ATOM     58  C   UNL A   1      44.097  33.649  31.057  1.00  0.00     0.010 A 
ATOM     59  C   UNL A   1      43.758  34.163  33.784  1.00  0.00     0.020 A 
ATOM     60  C   UNL A   1      44.243  34.953  31.537  1.00  0.00     0.020 A 
ATOM     61  C   UNL A   1      44.058  35.204  32.897  1.00  0.00     0.054 A 
BRANCH  61  62
ATOM     62  S   UNL A   1      44.229  36.886  33.554  1.00  0.00     0.124 S 
ATOM     63  O   UNL A   1      42.836  37.272  33.766  1.00  0.00    -0.237 OA
ATOM     64  O   UNL A   1      45.013  36.677  34.769  1.00  0.00    -0.237 OA
ATOM     65  O   UNL A   1      44.919  37.609  32.489  1.00  0.00    -0.744 OA
ENDBRANCH  61  62
ENDBRANCH  42  56
BRANCH  43  66
ATOM     66  C   UNL A   1      42.731  23.465  27.924  1.00  0.00    -0.014 A 
ATOM     67  C   UNL A   1      43.387  23.173  26.717  1.00  0.00     0.010 A 
ATOM     68  C   UNL A   1      41.930  22.472  28.521  1.00  0.00     0.010 A 
ATOM     69  C   UNL A   1      43.226  21.924  26.106  1.00  0.00     0.020 A 
ATOM     70  C   UNL A   1      41.794  21.211  27.933  1.00  0.00     0.020 A 
ATOM     71  C   UNL A   1      42.432  20.950  26.719  1.00  0.00     0.054 A 
BRANCH  71  72
ATOM     72  S   UNL A   1      42.266  19.327  25.926  1.00  0.00     0.124 S 
ATOM     73  O   UNL A   1      40.818  19.202  25.789  1.00  0.00    -0.237 OA
ATOM     74  O   UNL A   1      43.006  19.506  24.680  1.00  0.00    -0.237 OA
ATOM     75  O   UNL A   1      42.884  18.412  26.885  1.00  0.00    -0.744 OA
ENDBRANCH  71  72
ENDBRANCH  43  66
BRANCH  55  76
ATOM     76  C   UNL A   1      48.115  26.939  30.704  1.00  0.00    -0.014 A 
ATOM     77  C   UNL A   1      49.081  27.113  29.698  1.00  0.00     0.010 A 
ATOM     78  C   UNL A   1      48.517  26.463  31.965  1.00  0.00     0.010 A 
ATOM     79  C   UNL A   1      50.419  26.787  29.940  1.00  0.00     0.020 A 
ATOM     80  C   UNL A   1      49.857  26.168  32.222  1.00  0.00     0.020 A 
ATOM     81  C   UNL A   1      50.798  26.319  31.202  1.00  0.00     0.054 A 
BRANCH  81  82
ATOM     82  S   UNL A   1      52.547  25.946  31.505  1.00  0.00     0.124 S 
ATOM     83  O   UNL A   1      53.130  26.119  30.177  1.00  0.00    -0.237 OA
ATOM     84  O   UNL A   1      52.923  26.954  32.493  1.00  0.00    -0.237 OA
ATOM     85  O   UNL A   1      52.529  24.572  32.002  1.00  0.00    -0.744 OA
ENDBRANCH  81  82
ENDBRANCH  55  76
ENDBRANCH  29  30
ENDBRANCH  22  24
ENDBRANCH  21  22
ENDBRANCH   1  21
TORSDOF 17
ENDMDL
MODEL 2
REMARK VINA RESULT:      -9.7      3.508      5.875
REMARK SMILES CO[C@H]1C[C@@H](C(=O)OCCOC(=O)c2ccc(-c3c4nc(c(-c5ccc(S(=O)(=O)[O-])cc5)c5ccc([nH]5)c(-c5ccc(S(=O)(=O)[O-])cc5)c5nc(c(-c6ccc(S(=O)(=O)[O-])cc6)c6ccc3[nH]6)C=C5)C=C4)cc2)N(C(=O)c2cscc2C)C1
REMARK SMILES IDX 10 1 9 2 8 3 6 4 7 5 5 6 3 7 4 8 83 9 74 10 2 11 1 12 75 13
REMARK SMILES IDX 76 14 77 15 78 16 81 17 79 18 80 19 82 20 11 21 12 22 13 23
REMARK SMILES IDX 14 24 15 25 73 26 16 27 72 28 17 29 18 30 19 31 66 32 20 33
REMARK SMILES IDX 71 34 65 35 67 36 21 37 70 38 64 39 63 40 22 42 52 43 33 44
REMARK SMILES IDX 51 45 34 46 37 47 50 48 68 49 35 50 36 51 49 53 69 54 38 55
REMARK SMILES IDX 23 56 24 57 32 58 25 59 31 60 26 61 27 62 28 63 29 64 30 65
REMARK SMILES IDX 53 66 54 67 62 68 55 69 61 70 56 71 57 72 58 73 59 74 60 75
REMARK SMILES IDX 39 76 40 77 48 78 41 79 47 80 42 81 43 82 44 83 45 84 46 85
REMARK H PARENT 67 41 37 52
REMARK Flexibility Score: inf
ROOT
ATOM      1  C   UNL A   1      32.613  30.367  26.985  1.00  0.00     0.275 C 
ENDROOT
BRANCH   1   2
ATOM      2  C   UNL A   1      31.973  29.871  25.671  1.00  0.00     0.274 C 
BRANCH   2   3
ATOM      3  O   UNL A   1      32.866  29.187  24.764  1.00  0.00    -0.461 OA
BRANCH   3   4
ATOM      4  C   UNL A   1      32.807  27.833  24.891  1.00  0.00     0.329 C 
ATOM      5  O   UNL A   1      33.795  27.123  24.848  1.00  0.00    -0.250 OA
BRANCH   4   6
ATOM      6  C   UNL A   1      31.392  27.304  25.126  1.00  0.00     0.198 C 
ATOM      7  C   UNL A   1      30.436  25.069  25.597  1.00  0.00     0.140 C 
ATOM      8  C   UNL A   1      31.456  26.101  26.089  1.00  0.00     0.071 C 
ATOM      9  C   UNL A   1      29.978  25.567  24.227  1.00  0.00     0.152 C 
ATOM     10  N   UNL A   1      30.724  26.772  23.922  1.00  0.00    -0.322 N 
BRANCH   7  11
ATOM     11  O   UNL A   1      31.002  23.769  25.419  1.00  0.00    -0.380 OA
ATOM     12  C   UNL A   1      30.493  22.767  26.288  1.00  0.00     0.195 C 
ENDBRANCH   7  11
BRANCH  10  13
ATOM     13  C   UNL A   1      30.465  27.382  22.692  1.00  0.00     0.255 C 
ATOM     14  O   UNL A   1      30.908  26.913  21.645  1.00  0.00    -0.269 OA
BRANCH  13  15
ATOM     15  C   UNL A   1      29.666  28.605  22.647  1.00  0.00     0.053 A 
ATOM     16  C   UNL A   1      30.093  29.736  21.966  1.00  0.00     0.079 A 
ATOM     17  C   UNL A   1      28.300  28.767  23.077  1.00  0.00    -0.028 A 
ATOM     18  S   UNL A   1      29.019  31.054  22.123  1.00  0.00    -0.151 S 
ATOM     19  C   UNL A   1      27.876  30.077  22.928  1.00  0.00     0.069 A 
ATOM     20  C   UNL A   1      27.426  27.671  23.579  1.00  0.00     0.046 C 
ENDBRANCH  13  15
ENDBRANCH  10  13
ENDBRANCH   4   6
ENDBRANCH   3   4
ENDBRANCH   2   3
ENDBRANCH   1   2
BRANCH   1  21
ATOM     21  O   UNL A   1      34.018  30.695  26.888  1.00  0.00    -0.458 OA
BRANCH  21  22
ATOM     22  C   UNL A   1      34.621  30.998  28.065  1.00  0.00     0.338 C 
ATOM     23  O   UNL A   1      34.133  31.666  28.968  1.00  0.00    -0.246 OA
BRANCH  22  24
ATOM     24  C   UNL A   1      35.919  30.304  28.222  1.00  0.00     0.060 A 
ATOM     25  C   UNL A   1      36.272  29.830  29.489  1.00  0.00     0.016 A 
ATOM     26  C   UNL A   1      36.859  30.267  27.196  1.00  0.00     0.016 A 
ATOM     27  C   UNL A   1      37.548  29.365  29.766  1.00  0.00     0.010 A 
ATOM     28  C   UNL A   1      38.147  29.774  27.463  1.00  0.00     0.010 A 
ATOM     29  C   UNL A   1      38.507  29.344  28.757  1.00  0.00    -0.014 A 
BRANCH  29  30
ATOM     30  C   UNL A   1      39.898  28.961  29.098  1.00  0.00     0.031 A 
ATOM     31  C   UNL A   1      40.794  29.962  29.772  1.00  0.00     0.074 A 
ATOM     32  C   UNL A   1      40.339  27.710  28.857  1.00  0.00     0.049 A 
ATOM     33  N   UNL A   1      42.072  29.881  30.037  1.00  0.00    -0.248 NA
ATOM     34  C   UNL A   1      40.169  31.223  30.202  1.00  0.00     0.031 C 
ATOM     35  C   UNL A   1      39.534  26.618  28.303  1.00  0.00     0.029 A 
ATOM     36  N   UNL A   1      41.576  27.148  29.045  1.00  0.00    -0.354 N 
ATOM     37  C   UNL A   1      42.414  31.096  30.619  1.00  0.00     0.074 A 
ATOM     38  C   UNL A   1      41.211  31.898  30.664  1.00  0.00     0.031 C 
ATOM     39  C   UNL A   1      40.300  25.522  28.192  1.00  0.00     0.029 A 
ATOM     40  C   UNL A   1      41.662  25.850  28.599  1.00  0.00     0.049 A 
ATOM     41  H   UNL A   1      42.329  27.626  29.461  1.00  0.00     0.167 HD
ATOM     42  C   UNL A   1      43.626  31.504  31.066  1.00  0.00     0.031 A 
ATOM     43  C   UNL A   1      42.727  25.032  28.483  1.00  0.00     0.031 A 
ATOM     44  C   UNL A   1      44.810  30.684  31.028  1.00  0.00     0.049 A 
ATOM     45  C   UNL A   1      44.079  25.538  28.910  1.00  0.00     0.074 A 
ATOM     46  C   UNL A   1      46.085  30.998  31.465  1.00  0.00     0.029 A 
ATOM     47  N   UNL A   1      44.865  29.392  30.527  1.00  0.00    -0.354 N 
ATOM     48  N   UNL A   1      44.398  26.698  29.432  1.00  0.00    -0.248 NA
ATOM     49  C   UNL A   1      45.216  24.625  28.729  1.00  0.00     0.031 C 
ATOM     50  C   UNL A   1      46.925  29.921  31.165  1.00  0.00     0.029 A 
ATOM     51  C   UNL A   1      46.159  28.907  30.613  1.00  0.00     0.049 A 
ATOM     52  H   UNL A   1      44.098  28.894  30.164  1.00  0.00     0.167 HD
ATOM     53  C   UNL A   1      45.767  26.644  29.670  1.00  0.00     0.074 A 
ATOM     54  C   UNL A   1      46.211  25.331  29.249  1.00  0.00     0.031 C 
ATOM     55  C   UNL A   1      46.583  27.594  30.191  1.00  0.00     0.031 A 
BRANCH  42  56
ATOM     56  C   UNL A   1      43.749  32.917  31.574  1.00  0.00    -0.014 A 
ATOM     57  C   UNL A   1      43.607  33.231  32.937  1.00  0.00     0.010 A 
ATOM     58  C   UNL A   1      44.058  33.947  30.665  1.00  0.00     0.010 A 
ATOM     59  C   UNL A   1      43.737  34.553  33.375  1.00  0.00     0.020 A 
ATOM     60  C   UNL A   1      44.219  35.264  31.102  1.00  0.00     0.020 A 
ATOM     61  C   UNL A   1      44.042  35.561  32.454  1.00  0.00     0.054 A 
BRANCH  61  62
ATOM     62  S   UNL A   1      44.233  37.261  33.055  1.00  0.00     0.124 S 
ATOM     63  O   UNL A   1      43.063  37.411  33.917  1.00  0.00    -0.237 OA
ATOM     64  O   UNL A   1      45.518  37.214  33.748  1.00  0.00    -0.237 OA
ATOM     65  O   UNL A   1      44.215  38.067  31.837  1.00  0.00    -0.744 OA
ENDBRANCH  61  62
ENDBRANCH  42  56
BRANCH  43  66
ATOM     66  C   UNL A   1      42.568  23.678  27.882  1.00  0.00    -0.014 A 
ATOM     67  C   UNL A   1      42.182  22.578  28.668  1.00  0.00     0.010 A 
ATOM     68  C   UNL A   1      42.806  23.481  26.507  1.00  0.00     0.010 A 
ATOM     69  C   UNL A   1      42.063  21.306  28.098  1.00  0.00     0.020 A 
ATOM     70  C   UNL A   1      42.654  22.219  25.927  1.00  0.00     0.020 A 
ATOM     71  C   UNL A   1      42.297  21.135  26.730  1.00  0.00     0.054 A 
BRANCH  71  72
ATOM     72  S   UNL A   1      42.101  19.483  26.007  1.00  0.00     0.124 S 
ATOM     73  O   UNL A   1      42.920  19.579  24.802  1.00  0.00    -0.237 OA
ATOM     74  O   UNL A   1      42.621  18.613  27.058  1.00  0.00    -0.237 OA
ATOM     75  O   UNL A   1      40.661  19.378  25.776  1.00  0.00    -0.744 OA
ENDBRANCH  71  72
ENDBRANCH  43  66
BRANCH  55  76
ATOM     76  C   UNL A   1      48.035  27.235  30.380  1.00  0.00    -0.014 A 
ATOM     77  C   UNL A   1      48.993  27.508  29.388  1.00  0.00     0.010 A 
ATOM     78  C   UNL A   1      48.450  26.663  31.596  1.00  0.00     0.010 A 
ATOM     79  C   UNL A   1      50.337  27.186  29.598  1.00  0.00     0.020 A 
ATOM     80  C   UNL A   1      49.796  26.371  31.824  1.00  0.00     0.020 A 
ATOM     81  C   UNL A   1      50.730  26.621  30.817  1.00  0.00     0.054 A 
BRANCH  81  82
ATOM     82  S   UNL A   1      52.486  26.255  31.081  1.00  0.00     0.124 S 
ATOM     83  O   UNL A   1      52.431  24.956  31.746  1.00  0.00    -0.237 OA
ATOM     84  O   UNL A   1      53.020  26.245  29.721  1.00  0.00    -0.237 OA
ATOM     85  O   UNL A   1      52.950  27.361  31.917  1.00  0.00    -0.744 OA
ENDBRANCH  81  82
ENDBRANCH  55  76
ENDBRANCH  29  30
ENDBRANCH  22  24
ENDBRANCH  21  22
ENDBRANCH   1  21
TORSDOF 17
ENDMDL
MODEL 3
REMARK VINA RESULT:      -9.6      3.412      6.755
REMARK SMILES CO[C@H]1C[C@@H](C(=O)OCCOC(=O)c2ccc(-c3c4nc(c(-c5ccc(S(=O)(=O)[O-])cc5)c5ccc([nH]5)c(-c5ccc(S(=O)(=O)[O-])cc5)c5nc(c(-c6ccc(S(=O)(=O)[O-])cc6)c6ccc3[nH]6)C=C5)C=C4)cc2)N(C(=O)c2cscc2C)C1
REMARK SMILES IDX 10 1 9 2 8 3 6 4 7 5 5 6 3 7 4 8 83 9 74 10 2 11 1 12 75 13
REMARK SMILES IDX 76 14 77 15 78 16 81 17 79 18 80 19 82 20 11 21 12 22 13 23
REMARK SMILES IDX 14 24 15 25 73 26 16 27 72 28 17 29 18 30 19 31 66 32 20 33
REMARK SMILES IDX 71 34 65 35 67 36 21 37 70 38 64 39 63 40 22 42 52 43 33 44
REMARK SMILES IDX 51 45 34 46 37 47 50 48 68 49 35 50 36 51 49 53 69 54 38 55
REMARK SMILES IDX 23 56 24 57 32 58 25 59 31 60 26 61 27 62 28 63 29 64 30 65
REMARK SMILES IDX 53 66 54 67 62 68 55 69 61 70 56 71 57 72 58 73 59 74 60 75
REMARK SMILES IDX 39 76 40 77 48 78 41 79 47 80 42 81 43 82 44 83 45 84 46 85
REMARK H PARENT 67 41 37 52
REMARK Flexibility Score: inf
ROOT
ATOM      1  C   UNL A   1      33.898  28.142  26.159  1.00  0.00     0.275 C 
ENDROOT
BRANCH   1   2
ATOM      2  C   UNL A   1      33.109  26.847  25.875  1.00  0.00     0.274 C 
BRANCH   2   3
ATOM      3  O   UNL A   1      33.863  25.785  25.248  1.00  0.00    -0.461 OA
BRANCH   3   4
ATOM      4  C   UNL A   1      33.471  24.548  25.661  1.00  0.00     0.329 C 
ATOM      5  O   UNL A   1      33.444  24.222  26.833  1.00  0.00    -0.250 OA
BRANCH   4   6
ATOM      6  C   UNL A   1      33.039  23.632  24.516  1.00  0.00     0.198 C 
ATOM      7  C   UNL A   1      32.071  21.357  24.391  1.00  0.00     0.140 C 
ATOM      8  C   UNL A   1      31.864  22.752  24.989  1.00  0.00     0.071 C 
ATOM      9  C   UNL A   1      33.477  21.371  23.795  1.00  0.00     0.152 C 
ATOM     10  N   UNL A   1      34.066  22.665  24.079  1.00  0.00    -0.322 N 
BRANCH   7  11
ATOM     11  O   UNL A   1      32.026  20.319  25.373  1.00  0.00    -0.380 OA
ATOM     12  C   UNL A   1      32.749  19.144  25.040  1.00  0.00     0.195 C 
ENDBRANCH   7  11
BRANCH  10  13
ATOM     13  C   UNL A   1      35.371  22.879  23.629  1.00  0.00     0.255 C 
ATOM     14  O   UNL A   1      35.604  23.112  22.445  1.00  0.00    -0.269 OA
BRANCH  13  15
ATOM     15  C   UNL A   1      36.481  22.813  24.578  1.00  0.00     0.053 A 
ATOM     16  C   UNL A   1      36.920  23.931  25.273  1.00  0.00     0.079 A 
ATOM     17  C   UNL A   1      37.120  21.626  25.088  1.00  0.00    -0.028 A 
ATOM     18  S   UNL A   1      38.274  23.612  26.263  1.00  0.00    -0.151 S 
ATOM     19  C   UNL A   1      38.167  21.941  25.936  1.00  0.00     0.069 A 
ATOM     20  C   UNL A   1      36.694  20.231  24.788  1.00  0.00     0.046 C 
ENDBRANCH  13  15
ENDBRANCH  10  13
ENDBRANCH   4   6
ENDBRANCH   3   4
ENDBRANCH   2   3
ENDBRANCH   1   2
BRANCH   1  21
ATOM     21  O   UNL A   1      33.865  28.583  27.535  1.00  0.00    -0.458 OA
BRANCH  21  22
ATOM     22  C   UNL A   1      34.339  29.836  27.751  1.00  0.00     0.338 C 
ATOM     23  O   UNL A   1      33.680  30.868  27.705  1.00  0.00    -0.246 OA
BRANCH  22  24
ATOM     24  C   UNL A   1      35.748  29.829  28.204  1.00  0.00     0.060 A 
ATOM     25  C   UNL A   1      36.751  30.073  27.261  1.00  0.00     0.016 A 
ATOM     26  C   UNL A   1      36.104  29.419  29.485  1.00  0.00     0.016 A 
ATOM     27  C   UNL A   1      38.092  29.875  27.553  1.00  0.00     0.010 A 
ATOM     28  C   UNL A   1      37.462  29.239  29.796  1.00  0.00     0.010 A 
ATOM     29  C   UNL A   1      38.463  29.442  28.823  1.00  0.00    -0.014 A 
BRANCH  29  30
ATOM     30  C   UNL A   1      39.886  29.116  29.082  1.00  0.00     0.031 A 
ATOM     31  C   UNL A   1      40.786  30.163  29.676  1.00  0.00     0.074 A 
ATOM     32  C   UNL A   1      40.356  27.876  28.840  1.00  0.00     0.049 A 
ATOM     33  N   UNL A   1      42.080  30.133  29.861  1.00  0.00    -0.248 NA
ATOM     34  C   UNL A   1      40.144  31.412  30.118  1.00  0.00     0.031 C 
ATOM     35  C   UNL A   1      39.558  26.744  28.362  1.00  0.00     0.029 A 
ATOM     36  N   UNL A   1      41.622  27.362  28.961  1.00  0.00    -0.354 N 
ATOM     37  C   UNL A   1      42.414  31.373  30.394  1.00  0.00     0.074 A 
ATOM     38  C   UNL A   1      41.188  32.133  30.499  1.00  0.00     0.031 C 
ATOM     39  C   UNL A   1      40.354  25.673  28.225  1.00  0.00     0.029 A 
ATOM     40  C   UNL A   1      41.727  26.058  28.537  1.00  0.00     0.049 A 
ATOM     41  H   UNL A   1      42.382  27.876  29.317  1.00  0.00     0.167 HD
ATOM     42  C   UNL A   1      43.636  31.833  30.753  1.00  0.00     0.031 A 
ATOM     43  C   UNL A   1      42.811  25.275  28.370  1.00  0.00     0.031 A 
ATOM     44  C   UNL A   1      44.845  31.054  30.657  1.00  0.00     0.049 A 
ATOM     45  C   UNL A   1      44.168  25.838  28.699  1.00  0.00     0.074 A 
ATOM     46  C   UNL A   1      46.132  31.422  31.004  1.00  0.00     0.029 A 
ATOM     47  N   UNL A   1      44.915  29.753  30.181  1.00  0.00    -0.354 N 
ATOM     48  N   UNL A   1      44.477  27.020  29.175  1.00  0.00    -0.248 NA
ATOM     49  C   UNL A   1      45.323  24.961  28.465  1.00  0.00     0.031 C 
ATOM     50  C   UNL A   1      46.990  30.368  30.675  1.00  0.00     0.029 A 
ATOM     51  C   UNL A   1      46.228  29.315  30.194  1.00  0.00     0.049 A 
ATOM     52  H   UNL A   1      44.144  29.220  29.879  1.00  0.00     0.167 HD
ATOM     53  C   UNL A   1      45.860  27.019  29.326  1.00  0.00     0.074 A 
ATOM     54  C   UNL A   1      46.324  25.713  28.905  1.00  0.00     0.031 C 
ATOM     55  C   UNL A   1      46.672  28.009  29.773  1.00  0.00     0.031 A 
BRANCH  42  56
ATOM     56  C   UNL A   1      43.740  33.261  31.222  1.00  0.00    -0.014 A 
ATOM     57  C   UNL A   1      43.934  33.585  32.577  1.00  0.00     0.010 A 
ATOM     58  C   UNL A   1      43.684  34.299  30.274  1.00  0.00     0.010 A 
ATOM     59  C   UNL A   1      44.035  34.921  32.976  1.00  0.00     0.020 A 
ATOM     60  C   UNL A   1      43.816  35.634  30.664  1.00  0.00     0.020 A 
ATOM     61  C   UNL A   1      43.975  35.938  32.016  1.00  0.00     0.054 A 
BRANCH  61  62
ATOM     62  S   UNL A   1      44.138  37.660  32.560  1.00  0.00     0.124 S 
ATOM     63  O   UNL A   1      43.975  38.390  31.305  1.00  0.00    -0.237 OA
ATOM     64  O   UNL A   1      43.041  37.800  33.514  1.00  0.00    -0.237 OA
ATOM     65  O   UNL A   1      45.477  37.718  33.143  1.00  0.00    -0.744 OA
ENDBRANCH  61  62
ENDBRANCH  42  56
BRANCH  43  66
ATOM     66  C   UNL A   1      42.663  23.902  27.809  1.00  0.00    -0.014 A 
ATOM     67  C   UNL A   1      42.707  23.677  26.423  1.00  0.00     0.010 A 
ATOM     68  C   UNL A   1      42.474  22.803  28.671  1.00  0.00     0.010 A 
ATOM     69  C   UNL A   1      42.540  22.387  25.908  1.00  0.00     0.020 A 
ATOM     70  C   UNL A   1      42.342  21.508  28.162  1.00  0.00     0.020 A 
ATOM     71  C   UNL A   1      42.360  21.310  26.781  1.00  0.00     0.054 A 
BRANCH  71  72
ATOM     72  S   UNL A   1      42.181  19.642  26.091  1.00  0.00     0.124 S 
ATOM     73  O   UNL A   1      43.090  19.686  24.950  1.00  0.00    -0.237 OA
ATOM     74  O   UNL A   1      42.602  18.793  27.202  1.00  0.00    -0.237 OA
ATOM     75  O   UNL A   1      40.761  19.560  25.755  1.00  0.00    -0.744 OA
ENDBRANCH  71  72
ENDBRANCH  43  66
BRANCH  55  76
ATOM     76  C   UNL A   1      48.145  27.705  29.876  1.00  0.00    -0.014 A 
ATOM     77  C   UNL A   1      48.682  27.051  30.998  1.00  0.00     0.010 A 
ATOM     78  C   UNL A   1      48.993  28.034  28.803  1.00  0.00     0.010 A 
ATOM     79  C   UNL A   1      50.048  26.759  31.058  1.00  0.00     0.020 A 
ATOM     80  C   UNL A   1      50.351  27.716  28.844  1.00  0.00     0.020 A 
ATOM     81  C   UNL A   1      50.873  27.092  29.979  1.00  0.00     0.054 A 
BRANCH  81  82
ATOM     82  S   UNL A   1      52.633  26.662  30.063  1.00  0.00     0.124 S 
ATOM     83  O   UNL A   1      52.659  25.692  31.154  1.00  0.00    -0.237 OA
ATOM     84  O   UNL A   1      52.894  26.119  28.732  1.00  0.00    -0.237 OA
ATOM     85  O   UNL A   1      53.289  27.937  30.348  1.00  0.00    -0.744 OA
ENDBRANCH  81  82
ENDBRANCH  55  76
ENDBRANCH  29  30
ENDBRANCH  22  24
ENDBRANCH  21  22
ENDBRANCH   1  21
TORSDOF 17
ENDMDL
