MODEL 1
REMARK VINA RESULT:     -11.3      0.000      0.000
REMARK SMILES CCc1c(Cl)ccc2c1C=C(C(=O)OCCOC(=O)c1ccc(-c3c4nc(c(-c5ccc(S(=O)(=O)[O-])cc5)c5ccc([nH]5)c(-c5ccc(S(=O)(=O)[O-])cc5)c5nc(c(-c6ccc(S(=O)(=O)[O-])cc6)c6ccc3[nH]6)C=C5)C=C4)cc1)[C@@H](C(F)(F)F)O2
REMARK SMILES IDX 16 1 15 2 14 3 12 4 13 5 11 6 3 7 4 8 9 9 5 10 6 11 8 12
REMARK SMILES IDX 10 13 7 14 85 15 80 16 2 17 1 18 81 19 82 20 83 21 84 22
REMARK SMILES IDX 17 23 18 24 19 25 20 26 21 27 79 28 22 29 78 30 23 31 24 32
REMARK SMILES IDX 25 33 72 34 26 35 77 36 71 37 73 38 27 39 76 40 70 41 69 42
REMARK SMILES IDX 28 44 58 45 39 46 57 47 40 48 43 49 56 50 74 51 41 52 42 53
REMARK SMILES IDX 55 55 75 56 44 57 29 58 30 59 38 60 31 61 37 62 32 63 33 64
REMARK SMILES IDX 34 65 35 66 36 67 59 68 60 69 68 70 61 71 67 72 62 73 63 74
REMARK SMILES IDX 64 75 65 76 66 77 45 78 46 79 54 80 47 81 53 82 48 83 49 84
REMARK SMILES IDX 50 85 51 86 52 87
REMARK H PARENT 73 43 43 54
REMARK Flexibility Score: inf
ROOT
ATOM      1  C   UNL A   1      33.032  29.446  25.855  1.00  0.00     0.275 C 
ENDROOT
BRANCH   1   2
ATOM      2  C   UNL A   1      32.846  28.145  25.073  1.00  0.00     0.275 C 
BRANCH   2   3
ATOM      3  O   UNL A   1      33.135  26.989  25.890  1.00  0.00    -0.459 OA
BRANCH   3   4
ATOM      4  C   UNL A   1      32.059  26.274  26.294  1.00  0.00     0.338 C 
ATOM      5  O   UNL A   1      31.078  26.705  26.879  1.00  0.00    -0.246 OA
BRANCH   4   6
ATOM      6  C   UNL A   1      32.209  24.853  25.918  1.00  0.00     0.087 C 
ATOM      7  C   UNL A   1      34.920  22.306  25.634  1.00  0.00    -0.019 A 
ATOM      8  C   UNL A   1      35.052  21.019  25.075  1.00  0.00     0.045 A 
ATOM      9  C   UNL A   1      33.643  22.930  25.581  1.00  0.00     0.022 A 
ATOM     10  Cl  UNL A   1      36.563  20.177  25.014  1.00  0.00    -0.084 Cl
ATOM     11  C   UNL A   1      33.950  20.360  24.524  1.00  0.00     0.024 A 
ATOM     12  C   UNL A   1      32.546  22.251  25.031  1.00  0.00     0.128 A 
ATOM     13  C   UNL A   1      33.412  24.287  26.062  1.00  0.00     0.027 C 
ATOM     14  C   UNL A   1      32.699  20.968  24.514  1.00  0.00     0.048 A 
ATOM     15  O   UNL A   1      31.273  22.753  24.978  1.00  0.00    -0.475 OA
ATOM     16  C   UNL A   1      31.057  24.159  25.264  1.00  0.00     0.316 C 
BRANCH   7  17
ATOM     17  C   UNL A   1      36.121  22.996  26.264  1.00  0.00     0.034 C 
ATOM     18  C   UNL A   1      36.983  23.733  25.247  1.00  0.00     0.009 C 
ENDBRANCH   7  17
BRANCH  16  19
ATOM     19  C   UNL A   1      30.636  24.877  23.972  1.00  0.00     0.430 C 
ATOM     20  F   UNL A   1      31.710  25.389  23.321  1.00  0.00    -0.167 F 
ATOM     21  F   UNL A   1      30.032  24.029  23.103  1.00  0.00    -0.167 F 
ATOM     22  F   UNL A   1      29.780  25.897  24.204  1.00  0.00    -0.167 F 
ENDBRANCH  16  19
ENDBRANCH   4   6
ENDBRANCH   3   4
ENDBRANCH   2   3
ENDBRANCH   1   2
BRANCH   1  23
ATOM     23  O   UNL A   1      33.860  29.225  27.010  1.00  0.00    -0.458 OA
BRANCH  23  24
ATOM     24  C   UNL A   1      34.301  30.341  27.633  1.00  0.00     0.338 C 
ATOM     25  O   UNL A   1      33.675  31.362  27.858  1.00  0.00    -0.246 OA
BRANCH  24  26
ATOM     26  C   UNL A   1      35.661  30.104  28.137  1.00  0.00     0.060 A 
ATOM     27  C   UNL A   1      35.903  29.511  29.370  1.00  0.00     0.016 A 
ATOM     28  C   UNL A   1      36.717  30.370  27.276  1.00  0.00     0.016 A 
ATOM     29  C   UNL A   1      37.224  29.201  29.729  1.00  0.00     0.010 A 
ATOM     30  C   UNL A   1      38.001  29.932  27.574  1.00  0.00     0.010 A 
ATOM     31  C   UNL A   1      38.290  29.372  28.819  1.00  0.00    -0.014 A 
BRANCH  31  32
ATOM     32  C   UNL A   1      39.694  28.972  29.140  1.00  0.00     0.031 A 
ATOM     33  C   UNL A   1      40.616  29.900  29.906  1.00  0.00     0.074 A 
ATOM     34  C   UNL A   1      40.177  27.796  28.683  1.00  0.00     0.049 A 
ATOM     35  N   UNL A   1      41.869  29.718  30.245  1.00  0.00    -0.248 NA
ATOM     36  C   UNL A   1      40.090  31.220  30.298  1.00  0.00     0.031 C 
ATOM     37  C   UNL A   1      39.442  26.854  27.836  1.00  0.00     0.029 A 
ATOM     38  N   UNL A   1      41.391  27.182  28.878  1.00  0.00    -0.354 N 
ATOM     39  C   UNL A   1      42.277  30.901  30.856  1.00  0.00     0.074 A 
ATOM     40  C   UNL A   1      41.173  31.826  30.762  1.00  0.00     0.031 C 
ATOM     41  C   UNL A   1      40.182  25.749  27.659  1.00  0.00     0.029 A 
ATOM     42  C   UNL A   1      41.465  25.918  28.335  1.00  0.00     0.049 A 
ATOM     43  H   UNL A   1      42.138  27.605  29.360  1.00  0.00     0.167 HD
ATOM     44  C   UNL A   1      43.439  31.178  31.490  1.00  0.00     0.031 A 
ATOM     45  C   UNL A   1      42.438  24.985  28.390  1.00  0.00     0.031 A 
ATOM     46  C   UNL A   1      44.504  30.225  31.658  1.00  0.00     0.049 A 
ATOM     47  C   UNL A   1      43.692  25.279  29.167  1.00  0.00     0.074 A 
ATOM     48  C   UNL A   1      45.678  30.372  32.375  1.00  0.00     0.029 A 
ATOM     49  N   UNL A   1      44.515  28.944  31.128  1.00  0.00    -0.354 N 
ATOM     50  N   UNL A   1      44.016  26.371  29.816  1.00  0.00    -0.248 NA
ATOM     51  C   UNL A   1      44.703  24.213  29.237  1.00  0.00     0.031 C 
ATOM     52  C   UNL A   1      46.422  29.201  32.237  1.00  0.00     0.029 A 
ATOM     53  C   UNL A   1      45.681  28.296  31.493  1.00  0.00     0.049 A 
ATOM     54  H   UNL A   1      43.800  28.554  30.574  1.00  0.00     0.167 HD
ATOM     55  C   UNL A   1      45.257  26.118  30.390  1.00  0.00     0.074 A 
ATOM     56  C   UNL A   1      45.619  24.763  30.026  1.00  0.00     0.031 C 
ATOM     57  C   UNL A   1      46.026  26.940  31.143  1.00  0.00     0.031 A 
BRANCH  44  58
ATOM     58  C   UNL A   1      43.611  32.537  32.128  1.00  0.00    -0.014 A 
ATOM     59  C   UNL A   1      43.151  32.768  33.439  1.00  0.00     0.010 A 
ATOM     60  C   UNL A   1      44.107  33.623  31.382  1.00  0.00     0.010 A 
ATOM     61  C   UNL A   1      43.157  34.059  33.979  1.00  0.00     0.020 A 
ATOM     62  C   UNL A   1      44.149  34.907  31.931  1.00  0.00     0.020 A 
ATOM     63  C   UNL A   1      43.647  35.122  33.216  1.00  0.00     0.054 A 
BRANCH  63  64
ATOM     64  S   UNL A   1      43.616  36.797  33.913  1.00  0.00     0.124 S 
ATOM     65  O   UNL A   1      44.738  36.762  34.846  1.00  0.00    -0.237 OA
ATOM     66  O   UNL A   1      43.798  37.639  32.734  1.00  0.00    -0.237 OA
ATOM     67  O   UNL A   1      42.293  36.884  34.530  1.00  0.00    -0.744 OA
ENDBRANCH  63  64
ENDBRANCH  44  58
BRANCH  45  68
ATOM     68  C   UNL A   1      42.199  23.653  27.766  1.00  0.00    -0.014 A 
ATOM     69  C   UNL A   1      41.590  22.613  28.493  1.00  0.00     0.010 A 
ATOM     70  C   UNL A   1      42.680  23.386  26.472  1.00  0.00     0.010 A 
ATOM     71  C   UNL A   1      41.524  21.320  27.965  1.00  0.00     0.020 A 
ATOM     72  C   UNL A   1      42.588  22.101  25.926  1.00  0.00     0.020 A 
ATOM     73  C   UNL A   1      42.040  21.069  26.691  1.00  0.00     0.054 A 
BRANCH  73  74
ATOM     74  S   UNL A   1      42.013  19.369  26.055  1.00  0.00     0.124 S 
ATOM     75  O   UNL A   1      42.507  18.614  27.204  1.00  0.00    -0.237 OA
ATOM     76  O   UNL A   1      40.603  19.173  25.731  1.00  0.00    -0.237 OA
ATOM     77  O   UNL A   1      42.912  19.419  24.906  1.00  0.00    -0.744 OA
ENDBRANCH  73  74
ENDBRANCH  45  68
BRANCH  57  78
ATOM     78  C   UNL A   1      47.346  26.426  31.657  1.00  0.00    -0.014 A 
ATOM     79  C   UNL A   1      48.474  26.449  30.815  1.00  0.00     0.010 A 
ATOM     80  C   UNL A   1      47.424  25.762  32.893  1.00  0.00     0.010 A 
ATOM     81  C   UNL A   1      49.640  25.769  31.174  1.00  0.00     0.020 A 
ATOM     82  C   UNL A   1      48.600  25.107  33.269  1.00  0.00     0.020 A 
ATOM     83  C   UNL A   1      49.688  25.087  32.393  1.00  0.00     0.054 A 
BRANCH  83  84
ATOM     84  S   UNL A   1      51.183  24.148  32.808  1.00  0.00     0.124 S 
ATOM     85  O   UNL A   1      51.341  24.436  34.231  1.00  0.00    -0.237 OA
ATOM     86  O   UNL A   1      50.800  22.776  32.482  1.00  0.00    -0.237 OA
ATOM     87  O   UNL A   1      52.204  24.725  31.936  1.00  0.00    -0.744 OA
ENDBRANCH  83  84
ENDBRANCH  57  78
ENDBRANCH  31  32
ENDBRANCH  24  26
ENDBRANCH  23  24
ENDBRANCH   1  23
TORSDOF 16
ENDMDL
MODEL 2
REMARK VINA RESULT:     -10.8      4.534     10.360
REMARK SMILES CCc1c(Cl)ccc2c1C=C(C(=O)OCCOC(=O)c1ccc(-c3c4nc(c(-c5ccc(S(=O)(=O)[O-])cc5)c5ccc([nH]5)c(-c5ccc(S(=O)(=O)[O-])cc5)c5nc(c(-c6ccc(S(=O)(=O)[O-])cc6)c6ccc3[nH]6)C=C5)C=C4)cc1)[C@@H](C(F)(F)F)O2
REMARK SMILES IDX 16 1 15 2 14 3 12 4 13 5 11 6 3 7 4 8 9 9 5 10 6 11 8 12
REMARK SMILES IDX 10 13 7 14 85 15 80 16 2 17 1 18 81 19 82 20 83 21 84 22
REMARK SMILES IDX 17 23 18 24 19 25 20 26 21 27 79 28 22 29 78 30 23 31 24 32
REMARK SMILES IDX 25 33 72 34 26 35 77 36 71 37 73 38 27 39 76 40 70 41 69 42
REMARK SMILES IDX 28 44 58 45 39 46 57 47 40 48 43 49 56 50 74 51 41 52 42 53
REMARK SMILES IDX 55 55 75 56 44 57 29 58 30 59 38 60 31 61 37 62 32 63 33 64
REMARK SMILES IDX 34 65 35 66 36 67 59 68 60 69 68 70 61 71 67 72 62 73 63 74
REMARK SMILES IDX 64 75 65 76 66 77 45 78 46 79 54 80 47 81 53 82 48 83 49 84
REMARK SMILES IDX 50 85 51 86 52 87
REMARK H PARENT 73 43 43 54
REMARK Flexibility Score: inf
ROOT
ATOM      1  C   UNL A   1      39.522  23.039  26.427  1.00  0.00     0.275 C 
ENDROOT
BRANCH   1   2
ATOM      2  C   UNL A   1      38.374  22.327  25.710  1.00  0.00     0.275 C 
BRANCH   2   3
ATOM      3  O   UNL A   1      37.314  23.245  25.363  1.00  0.00    -0.459 OA
BRANCH   3   4
ATOM      4  C   UNL A   1      36.558  22.891  24.298  1.00  0.00     0.338 C 
ATOM      5  O   UNL A   1      36.958  22.407  23.251  1.00  0.00    -0.246 OA
BRANCH   4   6
ATOM      6  C   UNL A   1      35.129  23.156  24.565  1.00  0.00     0.087 C 
ATOM      7  C   UNL A   1      32.989  25.939  25.827  1.00  0.00    -0.019 A 
ATOM      8  C   UNL A   1      31.655  26.080  26.260  1.00  0.00     0.045 A 
ATOM      9  C   UNL A   1      33.403  24.667  25.343  1.00  0.00     0.022 A 
ATOM     10  Cl  UNL A   1      31.042  27.552  26.933  1.00  0.00    -0.084 Cl
ATOM     11  C   UNL A   1      30.757  25.014  26.175  1.00  0.00     0.024 A 
ATOM     12  C   UNL A   1      32.486  23.609  25.257  1.00  0.00     0.128 A 
ATOM     13  C   UNL A   1      34.777  24.390  24.940  1.00  0.00     0.027 C 
ATOM     14  C   UNL A   1      31.167  23.787  25.663  1.00  0.00     0.048 A 
ATOM     15  O   UNL A   1      32.782  22.367  24.763  1.00  0.00    -0.475 OA
ATOM     16  C   UNL A   1      34.171  22.008  24.543  1.00  0.00     0.316 C 
BRANCH   7  17
ATOM     17  C   UNL A   1      33.947  27.120  25.892  1.00  0.00     0.034 C 
ATOM     18  C   UNL A   1      33.792  28.075  24.715  1.00  0.00     0.009 C 
ENDBRANCH   7  17
BRANCH  16  19
ATOM     19  C   UNL A   1      34.578  20.925  25.556  1.00  0.00     0.430 C 
ATOM     20  F   UNL A   1      34.913  21.471  26.752  1.00  0.00    -0.167 F 
ATOM     21  F   UNL A   1      33.560  20.064  25.801  1.00  0.00    -0.167 F 
ATOM     22  F   UNL A   1      35.633  20.195  25.134  1.00  0.00    -0.167 F 
ENDBRANCH  16  19
ENDBRANCH   4   6
ENDBRANCH   3   4
ENDBRANCH   2   3
ENDBRANCH   1   2
BRANCH   1  23
ATOM     23  O   UNL A   1      39.198  24.424  26.643  1.00  0.00    -0.458 OA
BRANCH  23  24
ATOM     24  C   UNL A   1      40.217  25.296  26.461  1.00  0.00     0.338 C 
ATOM     25  O   UNL A   1      40.878  25.464  25.451  1.00  0.00    -0.246 OA
BRANCH  24  26
ATOM     26  C   UNL A   1      40.346  26.139  27.656  1.00  0.00     0.060 A 
ATOM     27  C   UNL A   1      41.168  27.259  27.690  1.00  0.00     0.016 A 
ATOM     28  C   UNL A   1      39.508  25.862  28.728  1.00  0.00     0.016 A 
ATOM     29  C   UNL A   1      41.144  28.088  28.822  1.00  0.00     0.010 A 
ATOM     30  C   UNL A   1      39.383  26.761  29.780  1.00  0.00     0.010 A 
ATOM     31  C   UNL A   1      40.222  27.872  29.869  1.00  0.00    -0.014 A 
BRANCH  31  32
ATOM     32  C   UNL A   1      40.113  28.786  31.047  1.00  0.00     0.031 A 
ATOM     33  C   UNL A   1      41.069  28.671  32.217  1.00  0.00     0.074 A 
ATOM     34  C   UNL A   1      39.106  29.684  31.107  1.00  0.00     0.049 A 
ATOM     35  N   UNL A   1      41.098  29.368  33.327  1.00  0.00    -0.248 NA
ATOM     36  C   UNL A   1      42.092  27.611  32.166  1.00  0.00     0.031 C 
ATOM     37  C   UNL A   1      38.043  29.830  30.110  1.00  0.00     0.029 A 
ATOM     38  N   UNL A   1      38.817  30.656  32.036  1.00  0.00    -0.354 N 
ATOM     39  C   UNL A   1      42.110  28.811  34.103  1.00  0.00     0.074 A 
ATOM     40  C   UNL A   1      42.612  27.665  33.383  1.00  0.00     0.031 C 
ATOM     41  C   UNL A   1      37.276  30.882  30.432  1.00  0.00     0.029 A 
ATOM     42  C   UNL A   1      37.755  31.459  31.684  1.00  0.00     0.049 A 
ATOM     43  H   UNL A   1      39.321  30.767  32.874  1.00  0.00     0.167 HD
ATOM     44  C   UNL A   1      42.621  29.243  35.280  1.00  0.00     0.031 A 
ATOM     45  C   UNL A   1      37.235  32.552  32.280  1.00  0.00     0.031 A 
ATOM     46  C   UNL A   1      42.177  30.434  35.953  1.00  0.00     0.049 A 
ATOM     47  C   UNL A   1      37.864  33.067  33.545  1.00  0.00     0.074 A 
ATOM     48  C   UNL A   1      42.699  31.016  37.095  1.00  0.00     0.029 A 
ATOM     49  N   UNL A   1      41.128  31.238  35.535  1.00  0.00    -0.354 N 
ATOM     50  N   UNL A   1      38.882  32.577  34.211  1.00  0.00    -0.248 NA
ATOM     51  C   UNL A   1      37.291  34.288  34.131  1.00  0.00     0.031 C 
ATOM     52  C   UNL A   1      41.934  32.143  37.397  1.00  0.00     0.029 A 
ATOM     53  C   UNL A   1      40.980  32.305  36.405  1.00  0.00     0.049 A 
ATOM     54  H   UNL A   1      40.571  31.076  34.740  1.00  0.00     0.167 HD
ATOM     55  C   UNL A   1      39.085  33.441  35.282  1.00  0.00     0.074 A 
ATOM     56  C   UNL A   1      38.097  34.493  35.166  1.00  0.00     0.031 C 
ATOM     57  C   UNL A   1      40.006  33.360  36.272  1.00  0.00     0.031 A 
BRANCH  44  58
ATOM     58  C   UNL A   1      43.772  28.481  35.894  1.00  0.00    -0.014 A 
ATOM     59  C   UNL A   1      45.098  28.779  35.523  1.00  0.00     0.010 A 
ATOM     60  C   UNL A   1      43.536  27.380  36.739  1.00  0.00     0.010 A 
ATOM     61  C   UNL A   1      46.158  27.976  35.959  1.00  0.00     0.020 A 
ATOM     62  C   UNL A   1      44.595  26.598  37.207  1.00  0.00     0.020 A 
ATOM     63  C   UNL A   1      45.897  26.884  36.791  1.00  0.00     0.054 A 
BRANCH  63  64
ATOM     64  S   UNL A   1      47.275  25.830  37.320  1.00  0.00     0.124 S 
ATOM     65  O   UNL A   1      46.922  25.535  38.705  1.00  0.00    -0.237 OA
ATOM     66  O   UNL A   1      47.193  24.705  36.392  1.00  0.00    -0.237 OA
ATOM     67  O   UNL A   1      48.447  26.687  37.143  1.00  0.00    -0.744 OA
ENDBRANCH  63  64
ENDBRANCH  44  58
BRANCH  45  68
ATOM     68  C   UNL A   1      36.118  33.278  31.611  1.00  0.00    -0.014 A 
ATOM     69  C   UNL A   1      36.195  33.627  30.250  1.00  0.00     0.010 A 
ATOM     70  C   UNL A   1      35.015  33.719  32.365  1.00  0.00     0.010 A 
ATOM     71  C   UNL A   1      35.226  34.454  29.672  1.00  0.00     0.020 A 
ATOM     72  C   UNL A   1      34.027  34.521  31.784  1.00  0.00     0.020 A 
ATOM     73  C   UNL A   1      34.157  34.911  30.448  1.00  0.00     0.054 A 
BRANCH  73  74
ATOM     74  S   UNL A   1      32.954  36.043  29.700  1.00  0.00     0.124 S 
ATOM     75  O   UNL A   1      32.383  35.214  28.641  1.00  0.00    -0.237 OA
ATOM     76  O   UNL A   1      32.062  36.344  30.815  1.00  0.00    -0.237 OA
ATOM     77  O   UNL A   1      33.775  37.162  29.243  1.00  0.00    -0.744 OA
ENDBRANCH  73  74
ENDBRANCH  45  68
BRANCH  57  78
ATOM     78  C   UNL A   1      40.028  34.433  37.329  1.00  0.00    -0.014 A 
ATOM     79  C   UNL A   1      39.181  34.321  38.449  1.00  0.00     0.010 A 
ATOM     80  C   UNL A   1      40.742  35.626  37.125  1.00  0.00     0.010 A 
ATOM     81  C   UNL A   1      39.005  35.403  39.315  1.00  0.00     0.020 A 
ATOM     82  C   UNL A   1      40.592  36.699  38.008  1.00  0.00     0.020 A 
ATOM     83  C   UNL A   1      39.700  36.592  39.078  1.00  0.00     0.054 A 
BRANCH  83  84
ATOM     84  S   UNL A   1      39.402  38.009  40.169  1.00  0.00     0.124 S 
ATOM     85  O   UNL A   1      39.239  37.366  41.470  1.00  0.00    -0.237 OA
ATOM     86  O   UNL A   1      40.620  38.800  40.006  1.00  0.00    -0.237 OA
ATOM     87  O   UNL A   1      38.194  38.619  39.618  1.00  0.00    -0.744 OA
ENDBRANCH  83  84
ENDBRANCH  57  78
ENDBRANCH  31  32
ENDBRANCH  24  26
ENDBRANCH  23  24
ENDBRANCH   1  23
TORSDOF 16
ENDMDL
MODEL 3
REMARK VINA RESULT:     -10.8      5.197     10.586
REMARK SMILES CCc1c(Cl)ccc2c1C=C(C(=O)OCCOC(=O)c1ccc(-c3c4nc(c(-c5ccc(S(=O)(=O)[O-])cc5)c5ccc([nH]5)c(-c5ccc(S(=O)(=O)[O-])cc5)c5nc(c(-c6ccc(S(=O)(=O)[O-])cc6)c6ccc3[nH]6)C=C5)C=C4)cc1)[C@@H](C(F)(F)F)O2
REMARK SMILES IDX 16 1 15 2 14 3 12 4 13 5 11 6 3 7 4 8 9 9 5 10 6 11 8 12
REMARK SMILES IDX 10 13 7 14 85 15 80 16 2 17 1 18 81 19 82 20 83 21 84 22
REMARK SMILES IDX 17 23 18 24 19 25 20 26 21 27 79 28 22 29 78 30 23 31 24 32
REMARK SMILES IDX 25 33 72 34 26 35 77 36 71 37 73 38 27 39 76 40 70 41 69 42
REMARK SMILES IDX 28 44 58 45 39 46 57 47 40 48 43 49 56 50 74 51 41 52 42 53
REMARK SMILES IDX 55 55 75 56 44 57 29 58 30 59 38 60 31 61 37 62 32 63 33 64
REMARK SMILES IDX 34 65 35 66 36 67 59 68 60 69 68 70 61 71 67 72 62 73 63 74
REMARK SMILES IDX 64 75 65 76 66 77 45 78 46 79 54 80 47 81 53 82 48 83 49 84
REMARK SMILES IDX 50 85 51 86 52 87
REMARK H PARENT 73 43 43 54
REMARK Flexibility Score: inf
ROOT
ATOM      1  C   UNL A   1      33.650  33.654  28.127  1.00  0.00     0.275 C 
ENDROOT
BRANCH   1   2
ATOM      2  C   UNL A   1      34.513  34.746  28.762  1.00  0.00     0.275 C 
BRANCH   2   3
ATOM      3  O   UNL A   1      34.350  34.783  30.197  1.00  0.00    -0.459 OA
BRANCH   3   4
ATOM      4  C   UNL A   1      34.837  33.715  30.871  1.00  0.00     0.338 C 
ATOM      5  O   UNL A   1      34.424  32.568  30.809  1.00  0.00    -0.246 OA
BRANCH   4   6
ATOM      6  C   UNL A   1      35.984  34.111  31.713  1.00  0.00     0.087 C 
ATOM      7  C   UNL A   1      39.710  33.963  31.612  1.00  0.00    -0.019 A 
ATOM      8  C   UNL A   1      40.761  34.167  32.529  1.00  0.00     0.045 A 
ATOM      9  C   UNL A   1      38.380  34.197  32.058  1.00  0.00     0.022 A 
ATOM     10  Cl  UNL A   1      42.418  33.855  32.135  1.00  0.00    -0.084 Cl
ATOM     11  C   UNL A   1      40.506  34.625  33.823  1.00  0.00     0.024 A 
ATOM     12  C   UNL A   1      38.141  34.664  33.359  1.00  0.00     0.128 A 
ATOM     13  C   UNL A   1      37.216  33.947  31.218  1.00  0.00     0.027 C 
ATOM     14  C   UNL A   1      39.202  34.886  34.232  1.00  0.00     0.048 A 
ATOM     15  O   UNL A   1      36.902  34.958  33.860  1.00  0.00    -0.475 OA
ATOM     16  C   UNL A   1      35.724  34.536  33.123  1.00  0.00     0.316 C 
BRANCH   7  17
ATOM     17  C   UNL A   1      40.007  33.499  30.193  1.00  0.00     0.034 C 
ATOM     18  C   UNL A   1      40.239  34.654  29.227  1.00  0.00     0.009 C 
ENDBRANCH   7  17
BRANCH  16  19
ATOM     19  C   UNL A   1      35.004  33.433  33.914  1.00  0.00     0.430 C 
ATOM     20  F   UNL A   1      35.506  32.208  33.619  1.00  0.00    -0.167 F 
ATOM     21  F   UNL A   1      35.157  33.596  35.251  1.00  0.00    -0.167 F 
ATOM     22  F   UNL A   1      33.677  33.399  33.660  1.00  0.00    -0.167 F 
ENDBRANCH  16  19
ENDBRANCH   4   6
ENDBRANCH   3   4
ENDBRANCH   2   3
ENDBRANCH   1   2
BRANCH   1  23
ATOM     23  O   UNL A   1      34.444  32.829  27.256  1.00  0.00    -0.458 OA
BRANCH  23  24
ATOM     24  C   UNL A   1      34.338  31.496  27.461  1.00  0.00     0.338 C 
ATOM     25  O   UNL A   1      33.412  30.769  27.147  1.00  0.00    -0.246 OA
BRANCH  24  26
ATOM     26  C   UNL A   1      35.598  30.996  28.026  1.00  0.00     0.060 A 
ATOM     27  C   UNL A   1      36.745  31.777  28.091  1.00  0.00     0.016 A 
ATOM     28  C   UNL A   1      35.578  29.744  28.626  1.00  0.00     0.016 A 
ATOM     29  C   UNL A   1      37.874  31.277  28.758  1.00  0.00     0.010 A 
ATOM     30  C   UNL A   1      36.645  29.314  29.405  1.00  0.00     0.010 A 
ATOM     31  C   UNL A   1      37.828  30.052  29.458  1.00  0.00    -0.014 A 
BRANCH  31  32
ATOM     32  C   UNL A   1      38.985  29.533  30.249  1.00  0.00     0.031 A 
ATOM     33  C   UNL A   1      39.973  28.558  29.641  1.00  0.00     0.074 A 
ATOM     34  C   UNL A   1      39.119  29.880  31.548  1.00  0.00     0.049 A 
ATOM     35  N   UNL A   1      41.017  27.992  30.196  1.00  0.00    -0.248 NA
ATOM     36  C   UNL A   1      39.738  28.117  28.254  1.00  0.00     0.031 C 
ATOM     37  C   UNL A   1      38.181  30.718  32.299  1.00  0.00     0.029 A 
ATOM     38  N   UNL A   1      40.102  29.588  32.463  1.00  0.00    -0.354 N 
ATOM     39  C   UNL A   1      41.533  27.119  29.241  1.00  0.00     0.074 A 
ATOM     40  C   UNL A   1      40.640  27.159  28.107  1.00  0.00     0.031 C 
ATOM     41  C   UNL A   1      38.676  30.944  33.525  1.00  0.00     0.029 A 
ATOM     42  C   UNL A   1      39.941  30.229  33.672  1.00  0.00     0.049 A 
ATOM     43  H   UNL A   1      40.851  28.978  32.274  1.00  0.00     0.167 HD
ATOM     44  C   UNL A   1      42.675  26.393  29.275  1.00  0.00     0.031 A 
ATOM     45  C   UNL A   1      40.726  30.265  34.768  1.00  0.00     0.031 A 
ATOM     46  C   UNL A   1      43.606  26.422  30.371  1.00  0.00     0.049 A 
ATOM     47  C   UNL A   1      42.031  29.518  34.760  1.00  0.00     0.074 A 
ATOM     48  C   UNL A   1      44.842  25.806  30.459  1.00  0.00     0.029 A 
ATOM     49  N   UNL A   1      43.420  27.120  31.554  1.00  0.00    -0.354 N 
ATOM     50  N   UNL A   1      42.543  28.774  33.809  1.00  0.00    -0.248 NA
ATOM     51  C   UNL A   1      42.873  29.625  35.961  1.00  0.00     0.031 C 
ATOM     52  C   UNL A   1      45.381  26.089  31.713  1.00  0.00     0.029 A 
ATOM     53  C   UNL A   1      44.514  26.939  32.382  1.00  0.00     0.049 A 
ATOM     54  H   UNL A   1      42.628  27.663  31.773  1.00  0.00     0.167 HD
ATOM     55  C   UNL A   1      43.775  28.343  34.286  1.00  0.00     0.074 A 
ATOM     56  C   UNL A   1      43.941  28.923  35.603  1.00  0.00     0.031 C 
ATOM     57  C   UNL A   1      44.681  27.535  33.684  1.00  0.00     0.031 A 
BRANCH  44  58
ATOM     58  C   UNL A   1      43.040  25.560  28.069  1.00  0.00    -0.014 A 
ATOM     59  C   UNL A   1      42.699  24.195  28.020  1.00  0.00     0.010 A 
ATOM     60  C   UNL A   1      43.838  26.097  27.040  1.00  0.00     0.010 A 
ATOM     61  C   UNL A   1      43.172  23.379  26.986  1.00  0.00     0.020 A 
ATOM     62  C   UNL A   1      44.281  25.294  25.986  1.00  0.00     0.020 A 
ATOM     63  C   UNL A   1      43.969  23.933  25.981  1.00  0.00     0.054 A 
BRANCH  63  64
ATOM     64  S   UNL A   1      44.605  22.857  24.666  1.00  0.00     0.124 S 
ATOM     65  O   UNL A   1      43.405  22.589  23.881  1.00  0.00    -0.237 OA
ATOM     66  O   UNL A   1      45.609  23.700  24.021  1.00  0.00    -0.237 OA
ATOM     67  O   UNL A   1      45.144  21.711  25.395  1.00  0.00    -0.744 OA
ENDBRANCH  63  64
ENDBRANCH  44  58
BRANCH  45  68
ATOM     68  C   UNL A   1      40.326  31.129  35.916  1.00  0.00    -0.014 A 
ATOM     69  C   UNL A   1      39.043  31.030  36.483  1.00  0.00     0.010 A 
ATOM     70  C   UNL A   1      41.197  32.134  36.376  1.00  0.00     0.010 A 
ATOM     71  C   UNL A   1      38.615  31.955  37.440  1.00  0.00     0.020 A 
ATOM     72  C   UNL A   1      40.785  33.042  37.356  1.00  0.00     0.020 A 
ATOM     73  C   UNL A   1      39.484  32.967  37.858  1.00  0.00     0.054 A 
BRANCH  73  74
ATOM     74  S   UNL A   1      38.883  34.201  39.044  1.00  0.00     0.124 S 
ATOM     75  O   UNL A   1      39.864  34.083  40.120  1.00  0.00    -0.237 OA
ATOM     76  O   UNL A   1      38.939  35.439  38.273  1.00  0.00    -0.237 OA
ATOM     77  O   UNL A   1      37.538  33.734  39.372  1.00  0.00    -0.744 OA
ENDBRANCH  73  74
ENDBRANCH  45  68
BRANCH  57  78
ATOM     78  C   UNL A   1      45.960  27.213  34.413  1.00  0.00    -0.014 A 
ATOM     79  C   UNL A   1      47.165  27.811  33.998  1.00  0.00     0.010 A 
ATOM     80  C   UNL A   1      45.997  26.192  35.378  1.00  0.00     0.010 A 
ATOM     81  C   UNL A   1      48.389  27.357  34.492  1.00  0.00     0.020 A 
ATOM     82  C   UNL A   1      47.219  25.756  35.898  1.00  0.00     0.020 A 
ATOM     83  C   UNL A   1      48.408  26.319  35.428  1.00  0.00     0.054 A 
BRANCH  83  84
ATOM     84  S   UNL A   1      50.010  25.692  36.002  1.00  0.00     0.124 S 
ATOM     85  O   UNL A   1      49.712  25.301  37.376  1.00  0.00    -0.237 OA
ATOM     86  O   UNL A   1      50.273  24.591  35.077  1.00  0.00    -0.237 OA
ATOM     87  O   UNL A   1      50.900  26.841  35.858  1.00  0.00    -0.744 OA
ENDBRANCH  83  84
ENDBRANCH  57  78
ENDBRANCH  31  32
ENDBRANCH  24  26
ENDBRANCH  23  24
ENDBRANCH   1  23
TORSDOF 16
ENDMDL
