MODEL 1
REMARK VINA RESULT:     -11.1      0.000      0.000
REMARK SMILES CC1(C)[C@@H](C(=O)OCCOC(=O)c2ccc(-c3c4nc(c(-c5ccc(S(=O)(=O)[O-])cc5)c5ccc([nH]5)c(-c5ccc(S(=O)(=O)[O-])cc5)c5nc(c(-c6ccc(S(=O)(=O)[O-])cc6)c6ccc3[nH]6)C=C5)C=C4)cc2)CC[C@@]1(C)C(N)=O
REMARK SMILES IDX 9 1 8 2 7 3 5 4 6 5 4 6 1 7 2 8 3 9 75 10 73 11 74 12 76 13
REMARK SMILES IDX 77 14 78 15 79 16 10 19 11 20 12 21 13 22 14 23 72 24 15 25
REMARK SMILES IDX 71 26 16 27 17 28 18 29 65 30 19 31 70 32 64 33 66 34 20 35
REMARK SMILES IDX 69 36 63 37 62 38 21 40 51 41 32 42 50 43 33 44 36 45 49 46
REMARK SMILES IDX 67 47 34 48 35 49 48 51 68 52 37 53 22 54 23 55 31 56 24 57
REMARK SMILES IDX 30 58 25 59 26 60 27 61 28 62 29 63 52 64 53 65 61 66 54 67
REMARK SMILES IDX 60 68 55 69 56 70 57 71 58 72 59 73 38 74 39 75 47 76 40 77
REMARK SMILES IDX 46 78 41 79 42 80 43 81 44 82 45 83
REMARK H PARENT 78 17 78 18 66 39 36 50
REMARK Flexibility Score: inf
ROOT
ATOM      1  C   UNL A   1      33.969  30.905  27.390  1.00  0.00     0.275 C 
ENDROOT
BRANCH   1   2
ATOM      2  C   UNL A   1      32.855  30.029  26.822  1.00  0.00     0.274 C 
BRANCH   2   3
ATOM      3  O   UNL A   1      32.834  30.049  25.368  1.00  0.00    -0.462 OA
BRANCH   3   4
ATOM      4  C   UNL A   1      32.999  28.822  24.798  1.00  0.00     0.309 C 
ATOM      5  O   UNL A   1      33.914  28.579  24.017  1.00  0.00    -0.252 OA
BRANCH   4   6
ATOM      6  C   UNL A   1      31.844  27.846  25.062  1.00  0.00     0.106 C 
ATOM      7  C   UNL A   1      33.116  25.674  25.690  1.00  0.00     0.013 C 
ATOM      8  C   UNL A   1      31.930  26.284  24.945  1.00  0.00    -0.008 C 
ATOM      9  C   UNL A   1      30.690  25.745  25.758  1.00  0.00     0.013 C 
ATOM     10  C   UNL A   1      31.801  25.945  23.343  1.00  0.00     0.052 C 
ATOM     11  C   UNL A   1      30.720  28.164  24.067  1.00  0.00     0.017 C 
ATOM     12  C   UNL A   1      30.845  27.152  22.918  1.00  0.00     0.018 C 
ATOM     13  C   UNL A   1      30.872  24.674  23.144  1.00  0.00     0.022 C 
BRANCH  10  14
ATOM     14  C   UNL A   1      33.373  25.242  22.643  1.00  0.00     0.223 C 
ATOM     15  N   UNL A   1      34.292  23.589  23.101  1.00  0.00    -0.369 N 
ATOM     16  O   UNL A   1      33.751  26.105  21.794  1.00  0.00    -0.275 OA
ATOM     17  H   UNL A   1      33.910  22.986  23.778  1.00  0.00     0.159 HD
ATOM     18  H   UNL A   1      35.138  23.358  22.655  1.00  0.00     0.159 HD
ENDBRANCH  10  14
ENDBRANCH   4   6
ENDBRANCH   3   4
ENDBRANCH   2   3
ENDBRANCH   1   2
BRANCH   1  19
ATOM     19  O   UNL A   1      34.812  30.094  28.219  1.00  0.00    -0.458 OA
BRANCH  19  20
ATOM     20  C   UNL A   1      35.527  30.830  29.090  1.00  0.00     0.338 C 
ATOM     21  O   UNL A   1      35.108  31.720  29.813  1.00  0.00    -0.246 OA
BRANCH  20  22
ATOM     22  C   UNL A   1      36.922  30.410  29.140  1.00  0.00     0.060 A 
ATOM     23  C   UNL A   1      37.983  30.325  30.631  1.00  0.00     0.016 A 
ATOM     24  C   UNL A   1      37.607  30.065  27.496  1.00  0.00     0.016 A 
ATOM     25  C   UNL A   1      39.797  29.932  30.429  1.00  0.00     0.010 A 
ATOM     26  C   UNL A   1      39.369  29.636  27.305  1.00  0.00     0.010 A 
ATOM     27  C   UNL A   1      40.474  29.589  28.753  1.00  0.00    -0.014 A 
BRANCH  27  28
ATOM     28  C   UNL A   1      41.868  29.098  28.527  1.00  0.00     0.031 A 
ATOM     29  C   UNL A   1      43.046  30.051  28.585  1.00  0.00     0.074 A 
ATOM     30  C   UNL A   1      42.070  27.818  28.152  1.00  0.00     0.049 A 
ATOM     31  N   UNL A   1      44.276  29.869  28.165  1.00  0.00    -0.248 NA
ATOM     32  C   UNL A   1      42.808  31.402  29.117  1.00  0.00     0.031 C 
ATOM     33  C   UNL A   1      41.027  26.814  27.943  1.00  0.00     0.029 A 
ATOM     34  N   UNL A   1      43.228  27.132  27.876  1.00  0.00    -0.354 N 
ATOM     35  C   UNL A   1      44.918  31.100  28.298  1.00  0.00     0.074 A 
ATOM     36  C   UNL A   1      43.934  32.029  28.801  1.00  0.00     0.031 C 
ATOM     37  C   UNL A   1      41.587  25.623  27.707  1.00  0.00     0.029 A 
ATOM     38  C   UNL A   1      43.024  25.802  27.583  1.00  0.00     0.049 A 
ATOM     39  H   UNL A   1      44.119  27.551  27.886  1.00  0.00     0.167 HD
ATOM     40  C   UNL A   1      46.211  31.423  28.042  1.00  0.00     0.031 A 
ATOM     41  C   UNL A   1      43.876  24.833  27.199  1.00  0.00     0.031 A 
ATOM     42  C   UNL A   1      47.203  30.457  27.637  1.00  0.00     0.049 A 
ATOM     43  C   UNL A   1      45.315  25.192  26.993  1.00  0.00     0.074 A 
ATOM     44  C   UNL A   1      48.561  30.645  27.442  1.00  0.00     0.029 A 
ATOM     45  N   UNL A   1      46.949  29.113  27.396  1.00  0.00    -0.354 N 
ATOM     46  N   UNL A   1      45.892  26.364  27.120  1.00  0.00    -0.248 NA
ATOM     47  C   UNL A   1      46.213  24.111  26.574  1.00  0.00     0.031 C 
ATOM     48  C   UNL A   1      49.117  29.428  27.036  1.00  0.00     0.029 A 
ATOM     49  C   UNL A   1      48.121  28.465  27.044  1.00  0.00     0.049 A 
ATOM     50  H   UNL A   1      46.065  28.685  27.465  1.00  0.00     0.167 HD
ATOM     51  C   UNL A   1      47.227  26.160  26.804  1.00  0.00     0.074 A 
ATOM     52  C   UNL A   1      47.374  24.747  26.510  1.00  0.00     0.031 C 
ATOM     53  C   UNL A   1      48.238  27.060  26.751  1.00  0.00     0.031 A 
BRANCH  40  54
ATOM     54  C   UNL A   1      46.650  32.865  28.197  1.00  0.00    -0.014 A 
ATOM     55  C   UNL A   1      47.187  33.352  29.403  1.00  0.00     0.010 A 
ATOM     56  C   UNL A   1      46.605  33.730  27.085  1.00  0.00     0.010 A 
ATOM     57  C   UNL A   1      47.634  34.675  29.505  1.00  0.00     0.020 A 
ATOM     58  C   UNL A   1      47.083  35.044  27.171  1.00  0.00     0.020 A 
ATOM     59  C   UNL A   1      47.583  35.512  28.386  1.00  0.00     0.054 A 
BRANCH  59  60
ATOM     60  S   UNL A   1      48.225  37.205  28.534  1.00  0.00     0.124 S 
ATOM     61  O   UNL A   1      49.578  37.065  28.003  1.00  0.00    -0.237 OA
ATOM     62  O   UNL A   1      47.301  37.970  27.700  1.00  0.00    -0.237 OA
ATOM     63  O   UNL A   1      48.144  37.485  29.965  1.00  0.00    -0.744 OA
ENDBRANCH  59  60
ENDBRANCH  40  54
BRANCH  41  64
ATOM     64  C   UNL A   1      43.368  23.454  26.956  1.00  0.00    -0.014 A 
ATOM     65  C   UNL A   1      43.301  22.936  25.650  1.00  0.00     0.010 A 
ATOM     66  C   UNL A   1      43.014  22.623  28.036  1.00  0.00     0.010 A 
ATOM     67  C   UNL A   1      42.892  21.616  25.430  1.00  0.00     0.020 A 
ATOM     68  C   UNL A   1      42.645  21.292  27.824  1.00  0.00     0.020 A 
ATOM     69  C   UNL A   1      42.577  20.800  26.521  1.00  0.00     0.054 A 
BRANCH  69  70
ATOM     70  S   UNL A   1      42.130  19.068  26.219  1.00  0.00     0.124 S 
ATOM     71  O   UNL A   1      42.436  18.447  27.503  1.00  0.00    -0.237 OA
ATOM     72  O   UNL A   1      40.712  19.162  25.879  1.00  0.00    -0.237 OA
ATOM     73  O   UNL A   1      43.002  18.679  25.112  1.00  0.00    -0.744 OA
ENDBRANCH  69  70
ENDBRANCH  41  64
BRANCH  53  74
ATOM     74  C   UNL A   1      49.599  26.527  26.400  1.00  0.00    -0.014 A 
ATOM     75  C   UNL A   1      50.085  26.581  25.083  1.00  0.00     0.010 A 
ATOM     76  C   UNL A   1      50.408  25.985  27.414  1.00  0.00     0.010 A 
ATOM     77  C   UNL A   1      51.344  26.060  24.777  1.00  0.00     0.020 A 
ATOM     78  C   UNL A   1      51.680  25.493  27.118  1.00  0.00     0.020 A 
ATOM     79  C   UNL A   1      52.132  25.518  25.797  1.00  0.00     0.054 A 
BRANCH  79  80
ATOM     80  S   UNL A   1      53.771  24.869  25.377  1.00  0.00     0.124 S 
ATOM     81  O   UNL A   1      54.129  25.678  24.216  1.00  0.00    -0.237 OA
ATOM     82  O   UNL A   1      54.541  25.134  26.590  1.00  0.00    -0.237 OA
ATOM     83  O   UNL A   1      53.523  23.455  25.099  1.00  0.00    -0.744 OA
ENDBRANCH  79  80
ENDBRANCH  53  74
ENDBRANCH  27  28
ENDBRANCH  20  22
ENDBRANCH  19  20
ENDBRANCH   1  19
TORSDOF 15
ENDMDL
MODEL 2
REMARK VINA RESULT:     -11.0      6.801     12.525
REMARK SMILES CC1(C)[C@@H](C(=O)OCCOC(=O)c2ccc(-c3c4nc(c(-c5ccc(S(=O)(=O)[O-])cc5)c5ccc([nH]5)c(-c5ccc(S(=O)(=O)[O-])cc5)c5nc(c(-c6ccc(S(=O)(=O)[O-])cc6)c6ccc3[nH]6)C=C5)C=C4)cc2)CC[C@@]1(C)C(N)=O
REMARK SMILES IDX 9 1 8 2 7 3 5 4 6 5 4 6 1 7 2 8 3 9 75 10 73 11 74 12 76 13
REMARK SMILES IDX 77 14 78 15 79 16 10 19 11 20 12 21 13 22 14 23 72 24 15 25
REMARK SMILES IDX 71 26 16 27 17 28 18 29 65 30 19 31 70 32 64 33 66 34 20 35
REMARK SMILES IDX 69 36 63 37 62 38 21 40 51 41 32 42 50 43 33 44 36 45 49 46
REMARK SMILES IDX 67 47 34 48 35 49 48 51 68 52 37 53 22 54 23 55 31 56 24 57
REMARK SMILES IDX 30 58 25 59 26 60 27 61 28 62 29 63 52 64 53 65 61 66 54 67
REMARK SMILES IDX 60 68 55 69 56 70 57 71 58 72 59 73 38 74 39 75 47 76 40 77
REMARK SMILES IDX 46 78 41 79 42 80 43 81 44 82 45 83
REMARK H PARENT 78 17 78 18 66 39 36 50
REMARK Flexibility Score: inf
ROOT
ATOM      1  C   UNL A   1      40.113  21.644  25.857  1.00  0.00     0.275 C 
ENDROOT
BRANCH   1   2
ATOM      2  C   UNL A   1      38.626  21.981  25.924  1.00  0.00     0.274 C 
BRANCH   2   3
ATOM      3  O   UNL A   1      37.837  21.144  25.034  1.00  0.00    -0.462 OA
BRANCH   3   4
ATOM      4  C   UNL A   1      36.493  21.351  25.132  1.00  0.00     0.309 C 
ATOM      5  O   UNL A   1      35.690  20.425  25.189  1.00  0.00    -0.252 OA
BRANCH   4   6
ATOM      6  C   UNL A   1      36.069  22.816  24.966  1.00  0.00     0.106 C 
ATOM      7  C   UNL A   1      34.275  23.064  26.825  1.00  0.00     0.013 C 
ATOM      8  C   UNL A   1      34.684  23.415  25.395  1.00  0.00    -0.008 C 
ATOM      9  C   UNL A   1      34.918  24.974  25.470  1.00  0.00     0.013 C 
ATOM     10  C   UNL A   1      33.632  23.014  24.198  1.00  0.00     0.052 C 
ATOM     11  C   UNL A   1      36.095  23.150  23.469  1.00  0.00     0.017 C 
ATOM     12  C   UNL A   1      34.647  23.043  22.966  1.00  0.00     0.018 C 
ATOM     13  C   UNL A   1      32.680  24.248  23.897  1.00  0.00     0.022 C 
BRANCH  10  14
ATOM     14  C   UNL A   1      32.339  21.809  24.771  1.00  0.00     0.223 C 
ATOM     15  N   UNL A   1      30.940  22.046  26.103  1.00  0.00    -0.369 N 
ATOM     16  O   UNL A   1      32.580  20.754  24.111  1.00  0.00    -0.275 OA
ATOM     17  H   UNL A   1      30.838  22.912  26.560  1.00  0.00     0.159 HD
ATOM     18  H   UNL A   1      30.336  21.300  26.320  1.00  0.00     0.159 HD
ENDBRANCH  10  14
ENDBRANCH   4   6
ENDBRANCH   3   4
ENDBRANCH   2   3
ENDBRANCH   1   2
BRANCH   1  19
ATOM     19  O   UNL A   1      40.770  22.244  26.981  1.00  0.00    -0.458 OA
BRANCH  19  20
ATOM     20  C   UNL A   1      41.353  23.415  26.663  1.00  0.00     0.338 C 
ATOM     21  O   UNL A   1      42.028  23.652  25.673  1.00  0.00    -0.246 OA
BRANCH  20  22
ATOM     22  C   UNL A   1      41.044  24.457  27.634  1.00  0.00     0.060 A 
ATOM     23  C   UNL A   1      39.390  24.859  28.314  1.00  0.00     0.016 A 
ATOM     24  C   UNL A   1      42.489  25.468  28.059  1.00  0.00     0.016 A 
ATOM     25  C   UNL A   1      39.203  26.360  29.408  1.00  0.00     0.010 A 
ATOM     26  C   UNL A   1      42.313  26.906  29.166  1.00  0.00     0.010 A 
ATOM     27  C   UNL A   1      40.680  27.374  29.825  1.00  0.00    -0.014 A 
BRANCH  27  28
ATOM     28  C   UNL A   1      40.646  28.481  30.829  1.00  0.00     0.031 A 
ATOM     29  C   UNL A   1      41.588  28.483  32.017  1.00  0.00     0.074 A 
ATOM     30  C   UNL A   1      39.688  29.428  30.744  1.00  0.00     0.049 A 
ATOM     31  N   UNL A   1      41.534  29.201  33.113  1.00  0.00    -0.248 NA
ATOM     32  C   UNL A   1      42.696  27.514  32.012  1.00  0.00     0.031 C 
ATOM     33  C   UNL A   1      38.640  29.494  29.725  1.00  0.00     0.029 A 
ATOM     34  N   UNL A   1      39.432  30.525  31.530  1.00  0.00    -0.354 N 
ATOM     35  C   UNL A   1      42.533  28.706  33.952  1.00  0.00     0.074 A 
ATOM     36  C   UNL A   1      43.152  27.604  33.254  1.00  0.00     0.031 C 
ATOM     37  C   UNL A   1      37.947  30.630  29.862  1.00  0.00     0.029 A 
ATOM     38  C   UNL A   1      38.387  31.298  31.076  1.00  0.00     0.049 A 
ATOM     39  H   UNL A   1      39.948  30.739  32.341  1.00  0.00     0.167 HD
ATOM     40  C   UNL A   1      42.910  29.141  35.181  1.00  0.00     0.031 A 
ATOM     41  C   UNL A   1      37.796  32.390  31.594  1.00  0.00     0.031 A 
ATOM     42  C   UNL A   1      42.347  30.307  35.817  1.00  0.00     0.049 A 
ATOM     43  C   UNL A   1      38.277  32.899  32.917  1.00  0.00     0.074 A 
ATOM     44  C   UNL A   1      42.714  30.899  37.013  1.00  0.00     0.029 A 
ATOM     45  N   UNL A   1      41.318  31.077  35.291  1.00  0.00    -0.354 N 
ATOM     46  N   UNL A   1      39.217  32.409  33.690  1.00  0.00    -0.248 NA
ATOM     47  C   UNL A   1      37.608  34.091  33.450  1.00  0.00     0.031 C 
ATOM     48  C   UNL A   1      41.876  31.996  37.234  1.00  0.00     0.029 A 
ATOM     49  C   UNL A   1      41.031  32.129  36.143  1.00  0.00     0.049 A 
ATOM     50  H   UNL A   1      40.861  30.900  34.437  1.00  0.00     0.167 HD
ATOM     51  C   UNL A   1      39.261  33.239  34.800  1.00  0.00     0.074 A 
ATOM     52  C   UNL A   1      38.273  34.279  34.581  1.00  0.00     0.031 C 
ATOM     53  C   UNL A   1      40.040  33.146  35.905  1.00  0.00     0.031 A 
BRANCH  40  54
ATOM     54  C   UNL A   1      43.986  28.378  35.928  1.00  0.00    -0.014 A 
ATOM     55  C   UNL A   1      45.348  28.708  35.810  1.00  0.00     0.010 A 
ATOM     56  C   UNL A   1      43.617  27.364  36.835  1.00  0.00     0.010 A 
ATOM     57  C   UNL A   1      46.318  28.022  36.552  1.00  0.00     0.020 A 
ATOM     58  C   UNL A   1      44.579  26.698  37.606  1.00  0.00     0.020 A 
ATOM     59  C   UNL A   1      45.927  27.023  37.449  1.00  0.00     0.054 A 
BRANCH  59  60
ATOM     60  S   UNL A   1      47.202  26.192  38.439  1.00  0.00     0.124 S 
ATOM     61  O   UNL A   1      46.551  24.929  38.776  1.00  0.00    -0.237 OA
ATOM     62  O   UNL A   1      48.318  26.091  37.502  1.00  0.00    -0.237 OA
ATOM     63  O   UNL A   1      47.418  27.100  39.563  1.00  0.00    -0.744 OA
ENDBRANCH  59  60
ENDBRANCH  40  54
BRANCH  41  64
ATOM     64  C   UNL A   1      36.669  33.038  30.866  1.00  0.00    -0.014 A 
ATOM     65  C   UNL A   1      35.351  32.931  31.347  1.00  0.00     0.010 A 
ATOM     66  C   UNL A   1      36.914  33.825  29.724  1.00  0.00     0.010 A 
ATOM     67  C   UNL A   1      34.305  33.599  30.702  1.00  0.00     0.020 A 
ATOM     68  C   UNL A   1      35.879  34.527  29.103  1.00  0.00     0.020 A 
ATOM     69  C   UNL A   1      34.578  34.402  29.590  1.00  0.00     0.054 A 
BRANCH  69  70
ATOM     70  S   UNL A   1      33.219  35.325  28.821  1.00  0.00     0.124 S 
ATOM     71  O   UNL A   1      32.574  34.298  28.011  1.00  0.00    -0.237 OA
ATOM     72  O   UNL A   1      32.460  35.793  29.978  1.00  0.00    -0.237 OA
ATOM     73  O   UNL A   1      33.904  36.377  28.071  1.00  0.00    -0.744 OA
ENDBRANCH  69  70
ENDBRANCH  41  64
BRANCH  53  74
ATOM     74  C   UNL A   1      39.876  34.225  36.939  1.00  0.00    -0.014 A 
ATOM     75  C   UNL A   1      40.539  35.458  36.816  1.00  0.00     0.010 A 
ATOM     76  C   UNL A   1      39.028  34.003  38.037  1.00  0.00     0.010 A 
ATOM     77  C   UNL A   1      40.388  36.437  37.799  1.00  0.00     0.020 A 
ATOM     78  C   UNL A   1      38.849  34.991  39.006  1.00  0.00     0.020 A 
ATOM     79  C   UNL A   1      39.545  36.195  38.889  1.00  0.00     0.054 A 
BRANCH  79  80
ATOM     80  S   UNL A   1      39.351  37.492  40.140  1.00  0.00     0.124 S 
ATOM     81  O   UNL A   1      38.360  38.366  39.520  1.00  0.00    -0.237 OA
ATOM     82  O   UNL A   1      38.888  36.744  41.307  1.00  0.00    -0.237 OA
ATOM     83  O   UNL A   1      40.692  38.059  40.262  1.00  0.00    -0.744 OA
ENDBRANCH  79  80
ENDBRANCH  53  74
ENDBRANCH  27  28
ENDBRANCH  20  22
ENDBRANCH  19  20
ENDBRANCH   1  19
TORSDOF 15
ENDMDL
MODEL 3
REMARK VINA RESULT:     -10.3      5.470     10.015
REMARK SMILES CC1(C)[C@@H](C(=O)OCCOC(=O)c2ccc(-c3c4nc(c(-c5ccc(S(=O)(=O)[O-])cc5)c5ccc([nH]5)c(-c5ccc(S(=O)(=O)[O-])cc5)c5nc(c(-c6ccc(S(=O)(=O)[O-])cc6)c6ccc3[nH]6)C=C5)C=C4)cc2)CC[C@@]1(C)C(N)=O
REMARK SMILES IDX 9 1 8 2 7 3 5 4 6 5 4 6 1 7 2 8 3 9 75 10 73 11 74 12 76 13
REMARK SMILES IDX 77 14 78 15 79 16 10 19 11 20 12 21 13 22 14 23 72 24 15 25
REMARK SMILES IDX 71 26 16 27 17 28 18 29 65 30 19 31 70 32 64 33 66 34 20 35
REMARK SMILES IDX 69 36 63 37 62 38 21 40 51 41 32 42 50 43 33 44 36 45 49 46
REMARK SMILES IDX 67 47 34 48 35 49 48 51 68 52 37 53 22 54 23 55 31 56 24 57
REMARK SMILES IDX 30 58 25 59 26 60 27 61 28 62 29 63 52 64 53 65 61 66 54 67
REMARK SMILES IDX 60 68 55 69 56 70 57 71 58 72 59 73 38 74 39 75 47 76 40 77
REMARK SMILES IDX 46 78 41 79 42 80 43 81 44 82 45 83
REMARK H PARENT 78 17 78 18 66 39 36 50
REMARK Flexibility Score: inf
ROOT
ATOM      1  C   UNL A   1      31.781  29.860  26.205  1.00  0.00     0.275 C 
ENDROOT
BRANCH   1   2
ATOM      2  C   UNL A   1      31.258  29.649  24.786  1.00  0.00     0.274 C 
BRANCH   2   3
ATOM      3  O   UNL A   1      31.344  28.257  24.375  1.00  0.00    -0.462 OA
BRANCH   3   4
ATOM      4  C   UNL A   1      32.335  28.010  23.473  1.00  0.00     0.309 C 
ATOM      5  O   UNL A   1      32.835  28.897  22.788  1.00  0.00    -0.252 OA
BRANCH   4   6
ATOM      6  C   UNL A   1      32.626  26.519  23.252  1.00  0.00     0.106 C 
ATOM      7  C   UNL A   1      30.259  25.478  23.462  1.00  0.00     0.013 C 
ATOM      8  C   UNL A   1      31.746  25.333  23.781  1.00  0.00    -0.008 C 
ATOM      9  C   UNL A   1      32.172  24.088  22.911  1.00  0.00     0.013 C 
ATOM     10  C   UNL A   1      32.155  25.141  25.361  1.00  0.00     0.052 C 
ATOM     11  C   UNL A   1      33.982  26.202  23.895  1.00  0.00     0.017 C 
ATOM     12  C   UNL A   1      33.688  25.578  25.267  1.00  0.00     0.018 C 
ATOM     13  C   UNL A   1      32.251  23.592  25.696  1.00  0.00     0.022 C 
BRANCH  10  14
ATOM     14  C   UNL A   1      30.760  25.579  26.508  1.00  0.00     0.223 C 
ATOM     15  N   UNL A   1      29.037  24.705  26.740  1.00  0.00    -0.369 N 
ATOM     16  O   UNL A   1      31.165  26.618  27.111  1.00  0.00    -0.275 OA
ATOM     17  H   UNL A   1      28.821  23.898  26.219  1.00  0.00     0.159 HD
ATOM     18  H   UNL A   1      28.383  25.070  27.378  1.00  0.00     0.159 HD
ENDBRANCH  10  14
ENDBRANCH   4   6
ENDBRANCH   3   4
ENDBRANCH   2   3
ENDBRANCH   1   2
BRANCH   1  19
ATOM     19  O   UNL A   1      33.087  30.446  26.129  1.00  0.00    -0.458 OA
BRANCH  19  20
ATOM     20  C   UNL A   1      33.245  31.448  27.014  1.00  0.00     0.338 C 
ATOM     21  O   UNL A   1      32.427  32.307  27.302  1.00  0.00    -0.246 OA
BRANCH  20  22
ATOM     22  C   UNL A   1      34.539  31.381  27.683  1.00  0.00     0.060 A 
ATOM     23  C   UNL A   1      35.704  32.771  27.947  1.00  0.00     0.016 A 
ATOM     24  C   UNL A   1      34.991  29.691  28.164  1.00  0.00     0.016 A 
ATOM     25  C   UNL A   1      37.389  32.414  28.668  1.00  0.00     0.010 A 
ATOM     26  C   UNL A   1      36.620  29.351  28.910  1.00  0.00     0.010 A 
ATOM     27  C   UNL A   1      37.830  30.693  29.146  1.00  0.00    -0.014 A 
BRANCH  27  28
ATOM     28  C   UNL A   1      39.083  30.354  29.886  1.00  0.00     0.031 A 
ATOM     29  C   UNL A   1      40.016  29.271  29.380  1.00  0.00     0.074 A 
ATOM     30  C   UNL A   1      39.330  30.934  31.079  1.00  0.00     0.049 A 
ATOM     31  N   UNL A   1      40.994  28.663  30.009  1.00  0.00    -0.248 NA
ATOM     32  C   UNL A   1      39.787  28.750  28.022  1.00  0.00     0.031 C 
ATOM     33  C   UNL A   1      38.469  31.908  31.750  1.00  0.00     0.029 A 
ATOM     34  N   UNL A   1      40.382  30.791  31.950  1.00  0.00    -0.354 N 
ATOM     35  C   UNL A   1      41.425  27.641  29.162  1.00  0.00     0.074 A 
ATOM     36  C   UNL A   1      40.579  27.687  27.993  1.00  0.00     0.031 C 
ATOM     37  C   UNL A   1      39.079  32.372  32.845  1.00  0.00     0.029 A 
ATOM     38  C   UNL A   1      40.302  31.614  33.052  1.00  0.00     0.049 A 
ATOM     39  H   UNL A   1      41.123  30.161  31.802  1.00  0.00     0.167 HD
ATOM     40  C   UNL A   1      42.442  26.759  29.335  1.00  0.00     0.031 A 
ATOM     41  C   UNL A   1      41.081  31.720  34.144  1.00  0.00     0.031 A 
ATOM     42  C   UNL A   1      43.340  26.797  30.463  1.00  0.00     0.049 A 
ATOM     43  C   UNL A   1      42.243  30.786  34.281  1.00  0.00     0.074 A 
ATOM     44  C   UNL A   1      44.461  26.020  30.699  1.00  0.00     0.029 A 
ATOM     45  N   UNL A   1      43.236  27.680  31.530  1.00  0.00    -0.354 N 
ATOM     46  N   UNL A   1      42.623  29.828  33.470  1.00  0.00    -0.248 NA
ATOM     47  C   UNL A   1      43.069  30.931  35.484  1.00  0.00     0.031 C 
ATOM     48  C   UNL A   1      45.006  26.400  31.930  1.00  0.00     0.029 A 
ATOM     49  C   UNL A   1      44.265  27.459  32.429  1.00  0.00     0.049 A 
ATOM     50  H   UNL A   1      42.534  28.362  31.631  1.00  0.00     0.167 HD
ATOM     51  C   UNL A   1      43.741  29.257  34.061  1.00  0.00     0.074 A 
ATOM     52  C   UNL A   1      43.991  30.001  35.281  1.00  0.00     0.031 C 
ATOM     53  C   UNL A   1      44.488  28.208  33.638  1.00  0.00     0.031 A 
BRANCH  40  54
ATOM     54  C   UNL A   1      42.664  25.684  28.290  1.00  0.00    -0.014 A 
ATOM     55  C   UNL A   1      43.513  25.884  27.187  1.00  0.00     0.010 A 
ATOM     56  C   UNL A   1      42.075  24.415  28.462  1.00  0.00     0.010 A 
ATOM     57  C   UNL A   1      43.742  24.857  26.264  1.00  0.00     0.020 A 
ATOM     58  C   UNL A   1      42.328  23.372  27.562  1.00  0.00     0.020 A 
ATOM     59  C   UNL A   1      43.151  23.605  26.459  1.00  0.00     0.054 A 
BRANCH  59  60
ATOM     60  S   UNL A   1      43.514  22.275  25.277  1.00  0.00     0.124 S 
ATOM     61  O   UNL A   1      42.395  21.361  25.493  1.00  0.00    -0.237 OA
ATOM     62  O   UNL A   1      43.511  22.977  23.996  1.00  0.00    -0.237 OA
ATOM     63  O   UNL A   1      44.818  21.774  25.704  1.00  0.00    -0.744 OA
ENDBRANCH  59  60
ENDBRANCH  40  54
BRANCH  41  64
ATOM     64  C   UNL A   1      40.752  32.725  35.193  1.00  0.00    -0.014 A 
ATOM     65  C   UNL A   1      39.938  32.378  36.286  1.00  0.00     0.010 A 
ATOM     66  C   UNL A   1      41.310  34.018  35.143  1.00  0.00     0.010 A 
ATOM     67  C   UNL A   1      39.690  33.302  37.307  1.00  0.00     0.020 A 
ATOM     68  C   UNL A   1      41.098  34.929  36.181  1.00  0.00     0.020 A 
ATOM     69  C   UNL A   1      40.281  34.568  37.253  1.00  0.00     0.054 A 
BRANCH  69  70
ATOM     70  S   UNL A   1      40.014  35.720  38.628  1.00  0.00     0.124 S 
ATOM     71  O   UNL A   1      41.321  35.726  39.277  1.00  0.00    -0.237 OA
ATOM     72  O   UNL A   1      39.641  36.953  37.939  1.00  0.00    -0.237 OA
ATOM     73  O   UNL A   1      38.937  35.095  39.392  1.00  0.00    -0.744 OA
ENDBRANCH  69  70
ENDBRANCH  41  64
BRANCH  53  74
ATOM     74  C   UNL A   1      45.670  27.835  34.489  1.00  0.00    -0.014 A 
ATOM     75  C   UNL A   1      45.559  26.873  35.507  1.00  0.00     0.010 A 
ATOM     76  C   UNL A   1      46.912  28.445  34.246  1.00  0.00     0.010 A 
ATOM     77  C   UNL A   1      46.665  26.558  36.298  1.00  0.00     0.020 A 
ATOM     78  C   UNL A   1      48.029  28.109  35.013  1.00  0.00     0.020 A 
ATOM     79  C   UNL A   1      47.892  27.181  36.047  1.00  0.00     0.054 A 
BRANCH  79  80
ATOM     80  S   UNL A   1      49.318  26.737  37.074  1.00  0.00     0.124 S 
ATOM     81  O   UNL A   1      48.718  25.834  38.052  1.00  0.00    -0.237 OA
ATOM     82  O   UNL A   1      50.223  26.112  36.113  1.00  0.00    -0.237 OA
ATOM     83  O   UNL A   1      49.773  28.020  37.607  1.00  0.00    -0.744 OA
ENDBRANCH  79  80
ENDBRANCH  53  74
ENDBRANCH  27  28
ENDBRANCH  20  22
ENDBRANCH  19  20
ENDBRANCH   1  19
TORSDOF 15
ENDMDL
