MODEL 1
REMARK VINA RESULT:      -9.3      0.000      0.000
REMARK SMILES CCCC[C@H](NC(=O)CC1([NH3+])CCC1)C(=O)OCCOC(=O)c1ccc(-c2c3nc(c(-c4ccc(S(=O)(=O)[O-])cc4)c4ccc([nH]4)c(-c4ccc(S(=O)(=O)[O-])cc4)c4nc(c(-c5ccc(S(=O)(=O)[O-])cc5)c5ccc2[nH]5)C=C4)C=C3)cc1
REMARK SMILES IDX 18 1 17 2 15 3 16 4 5 5 4 6 3 7 2 8 1 9 6 10 7 11 8 13 9 14
REMARK SMILES IDX 10 15 12 16 14 17 13 18 11 19 19 23 20 24 21 25 22 26 23 27
REMARK SMILES IDX 24 28 82 29 25 30 81 31 26 32 27 33 28 34 75 35 29 36 80 37
REMARK SMILES IDX 74 38 76 39 30 40 79 41 73 42 72 43 31 45 61 46 42 47 60 48
REMARK SMILES IDX 43 49 46 50 59 51 77 52 44 53 45 54 58 56 78 57 47 58 32 59
REMARK SMILES IDX 33 60 41 61 34 62 40 63 35 64 36 65 37 66 38 67 39 68 62 69
REMARK SMILES IDX 63 70 71 71 64 72 70 73 65 74 66 75 67 76 68 77 69 78 48 79
REMARK SMILES IDX 49 80 57 81 50 82 56 83 51 84 52 85 53 86 54 87 55 88
REMARK H PARENT 6 12 11 20 11 21 11 22 76 44 46 55
REMARK Flexibility Score: inf
ROOT
ATOM      1  C   UNL A   1      31.737  29.287  25.778  1.00  0.00     0.274 C 
ENDROOT
BRANCH   1   2
ATOM      2  O   UNL A   1      31.722  27.790  25.690  1.00  0.00    -0.461 OA
BRANCH   2   3
ATOM      3  C   UNL A   1      32.591  27.025  24.914  1.00  0.00     0.328 C 
ATOM      4  O   UNL A   1      33.770  27.335  24.762  1.00  0.00    -0.250 OA
BRANCH   3   5
ATOM      5  C   UNL A   1      31.993  25.537  24.441  1.00  0.00     0.192 C 
BRANCH   5   6
ATOM      6  C   UNL A   1      31.229  25.328  23.099  1.00  0.00     0.037 C 
BRANCH   6   7
ATOM      7  C   UNL A   1      31.234  26.601  22.138  1.00  0.00     0.002 C 
BRANCH   7   8
ATOM      8  C   UNL A   1      30.334  27.850  22.385  1.00  0.00    -0.003 C 
ATOM      9  C   UNL A   1      29.133  27.654  23.295  1.00  0.00     0.004 C 
ENDBRANCH   7   8
ENDBRANCH   6   7
ENDBRANCH   5   6
BRANCH   5  10
ATOM     10  N   UNL A   1      31.457  24.476  25.294  1.00  0.00    -0.343 N 
ATOM     11  C   UNL A   1      31.815  23.908  26.470  1.00  0.00     0.226 C 
ATOM     12  H   UNL A   1      30.636  24.079  24.922  1.00  0.00     0.164 HD
ATOM     13  O   UNL A   1      30.978  23.493  27.269  1.00  0.00    -0.275 OA
BRANCH  11  14
ATOM     14  C   UNL A   1      33.211  23.438  26.496  1.00  0.00     0.168 C 
BRANCH  14  15
ATOM     15  C   UNL A   1      33.213  21.951  26.169  1.00  0.00     0.103 C 
ATOM     16  C   UNL A   1      32.198  21.271  25.168  1.00  0.00     0.069 C 
ATOM     17  C   UNL A   1      34.275  21.313  25.193  1.00  0.00     0.069 C 
ATOM     18  C   UNL A   1      33.280  21.387  24.063  1.00  0.00     0.013 C 
BRANCH  15  19
ATOM     19  N   UNL A   1      33.171  21.190  27.423  1.00  0.00    -0.352 N 
ATOM     20  H   UNL A   1      33.933  20.512  27.437  1.00  0.00     0.344 HD
ATOM     21  H   UNL A   1      32.278  20.701  27.495  1.00  0.00     0.344 HD
ATOM     22  H   UNL A   1      33.271  21.830  28.212  1.00  0.00     0.344 HD
ENDBRANCH  15  19
ENDBRANCH  14  15
ENDBRANCH  11  14
ENDBRANCH   5  10
ENDBRANCH   3   5
ENDBRANCH   2   3
ENDBRANCH   1   2
BRANCH   1  23
ATOM     23  C   UNL A   1      33.094  30.073  26.272  1.00  0.00     0.275 C 
BRANCH  23  24
ATOM     24  O   UNL A   1      33.610  29.853  27.656  1.00  0.00    -0.458 OA
BRANCH  24  25
ATOM     25  C   UNL A   1      34.480  30.788  28.222  1.00  0.00     0.338 C 
ATOM     26  O   UNL A   1      34.164  31.899  28.635  1.00  0.00    -0.246 OA
BRANCH  25  27
ATOM     27  C   UNL A   1      35.860  30.214  28.478  1.00  0.00     0.060 A 
ATOM     28  C   UNL A   1      36.734  30.003  27.414  1.00  0.00     0.016 A 
ATOM     29  C   UNL A   1      36.318  29.785  29.717  1.00  0.00     0.016 A 
ATOM     30  C   UNL A   1      38.117  29.799  27.591  1.00  0.00     0.010 A 
ATOM     31  C   UNL A   1      37.677  29.390  29.892  1.00  0.00     0.010 A 
ATOM     32  C   UNL A   1      38.621  29.486  28.850  1.00  0.00    -0.014 A 
BRANCH  32  33
ATOM     33  C   UNL A   1      40.064  29.090  29.005  1.00  0.00     0.031 A 
ATOM     34  C   UNL A   1      41.064  30.111  29.503  1.00  0.00     0.074 A 
ATOM     35  C   UNL A   1      40.506  27.833  28.769  1.00  0.00     0.049 A 
ATOM     36  N   UNL A   1      42.368  30.023  29.608  1.00  0.00    -0.248 NA
ATOM     37  C   UNL A   1      40.517  31.398  29.961  1.00  0.00     0.031 C 
ATOM     38  C   UNL A   1      39.666  26.679  28.445  1.00  0.00     0.029 A 
ATOM     39  N   UNL A   1      41.786  27.312  28.770  1.00  0.00    -0.354 N 
ATOM     40  C   UNL A   1      42.793  31.244  30.125  1.00  0.00     0.074 A 
ATOM     41  C   UNL A   1      41.609  32.046  30.336  1.00  0.00     0.031 C 
ATOM     42  C   UNL A   1      40.451  25.603  28.243  1.00  0.00     0.029 A 
ATOM     43  C   UNL A   1      41.856  25.990  28.378  1.00  0.00     0.049 A 
ATOM     44  H   UNL A   1      42.578  27.837  29.029  1.00  0.00     0.167 HD
ATOM     45  C   UNL A   1      44.050  31.684  30.375  1.00  0.00     0.031 A 
ATOM     46  C   UNL A   1      42.921  25.195  28.119  1.00  0.00     0.031 A 
ATOM     47  C   UNL A   1      45.245  30.927  30.118  1.00  0.00     0.049 A 
ATOM     48  C   UNL A   1      44.322  25.751  28.270  1.00  0.00     0.074 A 
ATOM     49  C   UNL A   1      46.564  31.317  30.277  1.00  0.00     0.029 A 
ATOM     50  N   UNL A   1      45.268  29.629  29.635  1.00  0.00    -0.354 N 
ATOM     51  N   UNL A   1      44.702  26.932  28.696  1.00  0.00    -0.248 NA
ATOM     52  C   UNL A   1      45.437  24.864  27.896  1.00  0.00     0.031 C 
ATOM     53  C   UNL A   1      47.385  30.274  29.837  1.00  0.00     0.029 A 
ATOM     54  C   UNL A   1      46.578  29.210  29.469  1.00  0.00     0.049 A 
ATOM     55  H   UNL A   1      44.472  29.085  29.438  1.00  0.00     0.167 HD
ATOM     56  C   UNL A   1      46.096  26.919  28.667  1.00  0.00     0.074 A 
ATOM     57  C   UNL A   1      46.493  25.608  28.199  1.00  0.00     0.031 C 
ATOM     58  C   UNL A   1      46.968  27.905  28.998  1.00  0.00     0.031 A 
BRANCH  45  59
ATOM     59  C   UNL A   1      44.191  33.100  30.869  1.00  0.00    -0.014 A 
ATOM     60  C   UNL A   1      44.208  33.403  32.243  1.00  0.00     0.010 A 
ATOM     61  C   UNL A   1      44.302  34.148  29.937  1.00  0.00     0.010 A 
ATOM     62  C   UNL A   1      44.285  34.731  32.672  1.00  0.00     0.020 A 
ATOM     63  C   UNL A   1      44.408  35.475  30.362  1.00  0.00     0.020 A 
ATOM     64  C   UNL A   1      44.381  35.758  31.730  1.00  0.00     0.054 A 
BRANCH  64  65
ATOM     65  S   UNL A   1      44.491  37.477  32.298  1.00  0.00     0.124 S 
ATOM     66  O   UNL A   1      43.896  38.202  31.164  1.00  0.00    -0.237 OA
ATOM     67  O   UNL A   1      43.661  37.459  33.514  1.00  0.00    -0.237 OA
ATOM     68  O   UNL A   1      45.896  37.695  32.509  1.00  0.00    -0.744 OA
ENDBRANCH  64  65
ENDBRANCH  45  59
BRANCH  46  69
ATOM     69  C   UNL A   1      42.732  23.796  27.617  1.00  0.00    -0.014 A 
ATOM     70  C   UNL A   1      42.661  23.519  26.238  1.00  0.00     0.010 A 
ATOM     71  C   UNL A   1      42.564  22.734  28.525  1.00  0.00     0.010 A 
ATOM     72  C   UNL A   1      42.417  22.216  25.782  1.00  0.00     0.020 A 
ATOM     73  C   UNL A   1      42.350  21.426  28.073  1.00  0.00     0.020 A 
ATOM     74  C   UNL A   1      42.268  21.176  26.703  1.00  0.00     0.054 A 
BRANCH  74  75
ATOM     75  S   UNL A   1      42.016  19.485  26.090  1.00  0.00     0.124 S 
ATOM     76  O   UNL A   1      42.879  19.453  24.913  1.00  0.00    -0.237 OA
ATOM     77  O   UNL A   1      42.455  18.671  27.220  1.00  0.00    -0.237 OA
ATOM     78  O   UNL A   1      40.581  19.431  25.815  1.00  0.00    -0.744 OA
ENDBRANCH  74  75
ENDBRANCH  46  69
BRANCH  58  79
ATOM     79  C   UNL A   1      48.442  27.597  28.910  1.00  0.00    -0.014 A 
ATOM     80  C   UNL A   1      49.189  27.242  30.048  1.00  0.00     0.010 A 
ATOM     81  C   UNL A   1      49.082  27.626  27.657  1.00  0.00     0.010 A 
ATOM     82  C   UNL A   1      50.557  26.970  29.941  1.00  0.00     0.020 A 
ATOM     83  C   UNL A   1      50.442  27.326  27.540  1.00  0.00     0.020 A 
ATOM     84  C   UNL A   1      51.176  27.020  28.687  1.00  0.00     0.054 A 
BRANCH  84  85
ATOM     85  S   UNL A   1      52.950  26.653  28.570  1.00  0.00     0.124 S 
ATOM     86  O   UNL A   1      53.198  25.951  29.826  1.00  0.00    -0.237 OA
ATOM     87  O   UNL A   1      53.029  25.831  27.365  1.00  0.00    -0.237 OA
ATOM     88  O   UNL A   1      53.570  27.971  28.459  1.00  0.00    -0.744 OA
ENDBRANCH  84  85
ENDBRANCH  58  79
ENDBRANCH  32  33
ENDBRANCH  25  27
ENDBRANCH  24  25
ENDBRANCH  23  24
ENDBRANCH   1  23
TORSDOF 21
ENDMDL
MODEL 2
REMARK VINA RESULT:      -9.3      2.076      2.854
REMARK SMILES CCCC[C@H](NC(=O)CC1([NH3+])CCC1)C(=O)OCCOC(=O)c1ccc(-c2c3nc(c(-c4ccc(S(=O)(=O)[O-])cc4)c4ccc([nH]4)c(-c4ccc(S(=O)(=O)[O-])cc4)c4nc(c(-c5ccc(S(=O)(=O)[O-])cc5)c5ccc2[nH]5)C=C4)C=C3)cc1
REMARK SMILES IDX 18 1 17 2 15 3 16 4 5 5 4 6 3 7 2 8 1 9 6 10 7 11 8 13 9 14
REMARK SMILES IDX 10 15 12 16 14 17 13 18 11 19 19 23 20 24 21 25 22 26 23 27
REMARK SMILES IDX 24 28 82 29 25 30 81 31 26 32 27 33 28 34 75 35 29 36 80 37
REMARK SMILES IDX 74 38 76 39 30 40 79 41 73 42 72 43 31 45 61 46 42 47 60 48
REMARK SMILES IDX 43 49 46 50 59 51 77 52 44 53 45 54 58 56 78 57 47 58 32 59
REMARK SMILES IDX 33 60 41 61 34 62 40 63 35 64 36 65 37 66 38 67 39 68 62 69
REMARK SMILES IDX 63 70 71 71 64 72 70 73 65 74 66 75 67 76 68 77 69 78 48 79
REMARK SMILES IDX 49 80 57 81 50 82 56 83 51 84 52 85 53 86 54 87 55 88
REMARK H PARENT 6 12 11 20 11 21 11 22 76 44 46 55
REMARK Flexibility Score: inf
ROOT
ATOM      1  C   UNL A   1      33.990  28.080  26.552  1.00  0.00     0.274 C 
ENDROOT
BRANCH   1   2
ATOM      2  O   UNL A   1      32.774  27.206  26.485  1.00  0.00    -0.461 OA
BRANCH   2   3
ATOM      3  C   UNL A   1      32.190  26.734  25.309  1.00  0.00     0.328 C 
ATOM      4  O   UNL A   1      31.214  25.989  25.323  1.00  0.00    -0.250 OA
BRANCH   3   5
ATOM      5  C   UNL A   1      32.737  27.462  23.908  1.00  0.00     0.192 C 
BRANCH   5   6
ATOM      6  C   UNL A   1      32.080  28.746  23.316  1.00  0.00     0.037 C 
BRANCH   6   7
ATOM      7  C   UNL A   1      30.579  28.992  23.797  1.00  0.00     0.002 C 
BRANCH   7   8
ATOM      8  C   UNL A   1      29.359  28.240  23.183  1.00  0.00    -0.003 C 
ATOM      9  C   UNL A   1      28.144  29.083  22.837  1.00  0.00     0.004 C 
ENDBRANCH   7   8
ENDBRANCH   6   7
ENDBRANCH   5   6
BRANCH   5  10
ATOM     10  N   UNL A   1      33.313  26.815  22.728  1.00  0.00    -0.343 N 
ATOM     11  C   UNL A   1      33.280  25.570  22.197  1.00  0.00     0.226 C 
ATOM     12  H   UNL A   1      33.856  27.436  22.191  1.00  0.00     0.164 HD
ATOM     13  O   UNL A   1      33.311  25.384  20.982  1.00  0.00    -0.275 OA
BRANCH  11  14
ATOM     14  C   UNL A   1      33.651  24.512  23.152  1.00  0.00     0.168 C 
BRANCH  14  15
ATOM     15  C   UNL A   1      32.507  23.509  23.211  1.00  0.00     0.103 C 
ATOM     16  C   UNL A   1      32.521  22.116  22.465  1.00  0.00     0.069 C 
ATOM     17  C   UNL A   1      32.265  22.592  24.470  1.00  0.00     0.069 C 
ATOM     18  C   UNL A   1      32.995  21.463  23.789  1.00  0.00     0.013 C 
BRANCH  15  19
ATOM     19  N   UNL A   1      31.260  24.191  22.846  1.00  0.00    -0.352 N 
ATOM     20  H   UNL A   1      31.425  24.793  22.039  1.00  0.00     0.344 HD
ATOM     21  H   UNL A   1      30.938  24.756  23.632  1.00  0.00     0.344 HD
ATOM     22  H   UNL A   1      30.548  23.498  22.613  1.00  0.00     0.344 HD
ENDBRANCH  15  19
ENDBRANCH  14  15
ENDBRANCH  11  14
ENDBRANCH   5  10
ENDBRANCH   3   5
ENDBRANCH   2   3
ENDBRANCH   1   2
BRANCH   1  23
ATOM     23  C   UNL A   1      33.950  29.487  27.403  1.00  0.00     0.275 C 
BRANCH  23  24
ATOM     24  O   UNL A   1      35.169  30.348  27.458  1.00  0.00    -0.458 OA
BRANCH  24  25
ATOM     25  C   UNL A   1      35.854  30.493  28.668  1.00  0.00     0.338 C 
ATOM     26  O   UNL A   1      35.374  30.925  29.712  1.00  0.00    -0.246 OA
BRANCH  25  27
ATOM     27  C   UNL A   1      37.229  29.856  28.634  1.00  0.00     0.060 A 
ATOM     28  C   UNL A   1      37.878  29.667  27.416  1.00  0.00     0.016 A 
ATOM     29  C   UNL A   1      37.891  29.350  29.746  1.00  0.00     0.016 A 
ATOM     30  C   UNL A   1      39.259  29.404  27.320  1.00  0.00     0.010 A 
ATOM     31  C   UNL A   1      39.239  28.897  29.643  1.00  0.00     0.010 A 
ATOM     32  C   UNL A   1      39.975  29.009  28.447  1.00  0.00    -0.014 A 
BRANCH  32  33
ATOM     33  C   UNL A   1      41.402  28.553  28.309  1.00  0.00     0.031 A 
ATOM     34  C   UNL A   1      42.521  29.562  28.463  1.00  0.00     0.074 A 
ATOM     35  C   UNL A   1      41.739  27.259  28.106  1.00  0.00     0.049 A 
ATOM     36  N   UNL A   1      43.810  29.415  28.277  1.00  0.00    -0.248 NA
ATOM     37  C   UNL A   1      42.133  30.911  28.901  1.00  0.00     0.031 C 
ATOM     38  C   UNL A   1      40.812  26.126  28.099  1.00  0.00     0.029 A 
ATOM     39  N   UNL A   1      42.968  26.673  27.869  1.00  0.00    -0.354 N 
ATOM     40  C   UNL A   1      44.381  30.654  28.559  1.00  0.00     0.074 A 
ATOM     41  C   UNL A   1      43.302  31.532  28.952  1.00  0.00     0.031 C 
ATOM     42  C   UNL A   1      41.496  24.996  27.832  1.00  0.00     0.029 A 
ATOM     43  C   UNL A   1      42.905  25.319  27.606  1.00  0.00     0.049 A 
ATOM     44  H   UNL A   1      43.814  27.177  27.887  1.00  0.00     0.167 HD
ATOM     45  C   UNL A   1      45.674  31.047  28.472  1.00  0.00     0.031 A 
ATOM     46  C   UNL A   1      43.857  24.450  27.193  1.00  0.00     0.031 A 
ATOM     47  C   UNL A   1      46.754  30.208  28.027  1.00  0.00     0.049 A 
ATOM     48  C   UNL A   1      45.271  24.942  26.966  1.00  0.00     0.074 A 
ATOM     49  C   UNL A   1      48.085  30.541  27.843  1.00  0.00     0.029 A 
ATOM     50  N   UNL A   1      46.625  28.872  27.685  1.00  0.00    -0.354 N 
ATOM     51  N   UNL A   1      45.775  26.136  27.174  1.00  0.00    -0.248 NA
ATOM     52  C   UNL A   1      46.242  23.967  26.439  1.00  0.00     0.031 C 
ATOM     53  C   UNL A   1      48.750  29.420  27.336  1.00  0.00     0.029 A 
ATOM     54  C   UNL A   1      47.848  28.371  27.269  1.00  0.00     0.049 A 
ATOM     55  H   UNL A   1      45.789  28.356  27.729  1.00  0.00     0.167 HD
ATOM     56  C   UNL A   1      47.123  26.046  26.831  1.00  0.00     0.074 A 
ATOM     57  C   UNL A   1      47.361  24.679  26.418  1.00  0.00     0.031 C 
ATOM     58  C   UNL A   1      48.078  27.010  26.855  1.00  0.00     0.031 A 
BRANCH  45  59
ATOM     59  C   UNL A   1      45.969  32.493  28.777  1.00  0.00    -0.014 A 
ATOM     60  C   UNL A   1      45.905  33.484  27.781  1.00  0.00     0.010 A 
ATOM     61  C   UNL A   1      46.324  32.862  30.088  1.00  0.00     0.010 A 
ATOM     62  C   UNL A   1      46.236  34.809  28.081  1.00  0.00     0.020 A 
ATOM     63  C   UNL A   1      46.628  34.190  30.398  1.00  0.00     0.020 A 
ATOM     64  C   UNL A   1      46.599  35.153  29.386  1.00  0.00     0.054 A 
BRANCH  64  65
ATOM     65  S   UNL A   1      47.017  36.876  29.766  1.00  0.00     0.124 S 
ATOM     66  O   UNL A   1      45.695  37.520  29.712  1.00  0.00    -0.237 OA
ATOM     67  O   UNL A   1      47.588  36.769  31.119  1.00  0.00    -0.237 OA
ATOM     68  O   UNL A   1      47.939  37.258  28.732  1.00  0.00    -0.744 OA
ENDBRANCH  64  65
ENDBRANCH  45  59
BRANCH  46  69
ATOM     69  C   UNL A   1      43.514  23.023  26.889  1.00  0.00    -0.014 A 
ATOM     70  C   UNL A   1      42.658  22.282  27.726  1.00  0.00     0.010 A 
ATOM     71  C   UNL A   1      44.095  22.376  25.782  1.00  0.00     0.010 A 
ATOM     72  C   UNL A   1      42.398  20.930  27.469  1.00  0.00     0.020 A 
ATOM     73  C   UNL A   1      43.815  21.033  25.504  1.00  0.00     0.020 A 
ATOM     74  C   UNL A   1      42.975  20.314  26.355  1.00  0.00     0.054 A 
BRANCH  74  75
ATOM     75  S   UNL A   1      42.576  18.577  26.003  1.00  0.00     0.124 S 
ATOM     76  O   UNL A   1      41.142  18.639  25.739  1.00  0.00    -0.237 OA
ATOM     77  O   UNL A   1      43.421  18.287  24.847  1.00  0.00    -0.237 OA
ATOM     78  O   UNL A   1      42.957  17.883  27.231  1.00  0.00    -0.744 OA
ENDBRANCH  74  75
ENDBRANCH  46  69
BRANCH  58  79
ATOM     79  C   UNL A   1      49.482  26.619  26.466  1.00  0.00    -0.014 A 
ATOM     80  C   UNL A   1      50.361  26.019  27.387  1.00  0.00     0.010 A 
ATOM     81  C   UNL A   1      49.915  26.819  25.142  1.00  0.00     0.010 A 
ATOM     82  C   UNL A   1      51.661  25.674  27.003  1.00  0.00     0.020 A 
ATOM     83  C   UNL A   1      51.204  26.447  24.746  1.00  0.00     0.020 A 
ATOM     84  C   UNL A   1      52.076  25.896  25.686  1.00  0.00     0.054 A 
BRANCH  84  85
ATOM     85  S   UNL A   1      53.764  25.430  25.207  1.00  0.00     0.124 S 
ATOM     86  O   UNL A   1      53.675  25.429  23.750  1.00  0.00    -0.237 OA
ATOM     87  O   UNL A   1      54.570  26.502  25.787  1.00  0.00    -0.237 OA
ATOM     88  O   UNL A   1      53.949  24.118  25.821  1.00  0.00    -0.744 OA
ENDBRANCH  84  85
ENDBRANCH  58  79
ENDBRANCH  32  33
ENDBRANCH  25  27
ENDBRANCH  24  25
ENDBRANCH  23  24
ENDBRANCH   1  23
TORSDOF 21
ENDMDL
MODEL 3
REMARK VINA RESULT:      -9.3      5.147     10.941
REMARK SMILES CCCC[C@H](NC(=O)CC1([NH3+])CCC1)C(=O)OCCOC(=O)c1ccc(-c2c3nc(c(-c4ccc(S(=O)(=O)[O-])cc4)c4ccc([nH]4)c(-c4ccc(S(=O)(=O)[O-])cc4)c4nc(c(-c5ccc(S(=O)(=O)[O-])cc5)c5ccc2[nH]5)C=C4)C=C3)cc1
REMARK SMILES IDX 18 1 17 2 15 3 16 4 5 5 4 6 3 7 2 8 1 9 6 10 7 11 8 13 9 14
REMARK SMILES IDX 10 15 12 16 14 17 13 18 11 19 19 23 20 24 21 25 22 26 23 27
REMARK SMILES IDX 24 28 82 29 25 30 81 31 26 32 27 33 28 34 75 35 29 36 80 37
REMARK SMILES IDX 74 38 76 39 30 40 79 41 73 42 72 43 31 45 61 46 42 47 60 48
REMARK SMILES IDX 43 49 46 50 59 51 77 52 44 53 45 54 58 56 78 57 47 58 32 59
REMARK SMILES IDX 33 60 41 61 34 62 40 63 35 64 36 65 37 66 38 67 39 68 62 69
REMARK SMILES IDX 63 70 71 71 64 72 70 73 65 74 66 75 67 76 68 77 69 78 48 79
REMARK SMILES IDX 49 80 57 81 50 82 56 83 51 84 52 85 53 86 54 87 55 88
REMARK H PARENT 6 12 11 20 11 21 11 22 76 44 46 55
REMARK Flexibility Score: inf
ROOT
ATOM      1  C   UNL A   1      37.000  22.791  24.798  1.00  0.00     0.274 C 
ENDROOT
BRANCH   1   2
ATOM      2  O   UNL A   1      36.016  21.665  24.908  1.00  0.00    -0.461 OA
BRANCH   2   3
ATOM      3  C   UNL A   1      34.736  21.771  25.452  1.00  0.00     0.328 C 
ATOM      4  O   UNL A   1      34.538  22.280  26.552  1.00  0.00    -0.250 OA
BRANCH   3   5
ATOM      5  C   UNL A   1      33.489  21.409  24.399  1.00  0.00     0.192 C 
BRANCH   5   6
ATOM      6  C   UNL A   1      32.887  19.978  24.270  1.00  0.00     0.037 C 
BRANCH   6   7
ATOM      7  C   UNL A   1      33.936  18.803  24.520  1.00  0.00     0.002 C 
BRANCH   7   8
ATOM      8  C   UNL A   1      34.013  17.532  23.620  1.00  0.00    -0.003 C 
ATOM      9  C   UNL A   1      33.642  16.212  24.273  1.00  0.00     0.004 C 
ENDBRANCH   7   8
ENDBRANCH   6   7
ENDBRANCH   5   6
BRANCH   5  10
ATOM     10  N   UNL A   1      33.230  21.994  23.083  1.00  0.00    -0.343 N 
ATOM     11  C   UNL A   1      33.169  23.250  22.579  1.00  0.00     0.226 C 
ATOM     12  H   UNL A   1      33.060  21.309  22.398  1.00  0.00     0.164 HD
ATOM     13  O   UNL A   1      33.521  23.503  21.429  1.00  0.00    -0.275 OA
BRANCH  11  14
ATOM     14  C   UNL A   1      32.264  24.140  23.326  1.00  0.00     0.168 C 
BRANCH  14  15
ATOM     15  C   UNL A   1      33.046  25.389  23.713  1.00  0.00     0.103 C 
ATOM     16  C   UNL A   1      32.587  26.399  24.838  1.00  0.00     0.069 C 
ATOM     17  C   UNL A   1      34.345  25.317  24.604  1.00  0.00     0.069 C 
ATOM     18  C   UNL A   1      33.527  25.658  25.823  1.00  0.00     0.013 C 
BRANCH  15  19
ATOM     19  N   UNL A   1      33.316  26.172  22.502  1.00  0.00    -0.352 N 
ATOM     20  H   UNL A   1      32.908  27.102  22.599  1.00  0.00     0.344 HD
ATOM     21  H   UNL A   1      32.905  25.703  21.694  1.00  0.00     0.344 HD
ATOM     22  H   UNL A   1      34.324  26.256  22.368  1.00  0.00     0.344 HD
ENDBRANCH  15  19
ENDBRANCH  14  15
ENDBRANCH  11  14
ENDBRANCH   5  10
ENDBRANCH   3   5
ENDBRANCH   2   3
ENDBRANCH   1   2
BRANCH   1  23
ATOM     23  C   UNL A   1      37.880  23.251  26.108  1.00  0.00     0.275 C 
BRANCH  23  24
ATOM     24  O   UNL A   1      39.128  24.048  25.914  1.00  0.00    -0.458 OA
BRANCH  24  25
ATOM     25  C   UNL A   1      40.109  24.042  26.910  1.00  0.00     0.338 C 
ATOM     26  O   UNL A   1      40.986  23.194  27.042  1.00  0.00    -0.246 OA
BRANCH  25  27
ATOM     27  C   UNL A   1      40.123  25.326  27.715  1.00  0.00     0.060 A 
ATOM     28  C   UNL A   1      39.128  25.564  28.661  1.00  0.00     0.016 A 
ATOM     29  C   UNL A   1      41.029  26.363  27.530  1.00  0.00     0.016 A 
ATOM     30  C   UNL A   1      39.250  26.545  29.666  1.00  0.00     0.010 A 
ATOM     31  C   UNL A   1      41.055  27.471  28.428  1.00  0.00     0.010 A 
ATOM     32  C   UNL A   1      40.229  27.529  29.567  1.00  0.00    -0.014 A 
BRANCH  32  33
ATOM     33  C   UNL A   1      40.242  28.677  30.539  1.00  0.00     0.031 A 
ATOM     34  C   UNL A   1      41.250  28.680  31.669  1.00  0.00     0.074 A 
ATOM     35  C   UNL A   1      39.421  29.746  30.419  1.00  0.00     0.049 A 
ATOM     36  N   UNL A   1      41.370  29.507  32.680  1.00  0.00    -0.248 NA
ATOM     37  C   UNL A   1      42.270  27.621  31.643  1.00  0.00     0.031 C 
ATOM     38  C   UNL A   1      38.504  29.997  29.307  1.00  0.00     0.029 A 
ATOM     39  N   UNL A   1      39.229  30.834  31.249  1.00  0.00    -0.354 N 
ATOM     40  C   UNL A   1      42.463  29.054  33.415  1.00  0.00     0.074 A 
ATOM     41  C   UNL A   1      42.987  27.899  32.722  1.00  0.00     0.031 C 
ATOM     42  C   UNL A   1      37.824  31.136  29.542  1.00  0.00     0.029 A 
ATOM     43  C   UNL A   1      38.220  31.682  30.841  1.00  0.00     0.049 A 
ATOM     44  H   UNL A   1      39.765  30.990  32.060  1.00  0.00     0.167 HD
ATOM     45  C   UNL A   1      42.976  29.526  34.577  1.00  0.00     0.031 A 
ATOM     46  C   UNL A   1      37.653  32.748  31.454  1.00  0.00     0.031 A 
ATOM     47  C   UNL A   1      42.436  30.636  35.315  1.00  0.00     0.049 A 
ATOM     48  C   UNL A   1      38.148  33.174  32.820  1.00  0.00     0.074 A 
ATOM     49  C   UNL A   1      42.849  31.143  36.536  1.00  0.00     0.029 A 
ATOM     50  N   UNL A   1      41.359  31.406  34.907  1.00  0.00    -0.354 N 
ATOM     51  N   UNL A   1      39.140  32.690  33.529  1.00  0.00    -0.248 NA
ATOM     52  C   UNL A   1      37.437  34.288  33.471  1.00  0.00     0.031 C 
ATOM     53  C   UNL A   1      41.985  32.183  36.892  1.00  0.00     0.029 A 
ATOM     54  C   UNL A   1      41.078  32.369  35.863  1.00  0.00     0.049 A 
ATOM     55  H   UNL A   1      40.865  31.285  34.064  1.00  0.00     0.167 HD
ATOM     56  C   UNL A   1      39.189  33.457  34.692  1.00  0.00     0.074 A 
ATOM     57  C   UNL A   1      38.139  34.448  34.586  1.00  0.00     0.031 C 
ATOM     58  C   UNL A   1      40.028  33.350  35.754  1.00  0.00     0.031 A 
BRANCH  45  59
ATOM     59  C   UNL A   1      44.133  28.766  35.171  1.00  0.00    -0.014 A 
ATOM     60  C   UNL A   1      43.932  27.683  36.045  1.00  0.00     0.010 A 
ATOM     61  C   UNL A   1      45.448  29.151  34.849  1.00  0.00     0.010 A 
ATOM     62  C   UNL A   1      45.026  27.030  36.623  1.00  0.00     0.020 A 
ATOM     63  C   UNL A   1      46.543  28.483  35.402  1.00  0.00     0.020 A 
ATOM     64  C   UNL A   1      46.323  27.437  36.302  1.00  0.00     0.054 A 
BRANCH  64  65
ATOM     65  S   UNL A   1      47.734  26.577  37.049  1.00  0.00     0.124 S 
ATOM     66  O   UNL A   1      47.152  25.258  37.347  1.00  0.00    -0.237 OA
ATOM     67  O   UNL A   1      48.717  26.576  35.953  1.00  0.00    -0.237 OA
ATOM     68  O   UNL A   1      48.079  27.379  38.190  1.00  0.00    -0.744 OA
ENDBRANCH  64  65
ENDBRANCH  45  59
BRANCH  46  69
ATOM     69  C   UNL A   1      36.494  33.465  30.831  1.00  0.00    -0.014 A 
ATOM     70  C   UNL A   1      36.588  34.024  29.542  1.00  0.00     0.010 A 
ATOM     71  C   UNL A   1      35.300  33.645  31.555  1.00  0.00     0.010 A 
ATOM     72  C   UNL A   1      35.521  34.750  28.997  1.00  0.00     0.020 A 
ATOM     73  C   UNL A   1      34.221  34.345  31.004  1.00  0.00     0.020 A 
ATOM     74  C   UNL A   1      34.341  34.903  29.730  1.00  0.00     0.054 A 
BRANCH  74  75
ATOM     75  S   UNL A   1      32.946  35.794  28.981  1.00  0.00     0.124 S 
ATOM     76  O   UNL A   1      32.353  34.772  28.125  1.00  0.00    -0.237 OA
ATOM     77  O   UNL A   1      32.156  36.180  30.147  1.00  0.00    -0.237 OA
ATOM     78  O   UNL A   1      33.587  36.904  28.279  1.00  0.00    -0.744 OA
ENDBRANCH  74  75
ENDBRANCH  46  69
BRANCH  58  79
ATOM     79  C   UNL A   1      39.880  34.353  36.870  1.00  0.00    -0.014 A 
ATOM     80  C   UNL A   1      39.123  34.067  38.021  1.00  0.00     0.010 A 
ATOM     81  C   UNL A   1      40.545  35.590  36.782  1.00  0.00     0.010 A 
ATOM     82  C   UNL A   1      38.994  35.019  39.038  1.00  0.00     0.020 A 
ATOM     83  C   UNL A   1      40.445  36.532  37.810  1.00  0.00     0.020 A 
ATOM     84  C   UNL A   1      39.652  36.248  38.923  1.00  0.00     0.054 A 
BRANCH  84  85
ATOM     85  S   UNL A   1      39.480  37.464  40.260  1.00  0.00     0.124 S 
ATOM     86  O   UNL A   1      38.643  38.484  39.635  1.00  0.00    -0.237 OA
ATOM     87  O   UNL A   1      38.839  36.688  41.320  1.00  0.00    -0.237 OA
ATOM     88  O   UNL A   1      40.855  37.870  40.539  1.00  0.00    -0.744 OA
ENDBRANCH  84  85
ENDBRANCH  58  79
ENDBRANCH  32  33
ENDBRANCH  25  27
ENDBRANCH  24  25
ENDBRANCH  23  24
ENDBRANCH   1  23
TORSDOF 21
ENDMDL
