MODEL 1
REMARK VINA RESULT:      -9.3      0.000      0.000
REMARK SMILES CC[NH2+][C@@]1(C(=O)OCCOC(=O)c2ccc(-c3c4nc(c(-c5ccc(S(=O)(=O)[O-])cc5)c5ccc([nH]5)c(-c5ccc(S(=O)(=O)[O-])cc5)c5nc(c(-c6ccc(S(=O)(=O)[O-])cc6)c6ccc3[nH]6)C=C5)C=C4)cc2)CCC[C@H]1CCSc1cnn(C)c1
REMARK SMILES IDX 8 1 7 2 5 3 6 4 4 5 73 6 76 7 74 8 75 9 3 10 2 13 1 14 77 15
REMARK SMILES IDX 78 16 79 17 80 18 81 19 85 20 82 21 83 22 84 23 9 24 10 25
REMARK SMILES IDX 11 26 12 27 13 28 14 29 72 30 15 31 71 32 16 33 17 34 18 35
REMARK SMILES IDX 65 36 19 37 70 38 64 39 66 40 20 41 69 42 63 43 62 44 21 46
REMARK SMILES IDX 51 47 32 48 50 49 33 50 36 51 49 52 67 53 34 54 35 55 48 57
REMARK SMILES IDX 68 58 37 59 22 60 23 61 31 62 24 63 30 64 25 65 26 66 27 67
REMARK SMILES IDX 28 68 29 69 52 70 53 71 61 72 54 73 60 74 55 75 56 76 57 77
REMARK SMILES IDX 58 78 59 79 38 80 39 81 47 82 40 83 46 84 41 85 42 86 43 87
REMARK SMILES IDX 44 88 45 89
REMARK H PARENT 3 11 3 12 66 45 36 56
REMARK Flexibility Score: inf
ROOT
ATOM      1  C   UNL A   1      32.244  29.450  25.408  1.00  0.00     0.274 C 
ENDROOT
BRANCH   1   2
ATOM      2  O   UNL A   1      31.418  28.268  25.490  1.00  0.00    -0.457 OA
BRANCH   2   3
ATOM      3  C   UNL A   1      31.270  27.549  24.348  1.00  0.00     0.368 C 
ATOM      4  O   UNL A   1      30.528  27.899  23.431  1.00  0.00    -0.245 OA
BRANCH   3   5
ATOM      5  C   UNL A   1      32.126  26.217  24.303  1.00  0.00     0.197 C 
ATOM      6  C   UNL A   1      31.376  25.241  23.378  1.00  0.00     0.081 C 
ATOM      7  C   UNL A   1      32.125  25.422  25.660  1.00  0.00     0.063 C 
ATOM      8  C   UNL A   1      30.207  24.771  24.233  1.00  0.00     0.008 C 
ATOM      9  C   UNL A   1      30.727  24.749  25.668  1.00  0.00     0.011 C 
BRANCH   5  10
ATOM     10  N   UNL A   1      33.505  26.493  23.824  1.00  0.00    -0.332 N 
ATOM     11  H   UNL A   1      33.847  27.321  24.312  1.00  0.00     0.347 HD
ATOM     12  H   UNL A   1      34.042  25.648  24.021  1.00  0.00     0.347 HD
BRANCH  10  13
ATOM     13  C   UNL A   1      33.643  26.728  22.383  1.00  0.00     0.257 C 
ATOM     14  C   UNL A   1      34.022  28.182  22.125  1.00  0.00     0.071 C 
ENDBRANCH  10  13
ENDBRANCH   5  10
BRANCH   7  15
ATOM     15  C   UNL A   1      33.203  24.305  25.864  1.00  0.00     0.022 C 
BRANCH  15  16
ATOM     16  C   UNL A   1      32.699  22.855  25.949  1.00  0.00     0.075 C 
BRANCH  16  17
ATOM     17  S   UNL A   1      33.239  21.694  24.643  1.00  0.00    -0.123 SA
BRANCH  17  18
ATOM     18  C   UNL A   1      34.952  21.927  24.520  1.00  0.00     0.045 A 
ATOM     19  C   UNL A   1      35.662  22.708  23.584  1.00  0.00     0.150 A 
ATOM     20  C   UNL A   1      35.921  21.310  25.268  1.00  0.00     0.123 A 
ATOM     21  N   UNL A   1      36.991  22.621  23.756  1.00  0.00    -0.181 NA
ATOM     22  N   UNL A   1      37.098  21.879  24.877  1.00  0.00    -0.275 N 
ATOM     23  C   UNL A   1      38.340  21.828  25.604  1.00  0.00     0.173 C 
ENDBRANCH  17  18
ENDBRANCH  16  17
ENDBRANCH  15  16
ENDBRANCH   7  15
ENDBRANCH   3   5
ENDBRANCH   2   3
ENDBRANCH   1   2
BRANCH   1  24
ATOM     24  C   UNL A   1      32.678  29.946  26.798  1.00  0.00     0.275 C 
BRANCH  24  25
ATOM     25  O   UNL A   1      34.027  29.560  27.130  1.00  0.00    -0.458 OA
BRANCH  25  26
ATOM     26  C   UNL A   1      34.675  30.528  27.820  1.00  0.00     0.338 C 
ATOM     27  O   UNL A   1      34.202  31.605  28.136  1.00  0.00    -0.246 OA
BRANCH  26  28
ATOM     28  C   UNL A   1      35.984  30.110  28.330  1.00  0.00     0.060 A 
ATOM     29  C   UNL A   1      37.027  30.200  27.413  1.00  0.00     0.016 A 
ATOM     30  C   UNL A   1      36.204  29.555  29.586  1.00  0.00     0.016 A 
ATOM     31  C   UNL A   1      38.297  29.740  27.715  1.00  0.00     0.010 A 
ATOM     32  C   UNL A   1      37.494  29.108  29.912  1.00  0.00     0.010 A 
ATOM     33  C   UNL A   1      38.544  29.209  28.981  1.00  0.00    -0.014 A 
BRANCH  33  34
ATOM     34  C   UNL A   1      39.944  28.897  29.333  1.00  0.00     0.031 A 
ATOM     35  C   UNL A   1      40.775  29.856  30.125  1.00  0.00     0.074 A 
ATOM     36  C   UNL A   1      40.410  27.675  29.015  1.00  0.00     0.049 A 
ATOM     37  N   UNL A   1      42.023  29.741  30.497  1.00  0.00    -0.248 NA
ATOM     38  C   UNL A   1      40.120  31.095  30.572  1.00  0.00     0.031 C 
ATOM     39  C   UNL A   1      39.628  26.626  28.351  1.00  0.00     0.029 A 
ATOM     40  N   UNL A   1      41.633  27.096  29.223  1.00  0.00    -0.354 N 
ATOM     41  C   UNL A   1      42.312  30.896  31.214  1.00  0.00     0.074 A 
ATOM     42  C   UNL A   1      41.106  31.697  31.227  1.00  0.00     0.031 C 
ATOM     43  C   UNL A   1      40.392  25.533  28.209  1.00  0.00     0.029 A 
ATOM     44  C   UNL A   1      41.729  25.822  28.717  1.00  0.00     0.049 A 
ATOM     45  H   UNL A   1      42.373  27.549  29.689  1.00  0.00     0.167 HD
ATOM     46  C   UNL A   1      43.486  31.253  31.788  1.00  0.00     0.031 A 
ATOM     47  C   UNL A   1      42.789  24.996  28.635  1.00  0.00     0.031 A 
ATOM     48  C   UNL A   1      44.684  30.454  31.729  1.00  0.00     0.049 A 
ATOM     49  C   UNL A   1      44.108  25.471  29.178  1.00  0.00     0.074 A 
ATOM     50  C   UNL A   1      45.944  30.748  32.223  1.00  0.00     0.029 A 
ATOM     51  N   UNL A   1      44.773  29.203  31.133  1.00  0.00    -0.354 N 
ATOM     52  N   UNL A   1      44.384  26.590  29.807  1.00  0.00    -0.248 NA
ATOM     53  C   UNL A   1      45.259  24.579  28.992  1.00  0.00     0.031 C 
ATOM     54  C   UNL A   1      46.804  29.699  31.880  1.00  0.00     0.029 A 
ATOM     55  C   UNL A   1      46.069  28.723  31.224  1.00  0.00     0.049 A 
ATOM     56  H   UNL A   1      44.024  28.727  30.709  1.00  0.00     0.167 HD
ATOM     57  C   UNL A   1      45.740  26.532  30.099  1.00  0.00     0.074 A 
ATOM     58  C   UNL A   1      46.221  25.257  29.604  1.00  0.00     0.031 C 
ATOM     59  C   UNL A   1      46.523  27.453  30.715  1.00  0.00     0.031 A 
BRANCH  46  60
ATOM     60  C   UNL A   1      43.550  32.594  32.467  1.00  0.00    -0.014 A 
ATOM     61  C   UNL A   1      43.337  32.729  33.849  1.00  0.00     0.010 A 
ATOM     62  C   UNL A   1      43.872  33.736  31.709  1.00  0.00     0.010 A 
ATOM     63  C   UNL A   1      43.418  33.987  34.458  1.00  0.00     0.020 A 
ATOM     64  C   UNL A   1      43.974  34.991  32.317  1.00  0.00     0.020 A 
ATOM     65  C   UNL A   1      43.732  35.110  33.687  1.00  0.00     0.054 A 
BRANCH  65  66
ATOM     66  S   UNL A   1      43.853  36.727  34.504  1.00  0.00     0.124 S 
ATOM     67  O   UNL A   1      42.626  37.382  34.060  1.00  0.00    -0.237 OA
ATOM     68  O   UNL A   1      43.898  36.368  35.920  1.00  0.00    -0.237 OA
ATOM     69  O   UNL A   1      45.089  37.294  33.970  1.00  0.00    -0.744 OA
ENDBRANCH  65  66
ENDBRANCH  46  60
BRANCH  47  70
ATOM     70  C   UNL A   1      42.664  23.681  27.952  1.00  0.00    -0.014 A 
ATOM     71  C   UNL A   1      42.226  22.542  28.648  1.00  0.00     0.010 A 
ATOM     72  C   UNL A   1      43.000  23.561  26.590  1.00  0.00     0.010 A 
ATOM     73  C   UNL A   1      42.152  21.303  28.002  1.00  0.00     0.020 A 
ATOM     74  C   UNL A   1      42.897  22.333  25.933  1.00  0.00     0.020 A 
ATOM     75  C   UNL A   1      42.492  21.207  26.648  1.00  0.00     0.054 A 
BRANCH  75  76
ATOM     76  S   UNL A   1      42.366  19.597  25.821  1.00  0.00     0.124 S 
ATOM     77  O   UNL A   1      40.969  19.581  25.403  1.00  0.00    -0.237 OA
ATOM     78  O   UNL A   1      43.349  19.714  24.747  1.00  0.00    -0.237 OA
ATOM     79  O   UNL A   1      42.718  18.645  26.874  1.00  0.00    -0.744 OA
ENDBRANCH  75  76
ENDBRANCH  47  70
BRANCH  59  80
ATOM     80  C   UNL A   1      47.973  27.099  30.899  1.00  0.00    -0.014 A 
ATOM     81  C   UNL A   1      48.939  27.479  29.951  1.00  0.00     0.010 A 
ATOM     82  C   UNL A   1      48.376  26.403  32.052  1.00  0.00     0.010 A 
ATOM     83  C   UNL A   1      50.280  27.135  30.135  1.00  0.00     0.020 A 
ATOM     84  C   UNL A   1      49.721  26.082  32.253  1.00  0.00     0.020 A 
ATOM     85  C   UNL A   1      50.662  26.435  31.284  1.00  0.00     0.054 A 
BRANCH  85  86
ATOM     86  S   UNL A   1      52.414  26.030  31.518  1.00  0.00     0.124 S 
ATOM     87  O   UNL A   1      52.340  24.701  32.120  1.00  0.00    -0.237 OA
ATOM     88  O   UNL A   1      52.941  26.074  30.156  1.00  0.00    -0.237 OA
ATOM     89  O   UNL A   1      52.899  27.088  32.401  1.00  0.00    -0.744 OA
ENDBRANCH  85  86
ENDBRANCH  59  80
ENDBRANCH  33  34
ENDBRANCH  26  28
ENDBRANCH  25  26
ENDBRANCH  24  25
ENDBRANCH   1  24
TORSDOF 20
ENDMDL
MODEL 2
REMARK VINA RESULT:      -9.1      4.792      7.153
REMARK SMILES CC[NH2+][C@@]1(C(=O)OCCOC(=O)c2ccc(-c3c4nc(c(-c5ccc(S(=O)(=O)[O-])cc5)c5ccc([nH]5)c(-c5ccc(S(=O)(=O)[O-])cc5)c5nc(c(-c6ccc(S(=O)(=O)[O-])cc6)c6ccc3[nH]6)C=C5)C=C4)cc2)CCC[C@H]1CCSc1cnn(C)c1
REMARK SMILES IDX 8 1 7 2 5 3 6 4 4 5 73 6 76 7 74 8 75 9 3 10 2 13 1 14 77 15
REMARK SMILES IDX 78 16 79 17 80 18 81 19 85 20 82 21 83 22 84 23 9 24 10 25
REMARK SMILES IDX 11 26 12 27 13 28 14 29 72 30 15 31 71 32 16 33 17 34 18 35
REMARK SMILES IDX 65 36 19 37 70 38 64 39 66 40 20 41 69 42 63 43 62 44 21 46
REMARK SMILES IDX 51 47 32 48 50 49 33 50 36 51 49 52 67 53 34 54 35 55 48 57
REMARK SMILES IDX 68 58 37 59 22 60 23 61 31 62 24 63 30 64 25 65 26 66 27 67
REMARK SMILES IDX 28 68 29 69 52 70 53 71 61 72 54 73 60 74 55 75 56 76 57 77
REMARK SMILES IDX 58 78 59 79 38 80 39 81 47 82 40 83 46 84 41 85 42 86 43 87
REMARK SMILES IDX 44 88 45 89
REMARK H PARENT 3 11 3 12 66 45 36 56
REMARK Flexibility Score: inf
ROOT
ATOM      1  C   UNL A   1      34.330  31.004  27.495  1.00  0.00     0.274 C 
ENDROOT
BRANCH   1   2
ATOM      2  O   UNL A   1      34.443  31.777  28.710  1.00  0.00    -0.457 OA
BRANCH   2   3
ATOM      3  C   UNL A   1      35.272  32.851  28.673  1.00  0.00     0.368 C 
ATOM      4  O   UNL A   1      35.917  33.161  27.672  1.00  0.00    -0.245 OA
BRANCH   3   5
ATOM      5  C   UNL A   1      35.346  33.662  30.032  1.00  0.00     0.197 C 
ATOM      6  C   UNL A   1      36.827  33.682  30.454  1.00  0.00     0.081 C 
ATOM      7  C   UNL A   1      34.687  32.913  31.248  1.00  0.00     0.063 C 
ATOM      8  C   UNL A   1      37.065  32.273  30.978  1.00  0.00     0.008 C 
ATOM      9  C   UNL A   1      35.746  31.839  31.611  1.00  0.00     0.011 C 
BRANCH   5  10
ATOM     10  N   UNL A   1      34.794  35.030  29.859  1.00  0.00    -0.332 N 
ATOM     11  H   UNL A   1      34.420  35.333  30.758  1.00  0.00     0.347 HD
ATOM     12  H   UNL A   1      35.570  35.602  29.520  1.00  0.00     0.347 HD
BRANCH  10  13
ATOM     13  C   UNL A   1      33.730  35.166  28.858  1.00  0.00     0.257 C 
ATOM     14  C   UNL A   1      32.854  36.368  29.187  1.00  0.00     0.071 C 
ENDBRANCH  10  13
ENDBRANCH   5  10
BRANCH   7  15
ATOM     15  C   UNL A   1      34.371  33.738  32.540  1.00  0.00     0.022 C 
BRANCH  15  16
ATOM     16  C   UNL A   1      35.071  33.301  33.837  1.00  0.00     0.075 C 
BRANCH  16  17
ATOM     17  S   UNL A   1      36.570  34.219  34.341  1.00  0.00    -0.123 SA
BRANCH  17  18
ATOM     18  C   UNL A   1      37.822  33.022  34.408  1.00  0.00     0.045 A 
ATOM     19  C   UNL A   1      37.758  31.722  34.951  1.00  0.00     0.150 A 
ATOM     20  C   UNL A   1      39.128  33.176  34.021  1.00  0.00     0.123 A 
ATOM     21  N   UNL A   1      38.937  31.083  34.874  1.00  0.00    -0.181 NA
ATOM     22  N   UNL A   1      39.699  31.947  34.173  1.00  0.00    -0.275 N 
ATOM     23  C   UNL A   1      40.935  31.513  33.575  1.00  0.00     0.173 C 
ENDBRANCH  17  18
ENDBRANCH  16  17
ENDBRANCH  15  16
ENDBRANCH   7  15
ENDBRANCH   3   5
ENDBRANCH   2   3
ENDBRANCH   1   2
BRANCH   1  24
ATOM     24  C   UNL A   1      34.976  29.614  27.636  1.00  0.00     0.275 C 
BRANCH  24  25
ATOM     25  O   UNL A   1      36.414  29.657  27.541  1.00  0.00    -0.458 OA
BRANCH  25  26
ATOM     26  C   UNL A   1      37.008  29.359  28.721  1.00  0.00     0.338 C 
ATOM     27  O   UNL A   1      36.424  29.127  29.765  1.00  0.00    -0.246 OA
BRANCH  26  28
ATOM     28  C   UNL A   1      38.456  29.159  28.616  1.00  0.00     0.060 A 
ATOM     29  C   UNL A   1      38.983  29.343  27.341  1.00  0.00     0.016 A 
ATOM     30  C   UNL A   1      39.271  28.714  29.651  1.00  0.00     0.016 A 
ATOM     31  C   UNL A   1      40.314  29.084  27.065  1.00  0.00     0.010 A 
ATOM     32  C   UNL A   1      40.628  28.472  29.387  1.00  0.00     0.010 A 
ATOM     33  C   UNL A   1      41.153  28.666  28.096  1.00  0.00    -0.014 A 
BRANCH  33  34
ATOM     34  C   UNL A   1      42.599  28.574  27.811  1.00  0.00     0.031 A 
ATOM     35  C   UNL A   1      43.523  29.710  28.120  1.00  0.00     0.074 A 
ATOM     36  C   UNL A   1      43.075  27.395  27.368  1.00  0.00     0.049 A 
ATOM     37  N   UNL A   1      44.811  29.796  27.911  1.00  0.00    -0.248 NA
ATOM     38  C   UNL A   1      42.932  30.895  28.762  1.00  0.00     0.031 C 
ATOM     39  C   UNL A   1      42.264  26.191  27.155  1.00  0.00     0.029 A 
ATOM     40  N   UNL A   1      44.345  27.003  27.040  1.00  0.00    -0.354 N 
ATOM     41  C   UNL A   1      45.188  31.046  28.384  1.00  0.00     0.074 A 
ATOM     42  C   UNL A   1      43.992  31.683  28.894  1.00  0.00     0.031 C 
ATOM     43  C   UNL A   1      43.060  25.197  26.734  1.00  0.00     0.029 A 
ATOM     44  C   UNL A   1      44.419  25.706  26.593  1.00  0.00     0.049 A 
ATOM     45  H   UNL A   1      45.129  27.594  27.117  1.00  0.00     0.167 HD
ATOM     46  C   UNL A   1      46.421  31.609  28.371  1.00  0.00     0.031 A 
ATOM     47  C   UNL A   1      45.460  25.019  26.086  1.00  0.00     0.031 A 
ATOM     48  C   UNL A   1      47.590  30.969  27.823  1.00  0.00     0.049 A 
ATOM     49  C   UNL A   1      46.789  25.713  25.977  1.00  0.00     0.074 A 
ATOM     50  C   UNL A   1      48.874  31.472  27.703  1.00  0.00     0.029 A 
ATOM     51  N   UNL A   1      47.616  29.684  27.297  1.00  0.00    -0.354 N 
ATOM     52  N   UNL A   1      47.124  26.918  26.378  1.00  0.00    -0.248 NA
ATOM     53  C   UNL A   1      47.877  24.962  25.340  1.00  0.00     0.031 C 
ATOM     54  C   UNL A   1      49.662  30.511  27.058  1.00  0.00     0.029 A 
ATOM     55  C   UNL A   1      48.884  29.386  26.829  1.00  0.00     0.049 A 
ATOM     56  H   UNL A   1      46.844  29.074  27.263  1.00  0.00     0.167 HD
ATOM     57  C   UNL A   1      48.464  27.066  26.048  1.00  0.00     0.074 A 
ATOM     58  C   UNL A   1      48.885  25.818  25.442  1.00  0.00     0.031 C 
ATOM     59  C   UNL A   1      49.275  28.139  26.221  1.00  0.00     0.031 A 
BRANCH  46  60
ATOM     60  C   UNL A   1      46.552  33.012  28.900  1.00  0.00    -0.014 A 
ATOM     61  C   UNL A   1      46.877  33.262  30.244  1.00  0.00     0.010 A 
ATOM     62  C   UNL A   1      46.386  34.099  28.022  1.00  0.00     0.010 A 
ATOM     63  C   UNL A   1      47.009  34.576  30.707  1.00  0.00     0.020 A 
ATOM     64  C   UNL A   1      46.536  35.412  28.476  1.00  0.00     0.020 A 
ATOM     65  C   UNL A   1      46.833  35.643  29.821  1.00  0.00     0.054 A 
BRANCH  65  66
ATOM     66  S   UNL A   1      47.032  37.338  30.440  1.00  0.00     0.124 S 
ATOM     67  O   UNL A   1      47.583  38.023  29.274  1.00  0.00    -0.237 OA
ATOM     68  O   UNL A   1      45.665  37.710  30.800  1.00  0.00    -0.237 OA
ATOM     69  O   UNL A   1      47.950  37.191  31.567  1.00  0.00    -0.744 OA
ENDBRANCH  65  66
ENDBRANCH  46  60
BRANCH  47  70
ATOM     70  C   UNL A   1      45.268  23.634  25.579  1.00  0.00    -0.014 A 
ATOM     71  C   UNL A   1      45.014  23.389  24.219  1.00  0.00     0.010 A 
ATOM     72  C   UNL A   1      45.327  22.545  26.469  1.00  0.00     0.010 A 
ATOM     73  C   UNL A   1      44.796  22.084  23.765  1.00  0.00     0.020 A 
ATOM     74  C   UNL A   1      45.141  21.237  26.014  1.00  0.00     0.020 A 
ATOM     75  C   UNL A   1      44.858  21.017  24.667  1.00  0.00     0.054 A 
BRANCH  75  76
ATOM     76  S   UNL A   1      44.597  19.329  24.054  1.00  0.00     0.124 S 
ATOM     77  O   UNL A   1      45.821  18.661  24.481  1.00  0.00    -0.237 OA
ATOM     78  O   UNL A   1      43.378  18.924  24.749  1.00  0.00    -0.237 OA
ATOM     79  O   UNL A   1      44.451  19.510  22.611  1.00  0.00    -0.744 OA
ENDBRANCH  75  76
ENDBRANCH  47  70
BRANCH  59  80
ATOM     80  C   UNL A   1      50.700  27.995  25.764  1.00  0.00    -0.014 A 
ATOM     81  C   UNL A   1      51.058  28.210  24.422  1.00  0.00     0.010 A 
ATOM     82  C   UNL A   1      51.699  27.668  26.699  1.00  0.00     0.010 A 
ATOM     83  C   UNL A   1      52.386  28.065  24.014  1.00  0.00     0.020 A 
ATOM     84  C   UNL A   1      53.033  27.549  26.300  1.00  0.00     0.020 A 
ATOM     85  C   UNL A   1      53.365  27.732  24.956  1.00  0.00     0.054 A 
BRANCH  85  86
ATOM     86  S   UNL A   1      55.087  27.582  24.410  1.00  0.00     0.124 S 
ATOM     87  O   UNL A   1      55.723  26.972  25.574  1.00  0.00    -0.237 OA
ATOM     88  O   UNL A   1      54.979  26.725  23.231  1.00  0.00    -0.237 OA
ATOM     89  O   UNL A   1      55.484  28.961  24.134  1.00  0.00    -0.744 OA
ENDBRANCH  85  86
ENDBRANCH  59  80
ENDBRANCH  33  34
ENDBRANCH  26  28
ENDBRANCH  25  26
ENDBRANCH  24  25
ENDBRANCH   1  24
TORSDOF 20
ENDMDL
MODEL 3
REMARK VINA RESULT:      -9.1      1.542      8.434
REMARK SMILES CC[NH2+][C@@]1(C(=O)OCCOC(=O)c2ccc(-c3c4nc(c(-c5ccc(S(=O)(=O)[O-])cc5)c5ccc([nH]5)c(-c5ccc(S(=O)(=O)[O-])cc5)c5nc(c(-c6ccc(S(=O)(=O)[O-])cc6)c6ccc3[nH]6)C=C5)C=C4)cc2)CCC[C@H]1CCSc1cnn(C)c1
REMARK SMILES IDX 8 1 7 2 5 3 6 4 4 5 73 6 76 7 74 8 75 9 3 10 2 13 1 14 77 15
REMARK SMILES IDX 78 16 79 17 80 18 81 19 85 20 82 21 83 22 84 23 9 24 10 25
REMARK SMILES IDX 11 26 12 27 13 28 14 29 72 30 15 31 71 32 16 33 17 34 18 35
REMARK SMILES IDX 65 36 19 37 70 38 64 39 66 40 20 41 69 42 63 43 62 44 21 46
REMARK SMILES IDX 51 47 32 48 50 49 33 50 36 51 49 52 67 53 34 54 35 55 48 57
REMARK SMILES IDX 68 58 37 59 22 60 23 61 31 62 24 63 30 64 25 65 26 66 27 67
REMARK SMILES IDX 28 68 29 69 52 70 53 71 61 72 54 73 60 74 55 75 56 76 57 77
REMARK SMILES IDX 58 78 59 79 38 80 39 81 47 82 40 83 46 84 41 85 42 86 43 87
REMARK SMILES IDX 44 88 45 89
REMARK H PARENT 3 11 3 12 66 45 36 56
REMARK Flexibility Score: inf
ROOT
ATOM      1  C   UNL A   1      32.535  29.722  25.181  1.00  0.00     0.274 C 
ENDROOT
BRANCH   1   2
ATOM      2  O   UNL A   1      32.221  28.451  24.569  1.00  0.00    -0.457 OA
BRANCH   2   3
ATOM      3  C   UNL A   1      33.236  27.554  24.476  1.00  0.00     0.368 C 
ATOM      4  O   UNL A   1      34.416  27.863  24.638  1.00  0.00    -0.245 OA
BRANCH   3   5
ATOM      5  C   UNL A   1      32.769  26.080  24.131  1.00  0.00     0.197 C 
ATOM      6  C   UNL A   1      31.231  26.077  24.199  1.00  0.00     0.081 C 
ATOM      7  C   UNL A   1      33.131  25.029  25.243  1.00  0.00     0.063 C 
ATOM      8  C   UNL A   1      30.942  26.099  25.693  1.00  0.00     0.008 C 
ATOM      9  C   UNL A   1      32.074  25.309  26.344  1.00  0.00     0.011 C 
BRANCH   5  10
ATOM     10  N   UNL A   1      33.272  25.668  22.795  1.00  0.00    -0.332 N 
ATOM     11  H   UNL A   1      34.287  25.764  22.799  1.00  0.00     0.347 HD
ATOM     12  H   UNL A   1      32.947  24.709  22.660  1.00  0.00     0.347 HD
BRANCH  10  13
ATOM     13  C   UNL A   1      32.750  26.431  21.656  1.00  0.00     0.257 C 
ATOM     14  C   UNL A   1      32.547  25.509  20.459  1.00  0.00     0.071 C 
ENDBRANCH  10  13
ENDBRANCH   5  10
BRANCH   7  15
ATOM     15  C   UNL A   1      33.057  23.509  24.876  1.00  0.00     0.022 C 
BRANCH  15  16
ATOM     16  C   UNL A   1      33.681  22.518  25.872  1.00  0.00     0.075 C 
BRANCH  16  17
ATOM     17  S   UNL A   1      34.900  21.319  25.222  1.00  0.00    -0.123 SA
BRANCH  17  18
ATOM     18  C   UNL A   1      33.990  19.873  24.930  1.00  0.00     0.045 A 
ATOM     19  C   UNL A   1      32.601  19.671  25.076  1.00  0.00     0.150 A 
ATOM     20  C   UNL A   1      34.489  18.642  24.592  1.00  0.00     0.123 A 
ATOM     21  N   UNL A   1      32.243  18.405  24.807  1.00  0.00    -0.181 NA
ATOM     22  N   UNL A   1      33.396  17.854  24.379  1.00  0.00    -0.275 N 
ATOM     23  C   UNL A   1      33.389  16.600  23.669  1.00  0.00     0.173 C 
ENDBRANCH  17  18
ENDBRANCH  16  17
ENDBRANCH  15  16
ENDBRANCH   7  15
ENDBRANCH   3   5
ENDBRANCH   2   3
ENDBRANCH   1   2
BRANCH   1  24
ATOM     24  C   UNL A   1      32.303  29.701  26.701  1.00  0.00     0.275 C 
BRANCH  24  25
ATOM     25  O   UNL A   1      33.483  29.324  27.439  1.00  0.00    -0.458 OA
BRANCH  25  26
ATOM     26  C   UNL A   1      34.206  30.402  27.822  1.00  0.00     0.338 C 
ATOM     27  O   UNL A   1      33.779  31.538  27.921  1.00  0.00    -0.246 OA
BRANCH  26  28
ATOM     28  C   UNL A   1      35.554  30.068  28.292  1.00  0.00     0.060 A 
ATOM     29  C   UNL A   1      36.544  30.110  27.314  1.00  0.00     0.016 A 
ATOM     30  C   UNL A   1      35.859  29.631  29.576  1.00  0.00     0.016 A 
ATOM     31  C   UNL A   1      37.842  29.715  27.583  1.00  0.00     0.010 A 
ATOM     32  C   UNL A   1      37.179  29.252  29.867  1.00  0.00     0.010 A 
ATOM     33  C   UNL A   1      38.174  29.303  28.873  1.00  0.00    -0.014 A 
BRANCH  33  34
ATOM     34  C   UNL A   1      39.601  29.064  29.172  1.00  0.00     0.031 A 
ATOM     35  C   UNL A   1      40.262  27.771  28.811  1.00  0.00     0.074 A 
ATOM     36  C   UNL A   1      40.312  30.089  29.678  1.00  0.00     0.049 A 
ATOM     37  N   UNL A   1      41.497  27.398  29.022  1.00  0.00    -0.248 NA
ATOM     38  C   UNL A   1      39.440  26.777  28.105  1.00  0.00     0.031 C 
ATOM     39  C   UNL A   1      39.778  31.428  29.948  1.00  0.00     0.029 A 
ATOM     40  N   UNL A   1      41.631  30.179  30.034  1.00  0.00    -0.354 N 
ATOM     41  C   UNL A   1      41.603  26.120  28.488  1.00  0.00     0.074 A 
ATOM     42  C   UNL A   1      40.306  25.784  27.938  1.00  0.00     0.031 C 
ATOM     43  C   UNL A   1      40.762  32.204  30.425  1.00  0.00     0.029 A 
ATOM     44  C   UNL A   1      41.977  31.406  30.548  1.00  0.00     0.049 A 
ATOM     45  H   UNL A   1      42.270  29.437  29.932  1.00  0.00     0.167 HD
ATOM     46  C   UNL A   1      42.684  25.303  28.480  1.00  0.00     0.031 A 
ATOM     47  C   UNL A   1      43.132  31.825  31.096  1.00  0.00     0.031 A 
ATOM     48  C   UNL A   1      43.954  25.647  29.067  1.00  0.00     0.049 A 
ATOM     49  C   UNL A   1      44.278  30.854  31.177  1.00  0.00     0.074 A 
ATOM     50  C   UNL A   1      45.097  24.872  29.169  1.00  0.00     0.029 A 
ATOM     51  N   UNL A   1      44.248  26.868  29.659  1.00  0.00    -0.354 N 
ATOM     52  N   UNL A   1      44.351  29.627  30.717  1.00  0.00    -0.248 NA
ATOM     53  C   UNL A   1      45.491  31.320  31.860  1.00  0.00     0.031 C 
ATOM     54  C   UNL A   1      46.062  25.606  29.868  1.00  0.00     0.029 A 
ATOM     55  C   UNL A   1      45.543  26.860  30.150  1.00  0.00     0.049 A 
ATOM     56  H   UNL A   1      43.627  27.629  29.720  1.00  0.00     0.167 HD
ATOM     57  C   UNL A   1      45.621  29.176  31.048  1.00  0.00     0.074 A 
ATOM     58  C   UNL A   1      46.292  30.271  31.720  1.00  0.00     0.031 C 
ATOM     59  C   UNL A   1      46.184  27.962  30.824  1.00  0.00     0.031 A 
BRANCH  46  60
ATOM     60  C   UNL A   1      42.518  23.934  27.879  1.00  0.00    -0.014 A 
ATOM     61  C   UNL A   1      42.729  23.702  26.510  1.00  0.00     0.010 A 
ATOM     62  C   UNL A   1      42.183  22.851  28.714  1.00  0.00     0.010 A 
ATOM     63  C   UNL A   1      42.583  22.415  25.980  1.00  0.00     0.020 A 
ATOM     64  C   UNL A   1      42.056  21.560  28.192  1.00  0.00     0.020 A 
ATOM     65  C   UNL A   1      42.243  21.353  26.824  1.00  0.00     0.054 A 
BRANCH  65  66
ATOM     66  S   UNL A   1      42.082  19.689  26.116  1.00  0.00     0.124 S 
ATOM     67  O   UNL A   1      42.465  18.844  27.244  1.00  0.00    -0.237 OA
ATOM     68  O   UNL A   1      40.672  19.635  25.740  1.00  0.00    -0.237 OA
ATOM     69  O   UNL A   1      43.021  19.695  24.997  1.00  0.00    -0.744 OA
ENDBRANCH  65  66
ENDBRANCH  46  60
BRANCH  47  70
ATOM     70  C   UNL A   1      43.236  33.192  31.673  1.00  0.00    -0.014 A 
ATOM     71  C   UNL A   1      43.691  34.273  30.899  1.00  0.00     0.010 A 
ATOM     72  C   UNL A   1      42.890  33.415  33.020  1.00  0.00     0.010 A 
ATOM     73  C   UNL A   1      43.821  35.544  31.469  1.00  0.00     0.020 A 
ATOM     74  C   UNL A   1      42.988  34.689  33.583  1.00  0.00     0.020 A 
ATOM     75  C   UNL A   1      43.472  35.743  32.808  1.00  0.00     0.054 A 
BRANCH  75  76
ATOM     76  S   UNL A   1      43.625  37.403  33.522  1.00  0.00     0.124 S 
ATOM     77  O   UNL A   1      43.758  38.233  32.329  1.00  0.00    -0.237 OA
ATOM     78  O   UNL A   1      42.372  37.549  34.259  1.00  0.00    -0.237 OA
ATOM     79  O   UNL A   1      44.821  37.306  34.356  1.00  0.00    -0.744 OA
ENDBRANCH  75  76
ENDBRANCH  47  70
BRANCH  59  80
ATOM     80  C   UNL A   1      47.598  27.770  31.297  1.00  0.00    -0.014 A 
ATOM     81  C   UNL A   1      48.689  28.099  30.474  1.00  0.00     0.010 A 
ATOM     82  C   UNL A   1      47.837  27.282  32.594  1.00  0.00     0.010 A 
ATOM     83  C   UNL A   1      49.997  27.908  30.927  1.00  0.00     0.020 A 
ATOM     84  C   UNL A   1      49.143  27.116  33.060  1.00  0.00     0.020 A 
ATOM     85  C   UNL A   1      50.215  27.414  32.217  1.00  0.00     0.054 A 
BRANCH  85  86
ATOM     86  S   UNL A   1      51.921  27.206  32.796  1.00  0.00     0.124 S 
ATOM     87  O   UNL A   1      51.818  26.003  33.616  1.00  0.00    -0.237 OA
ATOM     88  O   UNL A   1      52.669  27.055  31.550  1.00  0.00    -0.237 OA
ATOM     89  O   UNL A   1      52.189  28.441  33.531  1.00  0.00    -0.744 OA
ENDBRANCH  85  86
ENDBRANCH  59  80
ENDBRANCH  33  34
ENDBRANCH  26  28
ENDBRANCH  25  26
ENDBRANCH  24  25
ENDBRANCH   1  24
TORSDOF 20
ENDMDL
