MODEL 1
REMARK VINA RESULT:     -10.9      0.000      0.000
REMARK SMILES COc1ccc(S(=O)(=O)N[C@@H](CO)C(=O)OCCOC(=O)c2ccc(-c3c4nc(c(-c5ccc(S(=O)(=O)[O-])cc5)c5ccc([nH]5)c(-c5ccc(S(=O)(=O)[O-])cc5)c5nc(c(-c6ccc(S(=O)(=O)[O-])cc6)c6ccc3[nH]6)C=C5)C=C4)cc2)cc1C
REMARK SMILES IDX 17 1 16 2 14 3 15 4 11 5 10 6 7 8 8 9 9 10 6 11 3 12 4 13
REMARK SMILES IDX 83 14 5 15 82 16 84 17 2 18 1 19 12 20 13 21 18 23 19 24
REMARK SMILES IDX 20 25 21 26 22 27 23 28 81 29 24 30 80 31 25 32 26 33 27 34
REMARK SMILES IDX 74 35 28 36 79 37 73 38 75 39 29 40 78 41 72 42 71 43 30 45
REMARK SMILES IDX 60 46 41 47 59 48 42 49 45 50 58 51 76 52 43 53 44 54 57 56
REMARK SMILES IDX 77 57 46 58 31 59 32 60 40 61 33 62 39 63 34 64 35 65 36 66
REMARK SMILES IDX 37 67 38 68 61 69 62 70 70 71 63 72 69 73 64 74 65 75 66 76
REMARK SMILES IDX 67 77 68 78 47 79 48 80 56 81 49 82 55 83 50 84 51 85 52 86
REMARK SMILES IDX 53 87 54 88
REMARK H PARENT 10 7 13 22 75 44 45 55
REMARK Flexibility Score: inf
ROOT
ATOM      1  C   UNL A   1      37.908  21.613  25.499  1.00  0.00     0.274 C 
ENDROOT
BRANCH   1   2
ATOM      2  O   UNL A   1      36.705  22.392  25.507  1.00  0.00    -0.461 OA
BRANCH   2   3
ATOM      3  C   UNL A   1      36.237  22.715  24.262  1.00  0.00     0.326 C 
ATOM      4  O   UNL A   1      36.880  22.490  23.246  1.00  0.00    -0.250 OA
BRANCH   3   5
ATOM      5  C   UNL A   1      34.830  23.352  24.342  1.00  0.00     0.205 C 
BRANCH   5   6
ATOM      6  N   UNL A   1      34.524  23.918  23.013  1.00  0.00    -0.194 NA
ATOM      7  H   UNL A   1      35.347  24.466  22.765  1.00  0.00     0.142 HD
BRANCH   6   8
ATOM      8  S   UNL A   1      33.233  24.877  22.618  1.00  0.00     0.241 S 
ATOM      9  O   UNL A   1      32.052  24.087  22.737  1.00  0.00    -0.207 OA
ATOM     10  O   UNL A   1      33.598  25.462  21.326  1.00  0.00    -0.207 OA
BRANCH   8  11
ATOM     11  C   UNL A   1      33.065  26.272  23.722  1.00  0.00     0.083 A 
ATOM     12  C   UNL A   1      33.256  28.506  25.430  1.00  0.00     0.121 A 
ATOM     13  C   UNL A   1      33.870  28.526  24.182  1.00  0.00     0.048 A 
ATOM     14  C   UNL A   1      32.449  27.418  25.789  1.00  0.00    -0.008 A 
ATOM     15  C   UNL A   1      33.765  27.425  23.330  1.00  0.00     0.025 A 
ATOM     16  C   UNL A   1      32.401  26.265  24.952  1.00  0.00     0.029 A 
ATOM     17  C   UNL A   1      31.607  27.469  27.033  1.00  0.00     0.048 C 
BRANCH  12  18
ATOM     18  O   UNL A   1      33.432  29.628  26.200  1.00  0.00    -0.496 OA
ATOM     19  C   UNL A   1      34.584  29.558  27.047  1.00  0.00     0.278 C 
ENDBRANCH  12  18
ENDBRANCH   8  11
ENDBRANCH   6   8
ENDBRANCH   5   6
BRANCH   5  20
ATOM     20  C   UNL A   1      33.821  22.387  24.982  1.00  0.00     0.188 C 
BRANCH  20  21
ATOM     21  O   UNL A   1      34.182  21.012  24.942  1.00  0.00    -0.394 OA
ATOM     22  H   UNL A   1      35.003  20.908  24.435  1.00  0.00     0.210 HD
ENDBRANCH  20  21
ENDBRANCH   5  20
ENDBRANCH   3   5
ENDBRANCH   2   3
ENDBRANCH   1   2
BRANCH   1  23
ATOM     23  C   UNL A   1      39.071  22.326  26.225  1.00  0.00     0.275 C 
BRANCH  23  24
ATOM     24  O   UNL A   1      38.900  23.659  26.784  1.00  0.00    -0.458 OA
BRANCH  24  25
ATOM     25  C   UNL A   1      39.906  24.240  27.494  1.00  0.00     0.338 C 
ATOM     26  O   UNL A   1      41.051  23.812  27.506  1.00  0.00    -0.246 OA
BRANCH  25  27
ATOM     27  C   UNL A   1      39.501  25.598  27.951  1.00  0.00     0.060 A 
ATOM     28  C   UNL A   1      38.954  25.765  29.233  1.00  0.00     0.016 A 
ATOM     29  C   UNL A   1      40.020  26.686  27.264  1.00  0.00     0.016 A 
ATOM     30  C   UNL A   1      39.089  26.975  29.906  1.00  0.00     0.010 A 
ATOM     31  C   UNL A   1      40.338  27.800  27.986  1.00  0.00     0.010 A 
ATOM     32  C   UNL A   1      39.839  27.966  29.287  1.00  0.00    -0.014 A 
BRANCH  32  33
ATOM     33  C   UNL A   1      39.970  29.327  29.768  1.00  0.00     0.031 A 
ATOM     34  C   UNL A   1      38.892  30.319  29.565  1.00  0.00     0.074 A 
ATOM     35  C   UNL A   1      41.098  29.476  30.505  1.00  0.00     0.049 A 
ATOM     36  N   UNL A   1      39.068  31.583  29.399  1.00  0.00    -0.248 NA
ATOM     37  C   UNL A   1      37.476  29.954  29.470  1.00  0.00     0.031 C 
ATOM     38  C   UNL A   1      41.527  30.539  31.387  1.00  0.00     0.029 A 
ATOM     39  N   UNL A   1      42.213  28.612  30.514  1.00  0.00    -0.354 N 
ATOM     40  C   UNL A   1      37.832  32.179  29.618  1.00  0.00     0.074 A 
ATOM     41  C   UNL A   1      36.861  31.143  29.414  1.00  0.00     0.031 C 
ATOM     42  C   UNL A   1      42.871  30.462  31.507  1.00  0.00     0.029 A 
ATOM     43  C   UNL A   1      43.329  29.428  30.581  1.00  0.00     0.049 A 
ATOM     44  H   UNL A   1      42.200  27.628  30.479  1.00  0.00     0.167 HD
ATOM     45  C   UNL A   1      37.780  33.390  30.246  1.00  0.00     0.031 A 
ATOM     46  C   UNL A   1      44.098  29.618  29.464  1.00  0.00     0.031 A 
ATOM     47  C   UNL A   1      39.137  33.801  30.589  1.00  0.00     0.049 A 
ATOM     48  C   UNL A   1      44.024  31.068  29.046  1.00  0.00     0.074 A 
ATOM     49  C   UNL A   1      39.853  33.681  31.768  1.00  0.00     0.029 A 
ATOM     50  N   UNL A   1      40.058  34.020  29.578  1.00  0.00    -0.354 N 
ATOM     51  N   UNL A   1      42.966  31.823  29.179  1.00  0.00    -0.248 NA
ATOM     52  C   UNL A   1      45.193  31.799  28.582  1.00  0.00     0.031 C 
ATOM     53  C   UNL A   1      41.231  33.782  31.442  1.00  0.00     0.029 A 
ATOM     54  C   UNL A   1      41.345  33.952  30.072  1.00  0.00     0.049 A 
ATOM     55  H   UNL A   1      39.827  34.198  28.637  1.00  0.00     0.167 HD
ATOM     56  C   UNL A   1      43.320  33.133  28.967  1.00  0.00     0.074 A 
ATOM     57  C   UNL A   1      44.719  33.055  28.569  1.00  0.00     0.031 C 
ATOM     58  C   UNL A   1      42.476  34.190  29.186  1.00  0.00     0.031 A 
BRANCH  45  59
ATOM     59  C   UNL A   1      36.564  34.044  30.885  1.00  0.00    -0.014 A 
ATOM     60  C   UNL A   1      35.402  34.205  30.093  1.00  0.00     0.010 A 
ATOM     61  C   UNL A   1      36.474  34.521  32.208  1.00  0.00     0.010 A 
ATOM     62  C   UNL A   1      34.249  34.853  30.554  1.00  0.00     0.020 A 
ATOM     63  C   UNL A   1      35.318  35.180  32.686  1.00  0.00     0.020 A 
ATOM     64  C   UNL A   1      34.216  35.350  31.850  1.00  0.00     0.054 A 
BRANCH  64  65
ATOM     65  S   UNL A   1      32.707  36.188  32.410  1.00  0.00     0.124 S 
ATOM     66  O   UNL A   1      31.782  35.073  32.605  1.00  0.00    -0.237 OA
ATOM     67  O   UNL A   1      33.149  36.856  33.631  1.00  0.00    -0.237 OA
ATOM     68  O   UNL A   1      32.372  37.080  31.303  1.00  0.00    -0.744 OA
ENDBRANCH  64  65
ENDBRANCH  45  59
BRANCH  46  69
ATOM     69  C   UNL A   1      44.205  28.430  28.546  1.00  0.00    -0.014 A 
ATOM     70  C   UNL A   1      43.913  28.648  27.180  1.00  0.00     0.010 A 
ATOM     71  C   UNL A   1      44.904  27.255  28.885  1.00  0.00     0.010 A 
ATOM     72  C   UNL A   1      44.433  27.821  26.180  1.00  0.00     0.020 A 
ATOM     73  C   UNL A   1      45.412  26.403  27.875  1.00  0.00     0.020 A 
ATOM     74  C   UNL A   1      45.215  26.723  26.526  1.00  0.00     0.054 A 
BRANCH  74  75
ATOM     75  S   UNL A   1      46.133  25.894  25.185  1.00  0.00     0.124 S 
ATOM     76  O   UNL A   1      45.164  24.924  24.691  1.00  0.00    -0.237 OA
ATOM     77  O   UNL A   1      46.450  27.001  24.285  1.00  0.00    -0.237 OA
ATOM     78  O   UNL A   1      47.292  25.331  25.863  1.00  0.00    -0.744 OA
ENDBRANCH  74  75
ENDBRANCH  46  69
BRANCH  58  79
ATOM     79  C   UNL A   1      42.648  35.602  28.662  1.00  0.00    -0.014 A 
ATOM     80  C   UNL A   1      42.383  35.995  27.347  1.00  0.00     0.010 A 
ATOM     81  C   UNL A   1      42.996  36.641  29.567  1.00  0.00     0.010 A 
ATOM     82  C   UNL A   1      42.521  37.323  26.937  1.00  0.00     0.020 A 
ATOM     83  C   UNL A   1      43.067  37.982  29.189  1.00  0.00     0.020 A 
ATOM     84  C   UNL A   1      42.857  38.310  27.861  1.00  0.00     0.054 A 
BRANCH  84  85
ATOM     85  S   UNL A   1      42.988  40.014  27.294  1.00  0.00     0.124 S 
ATOM     86  O   UNL A   1      41.614  40.299  26.888  1.00  0.00    -0.237 OA
ATOM     87  O   UNL A   1      43.443  40.710  28.497  1.00  0.00    -0.237 OA
ATOM     88  O   UNL A   1      43.963  39.949  26.209  1.00  0.00    -0.744 OA
ENDBRANCH  84  85
ENDBRANCH  58  79
ENDBRANCH  32  33
ENDBRANCH  25  27
ENDBRANCH  24  25
ENDBRANCH  23  24
ENDBRANCH   1  23
TORSDOF 20
ENDMDL
MODEL 2
REMARK VINA RESULT:     -10.1      2.629      3.393
REMARK SMILES COc1ccc(S(=O)(=O)N[C@@H](CO)C(=O)OCCOC(=O)c2ccc(-c3c4nc(c(-c5ccc(S(=O)(=O)[O-])cc5)c5ccc([nH]5)c(-c5ccc(S(=O)(=O)[O-])cc5)c5nc(c(-c6ccc(S(=O)(=O)[O-])cc6)c6ccc3[nH]6)C=C5)C=C4)cc2)cc1C
REMARK SMILES IDX 17 1 16 2 14 3 15 4 11 5 10 6 7 8 8 9 9 10 6 11 3 12 4 13
REMARK SMILES IDX 83 14 5 15 82 16 84 17 2 18 1 19 12 20 13 21 18 23 19 24
REMARK SMILES IDX 20 25 21 26 22 27 23 28 81 29 24 30 80 31 25 32 26 33 27 34
REMARK SMILES IDX 74 35 28 36 79 37 73 38 75 39 29 40 78 41 72 42 71 43 30 45
REMARK SMILES IDX 60 46 41 47 59 48 42 49 45 50 58 51 76 52 43 53 44 54 57 56
REMARK SMILES IDX 77 57 46 58 31 59 32 60 40 61 33 62 39 63 34 64 35 65 36 66
REMARK SMILES IDX 37 67 38 68 61 69 62 70 70 71 63 72 69 73 64 74 65 75 66 76
REMARK SMILES IDX 67 77 68 78 47 79 48 80 56 81 49 82 55 83 50 84 51 85 52 86
REMARK SMILES IDX 53 87 54 88
REMARK H PARENT 10 7 13 22 75 44 45 55
REMARK Flexibility Score: inf
ROOT
ATOM      1  C   UNL A   1      39.164  21.436  26.180  1.00  0.00     0.274 C 
ENDROOT
BRANCH   1   2
ATOM      2  O   UNL A   1      38.119  21.773  25.257  1.00  0.00    -0.461 OA
BRANCH   2   3
ATOM      3  C   UNL A   1      37.281  20.735  24.954  1.00  0.00     0.326 C 
ATOM      4  O   UNL A   1      37.699  19.634  24.623  1.00  0.00    -0.250 OA
BRANCH   3   5
ATOM      5  C   UNL A   1      35.799  21.149  25.115  1.00  0.00     0.205 C 
BRANCH   5   6
ATOM      6  N   UNL A   1      35.518  22.186  24.103  1.00  0.00    -0.194 NA
ATOM      7  H   UNL A   1      36.323  22.169  23.478  1.00  0.00     0.142 HD
BRANCH   6   8
ATOM      8  S   UNL A   1      35.227  23.793  24.385  1.00  0.00     0.241 S 
ATOM      9  O   UNL A   1      35.206  24.458  23.124  1.00  0.00    -0.207 OA
ATOM     10  O   UNL A   1      36.218  24.168  25.397  1.00  0.00    -0.207 OA
BRANCH   8  11
ATOM     11  C   UNL A   1      33.645  24.065  25.168  1.00  0.00     0.083 A 
ATOM     12  C   UNL A   1      31.146  24.043  26.473  1.00  0.00     0.121 A 
ATOM     13  C   UNL A   1      32.244  23.414  27.053  1.00  0.00     0.048 A 
ATOM     14  C   UNL A   1      31.314  24.784  25.294  1.00  0.00    -0.008 A 
ATOM     15  C   UNL A   1      33.484  23.435  26.413  1.00  0.00     0.025 A 
ATOM     16  C   UNL A   1      32.561  24.745  24.606  1.00  0.00     0.029 A 
ATOM     17  C   UNL A   1      30.200  25.645  24.768  1.00  0.00     0.048 C 
BRANCH  12  18
ATOM     18  O   UNL A   1      29.968  23.950  27.168  1.00  0.00    -0.496 OA
ATOM     19  C   UNL A   1      29.426  22.626  27.192  1.00  0.00     0.278 C 
ENDBRANCH  12  18
ENDBRANCH   8  11
ENDBRANCH   6   8
ENDBRANCH   5   6
BRANCH   5  20
ATOM     20  C   UNL A   1      34.884  19.917  25.181  1.00  0.00     0.188 C 
BRANCH  20  21
ATOM     21  O   UNL A   1      33.759  20.039  26.043  1.00  0.00    -0.394 OA
ATOM     22  H   UNL A   1      33.671  19.232  26.574  1.00  0.00     0.210 HD
ENDBRANCH  20  21
ENDBRANCH   5  20
ENDBRANCH   3   5
ENDBRANCH   2   3
ENDBRANCH   1   2
BRANCH   1  23
ATOM     23  C   UNL A   1      40.089  22.635  26.479  1.00  0.00     0.275 C 
BRANCH  23  24
ATOM     24  O   UNL A   1      39.553  23.983  26.603  1.00  0.00    -0.458 OA
BRANCH  24  25
ATOM     25  C   UNL A   1      40.391  25.056  26.645  1.00  0.00     0.338 C 
ATOM     26  O   UNL A   1      41.336  25.196  25.882  1.00  0.00    -0.246 OA
BRANCH  25  27
ATOM     27  C   UNL A   1      39.807  26.138  27.485  1.00  0.00     0.060 A 
ATOM     28  C   UNL A   1      39.241  25.821  28.729  1.00  0.00     0.016 A 
ATOM     29  C   UNL A   1      40.178  27.443  27.196  1.00  0.00     0.016 A 
ATOM     30  C   UNL A   1      39.212  26.764  29.752  1.00  0.00     0.010 A 
ATOM     31  C   UNL A   1      40.342  28.303  28.243  1.00  0.00     0.010 A 
ATOM     32  C   UNL A   1      39.824  27.986  29.507  1.00  0.00    -0.014 A 
BRANCH  32  33
ATOM     33  C   UNL A   1      39.771  29.131  30.394  1.00  0.00     0.031 A 
ATOM     34  C   UNL A   1      38.987  30.336  30.045  1.00  0.00     0.074 A 
ATOM     35  C   UNL A   1      40.395  28.866  31.569  1.00  0.00     0.049 A 
ATOM     36  N   UNL A   1      39.288  31.541  30.383  1.00  0.00    -0.248 NA
ATOM     37  C   UNL A   1      37.786  30.294  29.208  1.00  0.00     0.031 C 
ATOM     38  C   UNL A   1      40.388  29.570  32.832  1.00  0.00     0.029 A 
ATOM     39  N   UNL A   1      41.313  27.823  31.812  1.00  0.00    -0.354 N 
ATOM     40  C   UNL A   1      38.137  32.297  30.190  1.00  0.00     0.074 A 
ATOM     41  C   UNL A   1      37.341  31.557  29.253  1.00  0.00     0.031 C 
ATOM     42  C   UNL A   1      41.491  29.201  33.519  1.00  0.00     0.029 A 
ATOM     43  C   UNL A   1      42.292  28.360  32.631  1.00  0.00     0.049 A 
ATOM     44  H   UNL A   1      41.268  26.902  31.469  1.00  0.00     0.167 HD
ATOM     45  C   UNL A   1      37.845  33.299  31.070  1.00  0.00     0.031 A 
ATOM     46  C   UNL A   1      43.520  28.665  32.110  1.00  0.00     0.031 A 
ATOM     47  C   UNL A   1      38.876  33.334  32.101  1.00  0.00     0.049 A 
ATOM     48  C   UNL A   1      43.738  30.158  32.182  1.00  0.00     0.074 A 
ATOM     49  C   UNL A   1      38.910  32.786  33.372  1.00  0.00     0.029 A 
ATOM     50  N   UNL A   1      40.186  33.611  31.746  1.00  0.00    -0.354 N 
ATOM     51  N   UNL A   1      42.793  31.050  32.048  1.00  0.00    -0.248 NA
ATOM     52  C   UNL A   1      45.020  30.735  32.556  1.00  0.00     0.031 C 
ATOM     53  C   UNL A   1      40.272  32.690  33.760  1.00  0.00     0.029 A 
ATOM     54  C   UNL A   1      41.056  33.169  32.723  1.00  0.00     0.049 A 
ATOM     55  H   UNL A   1      40.459  34.059  30.913  1.00  0.00     0.167 HD
ATOM     56  C   UNL A   1      43.273  32.275  32.444  1.00  0.00     0.074 A 
ATOM     57  C   UNL A   1      44.680  32.023  32.724  1.00  0.00     0.031 C 
ATOM     58  C   UNL A   1      42.488  33.390  32.573  1.00  0.00     0.031 A 
BRANCH  45  59
ATOM     59  C   UNL A   1      36.509  34.001  31.254  1.00  0.00    -0.014 A 
ATOM     60  C   UNL A   1      36.321  34.779  32.421  1.00  0.00     0.010 A 
ATOM     61  C   UNL A   1      35.413  33.950  30.369  1.00  0.00     0.010 A 
ATOM     62  C   UNL A   1      35.110  35.414  32.727  1.00  0.00     0.020 A 
ATOM     63  C   UNL A   1      34.184  34.582  30.667  1.00  0.00     0.020 A 
ATOM     64  C   UNL A   1      34.039  35.303  31.851  1.00  0.00     0.054 A 
BRANCH  64  65
ATOM     65  S   UNL A   1      32.486  36.133  32.286  1.00  0.00     0.124 S 
ATOM     66  O   UNL A   1      31.621  35.013  32.650  1.00  0.00    -0.237 OA
ATOM     67  O   UNL A   1      32.887  36.999  33.391  1.00  0.00    -0.237 OA
ATOM     68  O   UNL A   1      32.107  36.830  31.059  1.00  0.00    -0.744 OA
ENDBRANCH  64  65
ENDBRANCH  45  59
BRANCH  46  69
ATOM     69  C   UNL A   1      44.004  27.745  31.021  1.00  0.00    -0.014 A 
ATOM     70  C   UNL A   1      44.643  26.551  31.430  1.00  0.00     0.010 A 
ATOM     71  C   UNL A   1      43.551  27.821  29.690  1.00  0.00     0.010 A 
ATOM     72  C   UNL A   1      44.684  25.424  30.603  1.00  0.00     0.020 A 
ATOM     73  C   UNL A   1      43.613  26.688  28.843  1.00  0.00     0.020 A 
ATOM     74  C   UNL A   1      44.134  25.482  29.326  1.00  0.00     0.054 A 
BRANCH  74  75
ATOM     75  S   UNL A   1      43.917  23.902  28.438  1.00  0.00     0.124 S 
ATOM     76  O   UNL A   1      44.937  23.056  29.044  1.00  0.00    -0.237 OA
ATOM     77  O   UNL A   1      42.530  23.554  28.740  1.00  0.00    -0.237 OA
ATOM     78  O   UNL A   1      44.148  24.260  27.046  1.00  0.00    -0.744 OA
ENDBRANCH  74  75
ENDBRANCH  46  69
BRANCH  58  79
ATOM     79  C   UNL A   1      42.969  34.825  32.657  1.00  0.00    -0.014 A 
ATOM     80  C   UNL A   1      43.723  35.465  31.669  1.00  0.00     0.010 A 
ATOM     81  C   UNL A   1      42.553  35.634  33.749  1.00  0.00     0.010 A 
ATOM     82  C   UNL A   1      44.099  36.806  31.788  1.00  0.00     0.020 A 
ATOM     83  C   UNL A   1      42.860  36.992  33.845  1.00  0.00     0.020 A 
ATOM     84  C   UNL A   1      43.662  37.562  32.872  1.00  0.00     0.054 A 
BRANCH  84  85
ATOM     85  S   UNL A   1      44.142  39.295  32.964  1.00  0.00     0.124 S 
ATOM     86  O   UNL A   1      45.596  39.196  33.059  1.00  0.00    -0.237 OA
ATOM     87  O   UNL A   1      43.631  39.829  31.703  1.00  0.00    -0.237 OA
ATOM     88  O   UNL A   1      43.465  39.784  34.163  1.00  0.00    -0.744 OA
ENDBRANCH  84  85
ENDBRANCH  58  79
ENDBRANCH  32  33
ENDBRANCH  25  27
ENDBRANCH  24  25
ENDBRANCH  23  24
ENDBRANCH   1  23
TORSDOF 20
ENDMDL
MODEL 3
REMARK VINA RESULT:      -9.7      2.299      3.174
REMARK SMILES COc1ccc(S(=O)(=O)N[C@@H](CO)C(=O)OCCOC(=O)c2ccc(-c3c4nc(c(-c5ccc(S(=O)(=O)[O-])cc5)c5ccc([nH]5)c(-c5ccc(S(=O)(=O)[O-])cc5)c5nc(c(-c6ccc(S(=O)(=O)[O-])cc6)c6ccc3[nH]6)C=C5)C=C4)cc2)cc1C
REMARK SMILES IDX 17 1 16 2 14 3 15 4 11 5 10 6 7 8 8 9 9 10 6 11 3 12 4 13
REMARK SMILES IDX 83 14 5 15 82 16 84 17 2 18 1 19 12 20 13 21 18 23 19 24
REMARK SMILES IDX 20 25 21 26 22 27 23 28 81 29 24 30 80 31 25 32 26 33 27 34
REMARK SMILES IDX 74 35 28 36 79 37 73 38 75 39 29 40 78 41 72 42 71 43 30 45
REMARK SMILES IDX 60 46 41 47 59 48 42 49 45 50 58 51 76 52 43 53 44 54 57 56
REMARK SMILES IDX 77 57 46 58 31 59 32 60 40 61 33 62 39 63 34 64 35 65 36 66
REMARK SMILES IDX 37 67 38 68 61 69 62 70 70 71 63 72 69 73 64 74 65 75 66 76
REMARK SMILES IDX 67 77 68 78 47 79 48 80 56 81 49 82 55 83 50 84 51 85 52 86
REMARK SMILES IDX 53 87 54 88
REMARK H PARENT 10 7 13 22 75 44 45 55
REMARK Flexibility Score: inf
ROOT
ATOM      1  C   UNL A   1      39.946  22.061  26.718  1.00  0.00     0.274 C 
ENDROOT
BRANCH   1   2
ATOM      2  O   UNL A   1      39.211  21.640  25.561  1.00  0.00    -0.461 OA
BRANCH   2   3
ATOM      3  C   UNL A   1      37.873  21.924  25.612  1.00  0.00     0.326 C 
ATOM      4  O   UNL A   1      37.454  23.050  25.845  1.00  0.00    -0.250 OA
BRANCH   3   5
ATOM      5  C   UNL A   1      37.024  20.666  25.316  1.00  0.00     0.205 C 
BRANCH   5   6
ATOM      6  N   UNL A   1      35.763  21.120  24.696  1.00  0.00    -0.194 NA
ATOM      7  H   UNL A   1      36.014  21.958  24.173  1.00  0.00     0.142 HD
BRANCH   6   8
ATOM      8  S   UNL A   1      34.356  21.507  25.480  1.00  0.00     0.241 S 
ATOM      9  O   UNL A   1      34.629  21.519  26.880  1.00  0.00    -0.207 OA
ATOM     10  O   UNL A   1      33.367  20.575  24.933  1.00  0.00    -0.207 OA
BRANCH   8  11
ATOM     11  C   UNL A   1      33.757  23.129  25.031  1.00  0.00     0.083 A 
ATOM     12  C   UNL A   1      32.974  25.591  23.904  1.00  0.00     0.121 A 
ATOM     13  C   UNL A   1      32.637  24.396  23.276  1.00  0.00     0.048 A 
ATOM     14  C   UNL A   1      33.605  25.563  25.156  1.00  0.00    -0.008 A 
ATOM     15  C   UNL A   1      33.014  23.176  23.840  1.00  0.00     0.025 A 
ATOM     16  C   UNL A   1      34.053  24.322  25.695  1.00  0.00     0.029 A 
ATOM     17  C   UNL A   1      33.784  26.827  25.950  1.00  0.00     0.048 C 
BRANCH  12  18
ATOM     18  O   UNL A   1      32.576  26.736  23.263  1.00  0.00    -0.496 OA
ATOM     19  C   UNL A   1      33.490  27.165  22.249  1.00  0.00     0.278 C 
ENDBRANCH  12  18
ENDBRANCH   8  11
ENDBRANCH   6   8
ENDBRANCH   5   6
BRANCH   5  20
ATOM     20  C   UNL A   1      37.855  19.594  24.596  1.00  0.00     0.188 C 
BRANCH  20  21
ATOM     21  O   UNL A   1      38.859  18.968  25.385  1.00  0.00    -0.394 OA
ATOM     22  H   UNL A   1      39.158  19.582  26.073  1.00  0.00     0.210 HD
ENDBRANCH  20  21
ENDBRANCH   5  20
ENDBRANCH   3   5
ENDBRANCH   2   3
ENDBRANCH   1   2
BRANCH   1  23
ATOM     23  C   UNL A   1      40.745  23.357  26.464  1.00  0.00     0.275 C 
BRANCH  23  24
ATOM     24  O   UNL A   1      40.081  24.652  26.426  1.00  0.00    -0.458 OA
BRANCH  24  25
ATOM     25  C   UNL A   1      40.808  25.795  26.285  1.00  0.00     0.338 C 
ATOM     26  O   UNL A   1      41.645  25.950  25.408  1.00  0.00    -0.246 OA
BRANCH  25  27
ATOM     27  C   UNL A   1      40.217  26.890  27.101  1.00  0.00     0.060 A 
ATOM     28  C   UNL A   1      39.400  26.575  28.198  1.00  0.00     0.016 A 
ATOM     29  C   UNL A   1      40.788  28.150  26.992  1.00  0.00     0.016 A 
ATOM     30  C   UNL A   1      39.299  27.448  29.277  1.00  0.00     0.010 A 
ATOM     31  C   UNL A   1      40.863  28.913  28.122  1.00  0.00     0.010 A 
ATOM     32  C   UNL A   1      40.088  28.590  29.246  1.00  0.00    -0.014 A 
BRANCH  32  33
ATOM     33  C   UNL A   1      40.014  29.674  30.205  1.00  0.00     0.031 A 
ATOM     34  C   UNL A   1      39.126  30.835  29.983  1.00  0.00     0.074 A 
ATOM     35  C   UNL A   1      40.732  29.388  31.320  1.00  0.00     0.049 A 
ATOM     36  N   UNL A   1      39.362  32.037  30.376  1.00  0.00    -0.248 NA
ATOM     37  C   UNL A   1      37.878  30.753  29.220  1.00  0.00     0.031 C 
ATOM     38  C   UNL A   1      40.758  30.014  32.623  1.00  0.00     0.029 A 
ATOM     39  N   UNL A   1      41.735  28.404  31.439  1.00  0.00    -0.354 N 
ATOM     40  C   UNL A   1      38.151  32.716  30.303  1.00  0.00     0.074 A 
ATOM     41  C   UNL A   1      37.349  31.974  29.373  1.00  0.00     0.031 C 
ATOM     42  C   UNL A   1      41.928  29.688  33.216  1.00  0.00     0.029 A 
ATOM     43  C   UNL A   1      42.725  28.963  32.229  1.00  0.00     0.049 A 
ATOM     44  H   UNL A   1      41.733  27.503  31.043  1.00  0.00     0.167 HD
ATOM     45  C   UNL A   1      37.848  33.640  31.261  1.00  0.00     0.031 A 
ATOM     46  C   UNL A   1      43.892  29.389  31.653  1.00  0.00     0.031 A 
ATOM     47  C   UNL A   1      38.940  33.691  32.227  1.00  0.00     0.049 A 
ATOM     48  C   UNL A   1      44.009  30.887  31.806  1.00  0.00     0.074 A 
ATOM     49  C   UNL A   1      39.096  33.074  33.456  1.00  0.00     0.029 A 
ATOM     50  N   UNL A   1      40.200  34.085  31.810  1.00  0.00    -0.354 N 
ATOM     51  N   UNL A   1      42.996  31.713  31.788  1.00  0.00    -0.248 NA
ATOM     52  C   UNL A   1      45.268  31.535  32.136  1.00  0.00     0.031 C 
ATOM     53  C   UNL A   1      40.485  33.057  33.752  1.00  0.00     0.029 A 
ATOM     54  C   UNL A   1      41.162  33.653  32.701  1.00  0.00     0.049 A 
ATOM     55  H   UNL A   1      40.385  34.601  30.991  1.00  0.00     0.167 HD
ATOM     56  C   UNL A   1      43.414  32.945  32.229  1.00  0.00     0.074 A 
ATOM     57  C   UNL A   1      44.850  32.782  32.405  1.00  0.00     0.031 C 
ATOM     58  C   UNL A   1      42.562  33.988  32.477  1.00  0.00     0.031 A 
BRANCH  45  59
ATOM     59  C   UNL A   1      36.480  34.228  31.571  1.00  0.00    -0.014 A 
ATOM     60  C   UNL A   1      35.455  34.072  30.608  1.00  0.00     0.010 A 
ATOM     61  C   UNL A   1      36.122  34.933  32.738  1.00  0.00     0.010 A 
ATOM     62  C   UNL A   1      34.178  34.630  30.757  1.00  0.00     0.020 A 
ATOM     63  C   UNL A   1      34.839  35.504  32.900  1.00  0.00     0.020 A 
ATOM     64  C   UNL A   1      33.879  35.356  31.902  1.00  0.00     0.054 A 
BRANCH  64  65
ATOM     65  S   UNL A   1      32.217  36.067  32.056  1.00  0.00     0.124 S 
ATOM     66  O   UNL A   1      32.440  37.196  32.957  1.00  0.00    -0.237 OA
ATOM     67  O   UNL A   1      31.895  36.422  30.676  1.00  0.00    -0.237 OA
ATOM     68  O   UNL A   1      31.420  34.979  32.617  1.00  0.00    -0.744 OA
ENDBRANCH  64  65
ENDBRANCH  45  59
BRANCH  46  69
ATOM     69  C   UNL A   1      44.367  28.572  30.481  1.00  0.00    -0.014 A 
ATOM     70  C   UNL A   1      44.475  29.240  29.239  1.00  0.00     0.010 A 
ATOM     71  C   UNL A   1      45.030  27.338  30.619  1.00  0.00     0.010 A 
ATOM     72  C   UNL A   1      45.336  28.784  28.236  1.00  0.00     0.020 A 
ATOM     73  C   UNL A   1      45.885  26.862  29.596  1.00  0.00     0.020 A 
ATOM     74  C   UNL A   1      46.070  27.617  28.432  1.00  0.00     0.054 A 
BRANCH  74  75
ATOM     75  S   UNL A   1      47.412  27.265  27.246  1.00  0.00     0.124 S 
ATOM     76  O   UNL A   1      48.314  26.431  28.028  1.00  0.00    -0.237 OA
ATOM     77  O   UNL A   1      46.705  26.599  26.154  1.00  0.00    -0.237 OA
ATOM     78  O   UNL A   1      47.919  28.586  26.904  1.00  0.00    -0.744 OA
ENDBRANCH  74  75
ENDBRANCH  46  69
BRANCH  58  79
ATOM     79  C   UNL A   1      42.945  35.448  32.622  1.00  0.00    -0.014 A 
ATOM     80  C   UNL A   1      42.728  36.212  33.772  1.00  0.00     0.010 A 
ATOM     81  C   UNL A   1      43.670  36.082  31.577  1.00  0.00     0.010 A 
ATOM     82  C   UNL A   1      43.144  37.543  33.857  1.00  0.00     0.020 A 
ATOM     83  C   UNL A   1      44.155  37.387  31.675  1.00  0.00     0.020 A 
ATOM     84  C   UNL A   1      43.859  38.121  32.810  1.00  0.00     0.054 A 
BRANCH  84  85
ATOM     85  S   UNL A   1      44.405  39.829  32.979  1.00  0.00     0.124 S 
ATOM     86  O   UNL A   1      43.266  40.441  33.657  1.00  0.00    -0.237 OA
ATOM     87  O   UNL A   1      45.616  39.691  33.788  1.00  0.00    -0.237 OA
ATOM     88  O   UNL A   1      44.627  40.264  31.603  1.00  0.00    -0.744 OA
ENDBRANCH  84  85
ENDBRANCH  58  79
ENDBRANCH  32  33
ENDBRANCH  25  27
ENDBRANCH  24  25
ENDBRANCH  23  24
ENDBRANCH   1  23
TORSDOF 20
ENDMDL
