MODEL 1
REMARK VINA RESULT:     -10.9      0.000      0.000
REMARK SMILES C[C@H](C(=O)OCCOC(=O)c1ccc(-c2c3nc(c(-c4ccc(S(=O)(=O)[O-])cc4)c4ccc([nH]4)c(-c4ccc(S(=O)(=O)[O-])cc4)c4nc(c(-c5ccc(S(=O)(=O)[O-])cc5)c5ccc2[nH]5)C=C4)C=C3)cc1)N1C(=O)C[C@](C)(c2ccccc2)C1=O
REMARK SMILES IDX 7 1 6 2 5 3 3 4 4 5 2 6 1 7 71 8 72 9 83 10 73 11 74 12
REMARK SMILES IDX 75 13 84 14 76 15 77 16 78 17 82 18 79 19 81 20 80 21 8 22
REMARK SMILES IDX 9 23 10 24 11 25 12 26 70 27 13 28 69 29 14 30 15 31 16 32
REMARK SMILES IDX 63 33 17 34 68 35 62 36 64 37 18 38 67 39 61 40 60 41 19 43
REMARK SMILES IDX 49 44 30 45 48 46 31 47 34 48 47 49 65 50 32 51 33 52 46 54
REMARK SMILES IDX 66 55 35 56 20 57 21 58 29 59 22 60 28 61 23 62 24 63 25 64
REMARK SMILES IDX 26 65 27 66 50 67 51 68 59 69 52 70 58 71 53 72 54 73 55 74
REMARK SMILES IDX 56 75 57 76 36 77 37 78 45 79 38 80 44 81 39 82 40 83 41 84
REMARK SMILES IDX 42 85 43 86
REMARK H PARENT 64 42 34 53
REMARK Flexibility Score: inf
ROOT
ATOM      1  C   UNL A   1      37.152  23.515  24.787  1.00  0.00     0.275 C 
ENDROOT
BRANCH   1   2
ATOM      2  C   UNL A   1      36.709  22.643  23.618  1.00  0.00     0.274 C 
BRANCH   2   3
ATOM      3  O   UNL A   1      35.589  23.225  22.917  1.00  0.00    -0.461 OA
BRANCH   3   4
ATOM      4  C   UNL A   1      34.360  22.892  23.409  1.00  0.00     0.329 C 
ATOM      5  O   UNL A   1      34.136  21.880  24.067  1.00  0.00    -0.250 OA
BRANCH   4   6
ATOM      6  C   UNL A   1      33.244  23.813  22.910  1.00  0.00     0.200 C 
ATOM      7  C   UNL A   1      31.859  23.187  23.100  1.00  0.00     0.044 C 
BRANCH   6   8
ATOM      8  N   UNL A   1      33.296  25.199  23.369  1.00  0.00    -0.268 N 
ATOM      9  C   UNL A   1      33.346  25.591  24.672  1.00  0.00     0.231 C 
ATOM     10  C   UNL A   1      33.324  26.261  22.511  1.00  0.00     0.240 C 
ATOM     11  O   UNL A   1      33.441  24.862  25.646  1.00  0.00    -0.274 OA
ATOM     12  C   UNL A   1      33.278  27.088  24.755  1.00  0.00     0.122 C 
ATOM     13  C   UNL A   1      33.062  27.541  23.302  1.00  0.00     0.081 C 
ATOM     14  O   UNL A   1      33.478  26.194  21.298  1.00  0.00    -0.273 OA
ATOM     15  C   UNL A   1      34.145  28.563  22.923  1.00  0.00     0.027 C 
BRANCH  13  16
ATOM     16  C   UNL A   1      31.615  28.004  23.046  1.00  0.00    -0.032 A 
ATOM     17  C   UNL A   1      30.504  27.338  23.590  1.00  0.00     0.005 A 
ATOM     18  C   UNL A   1      31.358  29.160  22.275  1.00  0.00     0.005 A 
ATOM     19  C   UNL A   1      29.202  27.811  23.387  1.00  0.00     0.000 A 
ATOM     20  C   UNL A   1      30.059  29.632  22.076  1.00  0.00     0.000 A 
ATOM     21  C   UNL A   1      28.980  28.960  22.635  1.00  0.00     0.000 A 
ENDBRANCH  13  16
ENDBRANCH   6   8
ENDBRANCH   4   6
ENDBRANCH   3   4
ENDBRANCH   2   3
ENDBRANCH   1   2
BRANCH   1  22
ATOM     22  O   UNL A   1      37.683  22.692  25.836  1.00  0.00    -0.458 OA
BRANCH  22  23
ATOM     23  C   UNL A   1      39.007  22.828  26.064  1.00  0.00     0.338 C 
ATOM     24  O   UNL A   1      39.894  22.030  25.781  1.00  0.00    -0.246 OA
BRANCH  23  25
ATOM     25  C   UNL A   1      39.252  24.111  26.734  1.00  0.00     0.060 A 
ATOM     26  C   UNL A   1      40.071  25.060  26.123  1.00  0.00     0.016 A 
ATOM     27  C   UNL A   1      38.757  24.328  28.018  1.00  0.00     0.016 A 
ATOM     28  C   UNL A   1      40.471  26.193  26.827  1.00  0.00     0.010 A 
ATOM     29  C   UNL A   1      39.089  25.508  28.689  1.00  0.00     0.010 A 
ATOM     30  C   UNL A   1      39.979  26.436  28.117  1.00  0.00    -0.014 A 
BRANCH  30  31
ATOM     31  C   UNL A   1      40.425  27.627  28.889  1.00  0.00     0.031 A 
ATOM     32  C   UNL A   1      41.775  27.630  29.557  1.00  0.00     0.074 A 
ATOM     33  C   UNL A   1      39.624  28.706  29.001  1.00  0.00     0.049 A 
ATOM     34  N   UNL A   1      42.267  28.480  30.423  1.00  0.00    -0.248 NA
ATOM     35  C   UNL A   1      42.686  26.524  29.217  1.00  0.00     0.031 C 
ATOM     36  C   UNL A   1      38.314  28.863  28.367  1.00  0.00     0.029 A 
ATOM     37  N   UNL A   1      39.799  29.878  29.695  1.00  0.00    -0.354 N 
ATOM     38  C   UNL A   1      43.519  27.985  30.771  1.00  0.00     0.074 A 
ATOM     39  C   UNL A   1      43.709  26.758  30.027  1.00  0.00     0.031 C 
ATOM     40  C   UNL A   1      37.815  30.069  28.681  1.00  0.00     0.029 A 
ATOM     41  C   UNL A   1      38.729  30.737  29.601  1.00  0.00     0.049 A 
ATOM     42  H   UNL A   1      40.612  30.084  30.211  1.00  0.00     0.167 HD
ATOM     43  C   UNL A   1      44.426  28.504  31.635  1.00  0.00     0.031 A 
ATOM     44  C   UNL A   1      38.486  31.910  30.216  1.00  0.00     0.031 A 
ATOM     45  C   UNL A   1      44.249  29.742  32.347  1.00  0.00     0.049 A 
ATOM     46  C   UNL A   1      39.489  32.451  31.194  1.00  0.00     0.074 A 
ATOM     47  C   UNL A   1      45.112  30.351  33.242  1.00  0.00     0.029 A 
ATOM     48  N   UNL A   1      43.141  30.568  32.235  1.00  0.00    -0.354 N 
ATOM     49  N   UNL A   1      40.643  31.941  31.556  1.00  0.00    -0.248 NA
ATOM     50  C   UNL A   1      39.152  33.718  31.857  1.00  0.00     0.031 C 
ATOM     51  C   UNL A   1      44.509  31.531  33.696  1.00  0.00     0.029 A 
ATOM     52  C   UNL A   1      43.293  31.678  33.050  1.00  0.00     0.049 A 
ATOM     53  H   UNL A   1      42.362  30.393  31.659  1.00  0.00     0.167 HD
ATOM     54  C   UNL A   1      41.174  32.831  32.482  1.00  0.00     0.074 A 
ATOM     55  C   UNL A   1      40.226  33.919  32.610  1.00  0.00     0.031 C 
ATOM     56  C   UNL A   1      42.339  32.750  33.170  1.00  0.00     0.031 A 
BRANCH  43  57
ATOM     57  C   UNL A   1      45.678  27.706  31.886  1.00  0.00    -0.014 A 
ATOM     58  C   UNL A   1      46.824  27.869  31.090  1.00  0.00     0.010 A 
ATOM     59  C   UNL A   1      45.714  26.797  32.961  1.00  0.00     0.010 A 
ATOM     60  C   UNL A   1      47.970  27.105  31.336  1.00  0.00     0.020 A 
ATOM     61  C   UNL A   1      46.863  26.049  33.224  1.00  0.00     0.020 A 
ATOM     62  C   UNL A   1      47.979  26.194  32.398  1.00  0.00     0.054 A 
BRANCH  62  63
ATOM     63  S   UNL A   1      49.480  25.220  32.702  1.00  0.00     0.124 S 
ATOM     64  O   UNL A   1      48.958  24.096  33.473  1.00  0.00    -0.237 OA
ATOM     65  O   UNL A   1      49.936  24.898  31.352  1.00  0.00    -0.237 OA
ATOM     66  O   UNL A   1      50.342  26.137  33.444  1.00  0.00    -0.744 OA
ENDBRANCH  62  63
ENDBRANCH  43  57
BRANCH  44  67
ATOM     67  C   UNL A   1      37.208  32.626  29.955  1.00  0.00    -0.014 A 
ATOM     68  C   UNL A   1      36.100  32.445  30.799  1.00  0.00     0.010 A 
ATOM     69  C   UNL A   1      37.108  33.521  28.872  1.00  0.00     0.010 A 
ATOM     70  C   UNL A   1      34.912  33.144  30.565  1.00  0.00     0.020 A 
ATOM     71  C   UNL A   1      35.931  34.240  28.652  1.00  0.00     0.020 A 
ATOM     72  C   UNL A   1      34.837  34.040  29.495  1.00  0.00     0.054 A 
BRANCH  72  73
ATOM     73  S   UNL A   1      33.312  34.993  29.249  1.00  0.00     0.124 S 
ATOM     74  O   UNL A   1      32.742  35.003  30.592  1.00  0.00    -0.237 OA
ATOM     75  O   UNL A   1      33.814  36.277  28.765  1.00  0.00    -0.237 OA
ATOM     76  O   UNL A   1      32.577  34.210  28.260  1.00  0.00    -0.744 OA
ENDBRANCH  72  73
ENDBRANCH  44  67
BRANCH  56  77
ATOM     77  C   UNL A   1      42.667  33.883  34.102  1.00  0.00    -0.014 A 
ATOM     78  C   UNL A   1      42.296  33.837  35.457  1.00  0.00     0.010 A 
ATOM     79  C   UNL A   1      43.394  34.988  33.624  1.00  0.00     0.010 A 
ATOM     80  C   UNL A   1      42.622  34.893  36.314  1.00  0.00     0.020 A 
ATOM     81  C   UNL A   1      43.741  36.034  34.482  1.00  0.00     0.020 A 
ATOM     82  C   UNL A   1      43.340  35.986  35.819  1.00  0.00     0.054 A 
BRANCH  82  83
ATOM     83  S   UNL A   1      43.787  37.327  36.956  1.00  0.00     0.124 S 
ATOM     84  O   UNL A   1      44.999  36.806  37.581  1.00  0.00    -0.237 OA
ATOM     85  O   UNL A   1      43.980  38.463  36.058  1.00  0.00    -0.237 OA
ATOM     86  O   UNL A   1      42.626  37.432  37.840  1.00  0.00    -0.744 OA
ENDBRANCH  82  83
ENDBRANCH  56  77
ENDBRANCH  30  31
ENDBRANCH  23  25
ENDBRANCH  22  23
ENDBRANCH   1  22
TORSDOF 16
ENDMDL
MODEL 2
REMARK VINA RESULT:     -10.9      3.747      6.374
REMARK SMILES C[C@H](C(=O)OCCOC(=O)c1ccc(-c2c3nc(c(-c4ccc(S(=O)(=O)[O-])cc4)c4ccc([nH]4)c(-c4ccc(S(=O)(=O)[O-])cc4)c4nc(c(-c5ccc(S(=O)(=O)[O-])cc5)c5ccc2[nH]5)C=C4)C=C3)cc1)N1C(=O)C[C@](C)(c2ccccc2)C1=O
REMARK SMILES IDX 7 1 6 2 5 3 3 4 4 5 2 6 1 7 71 8 72 9 83 10 73 11 74 12
REMARK SMILES IDX 75 13 84 14 76 15 77 16 78 17 82 18 79 19 81 20 80 21 8 22
REMARK SMILES IDX 9 23 10 24 11 25 12 26 70 27 13 28 69 29 14 30 15 31 16 32
REMARK SMILES IDX 63 33 17 34 68 35 62 36 64 37 18 38 67 39 61 40 60 41 19 43
REMARK SMILES IDX 49 44 30 45 48 46 31 47 34 48 47 49 65 50 32 51 33 52 46 54
REMARK SMILES IDX 66 55 35 56 20 57 21 58 29 59 22 60 28 61 23 62 24 63 25 64
REMARK SMILES IDX 26 65 27 66 50 67 51 68 59 69 52 70 58 71 53 72 54 73 55 74
REMARK SMILES IDX 56 75 57 76 36 77 37 78 45 79 38 80 44 81 39 82 40 83 41 84
REMARK SMILES IDX 42 85 43 86
REMARK H PARENT 64 42 34 53
REMARK Flexibility Score: inf
ROOT
ATOM      1  C   UNL A   1      40.777  21.254  26.021  1.00  0.00     0.275 C 
ENDROOT
BRANCH   1   2
ATOM      2  C   UNL A   1      42.089  21.998  26.241  1.00  0.00     0.274 C 
BRANCH   2   3
ATOM      3  O   UNL A   1      42.659  22.448  24.994  1.00  0.00    -0.461 OA
BRANCH   3   4
ATOM      4  C   UNL A   1      43.426  23.573  25.078  1.00  0.00     0.329 C 
ATOM      5  O   UNL A   1      43.037  24.693  24.762  1.00  0.00    -0.250 OA
BRANCH   4   6
ATOM      6  C   UNL A   1      44.885  23.280  25.436  1.00  0.00     0.200 C 
ATOM      7  C   UNL A   1      45.703  22.868  24.209  1.00  0.00     0.044 C 
BRANCH   6   8
ATOM      8  N   UNL A   1      45.566  24.287  26.247  1.00  0.00    -0.268 N 
ATOM      9  C   UNL A   1      45.710  24.237  27.601  1.00  0.00     0.231 C 
ATOM     10  C   UNL A   1      46.158  25.392  25.707  1.00  0.00     0.240 C 
ATOM     11  O   UNL A   1      45.376  23.319  28.332  1.00  0.00    -0.274 OA
ATOM     12  C   UNL A   1      46.365  25.496  28.088  1.00  0.00     0.122 C 
ATOM     13  C   UNL A   1      46.492  26.372  26.830  1.00  0.00     0.081 C 
ATOM     14  O   UNL A   1      46.343  25.592  24.513  1.00  0.00    -0.273 OA
ATOM     15  C   UNL A   1      47.956  26.808  26.662  1.00  0.00     0.027 C 
BRANCH  13  16
ATOM     16  C   UNL A   1      45.466  27.522  26.817  1.00  0.00    -0.032 A 
ATOM     17  C   UNL A   1      44.235  27.425  26.148  1.00  0.00     0.005 A 
ATOM     18  C   UNL A   1      45.721  28.717  27.526  1.00  0.00     0.005 A 
ATOM     19  C   UNL A   1      43.298  28.464  26.196  1.00  0.00     0.000 A 
ATOM     20  C   UNL A   1      44.784  29.752  27.576  1.00  0.00     0.000 A 
ATOM     21  C   UNL A   1      43.570  29.624  26.914  1.00  0.00     0.000 A 
ENDBRANCH  13  16
ENDBRANCH   6   8
ENDBRANCH   4   6
ENDBRANCH   3   4
ENDBRANCH   2   3
ENDBRANCH   1   2
BRANCH   1  22
ATOM     22  O   UNL A   1      39.751  21.816  26.852  1.00  0.00    -0.458 OA
BRANCH  22  23
ATOM     23  C   UNL A   1      38.978  22.755  26.263  1.00  0.00     0.338 C 
ATOM     24  O   UNL A   1      38.185  22.591  25.343  1.00  0.00    -0.246 OA
BRANCH  23  25
ATOM     25  C   UNL A   1      39.233  24.056  26.894  1.00  0.00     0.060 A 
ATOM     26  C   UNL A   1      39.966  25.021  26.205  1.00  0.00     0.016 A 
ATOM     27  C   UNL A   1      38.836  24.276  28.211  1.00  0.00     0.016 A 
ATOM     28  C   UNL A   1      40.383  26.177  26.860  1.00  0.00     0.010 A 
ATOM     29  C   UNL A   1      39.180  25.478  28.837  1.00  0.00     0.010 A 
ATOM     30  C   UNL A   1      39.989  26.424  28.182  1.00  0.00    -0.014 A 
BRANCH  30  31
ATOM     31  C   UNL A   1      40.455  27.642  28.900  1.00  0.00     0.031 A 
ATOM     32  C   UNL A   1      41.825  27.670  29.525  1.00  0.00     0.074 A 
ATOM     33  C   UNL A   1      39.655  28.722  29.000  1.00  0.00     0.049 A 
ATOM     34  N   UNL A   1      42.341  28.550  30.346  1.00  0.00    -0.248 NA
ATOM     35  C   UNL A   1      42.728  26.555  29.195  1.00  0.00     0.031 C 
ATOM     36  C   UNL A   1      38.326  28.856  28.402  1.00  0.00     0.029 A 
ATOM     37  N   UNL A   1      39.848  29.918  29.649  1.00  0.00    -0.354 N 
ATOM     38  C   UNL A   1      43.604  28.069  30.672  1.00  0.00     0.074 A 
ATOM     39  C   UNL A   1      43.775  26.818  29.964  1.00  0.00     0.031 C 
ATOM     40  C   UNL A   1      37.833  30.071  28.690  1.00  0.00     0.029 A 
ATOM     41  C   UNL A   1      38.773  30.771  29.558  1.00  0.00     0.049 A 
ATOM     42  H   UNL A   1      40.675  30.143  30.132  1.00  0.00     0.167 HD
ATOM     43  C   UNL A   1      44.536  28.618  31.489  1.00  0.00     0.031 A 
ATOM     44  C   UNL A   1      38.545  31.963  30.141  1.00  0.00     0.031 A 
ATOM     45  C   UNL A   1      44.378  29.880  32.165  1.00  0.00     0.049 A 
ATOM     46  C   UNL A   1      39.577  32.539  31.069  1.00  0.00     0.074 A 
ATOM     47  C   UNL A   1      45.266  30.520  33.012  1.00  0.00     0.029 A 
ATOM     48  N   UNL A   1      43.265  30.699  32.059  1.00  0.00    -0.354 N 
ATOM     49  N   UNL A   1      40.742  32.044  31.412  1.00  0.00    -0.248 NA
ATOM     50  C   UNL A   1      39.257  33.827  31.699  1.00  0.00     0.031 C 
ATOM     51  C   UNL A   1      44.674  31.713  33.445  1.00  0.00     0.029 A 
ATOM     52  C   UNL A   1      43.438  31.836  32.831  1.00  0.00     0.049 A 
ATOM     53  H   UNL A   1      42.468  30.503  31.514  1.00  0.00     0.167 HD
ATOM     54  C   UNL A   1      41.299  32.965  32.291  1.00  0.00     0.074 A 
ATOM     55  C   UNL A   1      40.352  34.055  32.411  1.00  0.00     0.031 C 
ATOM     56  C   UNL A   1      42.486  32.910  32.944  1.00  0.00     0.031 A 
BRANCH  43  57
ATOM     57  C   UNL A   1      45.798  27.832  31.729  1.00  0.00    -0.014 A 
ATOM     58  C   UNL A   1      45.882  26.875  32.755  1.00  0.00     0.010 A 
ATOM     59  C   UNL A   1      46.910  28.037  30.891  1.00  0.00     0.010 A 
ATOM     60  C   UNL A   1      47.071  26.168  32.966  1.00  0.00     0.020 A 
ATOM     61  C   UNL A   1      48.091  27.317  31.083  1.00  0.00     0.020 A 
ATOM     62  C   UNL A   1      48.170  26.400  32.133  1.00  0.00     0.054 A 
BRANCH  62  63
ATOM     63  S   UNL A   1      49.698  25.465  32.421  1.00  0.00     0.124 S 
ATOM     64  O   UNL A   1      49.263  24.470  33.397  1.00  0.00    -0.237 OA
ATOM     65  O   UNL A   1      50.015  24.945  31.094  1.00  0.00    -0.237 OA
ATOM     66  O   UNL A   1      50.628  26.471  32.930  1.00  0.00    -0.744 OA
ENDBRANCH  62  63
ENDBRANCH  43  57
BRANCH  44  67
ATOM     67  C   UNL A   1      37.259  32.668  29.895  1.00  0.00    -0.014 A 
ATOM     68  C   UNL A   1      36.176  32.511  30.777  1.00  0.00     0.010 A 
ATOM     69  C   UNL A   1      37.124  33.529  28.789  1.00  0.00     0.010 A 
ATOM     70  C   UNL A   1      34.979  33.199  30.556  1.00  0.00     0.020 A 
ATOM     71  C   UNL A   1      35.938  34.238  28.581  1.00  0.00     0.020 A 
ATOM     72  C   UNL A   1      34.870  34.061  29.462  1.00  0.00     0.054 A 
BRANCH  72  73
ATOM     73  S   UNL A   1      33.335  35.003  29.232  1.00  0.00     0.124 S 
ATOM     74  O   UNL A   1      32.774  35.000  30.578  1.00  0.00    -0.237 OA
ATOM     75  O   UNL A   1      33.823  36.294  28.752  1.00  0.00    -0.237 OA
ATOM     76  O   UNL A   1      32.601  34.219  28.242  1.00  0.00    -0.744 OA
ENDBRANCH  72  73
ENDBRANCH  44  67
BRANCH  56  77
ATOM     77  C   UNL A   1      42.838  34.074  33.828  1.00  0.00    -0.014 A 
ATOM     78  C   UNL A   1      42.547  34.055  35.203  1.00  0.00     0.010 A 
ATOM     79  C   UNL A   1      43.510  35.183  33.281  1.00  0.00     0.010 A 
ATOM     80  C   UNL A   1      42.896  35.141  36.012  1.00  0.00     0.020 A 
ATOM     81  C   UNL A   1      43.880  36.259  34.091  1.00  0.00     0.020 A 
ATOM     82  C   UNL A   1      43.558  36.237  35.450  1.00  0.00     0.054 A 
BRANCH  82  83
ATOM     83  S   UNL A   1      44.036  37.617  36.525  1.00  0.00     0.124 S 
ATOM     84  O   UNL A   1      43.925  38.759  35.623  1.00  0.00    -0.237 OA
ATOM     85  O   UNL A   1      43.038  37.559  37.590  1.00  0.00    -0.237 OA
ATOM     86  O   UNL A   1      45.397  37.278  36.938  1.00  0.00    -0.744 OA
ENDBRANCH  82  83
ENDBRANCH  56  77
ENDBRANCH  30  31
ENDBRANCH  23  25
ENDBRANCH  22  23
ENDBRANCH   1  22
TORSDOF 16
ENDMDL
MODEL 3
REMARK VINA RESULT:     -10.8      3.053      9.496
REMARK SMILES C[C@H](C(=O)OCCOC(=O)c1ccc(-c2c3nc(c(-c4ccc(S(=O)(=O)[O-])cc4)c4ccc([nH]4)c(-c4ccc(S(=O)(=O)[O-])cc4)c4nc(c(-c5ccc(S(=O)(=O)[O-])cc5)c5ccc2[nH]5)C=C4)C=C3)cc1)N1C(=O)C[C@](C)(c2ccccc2)C1=O
REMARK SMILES IDX 7 1 6 2 5 3 3 4 4 5 2 6 1 7 71 8 72 9 83 10 73 11 74 12
REMARK SMILES IDX 75 13 84 14 76 15 77 16 78 17 82 18 79 19 81 20 80 21 8 22
REMARK SMILES IDX 9 23 10 24 11 25 12 26 70 27 13 28 69 29 14 30 15 31 16 32
REMARK SMILES IDX 63 33 17 34 68 35 62 36 64 37 18 38 67 39 61 40 60 41 19 43
REMARK SMILES IDX 49 44 30 45 48 46 31 47 34 48 47 49 65 50 32 51 33 52 46 54
REMARK SMILES IDX 66 55 35 56 20 57 21 58 29 59 22 60 28 61 23 62 24 63 25 64
REMARK SMILES IDX 26 65 27 66 50 67 51 68 59 69 52 70 58 71 53 72 54 73 55 74
REMARK SMILES IDX 56 75 57 76 36 77 37 78 45 79 38 80 44 81 39 82 40 83 41 84
REMARK SMILES IDX 42 85 43 86
REMARK H PARENT 64 42 34 53
REMARK Flexibility Score: inf
ROOT
ATOM      1  C   UNL A   1      32.420  29.891  27.223  1.00  0.00     0.275 C 
ENDROOT
BRANCH   1   2
ATOM      2  C   UNL A   1      31.829  29.198  26.000  1.00  0.00     0.274 C 
BRANCH   2   3
ATOM      3  O   UNL A   1      31.246  27.923  26.345  1.00  0.00    -0.461 OA
BRANCH   3   4
ATOM      4  C   UNL A   1      31.830  26.840  25.757  1.00  0.00     0.329 C 
ATOM      5  O   UNL A   1      32.983  26.828  25.333  1.00  0.00    -0.250 OA
BRANCH   4   6
ATOM      6  C   UNL A   1      30.852  25.689  25.511  1.00  0.00     0.200 C 
ATOM      7  C   UNL A   1      29.848  26.019  24.402  1.00  0.00     0.044 C 
BRANCH   6   8
ATOM      8  N   UNL A   1      31.442  24.362  25.350  1.00  0.00    -0.268 N 
ATOM      9  C   UNL A   1      31.456  23.390  26.304  1.00  0.00     0.231 C 
ATOM     10  C   UNL A   1      32.031  23.951  24.189  1.00  0.00     0.240 C 
ATOM     11  O   UNL A   1      30.913  23.437  27.396  1.00  0.00    -0.274 OA
ATOM     12  C   UNL A   1      32.244  22.210  25.815  1.00  0.00     0.122 C 
ATOM     13  C   UNL A   1      32.805  22.662  24.457  1.00  0.00     0.081 C 
ATOM     14  O   UNL A   1      31.992  24.547  23.120  1.00  0.00    -0.273 OA
ATOM     15  C   UNL A   1      32.413  21.639  23.380  1.00  0.00     0.027 C 
BRANCH  13  16
ATOM     16  C   UNL A   1      34.311  22.985  24.528  1.00  0.00    -0.032 A 
ATOM     17  C   UNL A   1      34.930  23.432  25.707  1.00  0.00     0.005 A 
ATOM     18  C   UNL A   1      35.137  22.798  23.398  1.00  0.00     0.005 A 
ATOM     19  C   UNL A   1      36.309  23.665  25.760  1.00  0.00     0.000 A 
ATOM     20  C   UNL A   1      36.514  23.028  23.453  1.00  0.00     0.000 A 
ATOM     21  C   UNL A   1      37.101  23.459  24.635  1.00  0.00     0.000 A 
ENDBRANCH  13  16
ENDBRANCH   6   8
ENDBRANCH   4   6
ENDBRANCH   3   4
ENDBRANCH   2   3
ENDBRANCH   1   2
BRANCH   1  22
ATOM     22  O   UNL A   1      33.835  30.062  27.050  1.00  0.00    -0.458 OA
BRANCH  22  23
ATOM     23  C   UNL A   1      34.460  30.748  28.032  1.00  0.00     0.338 C 
ATOM     24  O   UNL A   1      34.019  31.698  28.668  1.00  0.00    -0.246 OA
BRANCH  23  25
ATOM     25  C   UNL A   1      35.800  30.184  28.237  1.00  0.00     0.060 A 
ATOM     26  C   UNL A   1      36.179  29.758  29.509  1.00  0.00     0.016 A 
ATOM     27  C   UNL A   1      36.718  30.180  27.188  1.00  0.00     0.016 A 
ATOM     28  C   UNL A   1      37.503  29.408  29.761  1.00  0.00     0.010 A 
ATOM     29  C   UNL A   1      38.024  29.743  27.425  1.00  0.00     0.010 A 
ATOM     30  C   UNL A   1      38.441  29.389  28.721  1.00  0.00    -0.014 A 
BRANCH  30  31
ATOM     31  C   UNL A   1      39.865  29.046  28.987  1.00  0.00     0.031 A 
ATOM     32  C   UNL A   1      40.792  30.080  29.569  1.00  0.00     0.074 A 
ATOM     33  C   UNL A   1      40.334  27.814  28.703  1.00  0.00     0.049 A 
ATOM     34  N   UNL A   1      42.095  30.043  29.697  1.00  0.00    -0.248 NA
ATOM     35  C   UNL A   1      40.176  31.323  30.060  1.00  0.00     0.031 C 
ATOM     36  C   UNL A   1      39.540  26.699  28.184  1.00  0.00     0.029 A 
ATOM     37  N   UNL A   1      41.601  27.296  28.812  1.00  0.00    -0.354 N 
ATOM     38  C   UNL A   1      42.458  31.274  30.231  1.00  0.00     0.074 A 
ATOM     39  C   UNL A   1      41.240  32.037  30.399  1.00  0.00     0.031 C 
ATOM     40  C   UNL A   1      40.330  25.624  28.041  1.00  0.00     0.029 A 
ATOM     41  C   UNL A   1      41.700  25.993  28.382  1.00  0.00     0.049 A 
ATOM     42  H   UNL A   1      42.365  27.807  29.164  1.00  0.00     0.167 HD
ATOM     43  C   UNL A   1      43.695  31.729  30.550  1.00  0.00     0.031 A 
ATOM     44  C   UNL A   1      42.775  25.195  28.234  1.00  0.00     0.031 A 
ATOM     45  C   UNL A   1      44.902  30.955  30.414  1.00  0.00     0.049 A 
ATOM     46  C   UNL A   1      44.140  25.729  28.562  1.00  0.00     0.074 A 
ATOM     47  C   UNL A   1      46.201  31.327  30.713  1.00  0.00     0.029 A 
ATOM     48  N   UNL A   1      44.956  29.647  29.957  1.00  0.00    -0.354 N 
ATOM     49  N   UNL A   1      44.472  26.915  29.012  1.00  0.00    -0.248 NA
ATOM     50  C   UNL A   1      45.275  24.821  28.350  1.00  0.00     0.031 C 
ATOM     51  C   UNL A   1      47.046  30.254  30.403  1.00  0.00     0.029 A 
ATOM     52  C   UNL A   1      46.266  29.199  29.955  1.00  0.00     0.049 A 
ATOM     53  H   UNL A   1      44.177  29.115  29.675  1.00  0.00     0.167 HD
ATOM     54  C   UNL A   1      45.855  26.893  29.145  1.00  0.00     0.074 A 
ATOM     55  C   UNL A   1      46.294  25.571  28.748  1.00  0.00     0.031 C 
ATOM     56  C   UNL A   1      46.688  27.883  29.554  1.00  0.00     0.031 A 
BRANCH  43  57
ATOM     57  C   UNL A   1      43.807  33.148  31.039  1.00  0.00    -0.014 A 
ATOM     58  C   UNL A   1      43.856  33.450  32.411  1.00  0.00     0.010 A 
ATOM     59  C   UNL A   1      43.893  34.197  30.103  1.00  0.00     0.010 A 
ATOM     60  C   UNL A   1      43.946  34.779  32.839  1.00  0.00     0.020 A 
ATOM     61  C   UNL A   1      44.005  35.523  30.527  1.00  0.00     0.020 A 
ATOM     62  C   UNL A   1      44.012  35.807  31.893  1.00  0.00     0.054 A 
BRANCH  62  63
ATOM     63  S   UNL A   1      44.136  37.522  32.474  1.00  0.00     0.124 S 
ATOM     64  O   UNL A   1      43.153  37.546  33.553  1.00  0.00    -0.237 OA
ATOM     65  O   UNL A   1      45.531  37.622  32.894  1.00  0.00    -0.237 OA
ATOM     66  O   UNL A   1      43.787  38.312  31.295  1.00  0.00    -0.744 OA
ENDBRANCH  62  63
ENDBRANCH  43  57
BRANCH  44  67
ATOM     67  C   UNL A   1      42.599  23.816  27.705  1.00  0.00    -0.014 A 
ATOM     68  C   UNL A   1      42.693  23.561  26.327  1.00  0.00     0.010 A 
ATOM     69  C   UNL A   1      42.368  22.743  28.588  1.00  0.00     0.010 A 
ATOM     70  C   UNL A   1      42.556  22.258  25.839  1.00  0.00     0.020 A 
ATOM     71  C   UNL A   1      42.257  21.437  28.105  1.00  0.00     0.020 A 
ATOM     72  C   UNL A   1      42.343  21.204  26.732  1.00  0.00     0.054 A 
BRANCH  72  73
ATOM     73  S   UNL A   1      42.241  19.510  26.088  1.00  0.00     0.124 S 
ATOM     74  O   UNL A   1      43.154  19.563  24.951  1.00  0.00    -0.237 OA
ATOM     75  O   UNL A   1      42.692  18.710  27.225  1.00  0.00    -0.237 OA
ATOM     76  O   UNL A   1      40.827  19.357  25.754  1.00  0.00    -0.744 OA
ENDBRANCH  72  73
ENDBRANCH  44  67
BRANCH  56  77
ATOM     77  C   UNL A   1      48.155  27.562  29.618  1.00  0.00    -0.014 A 
ATOM     78  C   UNL A   1      48.995  27.783  28.512  1.00  0.00     0.010 A 
ATOM     79  C   UNL A   1      48.709  27.076  30.816  1.00  0.00     0.010 A 
ATOM     80  C   UNL A   1      50.360  27.494  28.594  1.00  0.00     0.020 A 
ATOM     81  C   UNL A   1      50.076  26.807  30.909  1.00  0.00     0.020 A 
ATOM     82  C   UNL A   1      50.892  27.005  29.792  1.00  0.00     0.054 A 
BRANCH  82  83
ATOM     83  S   UNL A   1      52.672  26.673  29.889  1.00  0.00     0.124 S 
ATOM     84  O   UNL A   1      52.752  25.769  31.032  1.00  0.00    -0.237 OA
ATOM     85  O   UNL A   1      52.961  26.071  28.590  1.00  0.00    -0.237 OA
ATOM     86  O   UNL A   1      53.259  27.996  30.098  1.00  0.00    -0.744 OA
ENDBRANCH  82  83
ENDBRANCH  56  77
ENDBRANCH  30  31
ENDBRANCH  23  25
ENDBRANCH  22  23
ENDBRANCH   1  22
TORSDOF 16
ENDMDL
