MODEL 1
REMARK VINA RESULT:     -10.6      0.000      0.000
REMARK SMILES O=C(OCCOC(=O)c1cccc(Nc2ccnc3ccc(F)cc23)c1)c1ccc(-c2c3nc(c(-c4ccc(S(=O)(=O)[O-])cc4)c4ccc([nH]4)c(-c4ccc(S(=O)(=O)[O-])cc4)c4nc(c(-c5ccc(S(=O)(=O)[O-])cc5)c5ccc2[nH]5)C=C4)C=C3)cc1
REMARK SMILES IDX 4 1 3 2 2 3 1 4 27 5 28 6 86 7 29 8 85 9 30 10 31 11 32 12
REMARK SMILES IDX 79 13 33 14 84 15 78 16 80 17 34 18 83 19 77 20 76 21 35 23
REMARK SMILES IDX 65 24 46 25 64 26 47 27 50 28 63 29 81 30 48 31 49 32 62 34
REMARK SMILES IDX 82 35 51 36 36 37 37 38 45 39 38 40 44 41 39 42 40 43 41 44
REMARK SMILES IDX 42 45 43 46 66 47 67 48 75 49 68 50 74 51 69 52 70 53 71 54
REMARK SMILES IDX 72 55 73 56 52 57 53 58 61 59 54 60 60 61 55 62 56 63 57 64
REMARK SMILES IDX 58 65 59 66 5 67 6 68 7 69 8 70 9 71 10 72 26 73 11 74 13 75
REMARK SMILES IDX 12 76 14 77 15 79 16 80 25 81 17 82 19 83 24 84 18 85 20 86
REMARK SMILES IDX 22 87 21 88 23 89
REMARK H PARENT 80 22 50 33 14 78
REMARK Flexibility Score: inf
ROOT
ATOM      1  C   UNL A   1      34.414  32.652  28.118  1.00  0.00     0.275 C 
ENDROOT
BRANCH   1   2
ATOM      2  O   UNL A   1      33.865  31.339  27.913  1.00  0.00    -0.458 OA
BRANCH   2   3
ATOM      3  C   UNL A   1      34.535  30.179  27.683  1.00  0.00     0.338 C 
ATOM      4  O   UNL A   1      33.921  29.233  27.192  1.00  0.00    -0.246 OA
BRANCH   3   5
ATOM      5  C   UNL A   1      35.921  29.932  28.196  1.00  0.00     0.060 A 
ATOM      6  C   UNL A   1      36.259  29.557  29.498  1.00  0.00     0.016 A 
ATOM      7  C   UNL A   1      36.961  30.056  27.259  1.00  0.00     0.016 A 
ATOM      8  C   UNL A   1      37.562  29.186  29.829  1.00  0.00     0.010 A 
ATOM      9  C   UNL A   1      38.266  29.673  27.578  1.00  0.00     0.010 A 
ATOM     10  C   UNL A   1      38.567  29.216  28.869  1.00  0.00    -0.014 A 
BRANCH  10  11
ATOM     11  C   UNL A   1      39.954  28.886  29.259  1.00  0.00     0.031 A 
ATOM     12  C   UNL A   1      40.834  30.001  29.737  1.00  0.00     0.074 A 
ATOM     13  C   UNL A   1      40.415  27.621  29.161  1.00  0.00     0.049 A 
ATOM     14  N   UNL A   1      42.110  29.980  30.006  1.00  0.00    -0.248 NA
ATOM     15  C   UNL A   1      40.192  31.313  29.940  1.00  0.00     0.031 C 
ATOM     16  C   UNL A   1      39.632  26.459  28.720  1.00  0.00     0.029 A 
ATOM     17  N   UNL A   1      41.682  27.119  29.324  1.00  0.00    -0.354 N 
ATOM     18  C   UNL A   1      42.415  31.261  30.446  1.00  0.00     0.074 A 
ATOM     19  C   UNL A   1      41.215  32.056  30.332  1.00  0.00     0.031 C 
ATOM     20  C   UNL A   1      40.458  25.410  28.550  1.00  0.00     0.029 A 
ATOM     21  C   UNL A   1      41.821  25.827  28.858  1.00  0.00     0.049 A 
ATOM     22  H   UNL A   1      42.419  27.628  29.732  1.00  0.00     0.167 HD
ATOM     23  C   UNL A   1      43.586  31.720  30.941  1.00  0.00     0.031 A 
ATOM     24  C   UNL A   1      42.934  25.097  28.646  1.00  0.00     0.031 A 
ATOM     25  C   UNL A   1      44.767  30.913  31.050  1.00  0.00     0.049 A 
ATOM     26  C   UNL A   1      44.265  25.687  29.038  1.00  0.00     0.074 A 
ATOM     27  C   UNL A   1      45.988  31.246  31.604  1.00  0.00     0.029 A 
ATOM     28  N   UNL A   1      44.879  29.618  30.569  1.00  0.00    -0.354 N 
ATOM     29  N   UNL A   1      44.517  26.862  29.564  1.00  0.00    -0.248 NA
ATOM     30  C   UNL A   1      45.451  24.843  28.845  1.00  0.00     0.031 C 
ATOM     31  C   UNL A   1      46.859  30.172  31.399  1.00  0.00     0.029 A 
ATOM     32  C   UNL A   1      46.162  29.151  30.772  1.00  0.00     0.049 A 
ATOM     33  H   UNL A   1      44.151  29.107  30.145  1.00  0.00     0.167 HD
ATOM     34  C   UNL A   1      45.886  26.879  29.807  1.00  0.00     0.074 A 
ATOM     35  C   UNL A   1      46.404  25.598  29.374  1.00  0.00     0.031 C 
ATOM     36  C   UNL A   1      46.645  27.860  30.354  1.00  0.00     0.031 A 
BRANCH  23  37
ATOM     37  C   UNL A   1      43.639  33.148  31.403  1.00  0.00    -0.014 A 
ATOM     38  C   UNL A   1      43.310  33.493  32.726  1.00  0.00     0.010 A 
ATOM     39  C   UNL A   1      44.072  34.149  30.517  1.00  0.00     0.010 A 
ATOM     40  C   UNL A   1      43.394  34.822  33.150  1.00  0.00     0.020 A 
ATOM     41  C   UNL A   1      44.180  35.475  30.944  1.00  0.00     0.020 A 
ATOM     42  C   UNL A   1      43.833  35.804  32.256  1.00  0.00     0.054 A 
BRANCH  42  43
ATOM     43  S   UNL A   1      43.987  37.509  32.852  1.00  0.00     0.124 S 
ATOM     44  O   UNL A   1      42.901  37.588  33.825  1.00  0.00    -0.237 OA
ATOM     45  O   UNL A   1      45.335  37.529  33.415  1.00  0.00    -0.237 OA
ATOM     46  O   UNL A   1      43.805  38.316  31.649  1.00  0.00    -0.744 OA
ENDBRANCH  42  43
ENDBRANCH  23  37
BRANCH  24  47
ATOM     47  C   UNL A   1      42.865  23.762  27.987  1.00  0.00    -0.014 A 
ATOM     48  C   UNL A   1      43.187  23.605  26.627  1.00  0.00     0.010 A 
ATOM     49  C   UNL A   1      42.402  22.645  28.709  1.00  0.00     0.010 A 
ATOM     50  C   UNL A   1      43.009  22.370  25.992  1.00  0.00     0.020 A 
ATOM     51  C   UNL A   1      42.248  21.403  28.085  1.00  0.00     0.020 A 
ATOM     52  C   UNL A   1      42.535  21.278  26.725  1.00  0.00     0.054 A 
BRANCH  52  53
ATOM     53  S   UNL A   1      42.308  19.689  25.875  1.00  0.00     0.124 S 
ATOM     54  O   UNL A   1      42.684  18.733  26.911  1.00  0.00    -0.237 OA
ATOM     55  O   UNL A   1      40.889  19.722  25.526  1.00  0.00    -0.237 OA
ATOM     56  O   UNL A   1      43.224  19.777  24.740  1.00  0.00    -0.744 OA
ENDBRANCH  52  53
ENDBRANCH  24  47
BRANCH  36  57
ATOM     57  C   UNL A   1      48.102  27.570  30.577  1.00  0.00    -0.014 A 
ATOM     58  C   UNL A   1      48.546  26.932  31.747  1.00  0.00     0.010 A 
ATOM     59  C   UNL A   1      49.024  27.860  29.554  1.00  0.00     0.010 A 
ATOM     60  C   UNL A   1      49.893  26.594  31.891  1.00  0.00     0.020 A 
ATOM     61  C   UNL A   1      50.364  27.496  29.682  1.00  0.00     0.020 A 
ATOM     62  C   UNL A   1      50.791  26.871  30.854  1.00  0.00     0.054 A 
BRANCH  62  63
ATOM     63  S   UNL A   1      52.517  26.345  31.033  1.00  0.00     0.124 S 
ATOM     64  O   UNL A   1      52.374  25.064  31.719  1.00  0.00    -0.237 OA
ATOM     65  O   UNL A   1      52.974  26.270  29.647  1.00  0.00    -0.237 OA
ATOM     66  O   UNL A   1      53.124  27.412  31.826  1.00  0.00    -0.744 OA
ENDBRANCH  62  63
ENDBRANCH  36  57
ENDBRANCH  10  11
ENDBRANCH   3   5
ENDBRANCH   2   3
ENDBRANCH   1   2
BRANCH   1  67
ATOM     67  C   UNL A   1      33.401  33.793  27.929  1.00  0.00     0.275 C 
BRANCH  67  68
ATOM     68  O   UNL A   1      32.782  34.173  29.173  1.00  0.00    -0.458 OA
BRANCH  68  69
ATOM     69  C   UNL A   1      32.917  35.472  29.564  1.00  0.00     0.338 C 
ATOM     70  O   UNL A   1      32.455  36.452  29.016  1.00  0.00    -0.246 OA
BRANCH  69  71
ATOM     71  C   UNL A   1      33.542  35.489  30.910  1.00  0.00     0.062 A 
ATOM     72  C   UNL A   1      33.305  36.643  31.666  1.00  0.00     0.016 A 
ATOM     73  C   UNL A   1      34.341  34.447  31.425  1.00  0.00     0.041 A 
ATOM     74  C   UNL A   1      33.768  36.723  32.971  1.00  0.00     0.003 A 
ATOM     75  C   UNL A   1      34.850  34.544  32.738  1.00  0.00     0.039 A 
ATOM     76  C   UNL A   1      34.508  35.673  33.503  1.00  0.00     0.026 A 
BRANCH  75  77
ATOM     77  N   UNL A   1      35.605  33.520  33.369  1.00  0.00    -0.355 N 
ATOM     78  H   UNL A   1      35.115  32.846  33.894  1.00  0.00     0.167 HD
BRANCH  77  79
ATOM     79  C   UNL A   1      37.025  33.401  33.295  1.00  0.00     0.050 A 
ATOM     80  C   UNL A   1      37.759  34.586  33.247  1.00  0.00     0.047 A 
ATOM     81  C   UNL A   1      37.744  32.177  33.325  1.00  0.00     0.027 A 
ATOM     82  C   UNL A   1      39.134  34.552  33.233  1.00  0.00     0.114 A 
ATOM     83  C   UNL A   1      39.159  32.270  33.421  1.00  0.00     0.072 A 
ATOM     84  C   UNL A   1      37.183  30.883  33.206  1.00  0.00     0.051 A 
ATOM     85  N   UNL A   1      39.835  33.418  33.348  1.00  0.00    -0.256 NA
ATOM     86  C   UNL A   1      39.926  31.128  33.576  1.00  0.00     0.032 A 
ATOM     87  C   UNL A   1      38.001  29.752  33.260  1.00  0.00     0.124 A 
ATOM     88  C   UNL A   1      39.361  29.862  33.502  1.00  0.00     0.041 A 
ATOM     89  F   UNL A   1      37.475  28.537  33.054  1.00  0.00    -0.207 F 
ENDBRANCH  77  79
ENDBRANCH  75  77
ENDBRANCH  69  71
ENDBRANCH  68  69
ENDBRANCH  67  68
ENDBRANCH   1  67
TORSDOF 16
ENDMDL
MODEL 2
REMARK VINA RESULT:     -10.3      3.859      6.762
REMARK SMILES O=C(OCCOC(=O)c1cccc(Nc2ccnc3ccc(F)cc23)c1)c1ccc(-c2c3nc(c(-c4ccc(S(=O)(=O)[O-])cc4)c4ccc([nH]4)c(-c4ccc(S(=O)(=O)[O-])cc4)c4nc(c(-c5ccc(S(=O)(=O)[O-])cc5)c5ccc2[nH]5)C=C4)C=C3)cc1
REMARK SMILES IDX 4 1 3 2 2 3 1 4 27 5 28 6 86 7 29 8 85 9 30 10 31 11 32 12
REMARK SMILES IDX 79 13 33 14 84 15 78 16 80 17 34 18 83 19 77 20 76 21 35 23
REMARK SMILES IDX 65 24 46 25 64 26 47 27 50 28 63 29 81 30 48 31 49 32 62 34
REMARK SMILES IDX 82 35 51 36 36 37 37 38 45 39 38 40 44 41 39 42 40 43 41 44
REMARK SMILES IDX 42 45 43 46 66 47 67 48 75 49 68 50 74 51 69 52 70 53 71 54
REMARK SMILES IDX 72 55 73 56 52 57 53 58 61 59 54 60 60 61 55 62 56 63 57 64
REMARK SMILES IDX 58 65 59 66 5 67 6 68 7 69 8 70 9 71 10 72 26 73 11 74 13 75
REMARK SMILES IDX 12 76 14 77 15 79 16 80 25 81 17 82 19 83 24 84 18 85 20 86
REMARK SMILES IDX 22 87 21 88 23 89
REMARK H PARENT 80 22 50 33 14 78
REMARK Flexibility Score: inf
ROOT
ATOM      1  C   UNL A   1      32.283  29.473  27.060  1.00  0.00     0.275 C 
ENDROOT
BRANCH   1   2
ATOM      2  O   UNL A   1      33.682  29.360  27.370  1.00  0.00    -0.458 OA
BRANCH   2   3
ATOM      3  C   UNL A   1      34.500  30.305  27.903  1.00  0.00     0.338 C 
ATOM      4  O   UNL A   1      34.149  31.483  27.852  1.00  0.00    -0.246 OA
BRANCH   3   5
ATOM      5  C   UNL A   1      35.898  30.003  28.349  1.00  0.00     0.060 A 
ATOM      6  C   UNL A   1      36.286  29.627  29.637  1.00  0.00     0.016 A 
ATOM      7  C   UNL A   1      36.894  30.072  27.359  1.00  0.00     0.016 A 
ATOM      8  C   UNL A   1      37.587  29.202  29.906  1.00  0.00     0.010 A 
ATOM      9  C   UNL A   1      38.196  29.635  27.617  1.00  0.00     0.010 A 
ATOM     10  C   UNL A   1      38.543  29.179  28.897  1.00  0.00    -0.014 A 
BRANCH  10  11
ATOM     11  C   UNL A   1      39.931  28.793  29.221  1.00  0.00     0.031 A 
ATOM     12  C   UNL A   1      40.875  29.870  29.666  1.00  0.00     0.074 A 
ATOM     13  C   UNL A   1      40.338  27.512  29.093  1.00  0.00     0.049 A 
ATOM     14  N   UNL A   1      42.160  29.797  29.876  1.00  0.00    -0.248 NA
ATOM     15  C   UNL A   1      40.294  31.203  29.907  1.00  0.00     0.031 C 
ATOM     16  C   UNL A   1      39.492  26.384  28.680  1.00  0.00     0.029 A 
ATOM     17  N   UNL A   1      41.592  26.960  29.195  1.00  0.00    -0.354 N 
ATOM     18  C   UNL A   1      42.534  31.062  30.311  1.00  0.00     0.074 A 
ATOM     19  C   UNL A   1      41.361  31.903  30.258  1.00  0.00     0.031 C 
ATOM     20  C   UNL A   1      40.268  25.306  28.465  1.00  0.00     0.029 A 
ATOM     21  C   UNL A   1      41.659  25.669  28.713  1.00  0.00     0.049 A 
ATOM     22  H   UNL A   1      42.365  27.438  29.572  1.00  0.00     0.167 HD
ATOM     23  C   UNL A   1      43.742  31.472  30.755  1.00  0.00     0.031 A 
ATOM     24  C   UNL A   1      42.733  24.898  28.445  1.00  0.00     0.031 A 
ATOM     25  C   UNL A   1      44.896  30.619  30.804  1.00  0.00     0.049 A 
ATOM     26  C   UNL A   1      44.101  25.434  28.781  1.00  0.00     0.074 A 
ATOM     27  C   UNL A   1      46.152  30.900  31.304  1.00  0.00     0.029 A 
ATOM     28  N   UNL A   1      44.935  29.325  30.310  1.00  0.00    -0.354 N 
ATOM     29  N   UNL A   1      44.423  26.594  29.302  1.00  0.00    -0.248 NA
ATOM     30  C   UNL A   1      45.245  24.547  28.528  1.00  0.00     0.031 C 
ATOM     31  C   UNL A   1      46.971  29.796  31.053  1.00  0.00     0.029 A 
ATOM     32  C   UNL A   1      46.208  28.807  30.450  1.00  0.00     0.049 A 
ATOM     33  H   UNL A   1      44.170  28.846  29.916  1.00  0.00     0.167 HD
ATOM     34  C   UNL A   1      45.801  26.557  29.483  1.00  0.00     0.074 A 
ATOM     35  C   UNL A   1      46.249  25.260  29.018  1.00  0.00     0.031 C 
ATOM     36  C   UNL A   1      46.621  27.503  30.002  1.00  0.00     0.031 A 
BRANCH  23  37
ATOM     37  C   UNL A   1      43.871  32.892  31.224  1.00  0.00    -0.014 A 
ATOM     38  C   UNL A   1      44.257  33.915  30.339  1.00  0.00     0.010 A 
ATOM     39  C   UNL A   1      43.553  33.216  32.554  1.00  0.00     0.010 A 
ATOM     40  C   UNL A   1      44.342  35.237  30.782  1.00  0.00     0.020 A 
ATOM     41  C   UNL A   1      43.615  34.541  32.995  1.00  0.00     0.020 A 
ATOM     42  C   UNL A   1      44.016  35.542  32.108  1.00  0.00     0.054 A 
BRANCH  42  43
ATOM     43  S   UNL A   1      44.081  37.274  32.638  1.00  0.00     0.124 S 
ATOM     44  O   UNL A   1      43.843  37.983  31.383  1.00  0.00    -0.237 OA
ATOM     45  O   UNL A   1      42.997  37.349  33.613  1.00  0.00    -0.237 OA
ATOM     46  O   UNL A   1      45.424  37.420  33.190  1.00  0.00    -0.744 OA
ENDBRANCH  42  43
ENDBRANCH  23  37
BRANCH  24  47
ATOM     47  C   UNL A   1      42.583  23.573  27.781  1.00  0.00    -0.014 A 
ATOM     48  C   UNL A   1      42.358  22.405  28.531  1.00  0.00     0.010 A 
ATOM     49  C   UNL A   1      42.738  23.465  26.386  1.00  0.00     0.010 A 
ATOM     50  C   UNL A   1      42.332  21.153  27.906  1.00  0.00     0.020 A 
ATOM     51  C   UNL A   1      42.686  22.218  25.754  1.00  0.00     0.020 A 
ATOM     52  C   UNL A   1      42.501  21.067  26.522  1.00  0.00     0.054 A 
BRANCH  52  53
ATOM     53  S   UNL A   1      42.469  19.429  25.738  1.00  0.00     0.124 S 
ATOM     54  O   UNL A   1      41.074  19.317  25.326  1.00  0.00    -0.237 OA
ATOM     55  O   UNL A   1      43.440  19.581  24.657  1.00  0.00    -0.237 OA
ATOM     56  O   UNL A   1      42.881  18.529  26.813  1.00  0.00    -0.744 OA
ENDBRANCH  52  53
ENDBRANCH  24  47
BRANCH  36  57
ATOM     57  C   UNL A   1      48.074  27.156  30.156  1.00  0.00    -0.014 A 
ATOM     58  C   UNL A   1      49.021  27.537  29.191  1.00  0.00     0.010 A 
ATOM     59  C   UNL A   1      48.505  26.518  31.335  1.00  0.00     0.010 A 
ATOM     60  C   UNL A   1      50.377  27.279  29.401  1.00  0.00     0.020 A 
ATOM     61  C   UNL A   1      49.862  26.288  31.562  1.00  0.00     0.020 A 
ATOM     62  C   UNL A   1      50.789  26.664  30.588  1.00  0.00     0.054 A 
BRANCH  62  63
ATOM     63  S   UNL A   1      52.563  26.419  30.872  1.00  0.00     0.124 S 
ATOM     64  O   UNL A   1      52.575  25.207  31.686  1.00  0.00    -0.237 OA
ATOM     65  O   UNL A   1      53.086  26.273  29.516  1.00  0.00    -0.237 OA
ATOM     66  O   UNL A   1      52.975  27.638  31.564  1.00  0.00    -0.744 OA
ENDBRANCH  62  63
ENDBRANCH  36  57
ENDBRANCH  10  11
ENDBRANCH   3   5
ENDBRANCH   2   3
ENDBRANCH   1   2
BRANCH   1  67
ATOM     67  C   UNL A   1      31.994  30.049  25.664  1.00  0.00     0.275 C 
BRANCH  67  68
ATOM     68  O   UNL A   1      31.575  29.029  24.737  1.00  0.00    -0.458 OA
BRANCH  68  69
ATOM     69  C   UNL A   1      32.551  28.280  24.152  1.00  0.00     0.338 C 
ATOM     70  O   UNL A   1      33.721  28.578  24.022  1.00  0.00    -0.246 OA
BRANCH  69  71
ATOM     71  C   UNL A   1      32.004  26.926  23.888  1.00  0.00     0.062 A 
ATOM     72  C   UNL A   1      30.636  26.773  24.140  1.00  0.00     0.016 A 
ATOM     73  C   UNL A   1      32.775  25.836  23.432  1.00  0.00     0.041 A 
ATOM     74  C   UNL A   1      30.007  25.574  23.841  1.00  0.00     0.003 A 
ATOM     75  C   UNL A   1      32.146  24.601  23.167  1.00  0.00     0.039 A 
ATOM     76  C   UNL A   1      30.753  24.513  23.336  1.00  0.00     0.026 A 
BRANCH  75  77
ATOM     77  N   UNL A   1      32.821  23.468  22.641  1.00  0.00    -0.355 N 
ATOM     78  H   UNL A   1      33.012  23.454  21.675  1.00  0.00     0.167 HD
BRANCH  77  79
ATOM     79  C   UNL A   1      33.244  22.348  23.418  1.00  0.00     0.050 A 
ATOM     80  C   UNL A   1      32.384  21.252  23.471  1.00  0.00     0.047 A 
ATOM     81  C   UNL A   1      34.493  22.244  24.087  1.00  0.00     0.027 A 
ATOM     82  C   UNL A   1      32.749  20.114  24.152  1.00  0.00     0.114 A 
ATOM     83  C   UNL A   1      34.807  20.981  24.658  1.00  0.00     0.072 A 
ATOM     84  C   UNL A   1      35.417  23.297  24.285  1.00  0.00     0.051 A 
ATOM     85  N   UNL A   1      33.953  19.958  24.716  1.00  0.00    -0.256 NA
ATOM     86  C   UNL A   1      36.051  20.759  25.223  1.00  0.00     0.032 A 
ATOM     87  C   UNL A   1      36.620  23.062  24.955  1.00  0.00     0.124 A 
ATOM     88  C   UNL A   1      36.970  21.789  25.376  1.00  0.00     0.041 A 
ATOM     89  F   UNL A   1      37.447  24.083  25.221  1.00  0.00    -0.207 F 
ENDBRANCH  77  79
ENDBRANCH  75  77
ENDBRANCH  69  71
ENDBRANCH  68  69
ENDBRANCH  67  68
ENDBRANCH   1  67
TORSDOF 16
ENDMDL
MODEL 3
REMARK VINA RESULT:     -10.3      1.449      8.345
REMARK SMILES O=C(OCCOC(=O)c1cccc(Nc2ccnc3ccc(F)cc23)c1)c1ccc(-c2c3nc(c(-c4ccc(S(=O)(=O)[O-])cc4)c4ccc([nH]4)c(-c4ccc(S(=O)(=O)[O-])cc4)c4nc(c(-c5ccc(S(=O)(=O)[O-])cc5)c5ccc2[nH]5)C=C4)C=C3)cc1
REMARK SMILES IDX 4 1 3 2 2 3 1 4 27 5 28 6 86 7 29 8 85 9 30 10 31 11 32 12
REMARK SMILES IDX 79 13 33 14 84 15 78 16 80 17 34 18 83 19 77 20 76 21 35 23
REMARK SMILES IDX 65 24 46 25 64 26 47 27 50 28 63 29 81 30 48 31 49 32 62 34
REMARK SMILES IDX 82 35 51 36 36 37 37 38 45 39 38 40 44 41 39 42 40 43 41 44
REMARK SMILES IDX 42 45 43 46 66 47 67 48 75 49 68 50 74 51 69 52 70 53 71 54
REMARK SMILES IDX 72 55 73 56 52 57 53 58 61 59 54 60 60 61 55 62 56 63 57 64
REMARK SMILES IDX 58 65 59 66 5 67 6 68 7 69 8 70 9 71 10 72 26 73 11 74 13 75
REMARK SMILES IDX 12 76 14 77 15 79 16 80 25 81 17 82 19 83 24 84 18 85 20 86
REMARK SMILES IDX 22 87 21 88 23 89
REMARK H PARENT 80 22 50 33 14 78
REMARK Flexibility Score: inf
ROOT
ATOM      1  C   UNL A   1      32.643  31.733  27.235  1.00  0.00     0.275 C 
ENDROOT
BRANCH   1   2
ATOM      2  O   UNL A   1      33.600  31.073  28.081  1.00  0.00    -0.458 OA
BRANCH   2   3
ATOM      3  C   UNL A   1      34.373  29.995  27.785  1.00  0.00     0.338 C 
ATOM      4  O   UNL A   1      33.844  29.018  27.257  1.00  0.00    -0.246 OA
BRANCH   3   5
ATOM      5  C   UNL A   1      35.784  29.857  28.270  1.00  0.00     0.060 A 
ATOM      6  C   UNL A   1      36.179  29.420  29.536  1.00  0.00     0.016 A 
ATOM      7  C   UNL A   1      36.792  30.163  27.338  1.00  0.00     0.016 A 
ATOM      8  C   UNL A   1      37.519  29.165  29.828  1.00  0.00     0.010 A 
ATOM      9  C   UNL A   1      38.135  29.897  27.618  1.00  0.00     0.010 A 
ATOM     10  C   UNL A   1      38.501  29.376  28.867  1.00  0.00    -0.014 A 
BRANCH  10  11
ATOM     11  C   UNL A   1      39.920  29.166  29.222  1.00  0.00     0.031 A 
ATOM     12  C   UNL A   1      40.519  27.818  28.951  1.00  0.00     0.074 A 
ATOM     13  C   UNL A   1      40.641  30.152  29.796  1.00  0.00     0.049 A 
ATOM     14  N   UNL A   1      41.692  27.360  29.292  1.00  0.00    -0.248 NA
ATOM     15  C   UNL A   1      39.690  26.863  28.195  1.00  0.00     0.031 C 
ATOM     16  C   UNL A   1      40.154  31.506  30.088  1.00  0.00     0.029 A 
ATOM     17  N   UNL A   1      41.905  30.136  30.333  1.00  0.00    -0.354 N 
ATOM     18  C   UNL A   1      41.755  26.078  28.760  1.00  0.00     0.074 A 
ATOM     19  C   UNL A   1      40.479  25.801  28.145  1.00  0.00     0.031 C 
ATOM     20  C   UNL A   1      41.066  32.150  30.840  1.00  0.00     0.029 A 
ATOM     21  C   UNL A   1      42.190  31.255  31.088  1.00  0.00     0.049 A 
ATOM     22  H   UNL A   1      42.543  29.400  30.194  1.00  0.00     0.167 HD
ATOM     23  C   UNL A   1      42.804  25.226  28.751  1.00  0.00     0.031 A 
ATOM     24  C   UNL A   1      43.214  31.493  31.932  1.00  0.00     0.031 A 
ATOM     25  C   UNL A   1      44.066  25.522  29.365  1.00  0.00     0.049 A 
ATOM     26  C   UNL A   1      44.300  30.455  32.054  1.00  0.00     0.074 A 
ATOM     27  C   UNL A   1      45.225  24.770  29.356  1.00  0.00     0.029 A 
ATOM     28  N   UNL A   1      44.324  26.655  30.122  1.00  0.00    -0.354 N 
ATOM     29  N   UNL A   1      44.396  29.295  31.449  1.00  0.00    -0.248 NA
ATOM     30  C   UNL A   1      45.428  30.770  32.940  1.00  0.00     0.031 C 
ATOM     31  C   UNL A   1      46.164  25.418  30.162  1.00  0.00     0.029 A 
ATOM     32  C   UNL A   1      45.609  26.602  30.624  1.00  0.00     0.049 A 
ATOM     33  H   UNL A   1      43.685  27.388  30.278  1.00  0.00     0.167 HD
ATOM     34  C   UNL A   1      45.619  28.764  31.845  1.00  0.00     0.074 A 
ATOM     35  C   UNL A   1      46.224  29.730  32.739  1.00  0.00     0.031 C 
ATOM     36  C   UNL A   1      46.197  27.591  31.490  1.00  0.00     0.031 A 
BRANCH  23  37
ATOM     37  C   UNL A   1      42.628  23.908  28.055  1.00  0.00    -0.014 A 
ATOM     38  C   UNL A   1      42.850  23.784  26.672  1.00  0.00     0.010 A 
ATOM     39  C   UNL A   1      42.287  22.767  28.802  1.00  0.00     0.010 A 
ATOM     40  C   UNL A   1      42.714  22.544  26.043  1.00  0.00     0.020 A 
ATOM     41  C   UNL A   1      42.172  21.521  28.181  1.00  0.00     0.020 A 
ATOM     42  C   UNL A   1      42.379  21.419  26.804  1.00  0.00     0.054 A 
BRANCH  42  43
ATOM     43  S   UNL A   1      42.266  19.814  25.970  1.00  0.00     0.124 S 
ATOM     44  O   UNL A   1      43.310  19.926  24.954  1.00  0.00    -0.237 OA
ATOM     45  O   UNL A   1      42.544  18.873  27.052  1.00  0.00    -0.237 OA
ATOM     46  O   UNL A   1      40.900  19.783  25.457  1.00  0.00    -0.744 OA
ENDBRANCH  42  43
ENDBRANCH  23  37
BRANCH  24  47
ATOM     47  C   UNL A   1      43.249  32.724  32.771  1.00  0.00    -0.014 A 
ATOM     48  C   UNL A   1      42.647  32.756  34.042  1.00  0.00     0.010 A 
ATOM     49  C   UNL A   1      43.829  33.903  32.265  1.00  0.00     0.010 A 
ATOM     50  C   UNL A   1      42.587  33.949  34.771  1.00  0.00     0.020 A 
ATOM     51  C   UNL A   1      43.796  35.092  33.002  1.00  0.00     0.020 A 
ATOM     52  C   UNL A   1      43.158  35.111  34.243  1.00  0.00     0.054 A 
BRANCH  52  53
ATOM     53  S   UNL A   1      43.061  36.647  35.208  1.00  0.00     0.124 S 
ATOM     54  O   UNL A   1      44.463  36.899  35.521  1.00  0.00    -0.237 OA
ATOM     55  O   UNL A   1      42.446  37.573  34.259  1.00  0.00    -0.237 OA
ATOM     56  O   UNL A   1      42.219  36.282  36.345  1.00  0.00    -0.744 OA
ENDBRANCH  52  53
ENDBRANCH  24  47
BRANCH  36  57
ATOM     57  C   UNL A   1      47.577  27.309  32.012  1.00  0.00    -0.014 A 
ATOM     58  C   UNL A   1      47.775  26.533  33.166  1.00  0.00     0.010 A 
ATOM     59  C   UNL A   1      48.692  27.753  31.277  1.00  0.00     0.010 A 
ATOM     60  C   UNL A   1      49.068  26.212  33.581  1.00  0.00     0.020 A 
ATOM     61  C   UNL A   1      49.985  27.407  31.670  1.00  0.00     0.020 A 
ATOM     62  C   UNL A   1      50.164  26.644  32.825  1.00  0.00     0.054 A 
BRANCH  62  63
ATOM     63  S   UNL A   1      51.829  26.141  33.338  1.00  0.00     0.124 S 
ATOM     64  O   UNL A   1      51.560  25.429  34.585  1.00  0.00    -0.237 OA
ATOM     65  O   UNL A   1      52.270  25.310  32.221  1.00  0.00    -0.237 OA
ATOM     66  O   UNL A   1      52.544  27.406  33.485  1.00  0.00    -0.744 OA
ENDBRANCH  62  63
ENDBRANCH  36  57
ENDBRANCH  10  11
ENDBRANCH   3   5
ENDBRANCH   2   3
ENDBRANCH   1   2
BRANCH   1  67
ATOM     67  C   UNL A   1      32.703  33.268  27.299  1.00  0.00     0.275 C 
BRANCH  67  68
ATOM     68  O   UNL A   1      32.532  33.758  28.644  1.00  0.00    -0.458 OA
BRANCH  68  69
ATOM     69  C   UNL A   1      33.437  34.673  29.092  1.00  0.00     0.338 C 
ATOM     70  O   UNL A   1      33.272  35.871  29.199  1.00  0.00    -0.246 OA
BRANCH  69  71
ATOM     71  C   UNL A   1      34.602  33.942  29.648  1.00  0.00     0.062 A 
ATOM     72  C   UNL A   1      35.773  34.010  28.884  1.00  0.00     0.016 A 
ATOM     73  C   UNL A   1      34.573  33.202  30.849  1.00  0.00     0.041 A 
ATOM     74  C   UNL A   1      36.943  33.437  29.358  1.00  0.00     0.003 A 
ATOM     75  C   UNL A   1      35.752  32.581  31.313  1.00  0.00     0.039 A 
ATOM     76  C   UNL A   1      36.933  32.755  30.570  1.00  0.00     0.026 A 
BRANCH  75  77
ATOM     77  N   UNL A   1      35.841  31.875  32.542  1.00  0.00    -0.355 N 
ATOM     78  H   UNL A   1      35.243  31.103  32.672  1.00  0.00     0.167 HD
BRANCH  77  79
ATOM     79  C   UNL A   1      36.738  32.206  33.600  1.00  0.00     0.050 A 
ATOM     80  C   UNL A   1      36.396  33.292  34.406  1.00  0.00     0.047 A 
ATOM     81  C   UNL A   1      37.916  31.483  33.929  1.00  0.00     0.027 A 
ATOM     82  C   UNL A   1      37.182  33.635  35.482  1.00  0.00     0.114 A 
ATOM     83  C   UNL A   1      38.583  31.859  35.126  1.00  0.00     0.072 A 
ATOM     84  C   UNL A   1      38.512  30.469  33.142  1.00  0.00     0.051 A 
ATOM     85  N   UNL A   1      38.245  32.919  35.863  1.00  0.00    -0.256 NA
ATOM     86  C   UNL A   1      39.668  31.130  35.581  1.00  0.00     0.032 A 
ATOM     87  C   UNL A   1      39.671  29.824  33.582  1.00  0.00     0.124 A 
ATOM     88  C   UNL A   1      40.221  30.107  34.823  1.00  0.00     0.041 A 
ATOM     89  F   UNL A   1      40.280  28.932  32.791  1.00  0.00    -0.207 F 
ENDBRANCH  77  79
ENDBRANCH  75  77
ENDBRANCH  69  71
ENDBRANCH  68  69
ENDBRANCH  67  68
ENDBRANCH   1  67
TORSDOF 16
ENDMDL
