MODEL 1
REMARK VINA RESULT:     -10.5      0.000      0.000
REMARK SMILES Cc1c(CC(=O)OCCOC(=O)c2ccc(-c3c4nc(c(-c5ccc(S(=O)(=O)[O-])cc5)c5ccc([nH]5)c(-c5ccc(S(=O)(=O)[O-])cc5)c5nc(c(-c6ccc(S(=O)(=O)[O-])cc6)c6ccc3[nH]6)C=C5)C=C4)cc2)cc(-c2ccc(S(C)(=O)=O)cc2)n1-c1ccccc1
REMARK SMILES IDX 8 1 7 2 5 3 6 4 4 5 3 6 1 7 2 8 85 9 73 10 74 11 86 12 87 13
REMARK SMILES IDX 91 14 88 15 90 16 89 17 75 18 76 19 84 20 77 21 83 22 78 23
REMARK SMILES IDX 79 24 80 25 81 26 82 27 9 28 10 29 11 30 12 31 13 32 14 33
REMARK SMILES IDX 72 34 15 35 71 36 16 37 17 38 18 39 65 40 19 41 70 42 64 43
REMARK SMILES IDX 66 44 20 45 69 46 63 47 62 48 21 50 51 51 32 52 50 53 33 54
REMARK SMILES IDX 36 55 49 56 67 57 34 58 35 59 48 61 68 62 37 63 22 64 23 65
REMARK SMILES IDX 31 66 24 67 30 68 25 69 26 70 27 71 28 72 29 73 52 74 53 75
REMARK SMILES IDX 61 76 54 77 60 78 55 79 56 80 57 81 58 82 59 83 38 84 39 85
REMARK SMILES IDX 47 86 40 87 46 88 41 89 42 90 43 91 44 92 45 93
REMARK H PARENT 66 49 36 60
REMARK Flexibility Score: inf
ROOT
ATOM      1  C   UNL A   1      44.074  19.451  25.037  1.00  0.00     0.274 C 
ENDROOT
BRANCH   1   2
ATOM      2  O   UNL A   1      44.718  20.520  25.782  1.00  0.00    -0.462 OA
BRANCH   2   3
ATOM      3  C   UNL A   1      45.684  21.227  25.130  1.00  0.00     0.310 C 
ATOM      4  O   UNL A   1      46.709  20.716  24.681  1.00  0.00    -0.252 OA
BRANCH   3   5
ATOM      5  C   UNL A   1      45.352  22.697  24.895  1.00  0.00     0.160 C 
BRANCH   5   6
ATOM      6  C   UNL A   1      46.420  23.726  25.164  1.00  0.00    -0.015 A 
ATOM      7  C   UNL A   1      46.097  24.094  27.716  1.00  0.00     0.065 C 
ATOM      8  C   UNL A   1      46.746  24.303  26.382  1.00  0.00     0.024 A 
ATOM      9  N   UNL A   1      47.766  25.228  26.185  1.00  0.00    -0.314 N 
ATOM     10  C   UNL A   1      47.189  24.425  24.184  1.00  0.00     0.033 A 
ATOM     11  C   UNL A   1      47.992  25.365  24.816  1.00  0.00     0.053 A 
BRANCH   9  12
ATOM     12  C   UNL A   1      48.439  25.926  27.220  1.00  0.00     0.046 A 
ATOM     13  C   UNL A   1      48.236  27.299  27.390  1.00  0.00     0.026 A 
ATOM     14  C   UNL A   1      49.288  25.217  28.077  1.00  0.00     0.026 A 
ATOM     15  C   UNL A   1      48.871  27.957  28.442  1.00  0.00     0.002 A 
ATOM     16  C   UNL A   1      49.937  25.889  29.111  1.00  0.00     0.002 A 
ATOM     17  C   UNL A   1      49.722  27.254  29.297  1.00  0.00     0.000 A 
ENDBRANCH   9  12
BRANCH  11  18
ATOM     18  C   UNL A   1      48.991  26.265  24.219  1.00  0.00    -0.001 A 
ATOM     19  C   UNL A   1      50.282  26.355  24.762  1.00  0.00     0.011 A 
ATOM     20  C   UNL A   1      48.667  27.052  23.105  1.00  0.00     0.011 A 
ATOM     21  C   UNL A   1      51.231  27.226  24.215  1.00  0.00     0.021 A 
ATOM     22  C   UNL A   1      49.610  27.932  22.555  1.00  0.00     0.021 A 
ATOM     23  C   UNL A   1      50.885  28.019  23.118  1.00  0.00     0.067 A 
BRANCH  23  24
ATOM     24  S   UNL A   1      52.115  29.094  22.418  1.00  0.00     0.175 S 
ATOM     25  C   UNL A   1      53.433  29.097  23.605  1.00  0.00     0.163 C 
ATOM     26  O   UNL A   1      52.589  28.478  21.209  1.00  0.00    -0.224 OA
ATOM     27  O   UNL A   1      51.556  30.448  22.394  1.00  0.00    -0.224 OA
ENDBRANCH  23  24
ENDBRANCH  11  18
ENDBRANCH   5   6
ENDBRANCH   3   5
ENDBRANCH   2   3
ENDBRANCH   1   2
BRANCH   1  28
ATOM     28  C   UNL A   1      42.655  19.180  25.593  1.00  0.00     0.275 C 
BRANCH  28  29
ATOM     29  O   UNL A   1      41.737  20.313  25.698  1.00  0.00    -0.458 OA
BRANCH  29  30
ATOM     30  C   UNL A   1      41.410  20.725  26.955  1.00  0.00     0.338 C 
ATOM     31  O   UNL A   1      40.861  20.012  27.781  1.00  0.00    -0.246 OA
BRANCH  30  32
ATOM     32  C   UNL A   1      41.881  22.132  27.263  1.00  0.00     0.060 A 
ATOM     33  C   UNL A   1      42.142  22.464  28.590  1.00  0.00     0.016 A 
ATOM     34  C   UNL A   1      41.891  23.188  26.332  1.00  0.00     0.016 A 
ATOM     35  C   UNL A   1      42.415  23.806  28.968  1.00  0.00     0.010 A 
ATOM     36  C   UNL A   1      42.107  24.561  26.734  1.00  0.00     0.010 A 
ATOM     37  C   UNL A   1      42.359  24.913  28.071  1.00  0.00    -0.014 A 
BRANCH  37  38
ATOM     38  C   UNL A   1      42.059  26.298  28.706  1.00  0.00     0.031 A 
ATOM     39  C   UNL A   1      43.391  26.919  28.974  1.00  0.00     0.074 A 
ATOM     40  C   UNL A   1      40.977  27.070  29.069  1.00  0.00     0.049 A 
ATOM     41  N   UNL A   1      44.292  26.381  29.747  1.00  0.00    -0.248 NA
ATOM     42  C   UNL A   1      43.869  28.008  28.117  1.00  0.00     0.031 C 
ATOM     43  C   UNL A   1      39.552  26.729  28.985  1.00  0.00     0.029 A 
ATOM     44  N   UNL A   1      40.904  28.386  29.585  1.00  0.00    -0.354 N 
ATOM     45  C   UNL A   1      45.386  27.215  29.665  1.00  0.00     0.074 A 
ATOM     46  C   UNL A   1      45.143  28.057  28.503  1.00  0.00     0.031 C 
ATOM     47  C   UNL A   1      38.773  27.802  29.299  1.00  0.00     0.029 A 
ATOM     48  C   UNL A   1      39.598  28.945  29.679  1.00  0.00     0.049 A 
ATOM     49  H   UNL A   1      41.707  28.883  29.862  1.00  0.00     0.167 HD
ATOM     50  C   UNL A   1      46.031  27.593  30.803  1.00  0.00     0.031 A 
ATOM     51  C   UNL A   1      39.191  30.205  30.066  1.00  0.00     0.031 A 
ATOM     52  C   UNL A   1      45.745  28.958  31.160  1.00  0.00     0.049 A 
ATOM     53  C   UNL A   1      40.300  30.853  30.791  1.00  0.00     0.074 A 
ATOM     54  C   UNL A   1      45.820  30.172  30.512  1.00  0.00     0.029 A 
ATOM     55  N   UNL A   1      44.902  29.132  32.241  1.00  0.00    -0.354 N 
ATOM     56  N   UNL A   1      40.616  30.532  32.006  1.00  0.00    -0.248 NA
ATOM     57  C   UNL A   1      41.048  31.975  30.228  1.00  0.00     0.031 C 
ATOM     58  C   UNL A   1      44.713  30.925  30.979  1.00  0.00     0.029 A 
ATOM     59  C   UNL A   1      44.104  30.238  32.023  1.00  0.00     0.049 A 
ATOM     60  H   UNL A   1      44.874  28.557  33.039  1.00  0.00     0.167 HD
ATOM     61  C   UNL A   1      41.861  31.065  32.174  1.00  0.00     0.074 A 
ATOM     62  C   UNL A   1      41.960  32.123  31.189  1.00  0.00     0.031 C 
ATOM     63  C   UNL A   1      42.830  30.283  32.712  1.00  0.00     0.031 A 
BRANCH  50  64
ATOM     64  C   UNL A   1      46.331  26.562  31.845  1.00  0.00    -0.014 A 
ATOM     65  C   UNL A   1      45.254  26.003  32.549  1.00  0.00     0.010 A 
ATOM     66  C   UNL A   1      47.633  26.103  32.122  1.00  0.00     0.010 A 
ATOM     67  C   UNL A   1      45.477  25.041  33.539  1.00  0.00     0.020 A 
ATOM     68  C   UNL A   1      47.863  25.145  33.114  1.00  0.00     0.020 A 
ATOM     69  C   UNL A   1      46.781  24.627  33.824  1.00  0.00     0.054 A 
BRANCH  69  70
ATOM     70  S   UNL A   1      47.033  23.442  35.172  1.00  0.00     0.124 S 
ATOM     71  O   UNL A   1      47.499  24.301  36.260  1.00  0.00    -0.237 OA
ATOM     72  O   UNL A   1      45.695  22.888  35.354  1.00  0.00    -0.237 OA
ATOM     73  O   UNL A   1      48.041  22.521  34.653  1.00  0.00    -0.744 OA
ENDBRANCH  69  70
ENDBRANCH  50  64
BRANCH  51  74
ATOM     74  C   UNL A   1      37.949  31.089  30.078  1.00  0.00    -0.014 A 
ATOM     75  C   UNL A   1      36.750  30.584  30.676  1.00  0.00     0.010 A 
ATOM     76  C   UNL A   1      37.996  32.477  29.888  1.00  0.00     0.010 A 
ATOM     77  C   UNL A   1      35.733  31.414  31.185  1.00  0.00     0.020 A 
ATOM     78  C   UNL A   1      36.957  33.321  30.368  1.00  0.00     0.020 A 
ATOM     79  C   UNL A   1      35.858  32.789  31.056  1.00  0.00     0.054 A 
BRANCH  79  80
ATOM     80  S   UNL A   1      34.650  33.859  31.913  1.00  0.00     0.124 S 
ATOM     81  O   UNL A   1      35.488  34.923  32.456  1.00  0.00    -0.237 OA
ATOM     82  O   UNL A   1      33.753  34.256  30.829  1.00  0.00    -0.237 OA
ATOM     83  O   UNL A   1      34.050  32.971  32.907  1.00  0.00    -0.744 OA
ENDBRANCH  79  80
ENDBRANCH  51  74
BRANCH  63  84
ATOM     84  C   UNL A   1      42.417  29.319  33.820  1.00  0.00    -0.014 A 
ATOM     85  C   UNL A   1      42.518  29.585  35.205  1.00  0.00     0.010 A 
ATOM     86  C   UNL A   1      41.965  28.040  33.447  1.00  0.00     0.010 A 
ATOM     87  C   UNL A   1      42.302  28.589  36.168  1.00  0.00     0.020 A 
ATOM     88  C   UNL A   1      41.699  27.051  34.406  1.00  0.00     0.020 A 
ATOM     89  C   UNL A   1      41.913  27.317  35.758  1.00  0.00     0.054 A 
BRANCH  89  90
ATOM     90  S   UNL A   1      41.731  26.016  37.010  1.00  0.00     0.124 S 
ATOM     91  O   UNL A   1      42.759  26.379  37.984  1.00  0.00    -0.237 OA
ATOM     92  O   UNL A   1      40.355  26.193  37.466  1.00  0.00    -0.237 OA
ATOM     93  O   UNL A   1      41.997  24.784  36.272  1.00  0.00    -0.744 OA
ENDBRANCH  89  90
ENDBRANCH  63  84
ENDBRANCH  37  38
ENDBRANCH  30  32
ENDBRANCH  29  30
ENDBRANCH  28  29
ENDBRANCH   1  28
TORSDOF 18
ENDMDL
MODEL 2
REMARK VINA RESULT:     -10.4      5.741     13.038
REMARK SMILES Cc1c(CC(=O)OCCOC(=O)c2ccc(-c3c4nc(c(-c5ccc(S(=O)(=O)[O-])cc5)c5ccc([nH]5)c(-c5ccc(S(=O)(=O)[O-])cc5)c5nc(c(-c6ccc(S(=O)(=O)[O-])cc6)c6ccc3[nH]6)C=C5)C=C4)cc2)cc(-c2ccc(S(C)(=O)=O)cc2)n1-c1ccccc1
REMARK SMILES IDX 8 1 7 2 5 3 6 4 4 5 3 6 1 7 2 8 85 9 73 10 74 11 86 12 87 13
REMARK SMILES IDX 91 14 88 15 90 16 89 17 75 18 76 19 84 20 77 21 83 22 78 23
REMARK SMILES IDX 79 24 80 25 81 26 82 27 9 28 10 29 11 30 12 31 13 32 14 33
REMARK SMILES IDX 72 34 15 35 71 36 16 37 17 38 18 39 65 40 19 41 70 42 64 43
REMARK SMILES IDX 66 44 20 45 69 46 63 47 62 48 21 50 51 51 32 52 50 53 33 54
REMARK SMILES IDX 36 55 49 56 67 57 34 58 35 59 48 61 68 62 37 63 22 64 23 65
REMARK SMILES IDX 31 66 24 67 30 68 25 69 26 70 27 71 28 72 29 73 52 74 53 75
REMARK SMILES IDX 61 76 54 77 60 78 55 79 56 80 57 81 58 82 59 83 38 84 39 85
REMARK SMILES IDX 47 86 40 87 46 88 41 89 42 90 43 91 44 92 45 93
REMARK H PARENT 66 49 36 60
REMARK Flexibility Score: inf
ROOT
ATOM      1  C   UNL A   1      35.914  21.543  24.963  1.00  0.00     0.274 C 
ENDROOT
BRANCH   1   2
ATOM      2  O   UNL A   1      34.717  21.767  24.170  1.00  0.00    -0.462 OA
BRANCH   2   3
ATOM      3  C   UNL A   1      33.565  21.197  24.623  1.00  0.00     0.310 C 
ATOM      4  O   UNL A   1      33.537  20.325  25.490  1.00  0.00    -0.252 OA
BRANCH   3   5
ATOM      5  C   UNL A   1      32.286  21.800  24.051  1.00  0.00     0.160 C 
BRANCH   5   6
ATOM      6  C   UNL A   1      32.035  23.272  24.248  1.00  0.00    -0.015 A 
ATOM      7  C   UNL A   1      33.320  23.682  26.469  1.00  0.00     0.065 C 
ATOM      8  C   UNL A   1      32.501  24.076  25.279  1.00  0.00     0.024 A 
ATOM      9  N   UNL A   1      32.010  25.365  25.103  1.00  0.00    -0.314 N 
ATOM     10  C   UNL A   1      31.129  24.085  23.501  1.00  0.00     0.033 A 
ATOM     11  C   UNL A   1      31.098  25.361  24.049  1.00  0.00     0.053 A 
BRANCH   9  12
ATOM     12  C   UNL A   1      32.372  26.485  25.894  1.00  0.00     0.046 A 
ATOM     13  C   UNL A   1      33.620  27.093  25.726  1.00  0.00     0.026 A 
ATOM     14  C   UNL A   1      31.453  26.984  26.824  1.00  0.00     0.026 A 
ATOM     15  C   UNL A   1      33.936  28.221  26.480  1.00  0.00     0.002 A 
ATOM     16  C   UNL A   1      31.788  28.098  27.591  1.00  0.00     0.002 A 
ATOM     17  C   UNL A   1      33.024  28.719  27.412  1.00  0.00     0.000 A 
ENDBRANCH   9  12
BRANCH  11  18
ATOM     18  C   UNL A   1      30.362  26.543  23.573  1.00  0.00    -0.001 A 
ATOM     19  C   UNL A   1      31.014  27.532  22.822  1.00  0.00     0.011 A 
ATOM     20  C   UNL A   1      29.001  26.704  23.870  1.00  0.00     0.011 A 
ATOM     21  C   UNL A   1      30.328  28.671  22.387  1.00  0.00     0.021 A 
ATOM     22  C   UNL A   1      28.308  27.844  23.444  1.00  0.00     0.021 A 
ATOM     23  C   UNL A   1      28.978  28.826  22.710  1.00  0.00     0.067 A 
BRANCH  23  24
ATOM     24  S   UNL A   1      28.117  30.264  22.119  1.00  0.00     0.175 S 
ATOM     25  C   UNL A   1      29.224  31.611  22.440  1.00  0.00     0.163 C 
ATOM     26  O   UNL A   1      27.967  30.124  20.696  1.00  0.00    -0.224 OA
ATOM     27  O   UNL A   1      26.944  30.459  22.975  1.00  0.00    -0.224 OA
ENDBRANCH  23  24
ENDBRANCH  11  18
ENDBRANCH   5   6
ENDBRANCH   3   5
ENDBRANCH   2   3
ENDBRANCH   1   2
BRANCH   1  28
ATOM     28  C   UNL A   1      36.901  22.726  24.804  1.00  0.00     0.275 C 
BRANCH  28  29
ATOM     29  O   UNL A   1      37.682  23.122  25.974  1.00  0.00    -0.458 OA
BRANCH  29  30
ATOM     30  C   UNL A   1      38.861  22.469  26.176  1.00  0.00     0.338 C 
ATOM     31  O   UNL A   1      39.100  21.350  25.746  1.00  0.00    -0.246 OA
BRANCH  30  32
ATOM     32  C   UNL A   1      39.889  23.307  26.909  1.00  0.00     0.060 A 
ATOM     33  C   UNL A   1      40.179  24.575  26.415  1.00  0.00     0.016 A 
ATOM     34  C   UNL A   1      40.714  22.826  27.944  1.00  0.00     0.016 A 
ATOM     35  C   UNL A   1      41.252  25.340  26.946  1.00  0.00     0.010 A 
ATOM     36  C   UNL A   1      41.843  23.583  28.437  1.00  0.00     0.010 A 
ATOM     37  C   UNL A   1      42.157  24.860  27.939  1.00  0.00    -0.014 A 
BRANCH  37  38
ATOM     38  C   UNL A   1      43.569  25.507  27.953  1.00  0.00     0.031 A 
ATOM     39  C   UNL A   1      43.770  26.014  29.343  1.00  0.00     0.074 A 
ATOM     40  C   UNL A   1      44.626  25.730  27.097  1.00  0.00     0.049 A 
ATOM     41  N   UNL A   1      42.990  26.892  29.907  1.00  0.00    -0.248 NA
ATOM     42  C   UNL A   1      44.669  25.298  30.253  1.00  0.00     0.031 C 
ATOM     43  C   UNL A   1      44.720  25.403  25.670  1.00  0.00     0.029 A 
ATOM     44  N   UNL A   1      45.904  26.292  27.325  1.00  0.00    -0.354 N 
ATOM     45  C   UNL A   1      43.463  27.027  31.194  1.00  0.00     0.074 A 
ATOM     46  C   UNL A   1      44.340  25.885  31.404  1.00  0.00     0.031 C 
ATOM     47  C   UNL A   1      45.975  25.642  25.195  1.00  0.00     0.029 A 
ATOM     48  C   UNL A   1      46.824  26.204  26.242  1.00  0.00     0.049 A 
ATOM     49  H   UNL A   1      46.143  26.717  28.180  1.00  0.00     0.167 HD
ATOM     50  C   UNL A   1      43.635  28.270  31.722  1.00  0.00     0.031 A 
ATOM     51  C   UNL A   1      48.148  26.583  26.161  1.00  0.00     0.031 A 
ATOM     52  C   UNL A   1      45.023  28.645  31.790  1.00  0.00     0.049 A 
ATOM     53  C   UNL A   1      48.440  27.507  27.272  1.00  0.00     0.074 A 
ATOM     54  C   UNL A   1      46.161  28.077  32.322  1.00  0.00     0.029 A 
ATOM     55  N   UNL A   1      45.437  29.584  30.866  1.00  0.00    -0.354 N 
ATOM     56  N   UNL A   1      48.039  28.739  27.274  1.00  0.00    -0.248 NA
ATOM     57  C   UNL A   1      49.291  27.126  28.397  1.00  0.00     0.031 C 
ATOM     58  C   UNL A   1      47.207  28.398  31.419  1.00  0.00     0.029 A 
ATOM     59  C   UNL A   1      46.730  29.298  30.472  1.00  0.00     0.049 A 
ATOM     60  H   UNL A   1      44.896  30.339  30.539  1.00  0.00     0.167 HD
ATOM     61  C   UNL A   1      48.181  29.129  28.574  1.00  0.00     0.074 A 
ATOM     62  C   UNL A   1      49.163  28.227  29.140  1.00  0.00     0.031 C 
ATOM     63  C   UNL A   1      47.148  29.776  29.170  1.00  0.00     0.031 A 
BRANCH  50  64
ATOM     64  C   UNL A   1      42.560  29.295  31.531  1.00  0.00    -0.014 A 
ATOM     65  C   UNL A   1      42.723  30.237  30.504  1.00  0.00     0.010 A 
ATOM     66  C   UNL A   1      41.385  29.333  32.305  1.00  0.00     0.010 A 
ATOM     67  C   UNL A   1      41.754  31.222  30.286  1.00  0.00     0.020 A 
ATOM     68  C   UNL A   1      40.415  30.317  32.096  1.00  0.00     0.020 A 
ATOM     69  C   UNL A   1      40.612  31.264  31.091  1.00  0.00     0.054 A 
BRANCH  69  70
ATOM     70  S   UNL A   1      39.424  32.607  30.830  1.00  0.00     0.124 S 
ATOM     71  O   UNL A   1      39.037  32.951  32.198  1.00  0.00    -0.237 OA
ATOM     72  O   UNL A   1      40.233  33.611  30.147  1.00  0.00    -0.237 OA
ATOM     73  O   UNL A   1      38.362  31.994  30.036  1.00  0.00    -0.744 OA
ENDBRANCH  69  70
ENDBRANCH  50  64
BRANCH  51  74
ATOM     74  C   UNL A   1      49.359  26.440  25.245  1.00  0.00    -0.014 A 
ATOM     75  C   UNL A   1      49.432  27.252  24.067  1.00  0.00     0.010 A 
ATOM     76  C   UNL A   1      50.565  25.858  25.658  1.00  0.00     0.010 A 
ATOM     77  C   UNL A   1      50.643  27.581  23.432  1.00  0.00     0.020 A 
ATOM     78  C   UNL A   1      51.790  26.157  25.000  1.00  0.00     0.020 A 
ATOM     79  C   UNL A   1      51.828  27.054  23.924  1.00  0.00     0.054 A 
BRANCH  79  80
ATOM     80  S   UNL A   1      53.407  27.662  23.234  1.00  0.00     0.124 S 
ATOM     81  O   UNL A   1      53.022  28.130  21.907  1.00  0.00    -0.237 OA
ATOM     82  O   UNL A   1      53.787  28.706  24.184  1.00  0.00    -0.237 OA
ATOM     83  O   UNL A   1      54.267  26.479  23.251  1.00  0.00    -0.744 OA
ENDBRANCH  79  80
ENDBRANCH  51  74
BRANCH  63  84
ATOM     84  C   UNL A   1      46.348  30.754  28.316  1.00  0.00    -0.014 A 
ATOM     85  C   UNL A   1      45.270  30.400  27.472  1.00  0.00     0.010 A 
ATOM     86  C   UNL A   1      46.749  32.102  28.306  1.00  0.00     0.010 A 
ATOM     87  C   UNL A   1      44.703  31.313  26.572  1.00  0.00     0.020 A 
ATOM     88  C   UNL A   1      46.155  33.036  27.443  1.00  0.00     0.020 A 
ATOM     89  C   UNL A   1      45.167  32.625  26.548  1.00  0.00     0.054 A 
BRANCH  89  90
ATOM     90  S   UNL A   1      44.489  33.767  25.311  1.00  0.00     0.124 S 
ATOM     91  O   UNL A   1      45.670  34.534  24.920  1.00  0.00    -0.237 OA
ATOM     92  O   UNL A   1      43.968  32.865  24.287  1.00  0.00    -0.237 OA
ATOM     93  O   UNL A   1      43.484  34.525  26.052  1.00  0.00    -0.744 OA
ENDBRANCH  89  90
ENDBRANCH  63  84
ENDBRANCH  37  38
ENDBRANCH  30  32
ENDBRANCH  29  30
ENDBRANCH  28  29
ENDBRANCH   1  28
TORSDOF 18
ENDMDL
MODEL 3
REMARK VINA RESULT:     -10.0      7.132     12.683
REMARK SMILES Cc1c(CC(=O)OCCOC(=O)c2ccc(-c3c4nc(c(-c5ccc(S(=O)(=O)[O-])cc5)c5ccc([nH]5)c(-c5ccc(S(=O)(=O)[O-])cc5)c5nc(c(-c6ccc(S(=O)(=O)[O-])cc6)c6ccc3[nH]6)C=C5)C=C4)cc2)cc(-c2ccc(S(C)(=O)=O)cc2)n1-c1ccccc1
REMARK SMILES IDX 8 1 7 2 5 3 6 4 4 5 3 6 1 7 2 8 85 9 73 10 74 11 86 12 87 13
REMARK SMILES IDX 91 14 88 15 90 16 89 17 75 18 76 19 84 20 77 21 83 22 78 23
REMARK SMILES IDX 79 24 80 25 81 26 82 27 9 28 10 29 11 30 12 31 13 32 14 33
REMARK SMILES IDX 72 34 15 35 71 36 16 37 17 38 18 39 65 40 19 41 70 42 64 43
REMARK SMILES IDX 66 44 20 45 69 46 63 47 62 48 21 50 51 51 32 52 50 53 33 54
REMARK SMILES IDX 36 55 49 56 67 57 34 58 35 59 48 61 68 62 37 63 22 64 23 65
REMARK SMILES IDX 31 66 24 67 30 68 25 69 26 70 27 71 28 72 29 73 52 74 53 75
REMARK SMILES IDX 61 76 54 77 60 78 55 79 56 80 57 81 58 82 59 83 38 84 39 85
REMARK SMILES IDX 47 86 40 87 46 88 41 89 42 90 43 91 44 92 45 93
REMARK H PARENT 66 49 36 60
REMARK Flexibility Score: inf
ROOT
ATOM      1  C   UNL A   1      44.900  21.597  35.223  1.00  0.00     0.274 C 
ENDROOT
BRANCH   1   2
ATOM      2  O   UNL A   1      46.087  20.974  35.784  1.00  0.00    -0.462 OA
BRANCH   2   3
ATOM      3  C   UNL A   1      45.982  19.664  36.143  1.00  0.00     0.310 C 
ATOM      4  O   UNL A   1      45.281  18.852  35.541  1.00  0.00    -0.252 OA
BRANCH   3   5
ATOM      5  C   UNL A   1      46.891  19.241  37.293  1.00  0.00     0.160 C 
BRANCH   5   6
ATOM      6  C   UNL A   1      46.257  18.860  38.606  1.00  0.00    -0.015 A 
ATOM      7  C   UNL A   1      47.387  20.577  40.196  1.00  0.00     0.065 C 
ATOM      8  C   UNL A   1      46.461  19.455  39.843  1.00  0.00     0.024 A 
ATOM      9  N   UNL A   1      45.710  18.778  40.798  1.00  0.00    -0.314 N 
ATOM     10  C   UNL A   1      45.453  17.708  38.856  1.00  0.00     0.033 A 
ATOM     11  C   UNL A   1      45.144  17.648  40.209  1.00  0.00     0.053 A 
BRANCH   9  12
ATOM     12  C   UNL A   1      45.573  19.174  42.153  1.00  0.00     0.046 A 
ATOM     13  C   UNL A   1      44.505  19.986  42.545  1.00  0.00     0.026 A 
ATOM     14  C   UNL A   1      46.509  18.721  43.090  1.00  0.00     0.026 A 
ATOM     15  C   UNL A   1      44.364  20.325  43.889  1.00  0.00     0.002 A 
ATOM     16  C   UNL A   1      46.372  19.085  44.428  1.00  0.00     0.002 A 
ATOM     17  C   UNL A   1      45.297  19.879  44.827  1.00  0.00     0.000 A 
ENDBRANCH   9  12
BRANCH  11  18
ATOM     18  C   UNL A   1      44.290  16.676  40.911  1.00  0.00    -0.001 A 
ATOM     19  C   UNL A   1      43.064  16.278  40.357  1.00  0.00     0.011 A 
ATOM     20  C   UNL A   1      44.683  16.141  42.145  1.00  0.00     0.011 A 
ATOM     21  C   UNL A   1      42.234  15.373  41.028  1.00  0.00     0.021 A 
ATOM     22  C   UNL A   1      43.855  15.239  42.827  1.00  0.00     0.021 A 
ATOM     23  C   UNL A   1      42.631  14.866  42.268  1.00  0.00     0.067 A 
BRANCH  23  24
ATOM     24  S   UNL A   1      41.578  13.693  43.089  1.00  0.00     0.175 S 
ATOM     25  C   UNL A   1      42.678  12.729  44.091  1.00  0.00     0.163 C 
ATOM     26  O   UNL A   1      40.699  14.433  43.954  1.00  0.00    -0.224 OA
ATOM     27  O   UNL A   1      41.033  12.797  42.067  1.00  0.00    -0.224 OA
ENDBRANCH  23  24
ENDBRANCH  11  18
ENDBRANCH   5   6
ENDBRANCH   3   5
ENDBRANCH   2   3
ENDBRANCH   1   2
BRANCH   1  28
ATOM     28  C   UNL A   1      45.290  22.762  34.282  1.00  0.00     0.275 C 
BRANCH  28  29
ATOM     29  O   UNL A   1      45.643  24.042  34.894  1.00  0.00    -0.458 OA
BRANCH  29  30
ATOM     30  C   UNL A   1      44.755  24.561  35.789  1.00  0.00     0.338 C 
ATOM     31  O   UNL A   1      44.878  24.465  37.001  1.00  0.00    -0.246 OA
BRANCH  30  32
ATOM     32  C   UNL A   1      43.643  25.354  35.133  1.00  0.00     0.060 A 
ATOM     33  C   UNL A   1      43.992  26.400  34.284  1.00  0.00     0.016 A 
ATOM     34  C   UNL A   1      42.280  25.236  35.466  1.00  0.00     0.016 A 
ATOM     35  C   UNL A   1      43.008  27.291  33.777  1.00  0.00     0.010 A 
ATOM     36  C   UNL A   1      41.293  26.183  34.997  1.00  0.00     0.010 A 
ATOM     37  C   UNL A   1      41.631  27.253  34.150  1.00  0.00    -0.014 A 
BRANCH  37  38
ATOM     38  C   UNL A   1      40.851  28.591  34.037  1.00  0.00     0.031 A 
ATOM     39  C   UNL A   1      39.870  28.396  32.927  1.00  0.00     0.074 A 
ATOM     40  C   UNL A   1      40.809  29.831  34.636  1.00  0.00     0.049 A 
ATOM     41  N   UNL A   1      40.216  28.102  31.706  1.00  0.00    -0.248 NA
ATOM     42  C   UNL A   1      38.451  28.206  33.239  1.00  0.00     0.031 C 
ATOM     43  C   UNL A   1      41.666  30.348  35.708  1.00  0.00     0.029 A 
ATOM     44  N   UNL A   1      39.945  30.933  34.433  1.00  0.00    -0.354 N 
ATOM     45  C   UNL A   1      39.032  27.932  31.023  1.00  0.00     0.074 A 
ATOM     46  C   UNL A   1      38.010  27.797  32.050  1.00  0.00     0.031 C 
ATOM     47  C   UNL A   1      41.229  31.565  36.140  1.00  0.00     0.029 A 
ATOM     48  C   UNL A   1      40.074  32.003  35.362  1.00  0.00     0.049 A 
ATOM     49  H   UNL A   1      39.294  30.957  33.695  1.00  0.00     0.167 HD
ATOM     50  C   UNL A   1      38.866  28.519  29.806  1.00  0.00     0.031 A 
ATOM     51  C   UNL A   1      39.350  33.171  35.486  1.00  0.00     0.031 A 
ATOM     52  C   UNL A   1      37.993  29.662  29.870  1.00  0.00     0.049 A 
ATOM     53  C   UNL A   1      38.611  33.400  34.231  1.00  0.00     0.074 A 
ATOM     54  C   UNL A   1      36.718  29.891  30.343  1.00  0.00     0.029 A 
ATOM     55  N   UNL A   1      38.608  30.894  29.763  1.00  0.00    -0.354 N 
ATOM     56  N   UNL A   1      39.191  33.821  33.151  1.00  0.00    -0.248 NA
ATOM     57  C   UNL A   1      37.158  33.271  34.149  1.00  0.00     0.031 C 
ATOM     58  C   UNL A   1      36.741  31.200  30.888  1.00  0.00     0.029 A 
ATOM     59  C   UNL A   1      37.954  31.802  30.573  1.00  0.00     0.049 A 
ATOM     60  H   UNL A   1      39.390  31.093  29.199  1.00  0.00     0.167 HD
ATOM     61  C   UNL A   1      38.283  33.559  32.167  1.00  0.00     0.074 A 
ATOM     62  C   UNL A   1      37.003  33.475  32.840  1.00  0.00     0.031 C 
ATOM     63  C   UNL A   1      38.715  32.944  31.037  1.00  0.00     0.031 A 
BRANCH  50  64
ATOM     64  C   UNL A   1      39.975  28.441  28.804  1.00  0.00    -0.014 A 
ATOM     65  C   UNL A   1      40.000  27.340  27.934  1.00  0.00     0.010 A 
ATOM     66  C   UNL A   1      40.965  29.433  28.672  1.00  0.00     0.010 A 
ATOM     67  C   UNL A   1      41.018  27.212  26.983  1.00  0.00     0.020 A 
ATOM     68  C   UNL A   1      41.988  29.308  27.726  1.00  0.00     0.020 A 
ATOM     69  C   UNL A   1      42.012  28.190  26.893  1.00  0.00     0.054 A 
BRANCH  69  70
ATOM     70  S   UNL A   1      43.359  27.943  25.706  1.00  0.00     0.124 S 
ATOM     71  O   UNL A   1      44.247  29.066  26.004  1.00  0.00    -0.237 OA
ATOM     72  O   UNL A   1      43.873  26.632  26.088  1.00  0.00    -0.237 OA
ATOM     73  O   UNL A   1      42.703  28.018  24.403  1.00  0.00    -0.744 OA
ENDBRANCH  69  70
ENDBRANCH  50  64
BRANCH  51  74
ATOM     74  C   UNL A   1      39.154  34.337  36.449  1.00  0.00    -0.014 A 
ATOM     75  C   UNL A   1      38.636  34.072  37.757  1.00  0.00     0.010 A 
ATOM     76  C   UNL A   1      39.788  35.578  36.285  1.00  0.00     0.010 A 
ATOM     77  C   UNL A   1      38.860  34.915  38.861  1.00  0.00     0.020 A 
ATOM     78  C   UNL A   1      39.988  36.452  37.389  1.00  0.00     0.020 A 
ATOM     79  C   UNL A   1      39.568  36.094  38.677  1.00  0.00     0.054 A 
BRANCH  79  80
ATOM     80  S   UNL A   1      40.045  37.065  40.149  1.00  0.00     0.124 S 
ATOM     81  O   UNL A   1      38.796  37.720  40.523  1.00  0.00    -0.237 OA
ATOM     82  O   UNL A   1      40.514  36.033  41.071  1.00  0.00    -0.237 OA
ATOM     83  O   UNL A   1      41.089  37.957  39.648  1.00  0.00    -0.744 OA
ENDBRANCH  79  80
ENDBRANCH  51  74
BRANCH  63  84
ATOM     84  C   UNL A   1      40.097  33.327  30.517  1.00  0.00    -0.014 A 
ATOM     85  C   UNL A   1      40.394  34.512  29.804  1.00  0.00     0.010 A 
ATOM     86  C   UNL A   1      41.146  32.408  30.693  1.00  0.00     0.010 A 
ATOM     87  C   UNL A   1      41.638  34.713  29.189  1.00  0.00     0.020 A 
ATOM     88  C   UNL A   1      42.410  32.624  30.123  1.00  0.00     0.020 A 
ATOM     89  C   UNL A   1      42.635  33.753  29.336  1.00  0.00     0.054 A 
BRANCH  89  90
ATOM     90  S   UNL A   1      44.204  33.985  28.454  1.00  0.00     0.124 S 
ATOM     91  O   UNL A   1      44.091  35.363  27.980  1.00  0.00    -0.237 OA
ATOM     92  O   UNL A   1      45.200  33.768  29.501  1.00  0.00    -0.237 OA
ATOM     93  O   UNL A   1      44.166  32.971  27.404  1.00  0.00    -0.744 OA
ENDBRANCH  89  90
ENDBRANCH  63  84
ENDBRANCH  37  38
ENDBRANCH  30  32
ENDBRANCH  29  30
ENDBRANCH  28  29
ENDBRANCH   1  28
TORSDOF 18
ENDMDL
