MODEL 1
REMARK VINA RESULT:     -13.4      0.000      0.000
REMARK SMILES Cc1ccc(C(=O)NC2CC2)cc1NC(=O)[C@@H]1[C@@H](C(=O)OCCOC(=O)c2ccc(-c3c4nc(c(-c5ccc(S(=O)(=O)[O-])cc5)c5ccc([nH]5)c(-c5ccc(S(=O)(=O)[O-])cc5)c5nc(c(-c6ccc(S(=O)(=O)[O-])cc6)c6ccc3[nH]6)C=C5)C=C4)cc2)[C@H]2C=C[C@@H]1C2
REMARK SMILES IDX 22 1 21 2 19 3 20 4 18 5 17 6 90 7 87 8 89 9 91 10 88 11
REMARK SMILES IDX 15 12 14 13 16 15 13 16 1 17 2 18 3 19 4 20 12 21 5 22 6 23
REMARK SMILES IDX 7 24 8 25 9 27 10 28 11 29 23 30 24 31 25 32 26 33 27 34
REMARK SMILES IDX 28 35 86 36 29 37 85 38 30 39 31 40 32 41 79 42 33 43 84 44
REMARK SMILES IDX 78 45 80 46 34 47 83 48 77 49 76 50 35 52 65 53 46 54 64 55
REMARK SMILES IDX 47 56 50 57 63 58 81 59 48 60 49 61 62 63 82 64 51 65 36 66
REMARK SMILES IDX 37 67 45 68 38 69 44 70 39 71 40 72 41 73 42 74 43 75 66 76
REMARK SMILES IDX 67 77 75 78 68 79 74 80 69 81 70 82 71 83 72 84 73 85 52 86
REMARK SMILES IDX 53 87 61 88 54 89 60 90 55 91 56 92 57 93 58 94 59 95
REMARK H PARENT 14 14 8 26 80 51 50 62
REMARK Flexibility Score: inf
ROOT
ATOM      1  C   UNL A   1      33.167  29.471  25.533  1.00  0.00     0.274 C 
ENDROOT
BRANCH   1   2
ATOM      2  O   UNL A   1      32.935  28.047  25.294  1.00  0.00    -0.462 OA
BRANCH   2   3
ATOM      3  C   UNL A   1      31.693  27.802  24.736  1.00  0.00     0.310 C 
ATOM      4  O   UNL A   1      30.963  28.732  24.397  1.00  0.00    -0.252 OA
BRANCH   3   5
ATOM      5  C   UNL A   1      31.237  26.319  24.712  1.00  0.00     0.119 C 
ATOM      6  C   UNL A   1      32.156  25.037  25.111  1.00  0.00     0.100 C 
ATOM      7  C   UNL A   1      32.047  24.161  23.826  1.00  0.00     0.025 C 
ATOM      8  C   UNL A   1      30.955  25.997  23.201  1.00  0.00     0.027 C 
ATOM      9  C   UNL A   1      32.899  24.812  22.775  1.00  0.00    -0.027 C 
ATOM     10  C   UNL A   1      30.664  24.508  23.276  1.00  0.00     0.017 C 
ATOM     11  C   UNL A   1      32.254  25.923  22.406  1.00  0.00    -0.027 C 
BRANCH   6  12
ATOM     12  C   UNL A   1      31.643  24.178  26.277  1.00  0.00     0.228 C 
ATOM     13  N   UNL A   1      31.966  22.864  26.535  1.00  0.00    -0.326 N 
ATOM     14  H   UNL A   1      31.459  22.546  27.315  1.00  0.00     0.169 HD
ATOM     15  O   UNL A   1      30.841  24.690  27.073  1.00  0.00    -0.274 OA
BRANCH  13  16
ATOM     16  C   UNL A   1      32.800  21.811  26.038  1.00  0.00     0.044 A 
ATOM     17  C   UNL A   1      34.967  23.043  26.772  1.00  0.00     0.046 C 
ATOM     18  C   UNL A   1      34.211  21.943  26.073  1.00  0.00    -0.027 A 
ATOM     19  C   UNL A   1      35.040  20.991  25.423  1.00  0.00     0.006 A 
ATOM     20  C   UNL A   1      34.505  19.948  24.680  1.00  0.00     0.014 A 
ATOM     21  C   UNL A   1      32.316  20.659  25.421  1.00  0.00     0.040 A 
ATOM     22  C   UNL A   1      33.130  19.798  24.641  1.00  0.00     0.041 A 
BRANCH  22  23
ATOM     23  C   UNL A   1      32.586  18.835  23.616  1.00  0.00     0.251 C 
ATOM     24  O   UNL A   1      32.131  19.254  22.555  1.00  0.00    -0.269 OA
ATOM     25  N   UNL A   1      32.508  17.492  23.945  1.00  0.00    -0.349 N 
ATOM     26  H   UNL A   1      32.097  16.877  23.294  1.00  0.00     0.164 HD
BRANCH  25  27
ATOM     27  C   UNL A   1      32.987  16.952  25.161  1.00  0.00     0.082 C 
ATOM     28  C   UNL A   1      32.507  15.551  25.535  1.00  0.00     0.027 C 
ATOM     29  C   UNL A   1      33.927  15.847  25.366  1.00  0.00     0.027 C 
ENDBRANCH  25  27
ENDBRANCH  22  23
ENDBRANCH  13  16
ENDBRANCH   6  12
ENDBRANCH   3   5
ENDBRANCH   2   3
ENDBRANCH   1   2
BRANCH   1  30
ATOM     30  C   UNL A   1      33.693  29.900  26.925  1.00  0.00     0.275 C 
BRANCH  30  31
ATOM     31  O   UNL A   1      35.002  29.547  27.431  1.00  0.00    -0.458 OA
BRANCH  31  32
ATOM     32  C   UNL A   1      35.761  30.459  28.076  1.00  0.00     0.338 C 
ATOM     33  O   UNL A   1      35.377  31.522  28.492  1.00  0.00    -0.246 OA
BRANCH  32  34
ATOM     34  C   UNL A   1      37.123  29.923  28.200  1.00  0.00     0.060 A 
ATOM     35  C   UNL A   1      37.332  29.153  29.326  1.00  0.00     0.016 A 
ATOM     36  C   UNL A   1      38.062  29.964  27.172  1.00  0.00     0.016 A 
ATOM     37  C   UNL A   1      38.391  28.262  29.354  1.00  0.00     0.010 A 
ATOM     38  C   UNL A   1      39.243  29.245  27.323  1.00  0.00     0.010 A 
ATOM     39  C   UNL A   1      39.413  28.414  28.436  1.00  0.00    -0.014 A 
BRANCH  39  40
ATOM     40  C   UNL A   1      40.709  27.818  28.729  1.00  0.00     0.031 A 
ATOM     41  C   UNL A   1      40.997  26.388  28.362  1.00  0.00     0.074 A 
ATOM     42  C   UNL A   1      41.533  28.497  29.566  1.00  0.00     0.049 A 
ATOM     43  N   UNL A   1      41.810  25.613  29.002  1.00  0.00    -0.248 NA
ATOM     44  C   UNL A   1      40.272  25.668  27.303  1.00  0.00     0.031 C 
ATOM     45  C   UNL A   1      42.943  28.230  29.756  1.00  0.00     0.029 A 
ATOM     46  N   UNL A   1      41.238  29.474  30.545  1.00  0.00    -0.354 N 
ATOM     47  C   UNL A   1      41.969  24.466  28.244  1.00  0.00     0.074 A 
ATOM     48  C   UNL A   1      40.874  24.471  27.311  1.00  0.00     0.031 C 
ATOM     49  C   UNL A   1      43.343  28.805  30.898  1.00  0.00     0.029 A 
ATOM     50  C   UNL A   1      42.167  29.330  31.587  1.00  0.00     0.049 A 
ATOM     51  H   UNL A   1      40.511  30.137  30.501  1.00  0.00     0.167 HD
ATOM     52  C   UNL A   1      43.134  23.759  28.311  1.00  0.00     0.031 A 
ATOM     53  C   UNL A   1      41.974  29.248  32.943  1.00  0.00     0.031 A 
ATOM     54  C   UNL A   1      44.029  24.358  29.287  1.00  0.00     0.049 A 
ATOM     55  C   UNL A   1      42.754  28.048  33.471  1.00  0.00     0.074 A 
ATOM     56  C   UNL A   1      44.999  25.335  29.129  1.00  0.00     0.029 A 
ATOM     57  N   UNL A   1      43.770  24.251  30.644  1.00  0.00    -0.354 N 
ATOM     58  N   UNL A   1      42.959  26.961  32.770  1.00  0.00    -0.248 NA
ATOM     59  C   UNL A   1      43.396  27.990  34.781  1.00  0.00     0.031 C 
ATOM     60  C   UNL A   1      45.289  25.864  30.404  1.00  0.00     0.029 A 
ATOM     61  C   UNL A   1      44.520  25.183  31.333  1.00  0.00     0.049 A 
ATOM     62  H   UNL A   1      43.146  23.609  31.053  1.00  0.00     0.167 HD
ATOM     63  C   UNL A   1      43.912  26.195  33.405  1.00  0.00     0.074 A 
ATOM     64  C   UNL A   1      44.074  26.829  34.702  1.00  0.00     0.031 C 
ATOM     65  C   UNL A   1      44.580  25.177  32.785  1.00  0.00     0.031 A 
BRANCH  52  66
ATOM     66  C   UNL A   1      43.627  22.855  27.194  1.00  0.00    -0.014 A 
ATOM     67  C   UNL A   1      42.824  21.757  26.809  1.00  0.00     0.010 A 
ATOM     68  C   UNL A   1      44.872  22.968  26.550  1.00  0.00     0.010 A 
ATOM     69  C   UNL A   1      43.280  20.757  25.941  1.00  0.00     0.020 A 
ATOM     70  C   UNL A   1      45.350  21.962  25.684  1.00  0.00     0.020 A 
ATOM     71  C   UNL A   1      44.559  20.847  25.407  1.00  0.00     0.054 A 
BRANCH  71  72
ATOM     72  S   UNL A   1      45.164  19.484  24.375  1.00  0.00     0.124 S 
ATOM     73  O   UNL A   1      44.553  19.778  23.080  1.00  0.00    -0.237 OA
ATOM     74  O   UNL A   1      46.612  19.654  24.438  1.00  0.00    -0.237 OA
ATOM     75  O   UNL A   1      44.648  18.289  25.041  1.00  0.00    -0.744 OA
ENDBRANCH  71  72
ENDBRANCH  52  66
BRANCH  53  76
ATOM     76  C   UNL A   1      40.817  29.885  33.663  1.00  0.00    -0.014 A 
ATOM     77  C   UNL A   1      41.050  31.042  34.439  1.00  0.00     0.010 A 
ATOM     78  C   UNL A   1      39.477  29.462  33.547  1.00  0.00     0.010 A 
ATOM     79  C   UNL A   1      40.003  31.874  34.858  1.00  0.00     0.020 A 
ATOM     80  C   UNL A   1      38.411  30.272  34.010  1.00  0.00     0.020 A 
ATOM     81  C   UNL A   1      38.689  31.525  34.566  1.00  0.00     0.054 A 
BRANCH  81  82
ATOM     82  S   UNL A   1      37.435  32.862  34.512  1.00  0.00     0.124 S 
ATOM     83  O   UNL A   1      36.437  32.326  33.593  1.00  0.00    -0.237 OA
ATOM     84  O   UNL A   1      37.017  32.957  35.909  1.00  0.00    -0.237 OA
ATOM     85  O   UNL A   1      38.188  34.015  34.023  1.00  0.00    -0.744 OA
ENDBRANCH  81  82
ENDBRANCH  53  76
BRANCH  65  86
ATOM     86  C   UNL A   1      45.533  24.163  33.389  1.00  0.00    -0.014 A 
ATOM     87  C   UNL A   1      46.832  24.440  33.825  1.00  0.00     0.010 A 
ATOM     88  C   UNL A   1      45.039  22.855  33.663  1.00  0.00     0.010 A 
ATOM     89  C   UNL A   1      47.604  23.458  34.469  1.00  0.00     0.020 A 
ATOM     90  C   UNL A   1      45.778  21.886  34.337  1.00  0.00     0.020 A 
ATOM     91  C   UNL A   1      47.072  22.191  34.724  1.00  0.00     0.054 A 
BRANCH  91  92
ATOM     92  S   UNL A   1      48.043  20.967  35.635  1.00  0.00     0.124 S 
ATOM     93  O   UNL A   1      48.709  21.798  36.635  1.00  0.00    -0.237 OA
ATOM     94  O   UNL A   1      47.017  20.063  36.152  1.00  0.00    -0.237 OA
ATOM     95  O   UNL A   1      48.915  20.389  34.618  1.00  0.00    -0.744 OA
ENDBRANCH  91  92
ENDBRANCH  65  86
ENDBRANCH  39  40
ENDBRANCH  32  34
ENDBRANCH  31  32
ENDBRANCH  30  31
ENDBRANCH   1  30
TORSDOF 18
ENDMDL
MODEL 2
REMARK VINA RESULT:     -13.3      1.635      2.515
REMARK SMILES Cc1ccc(C(=O)NC2CC2)cc1NC(=O)[C@@H]1[C@@H](C(=O)OCCOC(=O)c2ccc(-c3c4nc(c(-c5ccc(S(=O)(=O)[O-])cc5)c5ccc([nH]5)c(-c5ccc(S(=O)(=O)[O-])cc5)c5nc(c(-c6ccc(S(=O)(=O)[O-])cc6)c6ccc3[nH]6)C=C5)C=C4)cc2)[C@H]2C=C[C@@H]1C2
REMARK SMILES IDX 22 1 21 2 19 3 20 4 18 5 17 6 90 7 87 8 89 9 91 10 88 11
REMARK SMILES IDX 15 12 14 13 16 15 13 16 1 17 2 18 3 19 4 20 12 21 5 22 6 23
REMARK SMILES IDX 7 24 8 25 9 27 10 28 11 29 23 30 24 31 25 32 26 33 27 34
REMARK SMILES IDX 28 35 86 36 29 37 85 38 30 39 31 40 32 41 79 42 33 43 84 44
REMARK SMILES IDX 78 45 80 46 34 47 83 48 77 49 76 50 35 52 65 53 46 54 64 55
REMARK SMILES IDX 47 56 50 57 63 58 81 59 48 60 49 61 62 63 82 64 51 65 36 66
REMARK SMILES IDX 37 67 45 68 38 69 44 70 39 71 40 72 41 73 42 74 43 75 66 76
REMARK SMILES IDX 67 77 75 78 68 79 74 80 69 81 70 82 71 83 72 84 73 85 52 86
REMARK SMILES IDX 53 87 61 88 54 89 60 90 55 91 56 92 57 93 58 94 59 95
REMARK H PARENT 14 14 8 26 80 51 50 62
REMARK Flexibility Score: inf
ROOT
ATOM      1  C   UNL A   1      32.439  29.055  26.250  1.00  0.00     0.274 C 
ENDROOT
BRANCH   1   2
ATOM      2  O   UNL A   1      32.811  28.209  25.116  1.00  0.00    -0.462 OA
BRANCH   2   3
ATOM      3  C   UNL A   1      33.142  26.922  25.506  1.00  0.00     0.310 C 
ATOM      4  O   UNL A   1      33.961  26.729  26.403  1.00  0.00    -0.252 OA
BRANCH   3   5
ATOM      5  C   UNL A   1      32.539  25.776  24.652  1.00  0.00     0.119 C 
ATOM      6  C   UNL A   1      31.782  25.955  23.222  1.00  0.00     0.100 C 
ATOM      7  C   UNL A   1      30.413  25.262  23.503  1.00  0.00     0.025 C 
ATOM      8  C   UNL A   1      31.363  25.191  25.515  1.00  0.00     0.027 C 
ATOM      9  C   UNL A   1      29.618  26.195  24.369  1.00  0.00    -0.027 C 
ATOM     10  C   UNL A   1      30.762  24.194  24.540  1.00  0.00     0.017 C 
ATOM     11  C   UNL A   1      30.193  26.166  25.576  1.00  0.00    -0.027 C 
BRANCH   6  12
ATOM     12  C   UNL A   1      32.414  25.219  22.031  1.00  0.00     0.228 C 
ATOM     13  N   UNL A   1      33.113  24.033  22.073  1.00  0.00    -0.326 N 
ATOM     14  H   UNL A   1      33.448  23.813  21.175  1.00  0.00     0.169 HD
ATOM     15  O   UNL A   1      32.315  25.732  20.905  1.00  0.00    -0.274 OA
BRANCH  13  16
ATOM     16  C   UNL A   1      33.509  23.014  22.999  1.00  0.00     0.044 A 
ATOM     17  C   UNL A   1      31.849  21.296  21.976  1.00  0.00     0.046 C 
ATOM     18  C   UNL A   1      32.848  21.760  23.004  1.00  0.00    -0.027 A 
ATOM     19  C   UNL A   1      33.109  20.813  24.030  1.00  0.00     0.006 A 
ATOM     20  C   UNL A   1      33.956  21.103  25.090  1.00  0.00     0.014 A 
ATOM     21  C   UNL A   1      34.473  23.194  23.990  1.00  0.00     0.040 A 
ATOM     22  C   UNL A   1      34.617  22.320  25.097  1.00  0.00     0.041 A 
BRANCH  22  23
ATOM     23  C   UNL A   1      35.303  22.705  26.384  1.00  0.00     0.251 C 
ATOM     24  O   UNL A   1      34.649  23.148  27.324  1.00  0.00    -0.269 OA
ATOM     25  N   UNL A   1      36.686  22.657  26.436  1.00  0.00    -0.349 N 
ATOM     26  H   UNL A   1      37.131  22.967  27.259  1.00  0.00     0.164 HD
BRANCH  25  27
ATOM     27  C   UNL A   1      37.497  22.186  25.377  1.00  0.00     0.082 C 
ATOM     28  C   UNL A   1      38.841  21.569  25.755  1.00  0.00     0.027 C 
ATOM     29  C   UNL A   1      37.833  20.804  25.025  1.00  0.00     0.027 C 
ENDBRANCH  25  27
ENDBRANCH  22  23
ENDBRANCH  13  16
ENDBRANCH   6  12
ENDBRANCH   3   5
ENDBRANCH   2   3
ENDBRANCH   1   2
BRANCH   1  30
ATOM     30  C   UNL A   1      33.487  30.066  26.778  1.00  0.00     0.275 C 
BRANCH  30  31
ATOM     31  O   UNL A   1      34.809  29.690  27.228  1.00  0.00    -0.458 OA
BRANCH  31  32
ATOM     32  C   UNL A   1      35.521  30.505  28.036  1.00  0.00     0.338 C 
ATOM     33  O   UNL A   1      35.098  31.489  28.588  1.00  0.00    -0.246 OA
BRANCH  32  34
ATOM     34  C   UNL A   1      36.886  29.975  28.142  1.00  0.00     0.060 A 
ATOM     35  C   UNL A   1      37.122  29.230  29.280  1.00  0.00     0.016 A 
ATOM     36  C   UNL A   1      37.802  29.994  27.092  1.00  0.00     0.016 A 
ATOM     37  C   UNL A   1      38.184  28.343  29.304  1.00  0.00     0.010 A 
ATOM     38  C   UNL A   1      38.988  29.280  27.233  1.00  0.00     0.010 A 
ATOM     39  C   UNL A   1      39.185  28.475  28.361  1.00  0.00    -0.014 A 
BRANCH  39  40
ATOM     40  C   UNL A   1      40.488  27.888  28.638  1.00  0.00     0.031 A 
ATOM     41  C   UNL A   1      40.767  26.447  28.309  1.00  0.00     0.074 A 
ATOM     42  C   UNL A   1      41.333  28.593  29.432  1.00  0.00     0.049 A 
ATOM     43  N   UNL A   1      41.597  25.692  28.953  1.00  0.00    -0.248 NA
ATOM     44  C   UNL A   1      40.014  25.694  27.294  1.00  0.00     0.031 C 
ATOM     45  C   UNL A   1      42.748  28.332  29.592  1.00  0.00     0.029 A 
ATOM     46  N   UNL A   1      41.064  29.601  30.386  1.00  0.00    -0.354 N 
ATOM     47  C   UNL A   1      41.736  24.522  28.227  1.00  0.00     0.074 A 
ATOM     48  C   UNL A   1      40.617  24.498  27.324  1.00  0.00     0.031 C 
ATOM     49  C   UNL A   1      43.178  28.942  30.704  1.00  0.00     0.029 A 
ATOM     50  C   UNL A   1      42.020  29.490  31.407  1.00  0.00     0.049 A 
ATOM     51  H   UNL A   1      40.336  30.262  30.341  1.00  0.00     0.167 HD
ATOM     52  C   UNL A   1      42.903  23.817  28.286  1.00  0.00     0.031 A 
ATOM     53  C   UNL A   1      41.863  29.451  32.770  1.00  0.00     0.031 A 
ATOM     54  C   UNL A   1      43.823  24.446  29.218  1.00  0.00     0.049 A 
ATOM     55  C   UNL A   1      42.657  28.268  33.315  1.00  0.00     0.074 A 
ATOM     56  C   UNL A   1      44.788  25.417  29.004  1.00  0.00     0.029 A 
ATOM     57  N   UNL A   1      43.600  24.383  30.584  1.00  0.00    -0.354 N 
ATOM     58  N   UNL A   1      42.844  27.159  32.644  1.00  0.00    -0.248 NA
ATOM     59  C   UNL A   1      43.334  28.252  34.609  1.00  0.00     0.031 C 
ATOM     60  C   UNL A   1      45.111  25.986  30.253  1.00  0.00     0.029 A 
ATOM     61  C   UNL A   1      44.368  25.335  31.224  1.00  0.00     0.049 A 
ATOM     62  H   UNL A   1      42.987  23.754  31.030  1.00  0.00     0.167 HD
ATOM     63  C   UNL A   1      43.814  26.414  33.278  1.00  0.00     0.074 A 
ATOM     64  C   UNL A   1      44.009  27.088  34.549  1.00  0.00     0.031 C 
ATOM     65  C   UNL A   1      44.466  25.375  32.673  1.00  0.00     0.031 A 
BRANCH  52  66
ATOM     66  C   UNL A   1      43.367  22.878  27.186  1.00  0.00    -0.014 A 
ATOM     67  C   UNL A   1      42.627  21.696  26.949  1.00  0.00     0.010 A 
ATOM     68  C   UNL A   1      44.534  23.041  26.419  1.00  0.00     0.010 A 
ATOM     69  C   UNL A   1      43.084  20.676  26.106  1.00  0.00     0.020 A 
ATOM     70  C   UNL A   1      45.014  22.017  25.576  1.00  0.00     0.020 A 
ATOM     71  C   UNL A   1      44.297  20.828  25.447  1.00  0.00     0.054 A 
BRANCH  71  72
ATOM     72  S   UNL A   1      44.918  19.446  24.449  1.00  0.00     0.124 S 
ATOM     73  O   UNL A   1      46.358  19.502  24.698  1.00  0.00    -0.237 OA
ATOM     74  O   UNL A   1      44.226  18.298  25.027  1.00  0.00    -0.237 OA
ATOM     75  O   UNL A   1      44.515  19.793  23.087  1.00  0.00    -0.744 OA
ENDBRANCH  71  72
ENDBRANCH  52  66
BRANCH  53  76
ATOM     76  C   UNL A   1      40.725  30.111  33.500  1.00  0.00    -0.014 A 
ATOM     77  C   UNL A   1      40.930  31.387  34.070  1.00  0.00     0.010 A 
ATOM     78  C   UNL A   1      39.419  29.586  33.580  1.00  0.00     0.010 A 
ATOM     79  C   UNL A   1      39.859  32.201  34.465  1.00  0.00     0.020 A 
ATOM     80  C   UNL A   1      38.335  30.383  34.022  1.00  0.00     0.020 A 
ATOM     81  C   UNL A   1      38.557  31.722  34.358  1.00  0.00     0.054 A 
BRANCH  81  82
ATOM     82  S   UNL A   1      37.198  32.947  34.233  1.00  0.00     0.124 S 
ATOM     83  O   UNL A   1      36.764  33.083  35.619  1.00  0.00    -0.237 OA
ATOM     84  O   UNL A   1      37.876  34.111  33.669  1.00  0.00    -0.237 OA
ATOM     85  O   UNL A   1      36.242  32.304  33.333  1.00  0.00    -0.744 OA
ENDBRANCH  81  82
ENDBRANCH  53  76
BRANCH  65  86
ATOM     86  C   UNL A   1      45.435  24.381  33.284  1.00  0.00    -0.014 A 
ATOM     87  C   UNL A   1      46.745  24.671  33.674  1.00  0.00     0.010 A 
ATOM     88  C   UNL A   1      44.948  23.083  33.614  1.00  0.00     0.010 A 
ATOM     89  C   UNL A   1      47.535  23.709  34.329  1.00  0.00     0.020 A 
ATOM     90  C   UNL A   1      45.705  22.137  34.299  1.00  0.00     0.020 A 
ATOM     91  C   UNL A   1      47.009  22.452  34.640  1.00  0.00     0.054 A 
BRANCH  91  92
ATOM     92  S   UNL A   1      48.004  21.258  35.564  1.00  0.00     0.124 S 
ATOM     93  O   UNL A   1      49.184  22.050  35.904  1.00  0.00    -0.237 OA
ATOM     94  O   UNL A   1      47.134  20.913  36.686  1.00  0.00    -0.237 OA
ATOM     95  O   UNL A   1      48.229  20.179  34.607  1.00  0.00    -0.744 OA
ENDBRANCH  91  92
ENDBRANCH  65  86
ENDBRANCH  39  40
ENDBRANCH  32  34
ENDBRANCH  31  32
ENDBRANCH  30  31
ENDBRANCH   1  30
TORSDOF 18
ENDMDL
MODEL 3
REMARK VINA RESULT:     -12.9      5.039     11.537
REMARK SMILES Cc1ccc(C(=O)NC2CC2)cc1NC(=O)[C@@H]1[C@@H](C(=O)OCCOC(=O)c2ccc(-c3c4nc(c(-c5ccc(S(=O)(=O)[O-])cc5)c5ccc([nH]5)c(-c5ccc(S(=O)(=O)[O-])cc5)c5nc(c(-c6ccc(S(=O)(=O)[O-])cc6)c6ccc3[nH]6)C=C5)C=C4)cc2)[C@H]2C=C[C@@H]1C2
REMARK SMILES IDX 22 1 21 2 19 3 20 4 18 5 17 6 90 7 87 8 89 9 91 10 88 11
REMARK SMILES IDX 15 12 14 13 16 15 13 16 1 17 2 18 3 19 4 20 12 21 5 22 6 23
REMARK SMILES IDX 7 24 8 25 9 27 10 28 11 29 23 30 24 31 25 32 26 33 27 34
REMARK SMILES IDX 28 35 86 36 29 37 85 38 30 39 31 40 32 41 79 42 33 43 84 44
REMARK SMILES IDX 78 45 80 46 34 47 83 48 77 49 76 50 35 52 65 53 46 54 64 55
REMARK SMILES IDX 47 56 50 57 63 58 81 59 48 60 49 61 62 63 82 64 51 65 36 66
REMARK SMILES IDX 37 67 45 68 38 69 44 70 39 71 40 72 41 73 42 74 43 75 66 76
REMARK SMILES IDX 67 77 75 78 68 79 74 80 69 81 70 82 71 83 72 84 73 85 52 86
REMARK SMILES IDX 53 87 61 88 54 89 60 90 55 91 56 92 57 93 58 94 59 95
REMARK H PARENT 14 14 8 26 80 51 50 62
REMARK Flexibility Score: inf
ROOT
ATOM      1  C   UNL A   1      36.605  21.616  25.518  1.00  0.00     0.274 C 
ENDROOT
BRANCH   1   2
ATOM      2  O   UNL A   1      35.534  21.833  24.545  1.00  0.00    -0.462 OA
BRANCH   2   3
ATOM      3  C   UNL A   1      34.599  22.752  24.989  1.00  0.00     0.310 C 
ATOM      4  O   UNL A   1      34.574  23.103  26.168  1.00  0.00    -0.252 OA
BRANCH   3   5
ATOM      5  C   UNL A   1      33.519  23.177  23.959  1.00  0.00     0.119 C 
ATOM      6  C   UNL A   1      32.856  24.658  23.835  1.00  0.00     0.100 C 
ATOM      7  C   UNL A   1      31.336  24.333  23.955  1.00  0.00     0.025 C 
ATOM      8  C   UNL A   1      32.244  22.334  24.324  1.00  0.00     0.027 C 
ATOM      9  C   UNL A   1      31.067  24.015  25.398  1.00  0.00    -0.027 C 
ATOM     10  C   UNL A   1      31.226  22.926  23.366  1.00  0.00     0.017 C 
ATOM     11  C   UNL A   1      31.622  22.821  25.628  1.00  0.00    -0.027 C 
BRANCH   6  12
ATOM     12  C   UNL A   1      33.051  25.370  22.488  1.00  0.00     0.228 C 
ATOM     13  N   UNL A   1      32.565  26.610  22.136  1.00  0.00    -0.326 N 
ATOM     14  H   UNL A   1      32.796  26.802  21.199  1.00  0.00     0.169 HD
ATOM     15  O   UNL A   1      33.693  24.785  21.602  1.00  0.00    -0.274 OA
BRANCH  13  16
ATOM     16  C   UNL A   1      31.833  27.711  22.689  1.00  0.00     0.044 A 
ATOM     17  C   UNL A   1      33.740  28.266  24.366  1.00  0.00     0.046 C 
ATOM     18  C   UNL A   1      32.355  28.428  23.795  1.00  0.00    -0.027 A 
ATOM     19  C   UNL A   1      31.561  29.399  24.461  1.00  0.00     0.006 A 
ATOM     20  C   UNL A   1      30.240  29.629  24.105  1.00  0.00     0.014 A 
ATOM     21  C   UNL A   1      30.563  28.094  22.264  1.00  0.00     0.040 A 
ATOM     22  C   UNL A   1      29.717  28.944  23.021  1.00  0.00     0.041 A 
BRANCH  22  23
ATOM     23  C   UNL A   1      28.222  29.015  22.838  1.00  0.00     0.251 C 
ATOM     24  O   UNL A   1      27.503  28.119  23.272  1.00  0.00    -0.269 OA
ATOM     25  N   UNL A   1      27.696  30.046  22.076  1.00  0.00    -0.349 N 
ATOM     26  H   UNL A   1      26.725  30.052  21.911  1.00  0.00     0.164 HD
BRANCH  25  27
ATOM     27  C   UNL A   1      28.474  31.090  21.524  1.00  0.00     0.082 C 
ATOM     28  C   UNL A   1      27.839  31.908  20.402  1.00  0.00     0.027 C 
ATOM     29  C   UNL A   1      28.280  32.537  21.643  1.00  0.00     0.027 C 
ENDBRANCH  25  27
ENDBRANCH  22  23
ENDBRANCH  13  16
ENDBRANCH   6  12
ENDBRANCH   3   5
ENDBRANCH   2   3
ENDBRANCH   1   2
BRANCH   1  30
ATOM     30  C   UNL A   1      37.869  22.507  25.420  1.00  0.00     0.275 C 
BRANCH  30  31
ATOM     31  O   UNL A   1      38.259  23.460  26.436  1.00  0.00    -0.458 OA
BRANCH  31  32
ATOM     32  C   UNL A   1      39.559  23.633  26.757  1.00  0.00     0.338 C 
ATOM     33  O   UNL A   1      40.465  22.911  26.425  1.00  0.00    -0.246 OA
BRANCH  32  34
ATOM     34  C   UNL A   1      39.679  24.859  27.557  1.00  0.00     0.060 A 
ATOM     35  C   UNL A   1      40.203  25.938  26.873  1.00  0.00     0.016 A 
ATOM     36  C   UNL A   1      39.097  25.018  28.813  1.00  0.00     0.016 A 
ATOM     37  C   UNL A   1      39.979  27.218  27.348  1.00  0.00     0.010 A 
ATOM     38  C   UNL A   1      39.095  26.284  29.388  1.00  0.00     0.010 A 
ATOM     39  C   UNL A   1      39.566  27.381  28.656  1.00  0.00    -0.014 A 
BRANCH  39  40
ATOM     40  C   UNL A   1      39.772  28.671  29.298  1.00  0.00     0.031 A 
ATOM     41  C   UNL A   1      38.785  29.789  29.110  1.00  0.00     0.074 A 
ATOM     42  C   UNL A   1      40.993  28.910  29.840  1.00  0.00     0.049 A 
ATOM     43  N   UNL A   1      39.083  31.047  29.139  1.00  0.00    -0.248 NA
ATOM     44  C   UNL A   1      37.380  29.566  28.732  1.00  0.00     0.031 C 
ATOM     45  C   UNL A   1      41.310  29.986  30.755  1.00  0.00     0.029 A 
ATOM     46  N   UNL A   1      42.249  28.324  29.557  1.00  0.00    -0.354 N 
ATOM     47  C   UNL A   1      37.891  31.752  29.144  1.00  0.00     0.074 A 
ATOM     48  C   UNL A   1      36.890  30.813  28.713  1.00  0.00     0.031 C 
ATOM     49  C   UNL A   1      42.639  30.157  30.779  1.00  0.00     0.029 A 
ATOM     50  C   UNL A   1      43.232  29.307  29.750  1.00  0.00     0.049 A 
ATOM     51  H   UNL A   1      42.404  27.394  29.275  1.00  0.00     0.167 HD
ATOM     52  C   UNL A   1      37.825  32.976  29.742  1.00  0.00     0.031 A 
ATOM     53  C   UNL A   1      44.270  29.697  28.940  1.00  0.00     0.031 A 
ATOM     54  C   UNL A   1      39.134  33.361  30.243  1.00  0.00     0.049 A 
ATOM     55  C   UNL A   1      44.246  31.217  28.821  1.00  0.00     0.074 A 
ATOM     56  C   UNL A   1      39.719  33.140  31.479  1.00  0.00     0.029 A 
ATOM     57  N   UNL A   1      40.145  33.732  29.370  1.00  0.00    -0.354 N 
ATOM     58  N   UNL A   1      43.143  31.922  28.860  1.00  0.00    -0.248 NA
ATOM     59  C   UNL A   1      45.435  32.056  28.700  1.00  0.00     0.031 C 
ATOM     60  C   UNL A   1      41.110  33.324  31.337  1.00  0.00     0.029 A 
ATOM     61  C   UNL A   1      41.360  33.691  30.025  1.00  0.00     0.049 A 
ATOM     62  H   UNL A   1      40.016  33.985  28.428  1.00  0.00     0.167 HD
ATOM     63  C   UNL A   1      43.471  33.252  29.006  1.00  0.00     0.074 A 
ATOM     64  C   UNL A   1      44.907  33.291  28.795  1.00  0.00     0.031 C 
ATOM     65  C   UNL A   1      42.569  34.200  29.401  1.00  0.00     0.031 A 
BRANCH  52  66
ATOM     66  C   UNL A   1      36.536  33.577  30.275  1.00  0.00    -0.014 A 
ATOM     67  C   UNL A   1      35.506  33.889  29.358  1.00  0.00     0.010 A 
ATOM     68  C   UNL A   1      36.300  33.931  31.616  1.00  0.00     0.010 A 
ATOM     69  C   UNL A   1      34.372  34.626  29.720  1.00  0.00     0.020 A 
ATOM     70  C   UNL A   1      35.169  34.685  31.993  1.00  0.00     0.020 A 
ATOM     71  C   UNL A   1      34.225  35.052  31.034  1.00  0.00     0.054 A 
BRANCH  71  72
ATOM     72  S   UNL A   1      32.803  36.100  31.450  1.00  0.00     0.124 S 
ATOM     73  O   UNL A   1      32.229  36.383  30.137  1.00  0.00    -0.237 OA
ATOM     74  O   UNL A   1      32.006  35.229  32.309  1.00  0.00    -0.237 OA
ATOM     75  O   UNL A   1      33.405  37.252  32.120  1.00  0.00    -0.744 OA
ENDBRANCH  71  72
ENDBRANCH  52  66
BRANCH  53  76
ATOM     76  C   UNL A   1      44.951  28.783  27.957  1.00  0.00    -0.014 A 
ATOM     77  C   UNL A   1      44.345  28.559  26.702  1.00  0.00     0.010 A 
ATOM     78  C   UNL A   1      46.217  28.196  28.162  1.00  0.00     0.010 A 
ATOM     79  C   UNL A   1      45.055  28.007  25.626  1.00  0.00     0.020 A 
ATOM     80  C   UNL A   1      46.925  27.593  27.094  1.00  0.00     0.020 A 
ATOM     81  C   UNL A   1      46.374  27.604  25.809  1.00  0.00     0.054 A 
BRANCH  81  82
ATOM     82  S   UNL A   1      47.460  27.522  24.333  1.00  0.00     0.124 S 
ATOM     83  O   UNL A   1      48.729  28.030  24.843  1.00  0.00    -0.237 OA
ATOM     84  O   UNL A   1      47.438  26.099  24.006  1.00  0.00    -0.237 OA
ATOM     85  O   UNL A   1      46.782  28.380  23.363  1.00  0.00    -0.744 OA
ENDBRANCH  81  82
ENDBRANCH  53  76
BRANCH  65  86
ATOM     86  C   UNL A   1      42.743  35.706  29.459  1.00  0.00    -0.014 A 
ATOM     87  C   UNL A   1      43.544  36.389  30.379  1.00  0.00     0.010 A 
ATOM     88  C   UNL A   1      42.156  36.492  28.424  1.00  0.00     0.010 A 
ATOM     89  C   UNL A   1      43.725  37.780  30.288  1.00  0.00     0.020 A 
ATOM     90  C   UNL A   1      42.361  37.863  28.300  1.00  0.00     0.020 A 
ATOM     91  C   UNL A   1      43.137  38.506  29.249  1.00  0.00     0.054 A 
BRANCH  91  92
ATOM     92  S   UNL A   1      43.452  40.280  29.091  1.00  0.00     0.124 S 
ATOM     93  O   UNL A   1      43.344  40.477  27.648  1.00  0.00    -0.237 OA
ATOM     94  O   UNL A   1      42.378  40.870  29.889  1.00  0.00    -0.237 OA
ATOM     95  O   UNL A   1      44.791  40.445  29.648  1.00  0.00    -0.744 OA
ENDBRANCH  91  92
ENDBRANCH  65  86
ENDBRANCH  39  40
ENDBRANCH  32  34
ENDBRANCH  31  32
ENDBRANCH  30  31
ENDBRANCH   1  30
TORSDOF 18
ENDMDL
