MODEL 1
REMARK VINA RESULT:     -10.8      0.000      0.000
REMARK SMILES O=C(OCCOC(=O)[C@@H]1CC[C@@H](CNC(=O)c2cc(Cl)ccc2Cl)O1)c1ccc(-c2c3nc(c(-c4ccc(S(=O)(=O)[O-])cc4)c4ccc([nH]4)c(-c4ccc(S(=O)(=O)[O-])cc4)c4nc(c(-c5ccc(S(=O)(=O)[O-])cc5)c5ccc2[nH]5)C=C4)C=C3)cc1
REMARK SMILES IDX 4 1 3 2 2 3 1 4 26 5 27 6 85 7 28 8 84 9 29 10 30 11 31 12
REMARK SMILES IDX 78 13 32 14 83 15 77 16 79 17 33 18 82 19 76 20 75 21 34 23
REMARK SMILES IDX 64 24 45 25 63 26 46 27 49 28 62 29 80 30 47 31 48 32 61 34
REMARK SMILES IDX 81 35 50 36 35 37 36 38 44 39 37 40 43 41 38 42 39 43 40 44
REMARK SMILES IDX 41 45 42 46 65 47 66 48 74 49 67 50 73 51 68 52 69 53 70 54
REMARK SMILES IDX 71 55 72 56 51 57 52 58 60 59 53 60 59 61 54 62 55 63 56 64
REMARK SMILES IDX 57 65 58 66 5 67 6 68 7 69 8 70 9 71 10 72 25 73 11 74 12 75
REMARK SMILES IDX 13 76 14 77 15 78 16 80 17 81 18 82 23 83 19 84 22 85 24 86
REMARK SMILES IDX 20 87 21 88
REMARK H PARENT 79 22 49 33 14 79
REMARK Flexibility Score: inf
ROOT
ATOM      1  C   UNL A   1      33.097  28.286  27.210  1.00  0.00     0.275 C 
ENDROOT
BRANCH   1   2
ATOM      2  O   UNL A   1      33.801  29.502  26.939  1.00  0.00    -0.458 OA
BRANCH   2   3
ATOM      3  C   UNL A   1      34.473  30.307  27.796  1.00  0.00     0.338 C 
ATOM      4  O   UNL A   1      33.975  31.398  28.068  1.00  0.00    -0.246 OA
BRANCH   3   5
ATOM      5  C   UNL A   1      35.832  29.993  28.351  1.00  0.00     0.060 A 
ATOM      6  C   UNL A   1      36.151  29.631  29.668  1.00  0.00     0.016 A 
ATOM      7  C   UNL A   1      36.889  30.079  27.436  1.00  0.00     0.016 A 
ATOM      8  C   UNL A   1      37.454  29.254  30.036  1.00  0.00     0.010 A 
ATOM      9  C   UNL A   1      38.187  29.732  27.810  1.00  0.00     0.010 A 
ATOM     10  C   UNL A   1      38.480  29.272  29.099  1.00  0.00    -0.014 A 
BRANCH  10  11
ATOM     11  C   UNL A   1      39.872  28.858  29.411  1.00  0.00     0.031 A 
ATOM     12  C   UNL A   1      40.814  29.888  29.970  1.00  0.00     0.074 A 
ATOM     13  C   UNL A   1      40.314  27.628  29.078  1.00  0.00     0.049 A 
ATOM     14  N   UNL A   1      42.101  29.808  30.178  1.00  0.00    -0.248 NA
ATOM     15  C   UNL A   1      40.221  31.185  30.337  1.00  0.00     0.031 C 
ATOM     16  C   UNL A   1      39.487  26.526  28.580  1.00  0.00     0.029 A 
ATOM     17  N   UNL A   1      41.584  27.104  29.070  1.00  0.00    -0.354 N 
ATOM     18  C   UNL A   1      42.481  31.057  30.658  1.00  0.00     0.074 A 
ATOM     19  C   UNL A   1      41.290  31.876  30.702  1.00  0.00     0.031 C 
ATOM     20  C   UNL A   1      40.274  25.484  28.258  1.00  0.00     0.029 A 
ATOM     21  C   UNL A   1      41.659  25.833  28.539  1.00  0.00     0.049 A 
ATOM     22  H   UNL A   1      42.369  27.590  29.412  1.00  0.00     0.167 HD
ATOM     23  C   UNL A   1      43.719  31.488  30.996  1.00  0.00     0.031 A 
ATOM     24  C   UNL A   1      42.726  25.042  28.309  1.00  0.00     0.031 A 
ATOM     25  C   UNL A   1      44.893  30.661  30.921  1.00  0.00     0.049 A 
ATOM     26  C   UNL A   1      44.085  25.534  28.726  1.00  0.00     0.074 A 
ATOM     27  C   UNL A   1      46.193  30.974  31.275  1.00  0.00     0.029 A 
ATOM     28  N   UNL A   1      44.908  29.356  30.448  1.00  0.00    -0.354 N 
ATOM     29  N   UNL A   1      44.412  26.691  29.250  1.00  0.00    -0.248 NA
ATOM     30  C   UNL A   1      45.208  24.600  28.566  1.00  0.00     0.031 C 
ATOM     31  C   UNL A   1      47.004  29.880  30.959  1.00  0.00     0.029 A 
ATOM     32  C   UNL A   1      46.198  28.860  30.477  1.00  0.00     0.049 A 
ATOM     33  H   UNL A   1      44.118  28.858  30.138  1.00  0.00     0.167 HD
ATOM     34  C   UNL A   1      45.772  26.605  29.530  1.00  0.00     0.074 A 
ATOM     35  C   UNL A   1      46.201  25.283  29.118  1.00  0.00     0.031 C 
ATOM     36  C   UNL A   1      46.588  27.530  30.088  1.00  0.00     0.031 A 
BRANCH  23  37
ATOM     37  C   UNL A   1      43.873  32.940  31.377  1.00  0.00    -0.014 A 
ATOM     38  C   UNL A   1      44.051  33.950  30.416  1.00  0.00     0.010 A 
ATOM     39  C   UNL A   1      43.848  33.294  32.740  1.00  0.00     0.010 A 
ATOM     40  C   UNL A   1      44.270  35.273  30.814  1.00  0.00     0.020 A 
ATOM     41  C   UNL A   1      44.036  34.618  33.140  1.00  0.00     0.020 A 
ATOM     42  C   UNL A   1      44.272  35.596  32.174  1.00  0.00     0.054 A 
BRANCH  42  43
ATOM     43  S   UNL A   1      44.567  37.317  32.664  1.00  0.00     0.124 S 
ATOM     44  O   UNL A   1      45.693  37.177  33.584  1.00  0.00    -0.237 OA
ATOM     45  O   UNL A   1      44.872  37.964  31.391  1.00  0.00    -0.237 OA
ATOM     46  O   UNL A   1      43.305  37.722  33.279  1.00  0.00    -0.744 OA
ENDBRANCH  42  43
ENDBRANCH  23  37
BRANCH  24  47
ATOM     47  C   UNL A   1      42.565  23.687  27.709  1.00  0.00    -0.014 A 
ATOM     48  C   UNL A   1      42.449  22.556  28.537  1.00  0.00     0.010 A 
ATOM     49  C   UNL A   1      42.569  23.512  26.313  1.00  0.00     0.010 A 
ATOM     50  C   UNL A   1      42.383  21.273  27.984  1.00  0.00     0.020 A 
ATOM     51  C   UNL A   1      42.482  22.231  25.755  1.00  0.00     0.020 A 
ATOM     52  C   UNL A   1      42.407  21.118  26.596  1.00  0.00     0.054 A 
BRANCH  52  53
ATOM     53  S   UNL A   1      42.315  19.441  25.903  1.00  0.00     0.124 S 
ATOM     54  O   UNL A   1      42.649  18.616  27.059  1.00  0.00    -0.237 OA
ATOM     55  O   UNL A   1      40.928  19.366  25.450  1.00  0.00    -0.237 OA
ATOM     56  O   UNL A   1      43.311  19.461  24.834  1.00  0.00    -0.744 OA
ENDBRANCH  52  53
ENDBRANCH  24  47
BRANCH  36  57
ATOM     57  C   UNL A   1      48.009  27.124  30.361  1.00  0.00    -0.014 A 
ATOM     58  C   UNL A   1      49.042  27.405  29.451  1.00  0.00     0.010 A 
ATOM     59  C   UNL A   1      48.317  26.517  31.593  1.00  0.00     0.010 A 
ATOM     60  C   UNL A   1      50.361  27.062  29.761  1.00  0.00     0.020 A 
ATOM     61  C   UNL A   1      49.636  26.198  31.915  1.00  0.00     0.020 A 
ATOM     62  C   UNL A   1      50.649  26.462  30.992  1.00  0.00     0.054 A 
BRANCH  62  63
ATOM     63  S   UNL A   1      52.375  26.089  31.402  1.00  0.00     0.124 S 
ATOM     64  O   UNL A   1      53.018  26.156  30.092  1.00  0.00    -0.237 OA
ATOM     65  O   UNL A   1      52.725  27.158  32.331  1.00  0.00    -0.237 OA
ATOM     66  O   UNL A   1      52.306  24.754  31.995  1.00  0.00    -0.744 OA
ENDBRANCH  62  63
ENDBRANCH  36  57
ENDBRANCH  10  11
ENDBRANCH   3   5
ENDBRANCH   2   3
ENDBRANCH   1   2
BRANCH   1  67
ATOM     67  C   UNL A   1      31.695  28.206  26.604  1.00  0.00     0.274 C 
BRANCH  67  68
ATOM     68  O   UNL A   1      31.069  26.915  26.729  1.00  0.00    -0.460 OA
BRANCH  68  69
ATOM     69  C   UNL A   1      30.807  26.272  25.551  1.00  0.00     0.335 C 
ATOM     70  O   UNL A   1      30.353  26.825  24.553  1.00  0.00    -0.249 OA
BRANCH  69  71
ATOM     71  C   UNL A   1      31.026  24.747  25.638  1.00  0.00     0.228 C 
ATOM     72  C   UNL A   1      29.897  24.090  26.432  1.00  0.00     0.047 C 
ATOM     73  O   UNL A   1      32.263  24.231  26.164  1.00  0.00    -0.361 OA
ATOM     74  C   UNL A   1      30.549  22.822  26.921  1.00  0.00     0.037 C 
ATOM     75  C   UNL A   1      31.945  23.324  27.241  1.00  0.00     0.138 C 
BRANCH  75  76
ATOM     76  C   UNL A   1      32.953  22.184  27.495  1.00  0.00     0.148 C 
BRANCH  76  77
ATOM     77  N   UNL A   1      32.879  21.076  26.556  1.00  0.00    -0.349 N 
ATOM     78  C   UNL A   1      33.724  20.636  25.566  1.00  0.00     0.252 C 
ATOM     79  H   UNL A   1      32.062  20.534  26.648  1.00  0.00     0.163 HD
ATOM     80  O   UNL A   1      33.518  19.522  25.088  1.00  0.00    -0.269 OA
BRANCH  78  81
ATOM     81  C   UNL A   1      34.849  21.455  25.036  1.00  0.00     0.059 A 
ATOM     82  C   UNL A   1      36.132  21.357  25.590  1.00  0.00     0.036 A 
ATOM     83  C   UNL A   1      34.657  22.278  23.907  1.00  0.00     0.053 A 
ATOM     84  C   UNL A   1      37.189  22.098  25.051  1.00  0.00     0.041 A 
ATOM     85  C   UNL A   1      35.733  22.982  23.353  1.00  0.00     0.023 A 
ATOM     86  Cl  UNL A   1      33.109  22.547  23.179  1.00  0.00    -0.083 Cl
ATOM     87  Cl  UNL A   1      38.747  22.005  25.774  1.00  0.00    -0.084 Cl
ATOM     88  C   UNL A   1      36.999  22.899  23.930  1.00  0.00     0.022 A 
ENDBRANCH  78  81
ENDBRANCH  76  77
ENDBRANCH  75  76
ENDBRANCH  69  71
ENDBRANCH  68  69
ENDBRANCH  67  68
ENDBRANCH   1  67
TORSDOF 17
ENDMDL
MODEL 2
REMARK VINA RESULT:     -10.6      2.975      9.462
REMARK SMILES O=C(OCCOC(=O)[C@@H]1CC[C@@H](CNC(=O)c2cc(Cl)ccc2Cl)O1)c1ccc(-c2c3nc(c(-c4ccc(S(=O)(=O)[O-])cc4)c4ccc([nH]4)c(-c4ccc(S(=O)(=O)[O-])cc4)c4nc(c(-c5ccc(S(=O)(=O)[O-])cc5)c5ccc2[nH]5)C=C4)C=C3)cc1
REMARK SMILES IDX 4 1 3 2 2 3 1 4 26 5 27 6 85 7 28 8 84 9 29 10 30 11 31 12
REMARK SMILES IDX 78 13 32 14 83 15 77 16 79 17 33 18 82 19 76 20 75 21 34 23
REMARK SMILES IDX 64 24 45 25 63 26 46 27 49 28 62 29 80 30 47 31 48 32 61 34
REMARK SMILES IDX 81 35 50 36 35 37 36 38 44 39 37 40 43 41 38 42 39 43 40 44
REMARK SMILES IDX 41 45 42 46 65 47 66 48 74 49 67 50 73 51 68 52 69 53 70 54
REMARK SMILES IDX 71 55 72 56 51 57 52 58 60 59 53 60 59 61 54 62 55 63 56 64
REMARK SMILES IDX 57 65 58 66 5 67 6 68 7 69 8 70 9 71 10 72 25 73 11 74 12 75
REMARK SMILES IDX 13 76 14 77 15 78 16 80 17 81 18 82 23 83 19 84 22 85 24 86
REMARK SMILES IDX 20 87 21 88
REMARK H PARENT 79 22 49 33 14 79
REMARK Flexibility Score: inf
ROOT
ATOM      1  C   UNL A   1      37.428  21.580  24.873  1.00  0.00     0.275 C 
ENDROOT
BRANCH   1   2
ATOM      2  O   UNL A   1      37.875  22.273  26.044  1.00  0.00    -0.458 OA
BRANCH   2   3
ATOM      3  C   UNL A   1      39.100  22.780  26.318  1.00  0.00     0.338 C 
ATOM      4  O   UNL A   1      40.079  22.075  26.080  1.00  0.00    -0.246 OA
BRANCH   3   5
ATOM      5  C   UNL A   1      39.329  24.104  26.987  1.00  0.00     0.060 A 
ATOM      6  C   UNL A   1      38.949  24.480  28.284  1.00  0.00     0.016 A 
ATOM      7  C   UNL A   1      39.995  25.061  26.212  1.00  0.00     0.016 A 
ATOM      8  C   UNL A   1      39.321  25.719  28.833  1.00  0.00     0.010 A 
ATOM      9  C   UNL A   1      40.339  26.301  26.749  1.00  0.00     0.010 A 
ATOM     10  C   UNL A   1      40.048  26.631  28.077  1.00  0.00    -0.014 A 
BRANCH  10  11
ATOM     11  C   UNL A   1      40.499  27.944  28.603  1.00  0.00     0.031 A 
ATOM     12  C   UNL A   1      41.878  28.041  29.193  1.00  0.00     0.074 A 
ATOM     13  C   UNL A   1      39.646  28.988  28.670  1.00  0.00     0.049 A 
ATOM     14  N   UNL A   1      42.435  29.027  29.844  1.00  0.00    -0.248 NA
ATOM     15  C   UNL A   1      42.742  26.859  29.032  1.00  0.00     0.031 C 
ATOM     16  C   UNL A   1      38.303  29.035  28.086  1.00  0.00     0.029 A 
ATOM     17  N   UNL A   1      39.765  30.204  29.297  1.00  0.00    -0.354 N 
ATOM     18  C   UNL A   1      43.697  28.571  30.208  1.00  0.00     0.074 A 
ATOM     19  C   UNL A   1      43.820  27.218  29.712  1.00  0.00     0.031 C 
ATOM     20  C   UNL A   1      37.703  30.188  28.433  1.00  0.00     0.029 A 
ATOM     21  C   UNL A   1      38.619  30.970  29.251  1.00  0.00     0.049 A 
ATOM     22  H   UNL A   1      40.593  30.502  29.739  1.00  0.00     0.167 HD
ATOM     23  C   UNL A   1      44.651  29.214  30.923  1.00  0.00     0.031 A 
ATOM     24  C   UNL A   1      38.344  32.168  29.804  1.00  0.00     0.031 A 
ATOM     25  C   UNL A   1      44.496  30.552  31.425  1.00  0.00     0.049 A 
ATOM     26  C   UNL A   1      39.435  32.874  30.563  1.00  0.00     0.074 A 
ATOM     27  C   UNL A   1      45.408  31.322  32.124  1.00  0.00     0.029 A 
ATOM     28  N   UNL A   1      43.346  31.317  31.287  1.00  0.00    -0.354 N 
ATOM     29  N   UNL A   1      40.649  32.456  30.830  1.00  0.00    -0.248 NA
ATOM     30  C   UNL A   1      39.135  34.227  31.052  1.00  0.00     0.031 C 
ATOM     31  C   UNL A   1      44.788  32.527  32.464  1.00  0.00     0.029 A 
ATOM     32  C   UNL A   1      43.516  32.538  31.913  1.00  0.00     0.049 A 
ATOM     33  H   UNL A   1      42.530  31.032  30.816  1.00  0.00     0.167 HD
ATOM     34  C   UNL A   1      41.276  33.516  31.475  1.00  0.00     0.074 A 
ATOM     35  C   UNL A   1      40.307  34.591  31.555  1.00  0.00     0.031 C 
ATOM     36  C   UNL A   1      42.542  33.597  31.948  1.00  0.00     0.031 A 
BRANCH  23  37
ATOM     37  C   UNL A   1      45.895  28.439  31.282  1.00  0.00    -0.014 A 
ATOM     38  C   UNL A   1      45.994  27.695  32.471  1.00  0.00     0.010 A 
ATOM     39  C   UNL A   1      46.996  28.470  30.405  1.00  0.00     0.010 A 
ATOM     40  C   UNL A   1      47.192  27.056  32.807  1.00  0.00     0.020 A 
ATOM     41  C   UNL A   1      48.183  27.808  30.722  1.00  0.00     0.020 A 
ATOM     42  C   UNL A   1      48.282  27.126  31.934  1.00  0.00     0.054 A 
BRANCH  42  43
ATOM     43  S   UNL A   1      49.827  26.296  32.397  1.00  0.00     0.124 S 
ATOM     44  O   UNL A   1      49.414  25.525  33.565  1.00  0.00    -0.237 OA
ATOM     45  O   UNL A   1      50.138  25.512  31.204  1.00  0.00    -0.237 OA
ATOM     46  O   UNL A   1      50.743  27.400  32.669  1.00  0.00    -0.744 OA
ENDBRANCH  42  43
ENDBRANCH  23  37
BRANCH  24  47
ATOM     47  C   UNL A   1      37.012  32.811  29.623  1.00  0.00    -0.014 A 
ATOM     48  C   UNL A   1      36.732  33.542  28.453  1.00  0.00     0.010 A 
ATOM     49  C   UNL A   1      36.034  32.737  30.630  1.00  0.00     0.010 A 
ATOM     50  C   UNL A   1      35.517  34.220  28.312  1.00  0.00     0.020 A 
ATOM     51  C   UNL A   1      34.807  33.397  30.483  1.00  0.00     0.020 A 
ATOM     52  C   UNL A   1      34.564  34.149  29.331  1.00  0.00     0.054 A 
BRANCH  52  53
ATOM     53  S   UNL A   1      32.992  35.034  29.120  1.00  0.00     0.124 S 
ATOM     54  O   UNL A   1      32.308  34.207  28.131  1.00  0.00    -0.237 OA
ATOM     55  O   UNL A   1      32.433  35.004  30.469  1.00  0.00    -0.237 OA
ATOM     56  O   UNL A   1      33.407  36.356  28.655  1.00  0.00    -0.744 OA
ENDBRANCH  52  53
ENDBRANCH  24  47
BRANCH  36  57
ATOM     57  C   UNL A   1      42.983  34.915  32.522  1.00  0.00    -0.014 A 
ATOM     58  C   UNL A   1      43.643  35.875  31.737  1.00  0.00     0.010 A 
ATOM     59  C   UNL A   1      42.656  35.218  33.857  1.00  0.00     0.010 A 
ATOM     60  C   UNL A   1      43.990  37.112  32.287  1.00  0.00     0.020 A 
ATOM     61  C   UNL A   1      42.978  36.462  34.400  1.00  0.00     0.020 A 
ATOM     62  C   UNL A   1      43.653  37.397  33.615  1.00  0.00     0.054 A 
BRANCH  62  63
ATOM     63  S   UNL A   1      44.051  39.033  34.288  1.00  0.00     0.124 S 
ATOM     64  O   UNL A   1      45.344  39.309  33.668  1.00  0.00    -0.237 OA
ATOM     65  O   UNL A   1      42.940  39.855  33.819  1.00  0.00    -0.237 OA
ATOM     66  O   UNL A   1      44.087  38.811  35.733  1.00  0.00    -0.744 OA
ENDBRANCH  62  63
ENDBRANCH  36  57
ENDBRANCH  10  11
ENDBRANCH   3   5
ENDBRANCH   2   3
ENDBRANCH   1   2
BRANCH   1  67
ATOM     67  C   UNL A   1      36.292  20.583  25.111  1.00  0.00     0.274 C 
BRANCH  67  68
ATOM     68  O   UNL A   1      34.985  21.082  24.769  1.00  0.00    -0.460 OA
BRANCH  68  69
ATOM     69  C   UNL A   1      34.289  21.658  25.795  1.00  0.00     0.335 C 
ATOM     70  O   UNL A   1      34.181  21.164  26.914  1.00  0.00    -0.249 OA
BRANCH  69  71
ATOM     71  C   UNL A   1      33.544  22.940  25.370  1.00  0.00     0.228 C 
ATOM     72  C   UNL A   1      32.524  23.344  26.435  1.00  0.00     0.047 C 
ATOM     73  O   UNL A   1      32.865  22.985  24.101  1.00  0.00    -0.361 OA
ATOM     74  C   UNL A   1      31.538  24.159  25.637  1.00  0.00     0.037 C 
ATOM     75  C   UNL A   1      31.494  23.366  24.343  1.00  0.00     0.138 C 
BRANCH  75  76
ATOM     76  C   UNL A   1      30.781  24.118  23.200  1.00  0.00     0.148 C 
BRANCH  76  77
ATOM     77  N   UNL A   1      31.660  24.650  22.171  1.00  0.00    -0.349 N 
ATOM     78  C   UNL A   1      32.276  25.868  22.011  1.00  0.00     0.252 C 
ATOM     79  H   UNL A   1      31.853  24.012  21.447  1.00  0.00     0.163 HD
ATOM     80  O   UNL A   1      33.163  25.957  21.163  1.00  0.00    -0.269 OA
BRANCH  78  81
ATOM     81  C   UNL A   1      31.898  27.078  22.793  1.00  0.00     0.059 A 
ATOM     82  C   UNL A   1      30.832  27.890  22.385  1.00  0.00     0.036 A 
ATOM     83  C   UNL A   1      32.553  27.373  24.005  1.00  0.00     0.053 A 
ATOM     84  C   UNL A   1      30.458  28.997  23.155  1.00  0.00     0.041 A 
ATOM     85  C   UNL A   1      32.142  28.459  24.787  1.00  0.00     0.023 A 
ATOM     86  Cl  UNL A   1      33.932  26.496  24.578  1.00  0.00    -0.083 Cl
ATOM     87  Cl  UNL A   1      29.181  30.015  22.616  1.00  0.00    -0.084 Cl
ATOM     88  C   UNL A   1      31.099  29.278  24.358  1.00  0.00     0.022 A 
ENDBRANCH  78  81
ENDBRANCH  76  77
ENDBRANCH  75  76
ENDBRANCH  69  71
ENDBRANCH  68  69
ENDBRANCH  67  68
ENDBRANCH   1  67
TORSDOF 17
ENDMDL
MODEL 3
REMARK VINA RESULT:     -10.4      4.877     10.665
REMARK SMILES O=C(OCCOC(=O)[C@@H]1CC[C@@H](CNC(=O)c2cc(Cl)ccc2Cl)O1)c1ccc(-c2c3nc(c(-c4ccc(S(=O)(=O)[O-])cc4)c4ccc([nH]4)c(-c4ccc(S(=O)(=O)[O-])cc4)c4nc(c(-c5ccc(S(=O)(=O)[O-])cc5)c5ccc2[nH]5)C=C4)C=C3)cc1
REMARK SMILES IDX 4 1 3 2 2 3 1 4 26 5 27 6 85 7 28 8 84 9 29 10 30 11 31 12
REMARK SMILES IDX 78 13 32 14 83 15 77 16 79 17 33 18 82 19 76 20 75 21 34 23
REMARK SMILES IDX 64 24 45 25 63 26 46 27 49 28 62 29 80 30 47 31 48 32 61 34
REMARK SMILES IDX 81 35 50 36 35 37 36 38 44 39 37 40 43 41 38 42 39 43 40 44
REMARK SMILES IDX 41 45 42 46 65 47 66 48 74 49 67 50 73 51 68 52 69 53 70 54
REMARK SMILES IDX 71 55 72 56 51 57 52 58 60 59 53 60 59 61 54 62 55 63 56 64
REMARK SMILES IDX 57 65 58 66 5 67 6 68 7 69 8 70 9 71 10 72 25 73 11 74 12 75
REMARK SMILES IDX 13 76 14 77 15 78 16 80 17 81 18 82 23 83 19 84 22 85 24 86
REMARK SMILES IDX 20 87 21 88
REMARK H PARENT 79 22 49 33 14 79
REMARK Flexibility Score: inf
ROOT
ATOM      1  C   UNL A   1      40.730  22.737  27.214  1.00  0.00     0.275 C 
ENDROOT
BRANCH   1   2
ATOM      2  O   UNL A   1      41.603  23.629  26.514  1.00  0.00    -0.458 OA
BRANCH   2   3
ATOM      3  C   UNL A   1      41.447  24.950  26.262  1.00  0.00     0.338 C 
ATOM      4  O   UNL A   1      41.675  25.348  25.120  1.00  0.00    -0.246 OA
BRANCH   3   5
ATOM      5  C   UNL A   1      41.113  25.971  27.311  1.00  0.00     0.060 A 
ATOM      6  C   UNL A   1      40.067  25.922  28.244  1.00  0.00     0.016 A 
ATOM      7  C   UNL A   1      41.950  27.093  27.344  1.00  0.00     0.016 A 
ATOM      8  C   UNL A   1      39.928  26.894  29.250  1.00  0.00     0.010 A 
ATOM      9  C   UNL A   1      41.793  28.071  28.326  1.00  0.00     0.010 A 
ATOM     10  C   UNL A   1      40.812  27.964  29.318  1.00  0.00    -0.014 A 
BRANCH  10  11
ATOM     11  C   UNL A   1      40.741  29.009  30.370  1.00  0.00     0.031 A 
ATOM     12  C   UNL A   1      41.627  28.869  31.576  1.00  0.00     0.074 A 
ATOM     13  C   UNL A   1      39.812  29.987  30.307  1.00  0.00     0.049 A 
ATOM     14  N   UNL A   1      41.637  29.562  32.683  1.00  0.00    -0.248 NA
ATOM     15  C   UNL A   1      42.633  27.794  31.526  1.00  0.00     0.031 C 
ATOM     16  C   UNL A   1      38.932  30.260  29.168  1.00  0.00     0.029 A 
ATOM     17  N   UNL A   1      39.422  30.914  31.243  1.00  0.00    -0.354 N 
ATOM     18  C   UNL A   1      42.619  28.981  33.479  1.00  0.00     0.074 A 
ATOM     19  C   UNL A   1      43.174  27.875  32.732  1.00  0.00     0.031 C 
ATOM     20  C   UNL A   1      38.069  31.239  29.493  1.00  0.00     0.029 A 
ATOM     21  C   UNL A   1      38.339  31.675  30.856  1.00  0.00     0.049 A 
ATOM     22  H   UNL A   1      39.874  31.025  32.110  1.00  0.00     0.167 HD
ATOM     23  C   UNL A   1      42.993  29.321  34.736  1.00  0.00     0.031 A 
ATOM     24  C   UNL A   1      37.648  32.619  31.525  1.00  0.00     0.031 A 
ATOM     25  C   UNL A   1      42.409  30.411  35.468  1.00  0.00     0.049 A 
ATOM     26  C   UNL A   1      38.109  32.999  32.906  1.00  0.00     0.074 A 
ATOM     27  C   UNL A   1      42.735  30.876  36.729  1.00  0.00     0.029 A 
ATOM     28  N   UNL A   1      41.367  31.203  35.005  1.00  0.00    -0.354 N 
ATOM     29  N   UNL A   1      39.090  32.489  33.611  1.00  0.00    -0.248 NA
ATOM     30  C   UNL A   1      37.405  34.111  33.559  1.00  0.00     0.031 C 
ATOM     31  C   UNL A   1      41.849  31.907  37.054  1.00  0.00     0.029 A 
ATOM     32  C   UNL A   1      41.020  32.133  35.966  1.00  0.00     0.049 A 
ATOM     33  H   UNL A   1      40.937  31.113  34.124  1.00  0.00     0.167 HD
ATOM     34  C   UNL A   1      39.152  33.252  34.772  1.00  0.00     0.074 A 
ATOM     35  C   UNL A   1      38.113  34.256  34.670  1.00  0.00     0.031 C 
ATOM     36  C   UNL A   1      40.001  33.139  35.822  1.00  0.00     0.031 A 
BRANCH  23  37
ATOM     37  C   UNL A   1      44.010  28.442  35.422  1.00  0.00    -0.014 A 
ATOM     38  C   UNL A   1      43.672  27.188  35.961  1.00  0.00     0.010 A 
ATOM     39  C   UNL A   1      45.338  28.896  35.538  1.00  0.00     0.010 A 
ATOM     40  C   UNL A   1      44.624  26.439  36.660  1.00  0.00     0.020 A 
ATOM     41  C   UNL A   1      46.299  28.138  36.208  1.00  0.00     0.020 A 
ATOM     42  C   UNL A   1      45.928  26.925  36.788  1.00  0.00     0.054 A 
BRANCH  42  43
ATOM     43  S   UNL A   1      47.142  25.939  37.707  1.00  0.00     0.124 S 
ATOM     44  O   UNL A   1      47.372  24.822  36.795  1.00  0.00    -0.237 OA
ATOM     45  O   UNL A   1      48.259  26.867  37.859  1.00  0.00    -0.237 OA
ATOM     46  O   UNL A   1      46.445  25.600  38.945  1.00  0.00    -0.744 OA
ENDBRANCH  42  43
ENDBRANCH  23  37
BRANCH  24  47
ATOM     47  C   UNL A   1      36.489  33.315  30.897  1.00  0.00    -0.014 A 
ATOM     48  C   UNL A   1      36.643  33.972  29.663  1.00  0.00     0.010 A 
ATOM     49  C   UNL A   1      35.242  33.364  31.545  1.00  0.00     0.010 A 
ATOM     50  C   UNL A   1      35.585  34.700  29.107  1.00  0.00     0.020 A 
ATOM     51  C   UNL A   1      34.174  34.073  30.982  1.00  0.00     0.020 A 
ATOM     52  C   UNL A   1      34.359  34.751  29.774  1.00  0.00     0.054 A 
BRANCH  52  53
ATOM     53  S   UNL A   1      32.999  35.698  29.029  1.00  0.00     0.124 S 
ATOM     54  O   UNL A   1      32.225  36.091  30.201  1.00  0.00    -0.237 OA
ATOM     55  O   UNL A   1      33.707  36.777  28.346  1.00  0.00    -0.237 OA
ATOM     56  O   UNL A   1      32.356  34.729  28.146  1.00  0.00    -0.744 OA
ENDBRANCH  52  53
ENDBRANCH  24  47
BRANCH  36  57
ATOM     57  C   UNL A   1      39.897  34.172  36.909  1.00  0.00    -0.014 A 
ATOM     58  C   UNL A   1      40.535  35.419  36.801  1.00  0.00     0.010 A 
ATOM     59  C   UNL A   1      39.078  33.907  38.022  1.00  0.00     0.010 A 
ATOM     60  C   UNL A   1      40.373  36.378  37.804  1.00  0.00     0.020 A 
ATOM     61  C   UNL A   1      38.894  34.873  39.012  1.00  0.00     0.020 A 
ATOM     62  C   UNL A   1      39.552  36.099  38.902  1.00  0.00     0.054 A 
BRANCH  62  63
ATOM     63  S   UNL A   1      39.301  37.382  40.158  1.00  0.00     0.124 S 
ATOM     64  O   UNL A   1      40.666  37.846  40.394  1.00  0.00    -0.237 OA
ATOM     65  O   UNL A   1      38.423  38.330  39.480  1.00  0.00    -0.237 OA
ATOM     66  O   UNL A   1      38.687  36.659  41.271  1.00  0.00    -0.744 OA
ENDBRANCH  62  63
ENDBRANCH  36  57
ENDBRANCH  10  11
ENDBRANCH   3   5
ENDBRANCH   2   3
ENDBRANCH   1   2
BRANCH   1  67
ATOM     67  C   UNL A   1      39.878  21.837  26.319  1.00  0.00     0.274 C 
BRANCH  67  68
ATOM     68  O   UNL A   1      38.624  22.419  25.916  1.00  0.00    -0.460 OA
BRANCH  68  69
ATOM     69  C   UNL A   1      37.706  21.544  25.406  1.00  0.00     0.335 C 
ATOM     70  O   UNL A   1      37.998  20.488  24.852  1.00  0.00    -0.249 OA
BRANCH  69  71
ATOM     71  C   UNL A   1      36.260  22.077  25.487  1.00  0.00     0.228 C 
ATOM     72  C   UNL A   1      35.277  21.036  24.952  1.00  0.00     0.047 C 
ATOM     73  O   UNL A   1      35.923  23.330  24.864  1.00  0.00    -0.361 OA
ATOM     74  C   UNL A   1      34.102  21.889  24.543  1.00  0.00     0.037 C 
ATOM     75  C   UNL A   1      34.815  23.099  23.968  1.00  0.00     0.138 C 
BRANCH  75  76
ATOM     76  C   UNL A   1      33.872  24.295  23.725  1.00  0.00     0.148 C 
BRANCH  76  77
ATOM     77  N   UNL A   1      33.615  24.602  22.327  1.00  0.00    -0.349 N 
ATOM     78  C   UNL A   1      32.949  25.632  21.707  1.00  0.00     0.252 C 
ATOM     79  H   UNL A   1      33.994  23.944  21.701  1.00  0.00     0.163 HD
ATOM     80  O   UNL A   1      33.099  25.766  20.493  1.00  0.00    -0.269 OA
BRANCH  78  81
ATOM     81  C   UNL A   1      32.042  26.565  22.431  1.00  0.00     0.059 A 
ATOM     82  C   UNL A   1      30.760  26.157  22.824  1.00  0.00     0.036 A 
ATOM     83  C   UNL A   1      32.494  27.845  22.809  1.00  0.00     0.053 A 
ATOM     84  C   UNL A   1      29.936  27.028  23.544  1.00  0.00     0.041 A 
ATOM     85  C   UNL A   1      31.674  28.691  23.567  1.00  0.00     0.023 A 
ATOM     86  Cl  UNL A   1      34.022  28.496  22.320  1.00  0.00    -0.083 Cl
ATOM     87  Cl  UNL A   1      28.347  26.532  23.976  1.00  0.00    -0.084 Cl
ATOM     88  C   UNL A   1      30.391  28.286  23.927  1.00  0.00     0.022 A 
ENDBRANCH  78  81
ENDBRANCH  76  77
ENDBRANCH  75  76
ENDBRANCH  69  71
ENDBRANCH  68  69
ENDBRANCH  67  68
ENDBRANCH   1  67
TORSDOF 17
ENDMDL
