MODEL 1
REMARK VINA RESULT:     -11.3      0.000      0.000
REMARK SMILES CCn1cc(S(=O)(=O)N2CCC(CCc3ccc(C(=O)OCCOC(=O)c4ccc(-c5c6nc(c(-c7ccc(S(=O)(=O)[O-])cc7)c7ccc([nH]7)c(-c7ccc(S(=O)(=O)[O-])cc7)c7nc(c(-c8ccc(S(=O)(=O)[O-])cc8)c8ccc5[nH]8)C=C7)C=C6)cc4)cc3)CC2)cn1
REMARK SMILES IDX 21 1 19 2 20 3 18 4 15 5 16 6 88 7 17 8 87 9 14 10 13 11
REMARK SMILES IDX 12 12 9 13 10 14 90 15 11 16 89 17 6 18 7 19 8 20 5 21 3 22
REMARK SMILES IDX 4 23 92 24 91 25 2 26 1 27 22 28 23 29 24 30 25 31 26 32
REMARK SMILES IDX 27 33 28 34 86 35 29 36 85 37 30 38 31 39 32 40 79 41 33 42
REMARK SMILES IDX 84 43 78 44 80 45 34 46 83 47 77 48 76 49 35 51 65 52 46 53
REMARK SMILES IDX 64 54 47 55 50 56 63 57 81 58 48 59 49 60 62 62 82 63 51 64
REMARK SMILES IDX 36 65 37 66 45 67 38 68 44 69 39 70 40 71 41 72 42 73 43 74
REMARK SMILES IDX 66 75 67 76 75 77 68 78 74 79 69 80 70 81 71 82 72 83 73 84
REMARK SMILES IDX 52 85 53 86 61 87 54 88 60 89 55 90 56 91 57 92 58 93 59 94
REMARK H PARENT 80 50 50 61
REMARK Flexibility Score: inf
ROOT
ATOM      1  O   UNL A   1      43.223  18.529  25.348  1.00  0.00    -0.458 OA
ENDROOT
BRANCH   1   2
ATOM      2  C   UNL A   1      42.709  18.582  26.608  1.00  0.00     0.338 C 
ATOM      3  O   UNL A   1      42.998  17.852  27.542  1.00  0.00    -0.246 OA
BRANCH   2   4
ATOM      4  C   UNL A   1      41.799  19.745  26.728  1.00  0.00     0.060 A 
ATOM      5  C   UNL A   1      40.091  21.974  26.978  1.00  0.00    -0.048 A 
ATOM      6  C   UNL A   1      41.175  21.806  27.851  1.00  0.00     0.004 A 
ATOM      7  C   UNL A   1      39.872  20.992  26.001  1.00  0.00     0.004 A 
ATOM      8  C   UNL A   1      42.015  20.690  27.738  1.00  0.00     0.016 A 
ATOM      9  C   UNL A   1      40.734  19.908  25.848  1.00  0.00     0.016 A 
BRANCH   5  10
ATOM     10  C   UNL A   1      39.152  23.154  27.141  1.00  0.00     0.036 C 
BRANCH  10  11
ATOM     11  C   UNL A   1      38.338  23.575  25.897  1.00  0.00     0.008 C 
BRANCH  11  12
ATOM     12  C   UNL A   1      36.822  23.326  25.973  1.00  0.00    -0.008 C 
ATOM     13  N   UNL A   1      34.122  22.671  25.136  1.00  0.00    -0.198 NA
ATOM     14  C   UNL A   1      34.529  24.081  25.321  1.00  0.00     0.103 C 
ATOM     15  C   UNL A   1      34.931  21.673  25.886  1.00  0.00     0.103 C 
ATOM     16  C   UNL A   1      36.016  24.247  25.046  1.00  0.00     0.020 C 
ATOM     17  C   UNL A   1      36.430  21.881  25.639  1.00  0.00     0.020 C 
BRANCH  13  18
ATOM     18  S   UNL A   1      32.438  22.406  25.121  1.00  0.00     0.246 S 
ATOM     19  O   UNL A   1      32.064  21.649  26.280  1.00  0.00    -0.207 OA
ATOM     20  O   UNL A   1      32.068  21.975  23.777  1.00  0.00    -0.207 OA
BRANCH  18  21
ATOM     21  C   UNL A   1      31.581  23.883  25.293  1.00  0.00     0.120 A 
ATOM     22  N   UNL A   1      30.729  25.890  25.115  1.00  0.00    -0.272 N 
ATOM     23  C   UNL A   1      31.620  25.031  24.532  1.00  0.00     0.130 A 
ATOM     24  N   UNL A   1      30.095  25.358  26.180  1.00  0.00    -0.180 NA
ATOM     25  C   UNL A   1      30.639  24.142  26.299  1.00  0.00     0.156 A 
BRANCH  22  26
ATOM     26  C   UNL A   1      30.385  27.222  24.651  1.00  0.00     0.141 C 
ATOM     27  C   UNL A   1      31.494  27.888  23.854  1.00  0.00     0.029 C 
ENDBRANCH  22  26
ENDBRANCH  18  21
ENDBRANCH  13  18
ENDBRANCH  11  12
ENDBRANCH  10  11
ENDBRANCH   5  10
ENDBRANCH   2   4
ENDBRANCH   1   2
BRANCH   1  28
ATOM     28  C   UNL A   1      44.642  18.727  25.239  1.00  0.00     0.275 C 
BRANCH  28  29
ATOM     29  C   UNL A   1      44.967  19.934  24.375  1.00  0.00     0.275 C 
BRANCH  29  30
ATOM     30  O   UNL A   1      44.957  21.134  25.140  1.00  0.00    -0.458 OA
BRANCH  30  31
ATOM     31  C   UNL A   1      44.332  22.178  24.551  1.00  0.00     0.338 C 
ATOM     32  O   UNL A   1      44.355  22.489  23.372  1.00  0.00    -0.246 OA
BRANCH  31  33
ATOM     33  C   UNL A   1      43.819  23.059  25.599  1.00  0.00     0.060 A 
ATOM     34  C   UNL A   1      42.855  24.012  25.253  1.00  0.00     0.016 A 
ATOM     35  C   UNL A   1      44.521  23.113  26.811  1.00  0.00     0.016 A 
ATOM     36  C   UNL A   1      42.692  25.109  26.072  1.00  0.00     0.010 A 
ATOM     37  C   UNL A   1      44.384  24.218  27.603  1.00  0.00     0.010 A 
ATOM     38  C   UNL A   1      43.514  25.230  27.196  1.00  0.00    -0.014 A 
BRANCH  38  39
ATOM     39  C   UNL A   1      43.356  26.368  28.081  1.00  0.00     0.031 A 
ATOM     40  C   UNL A   1      44.474  27.336  27.948  1.00  0.00     0.074 A 
ATOM     41  C   UNL A   1      42.188  26.579  28.721  1.00  0.00     0.049 A 
ATOM     42  N   UNL A   1      45.298  27.740  28.856  1.00  0.00    -0.248 NA
ATOM     43  C   UNL A   1      44.837  27.770  26.580  1.00  0.00     0.031 C 
ATOM     44  C   UNL A   1      40.963  25.772  28.603  1.00  0.00     0.029 A 
ATOM     45  N   UNL A   1      41.782  27.633  29.478  1.00  0.00    -0.354 N 
ATOM     46  C   UNL A   1      46.113  28.671  28.217  1.00  0.00     0.074 A 
ATOM     47  C   UNL A   1      45.950  28.465  26.805  1.00  0.00     0.031 C 
ATOM     48  C   UNL A   1      39.909  26.495  29.041  1.00  0.00     0.029 A 
ATOM     49  C   UNL A   1      40.397  27.750  29.585  1.00  0.00     0.049 A 
ATOM     50  H   UNL A   1      42.409  28.257  29.909  1.00  0.00     0.167 HD
ATOM     51  C   UNL A   1      46.570  29.771  28.875  1.00  0.00     0.031 A 
ATOM     52  C   UNL A   1      39.704  28.835  30.014  1.00  0.00     0.031 A 
ATOM     53  C   UNL A   1      46.474  29.601  30.300  1.00  0.00     0.049 A 
ATOM     54  C   UNL A   1      40.657  29.696  30.751  1.00  0.00     0.074 A 
ATOM     55  C   UNL A   1      47.061  28.776  31.234  1.00  0.00     0.029 A 
ATOM     56  N   UNL A   1      45.331  30.112  30.863  1.00  0.00    -0.354 N 
ATOM     57  N   UNL A   1      41.230  29.342  31.867  1.00  0.00    -0.248 NA
ATOM     58  C   UNL A   1      41.287  30.809  30.054  1.00  0.00     0.031 C 
ATOM     59  C   UNL A   1      46.072  28.574  32.238  1.00  0.00     0.029 A 
ATOM     60  C   UNL A   1      44.940  29.327  31.915  1.00  0.00     0.049 A 
ATOM     61  H   UNL A   1      44.862  30.921  30.558  1.00  0.00     0.167 HD
ATOM     62  C   UNL A   1      42.506  29.876  31.788  1.00  0.00     0.074 A 
ATOM     63  C   UNL A   1      42.427  30.893  30.746  1.00  0.00     0.031 C 
ATOM     64  C   UNL A   1      43.564  29.233  32.364  1.00  0.00     0.031 A 
BRANCH  51  65
ATOM     65  C   UNL A   1      46.587  31.148  28.240  1.00  0.00    -0.014 A 
ATOM     66  C   UNL A   1      45.369  31.837  28.086  1.00  0.00     0.010 A 
ATOM     67  C   UNL A   1      47.697  31.654  27.526  1.00  0.00     0.010 A 
ATOM     68  C   UNL A   1      45.259  32.935  27.220  1.00  0.00     0.020 A 
ATOM     69  C   UNL A   1      47.609  32.769  26.694  1.00  0.00     0.020 A 
ATOM     70  C   UNL A   1      46.381  33.386  26.523  1.00  0.00     0.054 A 
BRANCH  70  71
ATOM     71  S   UNL A   1      46.213  34.744  25.339  1.00  0.00     0.124 S 
ATOM     72  O   UNL A   1      47.588  34.913  24.881  1.00  0.00    -0.237 OA
ATOM     73  O   UNL A   1      45.281  34.187  24.364  1.00  0.00    -0.237 OA
ATOM     74  O   UNL A   1      45.681  35.838  26.148  1.00  0.00    -0.744 OA
ENDBRANCH  70  71
ENDBRANCH  51  65
BRANCH  52  75
ATOM     75  C   UNL A   1      38.368  29.322  29.583  1.00  0.00    -0.014 A 
ATOM     76  C   UNL A   1      37.409  29.739  30.528  1.00  0.00     0.010 A 
ATOM     77  C   UNL A   1      38.136  29.652  28.232  1.00  0.00     0.010 A 
ATOM     78  C   UNL A   1      36.302  30.517  30.147  1.00  0.00     0.020 A 
ATOM     79  C   UNL A   1      37.029  30.420  27.843  1.00  0.00     0.020 A 
ATOM     80  C   UNL A   1      36.132  30.873  28.807  1.00  0.00     0.054 A 
BRANCH  80  81
ATOM     81  S   UNL A   1      34.810  32.035  28.349  1.00  0.00     0.124 S 
ATOM     82  O   UNL A   1      33.884  31.180  27.613  1.00  0.00    -0.237 OA
ATOM     83  O   UNL A   1      34.338  32.508  29.646  1.00  0.00    -0.237 OA
ATOM     84  O   UNL A   1      35.500  33.040  27.541  1.00  0.00    -0.744 OA
ENDBRANCH  80  81
ENDBRANCH  52  75
BRANCH  64  85
ATOM     85  C   UNL A   1      43.267  28.215  33.438  1.00  0.00    -0.014 A 
ATOM     86  C   UNL A   1      43.199  26.825  33.223  1.00  0.00     0.010 A 
ATOM     87  C   UNL A   1      43.165  28.698  34.753  1.00  0.00     0.010 A 
ATOM     88  C   UNL A   1      43.010  25.946  34.301  1.00  0.00     0.020 A 
ATOM     89  C   UNL A   1      42.999  27.829  35.831  1.00  0.00     0.020 A 
ATOM     90  C   UNL A   1      42.912  26.457  35.599  1.00  0.00     0.054 A 
BRANCH  90  91
ATOM     91  S   UNL A   1      42.712  25.319  36.999  1.00  0.00     0.124 S 
ATOM     92  O   UNL A   1      44.008  24.650  37.053  1.00  0.00    -0.237 OA
ATOM     93  O   UNL A   1      42.422  26.221  38.112  1.00  0.00    -0.237 OA
ATOM     94  O   UNL A   1      41.593  24.467  36.597  1.00  0.00    -0.744 OA
ENDBRANCH  90  91
ENDBRANCH  64  85
ENDBRANCH  38  39
ENDBRANCH  31  33
ENDBRANCH  30  31
ENDBRANCH  29  30
ENDBRANCH  28  29
ENDBRANCH   1  28
TORSDOF 20
ENDMDL
MODEL 2
REMARK VINA RESULT:     -11.3      1.419      2.299
REMARK SMILES CCn1cc(S(=O)(=O)N2CCC(CCc3ccc(C(=O)OCCOC(=O)c4ccc(-c5c6nc(c(-c7ccc(S(=O)(=O)[O-])cc7)c7ccc([nH]7)c(-c7ccc(S(=O)(=O)[O-])cc7)c7nc(c(-c8ccc(S(=O)(=O)[O-])cc8)c8ccc5[nH]8)C=C7)C=C6)cc4)cc3)CC2)cn1
REMARK SMILES IDX 21 1 19 2 20 3 18 4 15 5 16 6 88 7 17 8 87 9 14 10 13 11
REMARK SMILES IDX 12 12 9 13 10 14 90 15 11 16 89 17 6 18 7 19 8 20 5 21 3 22
REMARK SMILES IDX 4 23 92 24 91 25 2 26 1 27 22 28 23 29 24 30 25 31 26 32
REMARK SMILES IDX 27 33 28 34 86 35 29 36 85 37 30 38 31 39 32 40 79 41 33 42
REMARK SMILES IDX 84 43 78 44 80 45 34 46 83 47 77 48 76 49 35 51 65 52 46 53
REMARK SMILES IDX 64 54 47 55 50 56 63 57 81 58 48 59 49 60 62 62 82 63 51 64
REMARK SMILES IDX 36 65 37 66 45 67 38 68 44 69 39 70 40 71 41 72 42 73 43 74
REMARK SMILES IDX 66 75 67 76 75 77 68 78 74 79 69 80 70 81 71 82 72 83 73 84
REMARK SMILES IDX 52 85 53 86 61 87 54 88 60 89 55 90 56 91 57 92 58 93 59 94
REMARK H PARENT 80 50 50 61
REMARK Flexibility Score: inf
ROOT
ATOM      1  O   UNL A   1      44.009  19.038  26.083  1.00  0.00    -0.458 OA
ENDROOT
BRANCH   1   2
ATOM      2  C   UNL A   1      42.703  18.658  26.003  1.00  0.00     0.338 C 
ATOM      3  O   UNL A   1      42.286  17.532  25.786  1.00  0.00    -0.246 OA
BRANCH   2   4
ATOM      4  C   UNL A   1      41.827  19.809  26.325  1.00  0.00     0.060 A 
ATOM      5  C   UNL A   1      40.130  21.979  26.924  1.00  0.00    -0.048 A 
ATOM      6  C   UNL A   1      39.720  20.981  26.029  1.00  0.00     0.004 A 
ATOM      7  C   UNL A   1      41.411  21.876  27.487  1.00  0.00     0.004 A 
ATOM      8  C   UNL A   1      40.568  19.910  25.719  1.00  0.00     0.016 A 
ATOM      9  C   UNL A   1      42.239  20.787  27.225  1.00  0.00     0.016 A 
BRANCH   5  10
ATOM     10  C   UNL A   1      39.231  23.165  27.214  1.00  0.00     0.036 C 
BRANCH  10  11
ATOM     11  C   UNL A   1      38.527  23.821  26.005  1.00  0.00     0.008 C 
BRANCH  11  12
ATOM     12  C   UNL A   1      37.122  23.287  25.678  1.00  0.00    -0.008 C 
ATOM     13  N   UNL A   1      34.512  23.066  24.429  1.00  0.00    -0.198 NA
ATOM     14  C   UNL A   1      34.652  23.659  25.777  1.00  0.00     0.103 C 
ATOM     15  C   UNL A   1      35.611  22.150  24.021  1.00  0.00     0.103 C 
ATOM     16  C   UNL A   1      36.014  24.318  25.931  1.00  0.00     0.020 C 
ATOM     17  C   UNL A   1      36.982  22.807  24.227  1.00  0.00     0.020 C 
BRANCH  13  18
ATOM     18  S   UNL A   1      32.934  22.562  24.026  1.00  0.00     0.246 S 
ATOM     19  O   UNL A   1      32.714  22.760  22.623  1.00  0.00    -0.207 OA
ATOM     20  O   UNL A   1      32.024  23.110  25.025  1.00  0.00    -0.207 OA
BRANCH  18  21
ATOM     21  C   UNL A   1      32.756  20.868  24.240  1.00  0.00     0.120 A 
ATOM     22  N   UNL A   1      32.577  18.698  24.036  1.00  0.00    -0.272 N 
ATOM     23  C   UNL A   1      32.736  19.849  23.314  1.00  0.00     0.130 A 
ATOM     24  N   UNL A   1      32.526  18.907  25.367  1.00  0.00    -0.180 NA
ATOM     25  C   UNL A   1      32.610  20.237  25.484  1.00  0.00     0.156 A 
BRANCH  22  26
ATOM     26  C   UNL A   1      32.536  17.347  23.507  1.00  0.00     0.141 C 
ATOM     27  C   UNL A   1      33.911  16.719  23.350  1.00  0.00     0.029 C 
ENDBRANCH  22  26
ENDBRANCH  18  21
ENDBRANCH  13  18
ENDBRANCH  11  12
ENDBRANCH  10  11
ENDBRANCH   5  10
ENDBRANCH   2   4
ENDBRANCH   1   2
BRANCH   1  28
ATOM     28  C   UNL A   1      44.807  18.791  24.914  1.00  0.00     0.275 C 
BRANCH  28  29
ATOM     29  C   UNL A   1      45.029  20.067  24.117  1.00  0.00     0.275 C 
BRANCH  29  30
ATOM     30  O   UNL A   1      45.134  21.198  24.974  1.00  0.00    -0.458 OA
BRANCH  30  31
ATOM     31  C   UNL A   1      44.738  22.367  24.423  1.00  0.00     0.338 C 
ATOM     32  O   UNL A   1      44.974  22.776  23.299  1.00  0.00    -0.246 OA
BRANCH  31  33
ATOM     33  C   UNL A   1      44.186  23.213  25.480  1.00  0.00     0.060 A 
ATOM     34  C   UNL A   1      43.199  24.143  25.141  1.00  0.00     0.016 A 
ATOM     35  C   UNL A   1      44.872  23.264  26.702  1.00  0.00     0.016 A 
ATOM     36  C   UNL A   1      42.994  25.220  25.978  1.00  0.00     0.010 A 
ATOM     37  C   UNL A   1      44.694  24.350  27.512  1.00  0.00     0.010 A 
ATOM     38  C   UNL A   1      43.799  25.343  27.114  1.00  0.00    -0.014 A 
BRANCH  38  39
ATOM     39  C   UNL A   1      43.597  26.459  28.017  1.00  0.00     0.031 A 
ATOM     40  C   UNL A   1      44.693  27.457  27.923  1.00  0.00     0.074 A 
ATOM     41  C   UNL A   1      42.413  26.628  28.640  1.00  0.00     0.049 A 
ATOM     42  N   UNL A   1      45.490  27.863  28.853  1.00  0.00    -0.248 NA
ATOM     43  C   UNL A   1      45.068  27.927  26.570  1.00  0.00     0.031 C 
ATOM     44  C   UNL A   1      41.212  25.795  28.485  1.00  0.00     0.029 A 
ATOM     45  N   UNL A   1      41.968  27.657  29.410  1.00  0.00    -0.354 N 
ATOM     46  C   UNL A   1      46.293  28.827  28.246  1.00  0.00     0.074 A 
ATOM     47  C   UNL A   1      46.160  28.645  26.828  1.00  0.00     0.031 C 
ATOM     48  C   UNL A   1      40.132  26.482  28.918  1.00  0.00     0.029 A 
ATOM     49  C   UNL A   1      40.579  27.738  29.495  1.00  0.00     0.049 A 
ATOM     50  H   UNL A   1      42.572  28.288  29.865  1.00  0.00     0.167 HD
ATOM     51  C   UNL A   1      46.711  29.924  28.934  1.00  0.00     0.031 A 
ATOM     52  C   UNL A   1      39.851  28.796  29.932  1.00  0.00     0.031 A 
ATOM     53  C   UNL A   1      46.594  29.725  30.353  1.00  0.00     0.049 A 
ATOM     54  C   UNL A   1      40.770  29.666  30.703  1.00  0.00     0.074 A 
ATOM     55  C   UNL A   1      47.185  28.896  31.281  1.00  0.00     0.029 A 
ATOM     56  N   UNL A   1      45.429  30.195  30.906  1.00  0.00    -0.354 N 
ATOM     57  N   UNL A   1      41.332  29.305  31.821  1.00  0.00    -0.248 NA
ATOM     58  C   UNL A   1      41.383  30.808  30.039  1.00  0.00     0.031 C 
ATOM     59  C   UNL A   1      46.184  28.649  32.264  1.00  0.00     0.029 A 
ATOM     60  C   UNL A   1      45.040  29.380  31.935  1.00  0.00     0.049 A 
ATOM     61  H   UNL A   1      44.946  30.999  30.608  1.00  0.00     0.167 HD
ATOM     62  C   UNL A   1      42.596  29.872  31.776  1.00  0.00     0.074 A 
ATOM     63  C   UNL A   1      42.509  30.906  30.752  1.00  0.00     0.031 C 
ATOM     64  C   UNL A   1      43.659  29.244  32.358  1.00  0.00     0.031 A 
BRANCH  51  65
ATOM     65  C   UNL A   1      46.704  31.313  28.326  1.00  0.00    -0.014 A 
ATOM     66  C   UNL A   1      45.488  32.021  28.268  1.00  0.00     0.010 A 
ATOM     67  C   UNL A   1      47.770  31.820  27.548  1.00  0.00     0.010 A 
ATOM     68  C   UNL A   1      45.336  33.138  27.433  1.00  0.00     0.020 A 
ATOM     69  C   UNL A   1      47.642  32.953  26.746  1.00  0.00     0.020 A 
ATOM     70  C   UNL A   1      46.414  33.589  26.670  1.00  0.00     0.054 A 
BRANCH  70  71
ATOM     71  S   UNL A   1      46.186  34.972  25.527  1.00  0.00     0.124 S 
ATOM     72  O   UNL A   1      45.482  35.939  26.364  1.00  0.00    -0.237 OA
ATOM     73  O   UNL A   1      47.562  35.312  25.180  1.00  0.00    -0.237 OA
ATOM     74  O   UNL A   1      45.399  34.391  24.441  1.00  0.00    -0.744 OA
ENDBRANCH  70  71
ENDBRANCH  51  65
BRANCH  52  75
ATOM     75  C   UNL A   1      38.511  29.259  29.487  1.00  0.00    -0.014 A 
ATOM     76  C   UNL A   1      37.469  29.459  30.414  1.00  0.00     0.010 A 
ATOM     77  C   UNL A   1      38.337  29.782  28.189  1.00  0.00     0.010 A 
ATOM     78  C   UNL A   1      36.332  30.215  30.078  1.00  0.00     0.020 A 
ATOM     79  C   UNL A   1      37.202  30.529  27.844  1.00  0.00     0.020 A 
ATOM     80  C   UNL A   1      36.217  30.766  28.800  1.00  0.00     0.054 A 
BRANCH  80  81
ATOM     81  S   UNL A   1      34.842  31.898  28.433  1.00  0.00     0.124 S 
ATOM     82  O   UNL A   1      33.880  31.018  27.777  1.00  0.00    -0.237 OA
ATOM     83  O   UNL A   1      34.461  32.377  29.758  1.00  0.00    -0.237 OA
ATOM     84  O   UNL A   1      35.450  32.906  27.565  1.00  0.00    -0.744 OA
ENDBRANCH  80  81
ENDBRANCH  52  75
BRANCH  64  85
ATOM     85  C   UNL A   1      43.369  28.198  33.407  1.00  0.00    -0.014 A 
ATOM     86  C   UNL A   1      43.456  26.808  33.193  1.00  0.00     0.010 A 
ATOM     87  C   UNL A   1      43.106  28.664  34.705  1.00  0.00     0.010 A 
ATOM     88  C   UNL A   1      43.259  25.911  34.255  1.00  0.00     0.020 A 
ATOM     89  C   UNL A   1      42.931  27.778  35.768  1.00  0.00     0.020 A 
ATOM     90  C   UNL A   1      42.998  26.405  35.537  1.00  0.00     0.054 A 
BRANCH  90  91
ATOM     91  S   UNL A   1      42.787  25.248  36.919  1.00  0.00     0.124 S 
ATOM     92  O   UNL A   1      43.916  25.577  37.785  1.00  0.00    -0.237 OA
ATOM     93  O   UNL A   1      41.469  25.602  37.441  1.00  0.00    -0.237 OA
ATOM     94  O   UNL A   1      42.859  23.932  36.285  1.00  0.00    -0.744 OA
ENDBRANCH  90  91
ENDBRANCH  64  85
ENDBRANCH  38  39
ENDBRANCH  31  33
ENDBRANCH  30  31
ENDBRANCH  29  30
ENDBRANCH  28  29
ENDBRANCH   1  28
TORSDOF 20
ENDMDL
MODEL 3
REMARK VINA RESULT:     -10.5      2.705     10.238
REMARK SMILES CCn1cc(S(=O)(=O)N2CCC(CCc3ccc(C(=O)OCCOC(=O)c4ccc(-c5c6nc(c(-c7ccc(S(=O)(=O)[O-])cc7)c7ccc([nH]7)c(-c7ccc(S(=O)(=O)[O-])cc7)c7nc(c(-c8ccc(S(=O)(=O)[O-])cc8)c8ccc5[nH]8)C=C7)C=C6)cc4)cc3)CC2)cn1
REMARK SMILES IDX 21 1 19 2 20 3 18 4 15 5 16 6 88 7 17 8 87 9 14 10 13 11
REMARK SMILES IDX 12 12 9 13 10 14 90 15 11 16 89 17 6 18 7 19 8 20 5 21 3 22
REMARK SMILES IDX 4 23 92 24 91 25 2 26 1 27 22 28 23 29 24 30 25 31 26 32
REMARK SMILES IDX 27 33 28 34 86 35 29 36 85 37 30 38 31 39 32 40 79 41 33 42
REMARK SMILES IDX 84 43 78 44 80 45 34 46 83 47 77 48 76 49 35 51 65 52 46 53
REMARK SMILES IDX 64 54 47 55 50 56 63 57 81 58 48 59 49 60 62 62 82 63 51 64
REMARK SMILES IDX 36 65 37 66 45 67 38 68 44 69 39 70 40 71 41 72 42 73 43 74
REMARK SMILES IDX 66 75 67 76 75 77 68 78 74 79 69 80 70 81 71 82 72 83 73 84
REMARK SMILES IDX 52 85 53 86 61 87 54 88 60 89 55 90 56 91 57 92 58 93 59 94
REMARK H PARENT 80 50 50 61
REMARK Flexibility Score: inf
ROOT
ATOM      1  O   UNL A   1      34.084  33.360  29.543  1.00  0.00    -0.458 OA
ENDROOT
BRANCH   1   2
ATOM      2  C   UNL A   1      34.323  33.296  28.204  1.00  0.00     0.338 C 
ATOM      3  O   UNL A   1      35.079  34.010  27.565  1.00  0.00    -0.246 OA
BRANCH   2   4
ATOM      4  C   UNL A   1      33.600  32.141  27.621  1.00  0.00     0.060 A 
ATOM      5  C   UNL A   1      32.247  29.922  26.527  1.00  0.00    -0.048 A 
ATOM      6  C   UNL A   1      33.547  29.785  27.034  1.00  0.00     0.004 A 
ATOM      7  C   UNL A   1      31.657  31.194  26.560  1.00  0.00     0.004 A 
ATOM      8  C   UNL A   1      34.226  30.890  27.563  1.00  0.00     0.016 A 
ATOM      9  C   UNL A   1      32.305  32.286  27.133  1.00  0.00     0.016 A 
BRANCH   5  10
ATOM     10  C   UNL A   1      31.538  28.735  25.904  1.00  0.00     0.036 C 
BRANCH  10  11
ATOM     11  C   UNL A   1      31.516  27.425  26.723  1.00  0.00     0.008 C 
BRANCH  11  12
ATOM     12  C   UNL A   1      32.571  26.376  26.334  1.00  0.00    -0.008 C 
ATOM     13  N   UNL A   1      33.866  24.216  24.892  1.00  0.00    -0.198 NA
ATOM     14  C   UNL A   1      33.171  23.954  26.171  1.00  0.00     0.103 C 
ATOM     15  C   UNL A   1      34.315  25.620  24.689  1.00  0.00     0.103 C 
ATOM     16  C   UNL A   1      32.030  24.940  26.370  1.00  0.00     0.020 C 
ATOM     17  C   UNL A   1      33.169  26.607  24.940  1.00  0.00     0.020 C 
BRANCH  13  18
ATOM     18  S   UNL A   1      34.965  23.005  24.409  1.00  0.00     0.246 S 
ATOM     19  O   UNL A   1      35.965  22.837  25.423  1.00  0.00    -0.207 OA
ATOM     20  O   UNL A   1      35.324  23.260  23.019  1.00  0.00    -0.207 OA
BRANCH  18  21
ATOM     21  C   UNL A   1      34.194  21.473  24.326  1.00  0.00     0.120 A 
ATOM     22  N   UNL A   1      33.610  19.369  24.444  1.00  0.00    -0.272 N 
ATOM     23  C   UNL A   1      34.624  20.235  24.750  1.00  0.00     0.130 A 
ATOM     24  N   UNL A   1      32.544  19.974  23.880  1.00  0.00    -0.180 NA
ATOM     25  C   UNL A   1      32.918  21.255  23.787  1.00  0.00     0.156 A 
BRANCH  22  26
ATOM     26  C   UNL A   1      33.574  17.947  24.732  1.00  0.00     0.141 C 
ATOM     27  C   UNL A   1      32.558  17.573  25.798  1.00  0.00     0.029 C 
ENDBRANCH  22  26
ENDBRANCH  18  21
ENDBRANCH  13  18
ENDBRANCH  11  12
ENDBRANCH  10  11
ENDBRANCH   5  10
ENDBRANCH   2   4
ENDBRANCH   1   2
BRANCH   1  28
ATOM     28  C   UNL A   1      33.983  34.681  30.100  1.00  0.00     0.275 C 
BRANCH  28  29
ATOM     29  C   UNL A   1      34.055  34.646  31.618  1.00  0.00     0.275 C 
BRANCH  29  30
ATOM     30  O   UNL A   1      34.010  33.310  32.106  1.00  0.00    -0.458 OA
BRANCH  30  31
ATOM     31  C   UNL A   1      34.973  33.001  33.004  1.00  0.00     0.338 C 
ATOM     32  O   UNL A   1      35.005  33.290  34.188  1.00  0.00    -0.246 OA
BRANCH  31  33
ATOM     33  C   UNL A   1      36.128  32.475  32.279  1.00  0.00     0.060 A 
ATOM     34  C   UNL A   1      36.125  31.126  31.912  1.00  0.00     0.016 A 
ATOM     35  C   UNL A   1      37.294  33.254  32.252  1.00  0.00     0.016 A 
ATOM     36  C   UNL A   1      37.332  30.513  31.648  1.00  0.00     0.010 A 
ATOM     37  C   UNL A   1      38.492  32.637  32.025  1.00  0.00     0.010 A 
ATOM     38  C   UNL A   1      38.504  31.264  31.782  1.00  0.00    -0.014 A 
BRANCH  38  39
ATOM     39  C   UNL A   1      39.785  30.648  31.499  1.00  0.00     0.031 A 
ATOM     40  C   UNL A   1      40.598  30.464  32.727  1.00  0.00     0.074 A 
ATOM     41  C   UNL A   1      40.029  30.102  30.290  1.00  0.00     0.049 A 
ATOM     42  N   UNL A   1      41.769  30.939  32.994  1.00  0.00    -0.248 NA
ATOM     43  C   UNL A   1      39.941  29.818  33.886  1.00  0.00     0.031 C 
ATOM     44  C   UNL A   1      39.090  30.013  29.161  1.00  0.00     0.029 A 
ATOM     45  N   UNL A   1      41.090  29.370  29.858  1.00  0.00    -0.354 N 
ATOM     46  C   UNL A   1      42.088  30.431  34.251  1.00  0.00     0.074 A 
ATOM     47  C   UNL A   1      40.860  29.972  34.837  1.00  0.00     0.031 C 
ATOM     48  C   UNL A   1      39.518  29.065  28.298  1.00  0.00     0.029 A 
ATOM     49  C   UNL A   1      40.813  28.580  28.743  1.00  0.00     0.049 A 
ATOM     50  H   UNL A   1      41.973  29.394  30.293  1.00  0.00     0.167 HD
ATOM     51  C   UNL A   1      43.367  30.089  34.565  1.00  0.00     0.031 A 
ATOM     52  C   UNL A   1      41.558  27.547  28.273  1.00  0.00     0.031 A 
ATOM     53  C   UNL A   1      44.305  30.699  33.661  1.00  0.00     0.049 A 
ATOM     54  C   UNL A   1      42.909  27.681  28.865  1.00  0.00     0.074 A 
ATOM     55  C   UNL A   1      44.700  31.987  33.375  1.00  0.00     0.029 A 
ATOM     56  N   UNL A   1      44.675  29.911  32.599  1.00  0.00    -0.354 N 
ATOM     57  N   UNL A   1      43.713  28.673  28.604  1.00  0.00    -0.248 NA
ATOM     58  C   UNL A   1      43.235  26.915  30.060  1.00  0.00     0.031 C 
ATOM     59  C   UNL A   1      45.029  31.986  31.989  1.00  0.00     0.029 A 
ATOM     60  C   UNL A   1      44.881  30.689  31.492  1.00  0.00     0.049 A 
ATOM     61  H   UNL A   1      44.777  28.933  32.629  1.00  0.00     0.167 HD
ATOM     62  C   UNL A   1      44.360  28.923  29.803  1.00  0.00     0.074 A 
ATOM     63  C   UNL A   1      44.152  27.721  30.603  1.00  0.00     0.031 C 
ATOM     64  C   UNL A   1      44.739  30.191  30.136  1.00  0.00     0.031 A 
BRANCH  51  65
ATOM     65  C   UNL A   1      43.705  28.818  35.319  1.00  0.00    -0.014 A 
ATOM     66  C   UNL A   1      44.508  28.908  36.472  1.00  0.00     0.010 A 
ATOM     67  C   UNL A   1      43.516  27.526  34.777  1.00  0.00     0.010 A 
ATOM     68  C   UNL A   1      45.133  27.775  37.013  1.00  0.00     0.020 A 
ATOM     69  C   UNL A   1      44.099  26.387  35.331  1.00  0.00     0.020 A 
ATOM     70  C   UNL A   1      44.931  26.523  36.431  1.00  0.00     0.054 A 
BRANCH  70  71
ATOM     71  S   UNL A   1      45.811  25.081  37.077  1.00  0.00     0.124 S 
ATOM     72  O   UNL A   1      45.322  24.017  36.206  1.00  0.00    -0.237 OA
ATOM     73  O   UNL A   1      47.207  25.466  36.892  1.00  0.00    -0.237 OA
ATOM     74  O   UNL A   1      45.369  25.008  38.468  1.00  0.00    -0.744 OA
ENDBRANCH  70  71
ENDBRANCH  51  65
BRANCH  52  75
ATOM     75  C   UNL A   1      41.110  26.302  27.597  1.00  0.00    -0.014 A 
ATOM     76  C   UNL A   1      41.928  25.661  26.644  1.00  0.00     0.010 A 
ATOM     77  C   UNL A   1      40.006  25.582  28.097  1.00  0.00     0.010 A 
ATOM     78  C   UNL A   1      41.692  24.328  26.263  1.00  0.00     0.020 A 
ATOM     79  C   UNL A   1      39.760  24.256  27.715  1.00  0.00     0.020 A 
ATOM     80  C   UNL A   1      40.622  23.625  26.820  1.00  0.00     0.054 A 
BRANCH  80  81
ATOM     81  S   UNL A   1      40.436  21.850  26.472  1.00  0.00     0.124 S 
ATOM     82  O   UNL A   1      40.518  21.260  27.805  1.00  0.00    -0.237 OA
ATOM     83  O   UNL A   1      39.127  21.786  25.831  1.00  0.00    -0.237 OA
ATOM     84  O   UNL A   1      41.567  21.552  25.593  1.00  0.00    -0.744 OA
ENDBRANCH  80  81
ENDBRANCH  52  75
BRANCH  64  85
ATOM     85  C   UNL A   1      44.854  31.205  29.024  1.00  0.00    -0.014 A 
ATOM     86  C   UNL A   1      43.798  32.025  28.580  1.00  0.00     0.010 A 
ATOM     87  C   UNL A   1      46.135  31.407  28.486  1.00  0.00     0.010 A 
ATOM     88  C   UNL A   1      44.023  33.006  27.601  1.00  0.00     0.020 A 
ATOM     89  C   UNL A   1      46.369  32.394  27.529  1.00  0.00     0.020 A 
ATOM     90  C   UNL A   1      45.310  33.183  27.084  1.00  0.00     0.054 A 
BRANCH  90  91
ATOM     91  S   UNL A   1      45.611  34.481  25.851  1.00  0.00     0.124 S 
ATOM     92  O   UNL A   1      46.966  34.180  25.397  1.00  0.00    -0.237 OA
ATOM     93  O   UNL A   1      44.553  34.249  24.870  1.00  0.00    -0.237 OA
ATOM     94  O   UNL A   1      45.476  35.722  26.612  1.00  0.00    -0.744 OA
ENDBRANCH  90  91
ENDBRANCH  64  85
ENDBRANCH  38  39
ENDBRANCH  31  33
ENDBRANCH  30  31
ENDBRANCH  29  30
ENDBRANCH  28  29
ENDBRANCH   1  28
TORSDOF 20
ENDMDL
