MODEL 1
REMARK VINA RESULT:     -11.3      0.000      0.000
REMARK SMILES Cc1cc(Cl)cc2c1O[C@H](C(F)(F)F)C(C(=O)OCCOC(=O)c1ccc(-c3c4nc(c(-c5ccc(S(=O)(=O)[O-])cc5)c5ccc([nH]5)c(-c5ccc(S(=O)(=O)[O-])cc5)c5nc(c(-c6ccc(S(=O)(=O)[O-])cc6)c6ccc3[nH]6)C=C5)C=C4)cc1)=C2
REMARK SMILES IDX 20 1 19 2 18 3 16 4 17 5 15 6 1 7 2 8 3 9 8 10 4 11 7 12
REMARK SMILES IDX 9 13 5 14 6 15 84 16 10 17 11 18 12 19 13 20 14 21 21 22
REMARK SMILES IDX 22 23 23 24 24 25 25 26 83 27 26 28 82 29 27 30 28 31 29 32
REMARK SMILES IDX 76 33 30 34 81 35 75 36 77 37 31 38 80 39 74 40 73 41 32 43
REMARK SMILES IDX 62 44 43 45 61 46 44 47 47 48 60 49 78 50 45 51 46 52 59 54
REMARK SMILES IDX 79 55 48 56 33 57 34 58 42 59 35 60 41 61 36 62 37 63 38 64
REMARK SMILES IDX 39 65 40 66 63 67 64 68 72 69 65 70 71 71 66 72 67 73 68 74
REMARK SMILES IDX 69 75 70 76 49 77 50 78 58 79 51 80 57 81 52 82 53 83 54 84
REMARK SMILES IDX 55 85 56 86
REMARK H PARENT 77 42 47 53
REMARK Flexibility Score: inf
ROOT
ATOM      1  C   UNL A   1      33.512  28.512  25.910  1.00  0.00     0.275 C 
ENDROOT
BRANCH   1   2
ATOM      2  C   UNL A   1      33.746  27.071  25.453  1.00  0.00     0.275 C 
BRANCH   2   3
ATOM      3  O   UNL A   1      33.508  26.918  24.036  1.00  0.00    -0.459 OA
BRANCH   3   4
ATOM      4  C   UNL A   1      32.610  25.965  23.700  1.00  0.00     0.338 C 
ATOM      5  O   UNL A   1      32.822  24.764  23.619  1.00  0.00    -0.246 OA
BRANCH   4   6
ATOM      6  C   UNL A   1      31.288  26.559  23.429  1.00  0.00     0.087 C 
ATOM      7  C   UNL A   1      26.379  27.992  23.778  1.00  0.00     0.048 C 
ATOM      8  C   UNL A   1      27.622  28.558  23.157  1.00  0.00    -0.007 A 
ATOM      9  C   UNL A   1      27.591  29.833  22.567  1.00  0.00     0.027 A 
ATOM     10  C   UNL A   1      28.832  27.848  23.193  1.00  0.00     0.131 A 
ATOM     11  C   UNL A   1      28.744  30.381  22.008  1.00  0.00     0.042 A 
ATOM     12  C   UNL A   1      29.984  28.414  22.647  1.00  0.00     0.019 A 
ATOM     13  O   UNL A   1      28.815  26.603  23.764  1.00  0.00    -0.475 OA
ATOM     14  Cl  UNL A   1      28.692  31.945  21.296  1.00  0.00    -0.084 Cl
ATOM     15  C   UNL A   1      29.941  29.676  22.041  1.00  0.00     0.032 A 
ATOM     16  C   UNL A   1      31.248  27.716  22.761  1.00  0.00     0.027 C 
ATOM     17  C   UNL A   1      30.075  25.930  24.045  1.00  0.00     0.316 C 
BRANCH  17  18
ATOM     18  C   UNL A   1      30.226  25.786  25.568  1.00  0.00     0.430 C 
ATOM     19  F   UNL A   1      29.040  25.480  26.150  1.00  0.00    -0.167 F 
ATOM     20  F   UNL A   1      31.079  24.785  25.893  1.00  0.00    -0.167 F 
ATOM     21  F   UNL A   1      30.683  26.917  26.149  1.00  0.00    -0.167 F 
ENDBRANCH  17  18
ENDBRANCH   4   6
ENDBRANCH   3   4
ENDBRANCH   2   3
ENDBRANCH   1   2
BRANCH   1  22
ATOM     22  O   UNL A   1      33.821  28.662  27.307  1.00  0.00    -0.458 OA
BRANCH  22  23
ATOM     23  C   UNL A   1      34.139  29.920  27.684  1.00  0.00     0.338 C 
ATOM     24  O   UNL A   1      33.396  30.887  27.728  1.00  0.00    -0.246 OA
BRANCH  23  25
ATOM     25  C   UNL A   1      35.530  29.982  28.152  1.00  0.00     0.060 A 
ATOM     26  C   UNL A   1      36.510  30.339  27.236  1.00  0.00     0.016 A 
ATOM     27  C   UNL A   1      35.890  29.467  29.393  1.00  0.00     0.016 A 
ATOM     28  C   UNL A   1      37.837  29.999  27.472  1.00  0.00     0.010 A 
ATOM     29  C   UNL A   1      37.246  29.292  29.696  1.00  0.00     0.010 A 
ATOM     30  C   UNL A   1      38.237  29.497  28.718  1.00  0.00    -0.014 A 
BRANCH  30  31
ATOM     31  C   UNL A   1      39.673  29.180  28.977  1.00  0.00     0.031 A 
ATOM     32  C   UNL A   1      40.584  30.208  29.609  1.00  0.00     0.074 A 
ATOM     33  C   UNL A   1      40.168  27.961  28.669  1.00  0.00     0.049 A 
ATOM     34  N   UNL A   1      41.886  30.190  29.736  1.00  0.00    -0.248 NA
ATOM     35  C   UNL A   1      39.951  31.421  30.157  1.00  0.00     0.031 C 
ATOM     36  C   UNL A   1      39.396  26.843  28.115  1.00  0.00     0.029 A 
ATOM     37  N   UNL A   1      41.435  27.446  28.792  1.00  0.00    -0.354 N 
ATOM     38  C   UNL A   1      42.233  31.404  30.322  1.00  0.00     0.074 A 
ATOM     39  C   UNL A   1      41.005  32.144  30.512  1.00  0.00     0.031 C 
ATOM     40  C   UNL A   1      40.183  25.764  28.015  1.00  0.00     0.029 A 
ATOM     41  C   UNL A   1      41.544  26.141  28.370  1.00  0.00     0.049 A 
ATOM     42  H   UNL A   1      42.194  27.961  29.150  1.00  0.00     0.167 HD
ATOM     43  C   UNL A   1      43.461  31.860  30.670  1.00  0.00     0.031 A 
ATOM     44  C   UNL A   1      42.619  25.342  28.223  1.00  0.00     0.031 A 
ATOM     45  C   UNL A   1      44.674  31.097  30.512  1.00  0.00     0.049 A 
ATOM     46  C   UNL A   1      43.977  25.896  28.537  1.00  0.00     0.074 A 
ATOM     47  C   UNL A   1      45.969  31.468  30.829  1.00  0.00     0.029 A 
ATOM     48  N   UNL A   1      44.739  29.805  30.013  1.00  0.00    -0.354 N 
ATOM     49  N   UNL A   1      44.292  27.075  29.016  1.00  0.00    -0.248 NA
ATOM     50  C   UNL A   1      45.126  25.022  28.270  1.00  0.00     0.031 C 
ATOM     51  C   UNL A   1      46.824  30.422  30.470  1.00  0.00     0.029 A 
ATOM     52  C   UNL A   1      46.056  29.373  29.992  1.00  0.00     0.049 A 
ATOM     53  H   UNL A   1      43.966  29.274  29.718  1.00  0.00     0.167 HD
ATOM     54  C   UNL A   1      45.677  27.080  29.122  1.00  0.00     0.074 A 
ATOM     55  C   UNL A   1      46.136  25.778  28.679  1.00  0.00     0.031 C 
ATOM     56  C   UNL A   1      46.495  28.075  29.544  1.00  0.00     0.031 A 
BRANCH  43  57
ATOM     57  C   UNL A   1      43.570  33.259  31.224  1.00  0.00    -0.014 A 
ATOM     58  C   UNL A   1      43.513  33.510  32.606  1.00  0.00     0.010 A 
ATOM     59  C   UNL A   1      43.799  34.336  30.346  1.00  0.00     0.010 A 
ATOM     60  C   UNL A   1      43.650  34.813  33.096  1.00  0.00     0.020 A 
ATOM     61  C   UNL A   1      43.967  35.635  30.833  1.00  0.00     0.020 A 
ATOM     62  C   UNL A   1      43.878  35.867  32.207  1.00  0.00     0.054 A 
BRANCH  62  63
ATOM     63  S   UNL A   1      44.084  37.541  32.876  1.00  0.00     0.124 S 
ATOM     64  O   UNL A   1      45.462  37.505  33.364  1.00  0.00    -0.237 OA
ATOM     65  O   UNL A   1      43.857  38.383  31.705  1.00  0.00    -0.237 OA
ATOM     66  O   UNL A   1      43.061  37.632  33.915  1.00  0.00    -0.744 OA
ENDBRANCH  62  63
ENDBRANCH  43  57
BRANCH  44  67
ATOM     67  C   UNL A   1      42.448  23.955  27.704  1.00  0.00    -0.014 A 
ATOM     68  C   UNL A   1      42.463  23.704  26.322  1.00  0.00     0.010 A 
ATOM     69  C   UNL A   1      42.310  22.872  28.593  1.00  0.00     0.010 A 
ATOM     70  C   UNL A   1      42.341  22.397  25.840  1.00  0.00     0.020 A 
ATOM     71  C   UNL A   1      42.225  21.561  28.117  1.00  0.00     0.020 A 
ATOM     72  C   UNL A   1      42.233  21.333  26.740  1.00  0.00     0.054 A 
BRANCH  72  73
ATOM     73  S   UNL A   1      42.143  19.642  26.088  1.00  0.00     0.124 S 
ATOM     74  O   UNL A   1      42.544  18.849  27.246  1.00  0.00    -0.237 OA
ATOM     75  O   UNL A   1      40.740  19.531  25.699  1.00  0.00    -0.237 OA
ATOM     76  O   UNL A   1      43.092  19.652  24.977  1.00  0.00    -0.744 OA
ENDBRANCH  72  73
ENDBRANCH  44  67
BRANCH  56  77
ATOM     77  C   UNL A   1      47.971  27.789  29.572  1.00  0.00    -0.014 A 
ATOM     78  C   UNL A   1      48.620  27.433  30.768  1.00  0.00     0.010 A 
ATOM     79  C   UNL A   1      48.707  27.818  28.373  1.00  0.00     0.010 A 
ATOM     80  C   UNL A   1      49.984  27.133  30.767  1.00  0.00     0.020 A 
ATOM     81  C   UNL A   1      50.065  27.489  28.364  1.00  0.00     0.020 A 
ATOM     82  C   UNL A   1      50.696  27.159  29.564  1.00  0.00     0.054 A 
BRANCH  82  83
ATOM     83  S   UNL A   1      52.454  26.715  29.587  1.00  0.00     0.124 S 
ATOM     84  O   UNL A   1      53.090  28.006  29.838  1.00  0.00    -0.237 OA
ATOM     85  O   UNL A   1      52.525  25.757  30.687  1.00  0.00    -0.237 OA
ATOM     86  O   UNL A   1      52.690  26.153  28.259  1.00  0.00    -0.744 OA
ENDBRANCH  82  83
ENDBRANCH  56  77
ENDBRANCH  30  31
ENDBRANCH  23  25
ENDBRANCH  22  23
ENDBRANCH   1  22
TORSDOF 15
ENDMDL
MODEL 2
REMARK VINA RESULT:     -11.2      2.444      3.780
REMARK SMILES Cc1cc(Cl)cc2c1O[C@H](C(F)(F)F)C(C(=O)OCCOC(=O)c1ccc(-c3c4nc(c(-c5ccc(S(=O)(=O)[O-])cc5)c5ccc([nH]5)c(-c5ccc(S(=O)(=O)[O-])cc5)c5nc(c(-c6ccc(S(=O)(=O)[O-])cc6)c6ccc3[nH]6)C=C5)C=C4)cc1)=C2
REMARK SMILES IDX 20 1 19 2 18 3 16 4 17 5 15 6 1 7 2 8 3 9 8 10 4 11 7 12
REMARK SMILES IDX 9 13 5 14 6 15 84 16 10 17 11 18 12 19 13 20 14 21 21 22
REMARK SMILES IDX 22 23 23 24 24 25 25 26 83 27 26 28 82 29 27 30 28 31 29 32
REMARK SMILES IDX 76 33 30 34 81 35 75 36 77 37 31 38 80 39 74 40 73 41 32 43
REMARK SMILES IDX 62 44 43 45 61 46 44 47 47 48 60 49 78 50 45 51 46 52 59 54
REMARK SMILES IDX 79 55 48 56 33 57 34 58 42 59 35 60 41 61 36 62 37 63 38 64
REMARK SMILES IDX 39 65 40 66 63 67 64 68 72 69 65 70 71 71 66 72 67 73 68 74
REMARK SMILES IDX 69 75 70 76 49 77 50 78 58 79 51 80 57 81 52 82 53 83 54 84
REMARK SMILES IDX 55 85 56 86
REMARK H PARENT 77 42 47 53
REMARK Flexibility Score: inf
ROOT
ATOM      1  C   UNL A   1      32.598  28.309  27.114  1.00  0.00     0.275 C 
ENDROOT
BRANCH   1   2
ATOM      2  C   UNL A   1      32.234  28.364  25.629  1.00  0.00     0.275 C 
BRANCH   2   3
ATOM      3  O   UNL A   1      32.051  27.041  25.078  1.00  0.00    -0.459 OA
BRANCH   3   4
ATOM      4  C   UNL A   1      33.031  26.619  24.248  1.00  0.00     0.338 C 
ATOM      5  O   UNL A   1      33.474  27.224  23.282  1.00  0.00    -0.246 OA
BRANCH   4   6
ATOM      6  C   UNL A   1      33.529  25.291  24.650  1.00  0.00     0.087 C 
ATOM      7  C   UNL A   1      34.339  20.242  24.988  1.00  0.00     0.048 C 
ATOM      8  C   UNL A   1      35.150  21.479  25.240  1.00  0.00    -0.007 A 
ATOM      9  C   UNL A   1      36.511  21.368  25.573  1.00  0.00     0.027 A 
ATOM     10  C   UNL A   1      34.577  22.753  25.107  1.00  0.00     0.131 A 
ATOM     11  C   UNL A   1      37.280  22.510  25.785  1.00  0.00     0.042 A 
ATOM     12  C   UNL A   1      35.362  23.890  25.304  1.00  0.00     0.019 A 
ATOM     13  O   UNL A   1      33.244  22.816  24.795  1.00  0.00    -0.475 OA
ATOM     14  Cl  UNL A   1      38.946  22.359  26.184  1.00  0.00    -0.084 Cl
ATOM     15  C   UNL A   1      36.712  23.771  25.656  1.00  0.00     0.032 A 
ATOM     16  C   UNL A   1      34.790  25.201  25.082  1.00  0.00     0.027 C 
ATOM     17  C   UNL A   1      32.661  24.092  24.410  1.00  0.00     0.316 C 
BRANCH  17  18
ATOM     18  C   UNL A   1      32.214  24.005  22.942  1.00  0.00     0.430 C 
ATOM     19  F   UNL A   1      31.171  24.837  22.699  1.00  0.00    -0.167 F 
ATOM     20  F   UNL A   1      33.203  24.378  22.094  1.00  0.00    -0.167 F 
ATOM     21  F   UNL A   1      31.827  22.758  22.595  1.00  0.00    -0.167 F 
ENDBRANCH  17  18
ENDBRANCH   4   6
ENDBRANCH   3   4
ENDBRANCH   2   3
ENDBRANCH   1   2
BRANCH   1  22
ATOM     22  O   UNL A   1      34.001  28.565  27.306  1.00  0.00    -0.458 OA
BRANCH  22  23
ATOM     23  C   UNL A   1      34.291  29.797  27.781  1.00  0.00     0.338 C 
ATOM     24  O   UNL A   1      33.522  30.732  27.925  1.00  0.00    -0.246 OA
BRANCH  23  25
ATOM     25  C   UNL A   1      35.692  29.863  28.220  1.00  0.00     0.060 A 
ATOM     26  C   UNL A   1      36.650  30.234  27.287  1.00  0.00     0.016 A 
ATOM     27  C   UNL A   1      36.081  29.337  29.448  1.00  0.00     0.016 A 
ATOM     28  C   UNL A   1      37.983  29.900  27.492  1.00  0.00     0.010 A 
ATOM     29  C   UNL A   1      37.445  29.168  29.721  1.00  0.00     0.010 A 
ATOM     30  C   UNL A   1      38.413  29.389  28.724  1.00  0.00    -0.014 A 
BRANCH  30  31
ATOM     31  C   UNL A   1      39.856  29.078  28.949  1.00  0.00     0.031 A 
ATOM     32  C   UNL A   1      40.778  30.112  29.555  1.00  0.00     0.074 A 
ATOM     33  C   UNL A   1      40.348  27.859  28.635  1.00  0.00     0.049 A 
ATOM     34  N   UNL A   1      42.083  30.099  29.651  1.00  0.00    -0.248 NA
ATOM     35  C   UNL A   1      40.155  31.324  30.113  1.00  0.00     0.031 C 
ATOM     36  C   UNL A   1      39.567  26.736  28.104  1.00  0.00     0.029 A 
ATOM     37  N   UNL A   1      41.620  27.350  28.729  1.00  0.00    -0.354 N 
ATOM     38  C   UNL A   1      42.439  31.317  30.223  1.00  0.00     0.074 A 
ATOM     39  C   UNL A   1      41.213  32.053  30.440  1.00  0.00     0.031 C 
ATOM     40  C   UNL A   1      40.356  25.660  27.989  1.00  0.00     0.029 A 
ATOM     41  C   UNL A   1      41.723  26.043  28.309  1.00  0.00     0.049 A 
ATOM     42  H   UNL A   1      42.385  27.869  29.066  1.00  0.00     0.167 HD
ATOM     43  C   UNL A   1      43.674  31.778  30.540  1.00  0.00     0.031 A 
ATOM     44  C   UNL A   1      42.797  25.248  28.139  1.00  0.00     0.031 A 
ATOM     45  C   UNL A   1      44.885  31.020  30.355  1.00  0.00     0.049 A 
ATOM     46  C   UNL A   1      44.160  25.808  28.418  1.00  0.00     0.074 A 
ATOM     47  C   UNL A   1      46.187  31.397  30.640  1.00  0.00     0.029 A 
ATOM     48  N   UNL A   1      44.944  29.726  29.861  1.00  0.00    -0.354 N 
ATOM     49  N   UNL A   1      44.482  26.990  28.885  1.00  0.00    -0.248 NA
ATOM     50  C   UNL A   1      45.306  24.937  28.128  1.00  0.00     0.031 C 
ATOM     51  C   UNL A   1      47.036  30.353  30.264  1.00  0.00     0.029 A 
ATOM     52  C   UNL A   1      46.261  29.298  29.809  1.00  0.00     0.049 A 
ATOM     53  H   UNL A   1      44.165  29.190  29.586  1.00  0.00     0.167 HD
ATOM     54  C   UNL A   1      45.870  27.001  28.958  1.00  0.00     0.074 A 
ATOM     55  C   UNL A   1      46.322  25.699  28.509  1.00  0.00     0.031 C 
ATOM     56  C   UNL A   1      46.694  28.001  29.356  1.00  0.00     0.031 A 
BRANCH  43  57
ATOM     57  C   UNL A   1      43.791  33.180  31.085  1.00  0.00    -0.014 A 
ATOM     58  C   UNL A   1      43.680  34.307  30.251  1.00  0.00     0.010 A 
ATOM     59  C   UNL A   1      43.951  33.374  32.471  1.00  0.00     0.010 A 
ATOM     60  C   UNL A   1      43.759  35.596  30.787  1.00  0.00     0.020 A 
ATOM     61  C   UNL A   1      44.000  34.660  33.015  1.00  0.00     0.020 A 
ATOM     62  C   UNL A   1      43.916  35.765  32.166  1.00  0.00     0.054 A 
BRANCH  62  63
ATOM     63  S   UNL A   1      43.982  37.450  32.835  1.00  0.00     0.124 S 
ATOM     64  O   UNL A   1      43.801  38.261  31.632  1.00  0.00    -0.237 OA
ATOM     65  O   UNL A   1      42.865  37.465  33.775  1.00  0.00    -0.237 OA
ATOM     66  O   UNL A   1      45.308  37.534  33.444  1.00  0.00    -0.744 OA
ENDBRANCH  62  63
ENDBRANCH  43  57
BRANCH  44  67
ATOM     67  C   UNL A   1      42.619  23.858  27.631  1.00  0.00    -0.014 A 
ATOM     68  C   UNL A   1      42.634  23.597  26.250  1.00  0.00     0.010 A 
ATOM     69  C   UNL A   1      42.474  22.782  28.528  1.00  0.00     0.010 A 
ATOM     70  C   UNL A   1      42.506  22.287  25.777  1.00  0.00     0.020 A 
ATOM     71  C   UNL A   1      42.382  21.469  28.061  1.00  0.00     0.020 A 
ATOM     72  C   UNL A   1      42.391  21.231  26.685  1.00  0.00     0.054 A 
BRANCH  72  73
ATOM     73  S   UNL A   1      42.292  19.536  26.046  1.00  0.00     0.124 S 
ATOM     74  O   UNL A   1      42.677  18.748  27.213  1.00  0.00    -0.237 OA
ATOM     75  O   UNL A   1      40.891  19.433  25.645  1.00  0.00    -0.237 OA
ATOM     76  O   UNL A   1      43.250  19.529  24.942  1.00  0.00    -0.744 OA
ENDBRANCH  72  73
ENDBRANCH  44  67
BRANCH  56  77
ATOM     77  C   UNL A   1      48.172  27.720  29.349  1.00  0.00    -0.014 A 
ATOM     78  C   UNL A   1      48.808  27.151  30.466  1.00  0.00     0.010 A 
ATOM     79  C   UNL A   1      48.921  27.973  28.185  1.00  0.00     0.010 A 
ATOM     80  C   UNL A   1      50.174  26.862  30.428  1.00  0.00     0.020 A 
ATOM     81  C   UNL A   1      50.281  27.657  28.133  1.00  0.00     0.020 A 
ATOM     82  C   UNL A   1      50.900  27.113  29.259  1.00  0.00     0.054 A 
BRANCH  82  83
ATOM     83  S   UNL A   1      52.661  26.680  29.222  1.00  0.00     0.124 S 
ATOM     84  O   UNL A   1      53.294  27.990  29.107  1.00  0.00    -0.237 OA
ATOM     85  O   UNL A   1      52.848  26.003  30.503  1.00  0.00    -0.237 OA
ATOM     86  O   UNL A   1      52.785  25.823  28.045  1.00  0.00    -0.744 OA
ENDBRANCH  82  83
ENDBRANCH  56  77
ENDBRANCH  30  31
ENDBRANCH  23  25
ENDBRANCH  22  23
ENDBRANCH   1  22
TORSDOF 15
ENDMDL
MODEL 3
REMARK VINA RESULT:     -11.2      5.500     10.984
REMARK SMILES Cc1cc(Cl)cc2c1O[C@H](C(F)(F)F)C(C(=O)OCCOC(=O)c1ccc(-c3c4nc(c(-c5ccc(S(=O)(=O)[O-])cc5)c5ccc([nH]5)c(-c5ccc(S(=O)(=O)[O-])cc5)c5nc(c(-c6ccc(S(=O)(=O)[O-])cc6)c6ccc3[nH]6)C=C5)C=C4)cc1)=C2
REMARK SMILES IDX 20 1 19 2 18 3 16 4 17 5 15 6 1 7 2 8 3 9 8 10 4 11 7 12
REMARK SMILES IDX 9 13 5 14 6 15 84 16 10 17 11 18 12 19 13 20 14 21 21 22
REMARK SMILES IDX 22 23 23 24 24 25 25 26 83 27 26 28 82 29 27 30 28 31 29 32
REMARK SMILES IDX 76 33 30 34 81 35 75 36 77 37 31 38 80 39 74 40 73 41 32 43
REMARK SMILES IDX 62 44 43 45 61 46 44 47 47 48 60 49 78 50 45 51 46 52 59 54
REMARK SMILES IDX 79 55 48 56 33 57 34 58 42 59 35 60 41 61 36 62 37 63 38 64
REMARK SMILES IDX 39 65 40 66 63 67 64 68 72 69 65 70 71 71 66 72 67 73 68 74
REMARK SMILES IDX 69 75 70 76 49 77 50 78 58 79 51 80 57 81 52 82 53 83 54 84
REMARK SMILES IDX 55 85 56 86
REMARK H PARENT 77 42 47 53
REMARK Flexibility Score: inf
ROOT
ATOM      1  C   UNL A   1      33.305  33.042  28.051  1.00  0.00     0.275 C 
ENDROOT
BRANCH   1   2
ATOM      2  C   UNL A   1      33.880  34.082  29.014  1.00  0.00     0.275 C 
BRANCH   2   3
ATOM      3  O   UNL A   1      34.552  33.457  30.131  1.00  0.00    -0.459 OA
BRANCH   3   4
ATOM      4  C   UNL A   1      34.558  34.173  31.278  1.00  0.00     0.338 C 
ATOM      5  O   UNL A   1      33.577  34.567  31.892  1.00  0.00    -0.246 OA
BRANCH   4   6
ATOM      6  C   UNL A   1      35.936  34.441  31.726  1.00  0.00     0.087 C 
ATOM      7  C   UNL A   1      40.214  34.780  34.529  1.00  0.00     0.048 C 
ATOM      8  C   UNL A   1      39.894  34.612  33.072  1.00  0.00    -0.007 A 
ATOM      9  C   UNL A   1      40.932  34.397  32.149  1.00  0.00     0.027 A 
ATOM     10  C   UNL A   1      38.565  34.625  32.622  1.00  0.00     0.131 A 
ATOM     11  C   UNL A   1      40.646  34.216  30.797  1.00  0.00     0.042 A 
ATOM     12  C   UNL A   1      38.291  34.424  31.269  1.00  0.00     0.019 A 
ATOM     13  O   UNL A   1      37.586  34.853  33.553  1.00  0.00    -0.475 OA
ATOM     14  Cl  UNL A   1      41.925  33.946  29.680  1.00  0.00    -0.084 Cl
ATOM     15  C   UNL A   1      39.331  34.232  30.351  1.00  0.00     0.032 A 
ATOM     16  C   UNL A   1      36.916  34.354  30.821  1.00  0.00     0.027 C 
ATOM     17  C   UNL A   1      36.193  34.638  33.189  1.00  0.00     0.316 C 
BRANCH  17  18
ATOM     18  C   UNL A   1      35.643  33.469  34.021  1.00  0.00     0.430 C 
ATOM     19  F   UNL A   1      35.652  32.315  33.308  1.00  0.00    -0.167 F 
ATOM     20  F   UNL A   1      36.396  33.240  35.124  1.00  0.00    -0.167 F 
ATOM     21  F   UNL A   1      34.373  33.681  34.431  1.00  0.00    -0.167 F 
ENDBRANCH  17  18
ENDBRANCH   4   6
ENDBRANCH   3   4
ENDBRANCH   2   3
ENDBRANCH   1   2
BRANCH   1  22
ATOM     22  O   UNL A   1      34.351  32.435  27.272  1.00  0.00    -0.458 OA
BRANCH  22  23
ATOM     23  C   UNL A   1      34.430  31.090  27.383  1.00  0.00     0.338 C 
ATOM     24  O   UNL A   1      33.574  30.273  27.087  1.00  0.00    -0.246 OA
BRANCH  23  25
ATOM     25  C   UNL A   1      35.769  30.687  27.836  1.00  0.00     0.060 A 
ATOM     26  C   UNL A   1      35.963  29.361  28.197  1.00  0.00     0.016 A 
ATOM     27  C   UNL A   1      36.739  31.640  28.130  1.00  0.00     0.016 A 
ATOM     28  C   UNL A   1      37.025  29.016  29.024  1.00  0.00     0.010 A 
ATOM     29  C   UNL A   1      37.899  31.249  28.812  1.00  0.00     0.010 A 
ATOM     30  C   UNL A   1      38.031  29.944  29.323  1.00  0.00    -0.014 A 
BRANCH  30  31
ATOM     31  C   UNL A   1      39.193  29.549  30.174  1.00  0.00     0.031 A 
ATOM     32  C   UNL A   1      40.263  28.629  29.632  1.00  0.00     0.074 A 
ATOM     33  C   UNL A   1      39.311  30.029  31.432  1.00  0.00     0.049 A 
ATOM     34  N   UNL A   1      41.235  28.027  30.269  1.00  0.00    -0.248 NA
ATOM     35  C   UNL A   1      40.230  28.336  28.188  1.00  0.00     0.031 C 
ATOM     36  C   UNL A   1      38.394  30.978  32.072  1.00  0.00     0.029 A 
ATOM     37  N   UNL A   1      40.261  29.801  32.397  1.00  0.00    -0.354 N 
ATOM     38  C   UNL A   1      41.889  27.243  29.323  1.00  0.00     0.074 A 
ATOM     39  C   UNL A   1      41.195  27.434  28.068  1.00  0.00     0.031 C 
ATOM     40  C   UNL A   1      38.861  31.301  33.284  1.00  0.00     0.029 A 
ATOM     41  C   UNL A   1      40.035  30.489  33.567  1.00  0.00     0.049 A 
ATOM     42  H   UNL A   1      41.031  29.202  32.265  1.00  0.00     0.167 HD
ATOM     43  C   UNL A   1      42.968  26.440  29.484  1.00  0.00     0.031 A 
ATOM     44  C   UNL A   1      40.658  30.440  34.760  1.00  0.00     0.031 A 
ATOM     45  C   UNL A   1      43.676  26.288  30.730  1.00  0.00     0.049 A 
ATOM     46  C   UNL A   1      41.800  29.483  34.939  1.00  0.00     0.074 A 
ATOM     47  C   UNL A   1      44.779  25.497  31.001  1.00  0.00     0.029 A 
ATOM     48  N   UNL A   1      43.365  26.955  31.906  1.00  0.00    -0.354 N 
ATOM     49  N   UNL A   1      42.354  28.692  34.052  1.00  0.00    -0.248 NA
ATOM     50  C   UNL A   1      42.385  29.395  36.282  1.00  0.00     0.031 C 
ATOM     51  C   UNL A   1      45.100  25.642  32.354  1.00  0.00     0.029 A 
ATOM     52  C   UNL A   1      44.240  26.575  32.911  1.00  0.00     0.049 A 
ATOM     53  H   UNL A   1      42.631  27.602  32.011  1.00  0.00     0.167 HD
ATOM     54  C   UNL A   1      43.365  28.021  34.728  1.00  0.00     0.074 A 
ATOM     55  C   UNL A   1      43.360  28.517  36.090  1.00  0.00     0.031 C 
ATOM     56  C   UNL A   1      44.218  27.075  34.262  1.00  0.00     0.031 A 
BRANCH  43  57
ATOM     57  C   UNL A   1      43.437  25.631  28.299  1.00  0.00    -0.014 A 
ATOM     58  C   UNL A   1      44.474  26.083  27.463  1.00  0.00     0.010 A 
ATOM     59  C   UNL A   1      42.871  24.365  28.057  1.00  0.00     0.010 A 
ATOM     60  C   UNL A   1      44.912  25.299  26.391  1.00  0.00     0.020 A 
ATOM     61  C   UNL A   1      43.327  23.564  27.006  1.00  0.00     0.020 A 
ATOM     62  C   UNL A   1      44.338  24.044  26.170  1.00  0.00     0.054 A 
BRANCH  62  63
ATOM     63  S   UNL A   1      44.950  23.037  24.791  1.00  0.00     0.124 S 
ATOM     64  O   UNL A   1      43.723  22.763  24.047  1.00  0.00    -0.237 OA
ATOM     65  O   UNL A   1      45.895  23.936  24.134  1.00  0.00    -0.237 OA
ATOM     66  O   UNL A   1      45.551  21.876  25.445  1.00  0.00    -0.744 OA
ENDBRANCH  62  63
ENDBRANCH  43  57
BRANCH  44  67
ATOM     67  C   UNL A   1      40.174  31.288  35.887  1.00  0.00    -0.014 A 
ATOM     68  C   UNL A   1      38.833  31.226  36.301  1.00  0.00     0.010 A 
ATOM     69  C   UNL A   1      41.064  32.133  36.578  1.00  0.00     0.010 A 
ATOM     70  C   UNL A   1      38.391  31.994  37.382  1.00  0.00     0.020 A 
ATOM     71  C   UNL A   1      40.634  32.874  37.682  1.00  0.00     0.020 A 
ATOM     72  C   UNL A   1      39.296  32.805  38.072  1.00  0.00     0.054 A 
BRANCH  72  73
ATOM     73  S   UNL A   1      38.710  33.740  39.512  1.00  0.00     0.124 S 
ATOM     74  O   UNL A   1      38.765  35.115  39.025  1.00  0.00    -0.237 OA
ATOM     75  O   UNL A   1      37.371  33.193  39.717  1.00  0.00    -0.237 OA
ATOM     76  O   UNL A   1      39.678  33.407  40.555  1.00  0.00    -0.744 OA
ENDBRANCH  72  73
ENDBRANCH  44  67
BRANCH  56  77
ATOM     77  C   UNL A   1      45.236  26.530  35.226  1.00  0.00    -0.014 A 
ATOM     78  C   UNL A   1      46.473  27.171  35.416  1.00  0.00     0.010 A 
ATOM     79  C   UNL A   1      44.924  25.395  35.997  1.00  0.00     0.010 A 
ATOM     80  C   UNL A   1      47.390  26.671  36.343  1.00  0.00     0.020 A 
ATOM     81  C   UNL A   1      45.826  24.911  36.948  1.00  0.00     0.020 A 
ATOM     82  C   UNL A   1      47.058  25.548  37.106  1.00  0.00     0.054 A 
BRANCH  82  83
ATOM     83  S   UNL A   1      48.248  24.953  38.338  1.00  0.00     0.124 S 
ATOM     84  O   UNL A   1      47.595  25.317  39.593  1.00  0.00    -0.237 OA
ATOM     85  O   UNL A   1      48.310  23.522  38.056  1.00  0.00    -0.237 OA
ATOM     86  O   UNL A   1      49.468  25.698  38.033  1.00  0.00    -0.744 OA
ENDBRANCH  82  83
ENDBRANCH  56  77
ENDBRANCH  30  31
ENDBRANCH  23  25
ENDBRANCH  22  23
ENDBRANCH   1  22
TORSDOF 15
ENDMDL
