MODEL 1
REMARK VINA RESULT:     -10.0      0.000      0.000
REMARK SMILES C=Cc1cc(Cl)cc2c1O[C@H](C(F)(F)F)C(C(=O)OCCOC(=O)c1ccc(-c3c4nc(c(-c5ccc(S(=O)(=O)[O-])cc5)c5ccc([nH]5)c(-c5ccc(S(=O)(=O)[O-])cc5)c5nc(c(-c6ccc(S(=O)(=O)[O-])cc6)c6ccc3[nH]6)C=C5)C=C4)cc1)=C2
REMARK SMILES IDX 21 1 20 2 19 3 17 4 18 5 16 6 3 7 4 8 9 9 5 10 8 11 10 12
REMARK SMILES IDX 6 13 7 14 85 15 11 16 2 17 1 18 12 19 13 20 14 21 15 22
REMARK SMILES IDX 22 23 23 24 24 25 25 26 26 27 84 28 27 29 83 30 28 31 29 32
REMARK SMILES IDX 30 33 77 34 31 35 82 36 76 37 78 38 32 39 81 40 75 41 74 42
REMARK SMILES IDX 33 44 63 45 44 46 62 47 45 48 48 49 61 50 79 51 46 52 47 53
REMARK SMILES IDX 60 55 80 56 49 57 34 58 35 59 43 60 36 61 42 62 37 63 38 64
REMARK SMILES IDX 39 65 40 66 41 67 64 68 65 69 73 70 66 71 72 72 67 73 68 74
REMARK SMILES IDX 69 75 70 76 71 77 50 78 51 79 59 80 52 81 58 82 53 83 54 84
REMARK SMILES IDX 55 85 56 86 57 87
REMARK H PARENT 78 43 48 54
REMARK Flexibility Score: inf
ROOT
ATOM      1  C   UNL A   1      33.668  33.636  28.194  1.00  0.00     0.275 C 
ENDROOT
BRANCH   1   2
ATOM      2  C   UNL A   1      34.416  34.776  28.891  1.00  0.00     0.275 C 
BRANCH   2   3
ATOM      3  O   UNL A   1      34.197  34.771  30.321  1.00  0.00    -0.459 OA
BRANCH   3   4
ATOM      4  C   UNL A   1      34.730  33.723  30.991  1.00  0.00     0.338 C 
ATOM      5  O   UNL A   1      34.276  32.590  31.042  1.00  0.00    -0.246 OA
BRANCH   4   6
ATOM      6  C   UNL A   1      35.991  34.110  31.658  1.00  0.00     0.087 C 
ATOM      7  C   UNL A   1      39.635  34.878  33.607  1.00  0.00     0.018 A 
ATOM      8  C   UNL A   1      40.830  34.626  32.909  1.00  0.00     0.032 A 
ATOM      9  C   UNL A   1      38.404  34.655  32.964  1.00  0.00     0.135 A 
ATOM     10  C   UNL A   1      40.801  34.208  31.582  1.00  0.00     0.042 A 
ATOM     11  C   UNL A   1      38.392  34.211  31.641  1.00  0.00     0.019 A 
ATOM     12  O   UNL A   1      37.250  34.913  33.661  1.00  0.00    -0.475 OA
ATOM     13  Cl  UNL A   1      42.272  33.920  30.738  1.00  0.00    -0.084 Cl
ATOM     14  C   UNL A   1      39.587  34.006  30.941  1.00  0.00     0.032 A 
ATOM     15  C   UNL A   1      37.133  33.931  30.986  1.00  0.00     0.027 C 
ATOM     16  C   UNL A   1      35.960  34.542  33.094  1.00  0.00     0.316 C 
BRANCH   7  17
ATOM     17  C   UNL A   1      39.682  35.300  35.015  1.00  0.00     0.004 C 
ATOM     18  C   UNL A   1      40.701  35.987  35.549  1.00  0.00     0.009 C 
ENDBRANCH   7  17
BRANCH  16  19
ATOM     19  C   UNL A   1      35.333  33.452  33.978  1.00  0.00     0.430 C 
ATOM     20  F   UNL A   1      35.662  33.624  35.282  1.00  0.00    -0.167 F 
ATOM     21  F   UNL A   1      33.980  33.475  33.918  1.00  0.00    -0.167 F 
ATOM     22  F   UNL A   1      35.733  32.210  33.622  1.00  0.00    -0.167 F 
ENDBRANCH  16  19
ENDBRANCH   4   6
ENDBRANCH   3   4
ENDBRANCH   2   3
ENDBRANCH   1   2
BRANCH   1  23
ATOM     23  O   UNL A   1      34.568  32.822  27.421  1.00  0.00    -0.458 OA
BRANCH  23  24
ATOM     24  C   UNL A   1      34.491  31.496  27.668  1.00  0.00     0.338 C 
ATOM     25  O   UNL A   1      33.548  30.756  27.443  1.00  0.00    -0.246 OA
BRANCH  24  26
ATOM     26  C   UNL A   1      35.794  31.000  28.125  1.00  0.00     0.060 A 
ATOM     27  C   UNL A   1      36.931  31.796  28.144  1.00  0.00     0.016 A 
ATOM     28  C   UNL A   1      35.821  29.742  28.713  1.00  0.00     0.016 A 
ATOM     29  C   UNL A   1      38.091  31.302  28.756  1.00  0.00     0.010 A 
ATOM     30  C   UNL A   1      36.910  29.328  29.466  1.00  0.00     0.010 A 
ATOM     31  C   UNL A   1      38.085  30.080  29.466  1.00  0.00    -0.014 A 
BRANCH  31  32
ATOM     32  C   UNL A   1      39.289  29.590  30.200  1.00  0.00     0.031 A 
ATOM     33  C   UNL A   1      39.554  29.997  31.635  1.00  0.00     0.074 A 
ATOM     34  C   UNL A   1      40.173  28.792  29.564  1.00  0.00     0.049 A 
ATOM     35  N   UNL A   1      40.522  29.616  32.430  1.00  0.00    -0.248 NA
ATOM     36  C   UNL A   1      38.649  30.987  32.249  1.00  0.00     0.031 C 
ATOM     37  C   UNL A   1      40.099  28.411  28.151  1.00  0.00     0.029 A 
ATOM     38  N   UNL A   1      41.288  28.129  30.021  1.00  0.00    -0.354 N 
ATOM     39  C   UNL A   1      40.345  30.322  33.616  1.00  0.00     0.074 A 
ATOM     40  C   UNL A   1      39.238  31.224  33.411  1.00  0.00     0.031 C 
ATOM     41  C   UNL A   1      41.054  27.509  27.884  1.00  0.00     0.029 A 
ATOM     42  C   UNL A   1      41.848  27.286  29.089  1.00  0.00     0.049 A 
ATOM     43  H   UNL A   1      41.651  28.248  30.929  1.00  0.00     0.167 HD
ATOM     44  C   UNL A   1      41.002  30.193  34.793  1.00  0.00     0.031 A 
ATOM     45  C   UNL A   1      42.867  26.406  29.189  1.00  0.00     0.031 A 
ATOM     46  C   UNL A   1      42.066  29.249  35.009  1.00  0.00     0.049 A 
ATOM     47  C   UNL A   1      43.554  26.239  30.516  1.00  0.00     0.074 A 
ATOM     48  C   UNL A   1      42.744  28.981  36.185  1.00  0.00     0.029 A 
ATOM     49  N   UNL A   1      42.593  28.410  34.040  1.00  0.00    -0.354 N 
ATOM     50  N   UNL A   1      43.307  26.851  31.650  1.00  0.00    -0.248 NA
ATOM     51  C   UNL A   1      44.645  25.257  30.586  1.00  0.00     0.031 C 
ATOM     52  C   UNL A   1      43.723  28.025  35.912  1.00  0.00     0.029 A 
ATOM     53  C   UNL A   1      43.603  27.639  34.586  1.00  0.00     0.049 A 
ATOM     54  H   UNL A   1      42.292  28.368  33.104  1.00  0.00     0.167 HD
ATOM     55  C   UNL A   1      44.201  26.319  32.572  1.00  0.00     0.074 A 
ATOM     56  C   UNL A   1      44.978  25.318  31.870  1.00  0.00     0.031 C 
ATOM     57  C   UNL A   1      44.366  26.639  33.878  1.00  0.00     0.031 A 
BRANCH  44  58
ATOM     58  C   UNL A   1      40.559  31.037  35.965  1.00  0.00    -0.014 A 
ATOM     59  C   UNL A   1      39.194  31.140  36.288  1.00  0.00     0.010 A 
ATOM     60  C   UNL A   1      41.485  31.829  36.669  1.00  0.00     0.010 A 
ATOM     61  C   UNL A   1      38.759  32.042  37.265  1.00  0.00     0.020 A 
ATOM     62  C   UNL A   1      41.060  32.705  37.673  1.00  0.00     0.020 A 
ATOM     63  C   UNL A   1      39.697  32.826  37.944  1.00  0.00     0.054 A 
BRANCH  63  64
ATOM     64  S   UNL A   1      39.114  34.022  39.179  1.00  0.00     0.124 S 
ATOM     65  O   UNL A   1      40.349  34.379  39.869  1.00  0.00    -0.237 OA
ATOM     66  O   UNL A   1      38.525  35.073  38.351  1.00  0.00    -0.237 OA
ATOM     67  O   UNL A   1      38.154  33.255  39.971  1.00  0.00    -0.744 OA
ENDBRANCH  63  64
ENDBRANCH  44  58
BRANCH  45  68
ATOM     68  C   UNL A   1      43.218  25.565  28.009  1.00  0.00    -0.014 A 
ATOM     69  C   UNL A   1      42.687  24.268  27.868  1.00  0.00     0.010 A 
ATOM     70  C   UNL A   1      44.174  26.011  27.077  1.00  0.00     0.010 A 
ATOM     71  C   UNL A   1      43.152  23.413  26.865  1.00  0.00     0.020 A 
ATOM     72  C   UNL A   1      44.617  25.170  26.051  1.00  0.00     0.020 A 
ATOM     73  C   UNL A   1      44.129  23.864  25.974  1.00  0.00     0.054 A 
BRANCH  73  74
ATOM     74  S   UNL A   1      44.775  22.709  24.731  1.00  0.00     0.124 S 
ATOM     75  O   UNL A   1      43.546  22.204  24.126  1.00  0.00    -0.237 OA
ATOM     76  O   UNL A   1      45.585  23.576  23.880  1.00  0.00    -0.237 OA
ATOM     77  O   UNL A   1      45.527  21.740  25.523  1.00  0.00    -0.744 OA
ENDBRANCH  73  74
ENDBRANCH  45  68
BRANCH  57  78
ATOM     78  C   UNL A   1      45.429  25.918  34.664  1.00  0.00    -0.014 A 
ATOM     79  C   UNL A   1      45.093  24.761  35.393  1.00  0.00     0.010 A 
ATOM     80  C   UNL A   1      46.712  26.473  34.813  1.00  0.00     0.010 A 
ATOM     81  C   UNL A   1      46.001  24.201  36.295  1.00  0.00     0.020 A 
ATOM     82  C   UNL A   1      47.636  25.895  35.688  1.00  0.00     0.020 A 
ATOM     83  C   UNL A   1      47.263  24.782  36.446  1.00  0.00     0.054 A 
BRANCH  83  84
ATOM     84  S   UNL A   1      48.408  24.077  37.662  1.00  0.00     0.124 S 
ATOM     85  O   UNL A   1      47.540  23.870  38.818  1.00  0.00    -0.237 OA
ATOM     86  O   UNL A   1      48.872  22.861  36.997  1.00  0.00    -0.237 OA
ATOM     87  O   UNL A   1      49.423  25.115  37.821  1.00  0.00    -0.744 OA
ENDBRANCH  83  84
ENDBRANCH  57  78
ENDBRANCH  31  32
ENDBRANCH  24  26
ENDBRANCH  23  24
ENDBRANCH   1  23
TORSDOF 16
ENDMDL
MODEL 2
REMARK VINA RESULT:      -9.9      5.269      7.825
REMARK SMILES C=Cc1cc(Cl)cc2c1O[C@H](C(F)(F)F)C(C(=O)OCCOC(=O)c1ccc(-c3c4nc(c(-c5ccc(S(=O)(=O)[O-])cc5)c5ccc([nH]5)c(-c5ccc(S(=O)(=O)[O-])cc5)c5nc(c(-c6ccc(S(=O)(=O)[O-])cc6)c6ccc3[nH]6)C=C5)C=C4)cc1)=C2
REMARK SMILES IDX 21 1 20 2 19 3 17 4 18 5 16 6 3 7 4 8 9 9 5 10 8 11 10 12
REMARK SMILES IDX 6 13 7 14 85 15 11 16 2 17 1 18 12 19 13 20 14 21 15 22
REMARK SMILES IDX 22 23 23 24 24 25 25 26 26 27 84 28 27 29 83 30 28 31 29 32
REMARK SMILES IDX 30 33 77 34 31 35 82 36 76 37 78 38 32 39 81 40 75 41 74 42
REMARK SMILES IDX 33 44 63 45 44 46 62 47 45 48 48 49 61 50 79 51 46 52 47 53
REMARK SMILES IDX 60 55 80 56 49 57 34 58 35 59 43 60 36 61 42 62 37 63 38 64
REMARK SMILES IDX 39 65 40 66 41 67 64 68 65 69 73 70 66 71 72 72 67 73 68 74
REMARK SMILES IDX 69 75 70 76 71 77 50 78 51 79 59 80 52 81 58 82 53 83 54 84
REMARK SMILES IDX 55 85 56 86 57 87
REMARK H PARENT 78 43 48 54
REMARK Flexibility Score: inf
ROOT
ATOM      1  C   UNL A   1      33.518  28.298  26.859  1.00  0.00     0.275 C 
ENDROOT
BRANCH   1   2
ATOM      2  C   UNL A   1      32.255  28.168  26.003  1.00  0.00     0.275 C 
BRANCH   2   3
ATOM      3  O   UNL A   1      32.212  26.912  25.289  1.00  0.00    -0.459 OA
BRANCH   3   4
ATOM      4  C   UNL A   1      31.558  25.905  25.913  1.00  0.00     0.338 C 
ATOM      5  O   UNL A   1      30.518  26.000  26.547  1.00  0.00    -0.246 OA
BRANCH   4   6
ATOM      6  C   UNL A   1      32.255  24.617  25.710  1.00  0.00     0.087 C 
ATOM      7  C   UNL A   1      34.374  21.091  24.848  1.00  0.00     0.018 A 
ATOM      8  C   UNL A   1      35.759  21.069  25.093  1.00  0.00     0.032 A 
ATOM      9  C   UNL A   1      33.640  22.251  25.156  1.00  0.00     0.135 A 
ATOM     10  C   UNL A   1      36.394  22.162  25.675  1.00  0.00     0.042 A 
ATOM     11  C   UNL A   1      34.296  23.348  25.718  1.00  0.00     0.019 A 
ATOM     12  O   UNL A   1      32.289  22.249  24.917  1.00  0.00    -0.475 OA
ATOM     13  Cl  UNL A   1      38.085  22.113  25.981  1.00  0.00    -0.084 Cl
ATOM     14  C   UNL A   1      35.667  23.300  25.997  1.00  0.00     0.032 A 
ATOM     15  C   UNL A   1      33.561  24.564  25.992  1.00  0.00     0.027 C 
ATOM     16  C   UNL A   1      31.522  23.479  25.066  1.00  0.00     0.316 C 
BRANCH   7  17
ATOM     17  C   UNL A   1      33.722  19.936  24.214  1.00  0.00     0.004 C 
ATOM     18  C   UNL A   1      33.328  18.846  24.885  1.00  0.00     0.009 C 
ENDBRANCH   7  17
BRANCH  16  19
ATOM     19  C   UNL A   1      30.983  23.888  23.686  1.00  0.00     0.430 C 
ATOM     20  F   UNL A   1      29.866  24.648  23.798  1.00  0.00    -0.167 F 
ATOM     21  F   UNL A   1      31.883  24.628  22.995  1.00  0.00    -0.167 F 
ATOM     22  F   UNL A   1      30.667  22.818  22.922  1.00  0.00    -0.167 F 
ENDBRANCH  16  19
ENDBRANCH   4   6
ENDBRANCH   3   4
ENDBRANCH   2   3
ENDBRANCH   1   2
BRANCH   1  23
ATOM     23  O   UNL A   1      34.286  29.453  26.480  1.00  0.00    -0.458 OA
BRANCH  23  24
ATOM     24  C   UNL A   1      34.497  30.346  27.473  1.00  0.00     0.338 C 
ATOM     25  O   UNL A   1      33.693  31.135  27.940  1.00  0.00    -0.246 OA
BRANCH  24  26
ATOM     26  C   UNL A   1      35.832  30.142  28.048  1.00  0.00     0.060 A 
ATOM     27  C   UNL A   1      36.024  29.631  29.324  1.00  0.00     0.016 A 
ATOM     28  C   UNL A   1      36.918  30.313  27.200  1.00  0.00     0.016 A 
ATOM     29  C   UNL A   1      37.325  29.303  29.731  1.00  0.00     0.010 A 
ATOM     30  C   UNL A   1      38.174  29.830  27.541  1.00  0.00     0.010 A 
ATOM     31  C   UNL A   1      38.412  29.354  28.830  1.00  0.00    -0.014 A 
BRANCH  31  32
ATOM     32  C   UNL A   1      39.784  28.920  29.226  1.00  0.00     0.031 A 
ATOM     33  C   UNL A   1      40.650  29.779  30.126  1.00  0.00     0.074 A 
ATOM     34  C   UNL A   1      40.274  27.755  28.752  1.00  0.00     0.049 A 
ATOM     35  N   UNL A   1      41.840  29.521  30.607  1.00  0.00    -0.248 NA
ATOM     36  C   UNL A   1      40.143  31.111  30.503  1.00  0.00     0.031 C 
ATOM     37  C   UNL A   1      39.592  26.884  27.792  1.00  0.00     0.029 A 
ATOM     38  N   UNL A   1      41.440  27.081  29.031  1.00  0.00    -0.354 N 
ATOM     39  C   UNL A   1      42.217  30.653  31.324  1.00  0.00     0.074 A 
ATOM     40  C   UNL A   1      41.178  31.637  31.140  1.00  0.00     0.031 C 
ATOM     41  C   UNL A   1      40.295  25.753  27.642  1.00  0.00     0.029 A 
ATOM     42  C   UNL A   1      41.509  25.836  28.449  1.00  0.00     0.049 A 
ATOM     43  H   UNL A   1      42.157  27.455  29.594  1.00  0.00     0.167 HD
ATOM     44  C   UNL A   1      43.300  30.841  32.115  1.00  0.00     0.031 A 
ATOM     45  C   UNL A   1      42.426  24.853  28.568  1.00  0.00     0.031 A 
ATOM     46  C   UNL A   1      44.304  29.836  32.341  1.00  0.00     0.049 A 
ATOM     47  C   UNL A   1      43.597  25.059  29.487  1.00  0.00     0.074 A 
ATOM     48  C   UNL A   1      45.397  29.895  33.186  1.00  0.00     0.029 A 
ATOM     49  N   UNL A   1      44.327  28.587  31.739  1.00  0.00    -0.354 N 
ATOM     50  N   UNL A   1      43.883  26.102  30.229  1.00  0.00    -0.248 NA
ATOM     51  C   UNL A   1      44.561  23.955  29.602  1.00  0.00     0.031 C 
ATOM     52  C   UNL A   1      46.117  28.707  33.047  1.00  0.00     0.029 A 
ATOM     53  C   UNL A   1      45.430  27.876  32.177  1.00  0.00     0.049 A 
ATOM     54  H   UNL A   1      43.659  28.257  31.096  1.00  0.00     0.167 HD
ATOM     55  C   UNL A   1      45.052  25.777  30.909  1.00  0.00     0.074 A 
ATOM     56  C   UNL A   1      45.405  24.430  30.510  1.00  0.00     0.031 C 
ATOM     57  C   UNL A   1      45.768  26.531  31.777  1.00  0.00     0.031 A 
BRANCH  44  58
ATOM     58  C   UNL A   1      43.438  32.153  32.852  1.00  0.00    -0.014 A 
ATOM     59  C   UNL A   1      42.818  32.332  34.103  1.00  0.00     0.010 A 
ATOM     60  C   UNL A   1      44.077  33.252  32.248  1.00  0.00     0.010 A 
ATOM     61  C   UNL A   1      42.803  33.589  34.717  1.00  0.00     0.020 A 
ATOM     62  C   UNL A   1      44.097  34.502  32.875  1.00  0.00     0.020 A 
ATOM     63  C   UNL A   1      43.435  34.668  34.092  1.00  0.00     0.054 A 
BRANCH  63  64
ATOM     64  S   UNL A   1      43.370  36.301  34.881  1.00  0.00     0.124 S 
ATOM     65  O   UNL A   1      44.430  36.203  35.880  1.00  0.00    -0.237 OA
ATOM     66  O   UNL A   1      43.636  37.205  33.764  1.00  0.00    -0.237 OA
ATOM     67  O   UNL A   1      42.012  36.369  35.415  1.00  0.00    -0.744 OA
ENDBRANCH  63  64
ENDBRANCH  44  58
BRANCH  45  68
ATOM     68  C   UNL A   1      42.202  23.561  27.855  1.00  0.00    -0.014 A 
ATOM     69  C   UNL A   1      41.347  22.582  28.396  1.00  0.00     0.010 A 
ATOM     70  C   UNL A   1      42.929  23.258  26.689  1.00  0.00     0.010 A 
ATOM     71  C   UNL A   1      41.276  21.307  27.829  1.00  0.00     0.020 A 
ATOM     72  C   UNL A   1      42.834  21.994  26.097  1.00  0.00     0.020 A 
ATOM     73  C   UNL A   1      42.035  21.015  26.692  1.00  0.00     0.054 A 
BRANCH  73  74
ATOM     74  S   UNL A   1      41.987  19.330  26.021  1.00  0.00     0.124 S 
ATOM     75  O   UNL A   1      42.846  19.451  24.847  1.00  0.00    -0.237 OA
ATOM     76  O   UNL A   1      42.530  18.534  27.119  1.00  0.00    -0.237 OA
ATOM     77  O   UNL A   1      40.570  19.113  25.740  1.00  0.00    -0.744 OA
ENDBRANCH  73  74
ENDBRANCH  45  68
BRANCH  57  78
ATOM     78  C   UNL A   1      47.022  25.945  32.371  1.00  0.00    -0.014 A 
ATOM     79  C   UNL A   1      48.227  25.995  31.644  1.00  0.00     0.010 A 
ATOM     80  C   UNL A   1      46.972  25.205  33.565  1.00  0.00     0.010 A 
ATOM     81  C   UNL A   1      49.344  25.275  32.073  1.00  0.00     0.020 A 
ATOM     82  C   UNL A   1      48.098  24.512  34.016  1.00  0.00     0.020 A 
ATOM     83  C   UNL A   1      49.267  24.527  33.250  1.00  0.00     0.054 A 
BRANCH  83  84
ATOM     84  S   UNL A   1      50.709  23.553  33.761  1.00  0.00     0.124 S 
ATOM     85  O   UNL A   1      51.064  22.858  32.528  1.00  0.00    -0.237 OA
ATOM     86  O   UNL A   1      51.651  24.582  34.199  1.00  0.00    -0.237 OA
ATOM     87  O   UNL A   1      50.189  22.703  34.830  1.00  0.00    -0.744 OA
ENDBRANCH  83  84
ENDBRANCH  57  78
ENDBRANCH  31  32
ENDBRANCH  24  26
ENDBRANCH  23  24
ENDBRANCH   1  23
TORSDOF 16
ENDMDL
MODEL 3
REMARK VINA RESULT:      -9.8      5.455     11.373
REMARK SMILES C=Cc1cc(Cl)cc2c1O[C@H](C(F)(F)F)C(C(=O)OCCOC(=O)c1ccc(-c3c4nc(c(-c5ccc(S(=O)(=O)[O-])cc5)c5ccc([nH]5)c(-c5ccc(S(=O)(=O)[O-])cc5)c5nc(c(-c6ccc(S(=O)(=O)[O-])cc6)c6ccc3[nH]6)C=C5)C=C4)cc1)=C2
REMARK SMILES IDX 21 1 20 2 19 3 17 4 18 5 16 6 3 7 4 8 9 9 5 10 8 11 10 12
REMARK SMILES IDX 6 13 7 14 85 15 11 16 2 17 1 18 12 19 13 20 14 21 15 22
REMARK SMILES IDX 22 23 23 24 24 25 25 26 26 27 84 28 27 29 83 30 28 31 29 32
REMARK SMILES IDX 30 33 77 34 31 35 82 36 76 37 78 38 32 39 81 40 75 41 74 42
REMARK SMILES IDX 33 44 63 45 44 46 62 47 45 48 48 49 61 50 79 51 46 52 47 53
REMARK SMILES IDX 60 55 80 56 49 57 34 58 35 59 43 60 36 61 42 62 37 63 38 64
REMARK SMILES IDX 39 65 40 66 41 67 64 68 65 69 73 70 66 71 72 72 67 73 68 74
REMARK SMILES IDX 69 75 70 76 71 77 50 78 51 79 59 80 52 81 58 82 53 83 54 84
REMARK SMILES IDX 55 85 56 86 57 87
REMARK H PARENT 78 43 48 54
REMARK Flexibility Score: inf
ROOT
ATOM      1  C   UNL A   1      36.263  23.204  25.910  1.00  0.00     0.275 C 
ENDROOT
BRANCH   1   2
ATOM      2  C   UNL A   1      35.468  22.303  24.961  1.00  0.00     0.275 C 
BRANCH   2   3
ATOM      3  O   UNL A   1      34.315  22.981  24.411  1.00  0.00    -0.459 OA
BRANCH   3   4
ATOM      4  C   UNL A   1      33.432  23.463  25.316  1.00  0.00     0.338 C 
ATOM      5  O   UNL A   1      32.970  22.858  26.271  1.00  0.00    -0.246 OA
BRANCH   4   6
ATOM      6  C   UNL A   1      33.099  24.874  25.025  1.00  0.00     0.087 C 
ATOM      7  C   UNL A   1      31.915  28.865  24.447  1.00  0.00     0.018 A 
ATOM      8  C   UNL A   1      32.329  29.826  25.387  1.00  0.00     0.032 A 
ATOM      9  C   UNL A   1      32.324  27.528  24.606  1.00  0.00     0.135 A 
ATOM     10  C   UNL A   1      33.172  29.474  26.437  1.00  0.00     0.042 A 
ATOM     11  C   UNL A   1      33.149  27.186  25.678  1.00  0.00     0.019 A 
ATOM     12  O   UNL A   1      31.913  26.608  23.674  1.00  0.00    -0.475 OA
ATOM     13  Cl  UNL A   1      33.682  30.664  27.568  1.00  0.00    -0.084 Cl
ATOM     14  C   UNL A   1      33.592  28.159  26.583  1.00  0.00     0.032 A 
ATOM     15  C   UNL A   1      33.535  25.806  25.879  1.00  0.00     0.027 C 
ATOM     16  C   UNL A   1      32.175  25.191  23.888  1.00  0.00     0.316 C 
BRANCH   7  17
ATOM     17  C   UNL A   1      31.008  29.250  23.355  1.00  0.00     0.004 C 
ATOM     18  C   UNL A   1      29.673  29.168  23.437  1.00  0.00     0.009 C 
ENDBRANCH   7  17
BRANCH  16  19
ATOM     19  C   UNL A   1      30.830  24.467  24.058  1.00  0.00     0.430 C 
ATOM     20  F   UNL A   1      30.470  24.394  25.363  1.00  0.00    -0.167 F 
ATOM     21  F   UNL A   1      29.827  25.115  23.419  1.00  0.00    -0.167 F 
ATOM     22  F   UNL A   1      30.865  23.203  23.579  1.00  0.00    -0.167 F 
ENDBRANCH  16  19
ENDBRANCH   4   6
ENDBRANCH   3   4
ENDBRANCH   2   3
ENDBRANCH   1   2
BRANCH   1  23
ATOM     23  O   UNL A   1      37.549  23.534  25.356  1.00  0.00    -0.458 OA
BRANCH  23  24
ATOM     24  C   UNL A   1      38.607  23.070  26.057  1.00  0.00     0.338 C 
ATOM     25  O   UNL A   1      39.036  21.928  26.078  1.00  0.00    -0.246 OA
BRANCH  24  26
ATOM     26  C   UNL A   1      39.302  24.187  26.707  1.00  0.00     0.060 A 
ATOM     27  C   UNL A   1      40.005  25.146  25.992  1.00  0.00     0.016 A 
ATOM     28  C   UNL A   1      39.085  24.360  28.068  1.00  0.00     0.016 A 
ATOM     29  C   UNL A   1      40.490  26.273  26.670  1.00  0.00     0.010 A 
ATOM     30  C   UNL A   1      39.414  25.551  28.699  1.00  0.00     0.010 A 
ATOM     31  C   UNL A   1      40.163  26.515  28.023  1.00  0.00    -0.014 A 
BRANCH  31  32
ATOM     32  C   UNL A   1      40.597  27.757  28.729  1.00  0.00     0.031 A 
ATOM     33  C   UNL A   1      42.027  27.934  29.196  1.00  0.00     0.074 A 
ATOM     34  C   UNL A   1      39.693  28.727  28.980  1.00  0.00     0.049 A 
ATOM     35  N   UNL A   1      42.578  28.973  29.772  1.00  0.00    -0.248 NA
ATOM     36  C   UNL A   1      42.951  26.795  29.038  1.00  0.00     0.031 C 
ATOM     37  C   UNL A   1      38.261  28.640  28.684  1.00  0.00     0.029 A 
ATOM     38  N   UNL A   1      39.839  29.987  29.510  1.00  0.00    -0.354 N 
ATOM     39  C   UNL A   1      43.891  28.606  30.050  1.00  0.00     0.074 A 
ATOM     40  C   UNL A   1      44.034  27.222  29.668  1.00  0.00     0.031 C 
ATOM     41  C   UNL A   1      37.683  29.823  28.937  1.00  0.00     0.029 A 
ATOM     42  C   UNL A   1      38.688  30.740  29.468  1.00  0.00     0.049 A 
ATOM     43  H   UNL A   1      40.687  30.319  29.884  1.00  0.00     0.167 HD
ATOM     44  C   UNL A   1      44.908  29.365  30.523  1.00  0.00     0.031 A 
ATOM     45  C   UNL A   1      38.461  32.031  29.791  1.00  0.00     0.031 A 
ATOM     46  C   UNL A   1      44.775  30.760  30.847  1.00  0.00     0.049 A 
ATOM     47  C   UNL A   1      39.611  32.873  30.268  1.00  0.00     0.074 A 
ATOM     48  C   UNL A   1      45.760  31.640  31.256  1.00  0.00     0.029 A 
ATOM     49  N   UNL A   1      43.593  31.482  30.779  1.00  0.00    -0.354 N 
ATOM     50  N   UNL A   1      40.866  32.529  30.433  1.00  0.00    -0.248 NA
ATOM     51  C   UNL A   1      39.324  34.278  30.590  1.00  0.00     0.031 C 
ATOM     52  C   UNL A   1      45.163  32.878  31.498  1.00  0.00     0.029 A 
ATOM     53  C   UNL A   1      43.820  32.791  31.162  1.00  0.00     0.049 A 
ATOM     54  H   UNL A   1      42.722  31.117  30.500  1.00  0.00     0.167 HD
ATOM     55  C   UNL A   1      41.522  33.677  30.863  1.00  0.00     0.074 A 
ATOM     56  C   UNL A   1      40.530  34.731  30.909  1.00  0.00     0.031 C 
ATOM     57  C   UNL A   1      42.825  33.835  31.197  1.00  0.00     0.031 A 
BRANCH  44  58
ATOM     58  C   UNL A   1      46.275  28.736  30.663  1.00  0.00    -0.014 A 
ATOM     59  C   UNL A   1      46.686  28.198  31.897  1.00  0.00     0.010 A 
ATOM     60  C   UNL A   1      47.201  28.791  29.605  1.00  0.00     0.010 A 
ATOM     61  C   UNL A   1      48.002  27.762  32.082  1.00  0.00     0.020 A 
ATOM     62  C   UNL A   1      48.508  28.322  29.773  1.00  0.00     0.020 A 
ATOM     63  C   UNL A   1      48.907  27.837  31.019  1.00  0.00     0.054 A 
BRANCH  63  64
ATOM     64  S   UNL A   1      50.621  27.306  31.286  1.00  0.00     0.124 S 
ATOM     65  O   UNL A   1      51.367  28.535  31.035  1.00  0.00    -0.237 OA
ATOM     66  O   UNL A   1      50.602  26.851  32.675  1.00  0.00    -0.237 OA
ATOM     67  O   UNL A   1      50.810  26.247  30.297  1.00  0.00    -0.744 OA
ENDBRANCH  63  64
ENDBRANCH  44  58
BRANCH  45  68
ATOM     68  C   UNL A   1      37.100  32.604  29.577  1.00  0.00    -0.014 A 
ATOM     69  C   UNL A   1      36.716  33.087  28.311  1.00  0.00     0.010 A 
ATOM     70  C   UNL A   1      36.222  32.773  30.663  1.00  0.00     0.010 A 
ATOM     71  C   UNL A   1      35.516  33.787  28.150  1.00  0.00     0.020 A 
ATOM     72  C   UNL A   1      35.005  33.442  30.499  1.00  0.00     0.020 A 
ATOM     73  C   UNL A   1      34.677  33.976  29.251  1.00  0.00     0.054 A 
BRANCH  73  74
ATOM     74  S   UNL A   1      33.165  34.956  29.035  1.00  0.00     0.124 S 
ATOM     75  O   UNL A   1      32.622  34.973  30.390  1.00  0.00    -0.237 OA
ATOM     76  O   UNL A   1      33.679  36.232  28.547  1.00  0.00    -0.237 OA
ATOM     77  O   UNL A   1      32.393  34.186  28.062  1.00  0.00    -0.744 OA
ENDBRANCH  73  74
ENDBRANCH  45  68
BRANCH  57  78
ATOM     78  C   UNL A   1      43.287  35.195  31.655  1.00  0.00    -0.014 A 
ATOM     79  C   UNL A   1      43.110  35.575  32.999  1.00  0.00     0.010 A 
ATOM     80  C   UNL A   1      43.741  36.147  30.726  1.00  0.00     0.010 A 
ATOM     81  C   UNL A   1      43.330  36.896  33.397  1.00  0.00     0.020 A 
ATOM     82  C   UNL A   1      43.996  37.461  31.128  1.00  0.00     0.020 A 
ATOM     83  C   UNL A   1      43.759  37.833  32.454  1.00  0.00     0.054 A 
BRANCH  83  84
ATOM     84  S   UNL A   1      43.984  39.556  32.976  1.00  0.00     0.124 S 
ATOM     85  O   UNL A   1      44.456  40.190  31.749  1.00  0.00    -0.237 OA
ATOM     86  O   UNL A   1      42.640  39.937  33.406  1.00  0.00    -0.237 OA
ATOM     87  O   UNL A   1      44.969  39.463  34.050  1.00  0.00    -0.744 OA
ENDBRANCH  83  84
ENDBRANCH  57  78
ENDBRANCH  31  32
ENDBRANCH  24  26
ENDBRANCH  23  24
ENDBRANCH   1  23
TORSDOF 16
ENDMDL
