MODEL 1
REMARK VINA RESULT:     -10.1      0.000      0.000
REMARK SMILES CC(C)=CC[C@@]1(C(=O)OCCOC(=O)c2ccc(-c3c4nc(c(-c5ccc(S(=O)(=O)[O-])cc5)c5ccc([nH]5)c(-c5ccc(S(=O)(=O)[O-])cc5)c5nc(c(-c6ccc(S(=O)(=O)[O-])cc6)c6ccc3[nH]6)C=C5)C=C4)cc2)CCC[C@H](C)C1
REMARK SMILES IDX 11 1 10 2 9 3 7 4 8 5 6 6 75 7 80 8 76 9 78 10 77 11 79 12
REMARK SMILES IDX 5 13 4 14 1 15 2 16 3 17 12 18 13 19 14 20 15 21 16 22 74 23
REMARK SMILES IDX 17 24 73 25 18 26 19 27 20 28 67 29 21 30 72 31 66 32 68 33
REMARK SMILES IDX 22 34 71 35 65 36 64 37 23 39 53 40 34 41 52 42 35 43 38 44
REMARK SMILES IDX 51 45 69 46 36 47 37 48 50 50 70 51 39 52 24 53 25 54 33 55
REMARK SMILES IDX 26 56 32 57 27 58 28 59 29 60 30 61 31 62 54 63 55 64 63 65
REMARK SMILES IDX 56 66 62 67 57 68 58 69 59 70 60 71 61 72 40 73 41 74 49 75
REMARK SMILES IDX 42 76 48 77 43 78 44 79 45 80 46 81 47 82
REMARK H PARENT 68 38 38 49
REMARK Flexibility Score: inf
ROOT
ATOM      1  C   UNL A   1      32.731  28.891  26.756  1.00  0.00     0.275 C 
ENDROOT
BRANCH   1   2
ATOM      2  C   UNL A   1      32.041  27.525  26.695  1.00  0.00     0.274 C 
BRANCH   2   3
ATOM      3  O   UNL A   1      32.913  26.488  26.200  1.00  0.00    -0.462 OA
BRANCH   3   4
ATOM      4  C   UNL A   1      32.406  25.231  26.118  1.00  0.00     0.312 C 
ATOM      5  O   UNL A   1      31.562  24.805  26.897  1.00  0.00    -0.252 OA
BRANCH   4   6
ATOM      6  C   UNL A   1      33.107  24.349  25.052  1.00  0.00     0.072 C 
ATOM      7  C   UNL A   1      32.283  24.455  23.726  1.00  0.00     0.019 C 
ATOM      8  C   UNL A   1      32.995  22.896  25.590  1.00  0.00     0.022 C 
ATOM      9  C   UNL A   1      32.599  23.382  22.697  1.00  0.00     0.001 C 
ATOM     10  C   UNL A   1      33.193  21.779  24.545  1.00  0.00    -0.013 C 
ATOM     11  C   UNL A   1      32.356  22.005  23.281  1.00  0.00     0.003 C 
ATOM     12  C   UNL A   1      32.838  20.415  25.141  1.00  0.00     0.007 C 
BRANCH   6  13
ATOM     13  C   UNL A   1      34.578  24.759  24.697  1.00  0.00     0.046 C 
BRANCH  13  14
ATOM     14  C   UNL A   1      35.744  24.084  25.365  1.00  0.00    -0.027 C 
ATOM     15  C   UNL A   1      36.660  22.847  23.386  1.00  0.00     0.039 C 
ATOM     16  C   UNL A   1      36.669  23.270  24.824  1.00  0.00    -0.080 C 
ATOM     17  C   UNL A   1      37.793  22.758  25.685  1.00  0.00     0.039 C 
ENDBRANCH  13  14
ENDBRANCH   6  13
ENDBRANCH   4   6
ENDBRANCH   3   4
ENDBRANCH   2   3
ENDBRANCH   1   2
BRANCH   1  18
ATOM     18  O   UNL A   1      33.843  28.878  27.669  1.00  0.00    -0.458 OA
BRANCH  18  19
ATOM     19  C   UNL A   1      34.412  30.080  27.911  1.00  0.00     0.338 C 
ATOM     20  O   UNL A   1      33.854  31.162  27.970  1.00  0.00    -0.246 OA
BRANCH  19  21
ATOM     21  C   UNL A   1      35.821  29.888  28.287  1.00  0.00     0.060 A 
ATOM     22  C   UNL A   1      36.765  30.064  27.277  1.00  0.00     0.016 A 
ATOM     23  C   UNL A   1      36.221  29.471  29.553  1.00  0.00     0.016 A 
ATOM     24  C   UNL A   1      38.112  29.825  27.506  1.00  0.00     0.010 A 
ATOM     25  C   UNL A   1      37.582  29.235  29.793  1.00  0.00     0.010 A 
ATOM     26  C   UNL A   1      38.534  29.401  28.768  1.00  0.00    -0.014 A 
BRANCH  26  27
ATOM     27  C   UNL A   1      39.962  29.066  28.976  1.00  0.00     0.031 A 
ATOM     28  C   UNL A   1      40.889  30.102  29.541  1.00  0.00     0.074 A 
ATOM     29  C   UNL A   1      40.412  27.823  28.717  1.00  0.00     0.049 A 
ATOM     30  N   UNL A   1      42.187  30.056  29.689  1.00  0.00    -0.248 NA
ATOM     31  C   UNL A   1      40.272  31.356  30.005  1.00  0.00     0.031 C 
ATOM     32  C   UNL A   1      39.590  26.703  28.254  1.00  0.00     0.029 A 
ATOM     33  N   UNL A   1      41.674  27.292  28.813  1.00  0.00    -0.354 N 
ATOM     34  C   UNL A   1      42.550  31.284  30.227  1.00  0.00     0.074 A 
ATOM     35  C   UNL A   1      41.333  32.054  30.381  1.00  0.00     0.031 C 
ATOM     36  C   UNL A   1      40.369  25.618  28.110  1.00  0.00     0.029 A 
ATOM     37  C   UNL A   1      41.751  25.980  28.410  1.00  0.00     0.049 A 
ATOM     38  H   UNL A   1      42.450  27.803  29.138  1.00  0.00     0.167 HD
ATOM     39  C   UNL A   1      43.785  31.730  30.555  1.00  0.00     0.031 A 
ATOM     40  C   UNL A   1      42.818  25.173  28.261  1.00  0.00     0.031 A 
ATOM     41  C   UNL A   1      44.988  30.955  30.405  1.00  0.00     0.049 A 
ATOM     42  C   UNL A   1      44.189  25.713  28.565  1.00  0.00     0.074 A 
ATOM     43  C   UNL A   1      46.293  31.326  30.674  1.00  0.00     0.029 A 
ATOM     44  N   UNL A   1      45.028  29.645  29.952  1.00  0.00    -0.354 N 
ATOM     45  N   UNL A   1      44.526  26.901  29.009  1.00  0.00    -0.248 NA
ATOM     46  C   UNL A   1      45.325  24.809  28.335  1.00  0.00     0.031 C 
ATOM     47  C   UNL A   1      47.127  30.249  30.351  1.00  0.00     0.029 A 
ATOM     48  C   UNL A   1      46.336  29.194  29.923  1.00  0.00     0.049 A 
ATOM     49  H   UNL A   1      44.242  29.113  29.690  1.00  0.00     0.167 HD
ATOM     50  C   UNL A   1      45.911  26.885  29.119  1.00  0.00     0.074 A 
ATOM     51  C   UNL A   1      46.348  25.564  28.714  1.00  0.00     0.031 C 
ATOM     52  C   UNL A   1      46.748  27.875  29.514  1.00  0.00     0.031 A 
BRANCH  39  53
ATOM     53  C   UNL A   1      43.896  33.145  31.054  1.00  0.00    -0.014 A 
ATOM     54  C   UNL A   1      44.247  34.199  30.193  1.00  0.00     0.010 A 
ATOM     55  C   UNL A   1      43.632  33.421  32.408  1.00  0.00     0.010 A 
ATOM     56  C   UNL A   1      44.371  35.501  30.688  1.00  0.00     0.020 A 
ATOM     57  C   UNL A   1      43.735  34.724  32.901  1.00  0.00     0.020 A 
ATOM     58  C   UNL A   1      44.123  35.753  32.042  1.00  0.00     0.054 A 
BRANCH  58  59
ATOM     59  S   UNL A   1      44.289  37.450  32.662  1.00  0.00     0.124 S 
ATOM     60  O   UNL A   1      43.440  37.420  33.850  1.00  0.00    -0.237 OA
ATOM     61  O   UNL A   1      45.722  37.564  32.916  1.00  0.00    -0.237 OA
ATOM     62  O   UNL A   1      43.789  38.271  31.561  1.00  0.00    -0.744 OA
ENDBRANCH  58  59
ENDBRANCH  39  53
BRANCH  40  63
ATOM     63  C   UNL A   1      42.637  23.791  27.742  1.00  0.00    -0.014 A 
ATOM     64  C   UNL A   1      42.396  22.718  28.618  1.00  0.00     0.010 A 
ATOM     65  C   UNL A   1      42.690  23.545  26.358  1.00  0.00     0.010 A 
ATOM     66  C   UNL A   1      42.219  21.424  28.117  1.00  0.00     0.020 A 
ATOM     67  C   UNL A   1      42.490  22.258  25.853  1.00  0.00     0.020 A 
ATOM     68  C   UNL A   1      42.267  21.202  26.737  1.00  0.00     0.054 A 
BRANCH  68  69
ATOM     69  S   UNL A   1      41.974  19.529  26.100  1.00  0.00     0.124 S 
ATOM     70  O   UNL A   1      40.530  19.536  25.885  1.00  0.00    -0.237 OA
ATOM     71  O   UNL A   1      42.793  19.498  24.891  1.00  0.00    -0.237 OA
ATOM     72  O   UNL A   1      42.443  18.666  27.183  1.00  0.00    -0.744 OA
ENDBRANCH  68  69
ENDBRANCH  40  63
BRANCH  52  73
ATOM     73  C   UNL A   1      48.217  27.561  29.552  1.00  0.00    -0.014 A 
ATOM     74  C   UNL A   1      49.049  27.864  28.460  1.00  0.00     0.010 A 
ATOM     75  C   UNL A   1      48.780  27.006  30.716  1.00  0.00     0.010 A 
ATOM     76  C   UNL A   1      50.419  27.595  28.523  1.00  0.00     0.020 A 
ATOM     77  C   UNL A   1      50.152  26.755  30.790  1.00  0.00     0.020 A 
ATOM     78  C   UNL A   1      50.961  27.041  29.687  1.00  0.00     0.054 A 
BRANCH  78  79
ATOM     79  S   UNL A   1      52.749  26.745  29.768  1.00  0.00     0.124 S 
ATOM     80  O   UNL A   1      53.271  28.095  29.961  1.00  0.00    -0.237 OA
ATOM     81  O   UNL A   1      52.878  25.851  30.917  1.00  0.00    -0.237 OA
ATOM     82  O   UNL A   1      53.057  26.136  28.476  1.00  0.00    -0.744 OA
ENDBRANCH  78  79
ENDBRANCH  52  73
ENDBRANCH  26  27
ENDBRANCH  19  21
ENDBRANCH  18  19
ENDBRANCH   1  18
TORSDOF 16
ENDMDL
MODEL 2
REMARK VINA RESULT:      -9.8      1.103      2.162
REMARK SMILES CC(C)=CC[C@@]1(C(=O)OCCOC(=O)c2ccc(-c3c4nc(c(-c5ccc(S(=O)(=O)[O-])cc5)c5ccc([nH]5)c(-c5ccc(S(=O)(=O)[O-])cc5)c5nc(c(-c6ccc(S(=O)(=O)[O-])cc6)c6ccc3[nH]6)C=C5)C=C4)cc2)CCC[C@H](C)C1
REMARK SMILES IDX 11 1 10 2 9 3 7 4 8 5 6 6 75 7 80 8 76 9 78 10 77 11 79 12
REMARK SMILES IDX 5 13 4 14 1 15 2 16 3 17 12 18 13 19 14 20 15 21 16 22 74 23
REMARK SMILES IDX 17 24 73 25 18 26 19 27 20 28 67 29 21 30 72 31 66 32 68 33
REMARK SMILES IDX 22 34 71 35 65 36 64 37 23 39 53 40 34 41 52 42 35 43 38 44
REMARK SMILES IDX 51 45 69 46 36 47 37 48 50 50 70 51 39 52 24 53 25 54 33 55
REMARK SMILES IDX 26 56 32 57 27 58 28 59 29 60 30 61 31 62 54 63 55 64 63 65
REMARK SMILES IDX 56 66 62 67 57 68 58 69 59 70 60 71 61 72 40 73 41 74 49 75
REMARK SMILES IDX 42 76 48 77 43 78 44 79 45 80 46 81 47 82
REMARK H PARENT 68 38 38 49
REMARK Flexibility Score: inf
ROOT
ATOM      1  C   UNL A   1      32.301  28.941  27.095  1.00  0.00     0.275 C 
ENDROOT
BRANCH   1   2
ATOM      2  C   UNL A   1      31.649  27.666  27.637  1.00  0.00     0.274 C 
BRANCH   2   3
ATOM      3  O   UNL A   1      30.742  27.064  26.689  1.00  0.00    -0.462 OA
BRANCH   3   4
ATOM      4  C   UNL A   1      31.079  25.848  26.187  1.00  0.00     0.312 C 
ATOM      5  O   UNL A   1      31.264  24.866  26.896  1.00  0.00    -0.252 OA
BRANCH   4   6
ATOM      6  C   UNL A   1      31.356  25.865  24.661  1.00  0.00     0.072 C 
ATOM      7  C   UNL A   1      32.890  26.088  24.456  1.00  0.00     0.019 C 
ATOM      8  C   UNL A   1      30.598  27.112  24.125  1.00  0.00     0.022 C 
ATOM      9  C   UNL A   1      33.287  26.504  23.048  1.00  0.00     0.001 C 
ATOM     10  C   UNL A   1      31.058  27.632  22.748  1.00  0.00    -0.013 C 
ATOM     11  C   UNL A   1      32.580  27.786  22.658  1.00  0.00     0.003 C 
ATOM     12  C   UNL A   1      30.401  28.979  22.435  1.00  0.00     0.007 C 
BRANCH   6  13
ATOM     13  C   UNL A   1      30.990  24.549  23.893  1.00  0.00     0.046 C 
BRANCH  13  14
ATOM     14  C   UNL A   1      31.651  23.245  24.249  1.00  0.00    -0.027 C 
ATOM     15  C   UNL A   1      33.054  22.949  22.192  1.00  0.00     0.039 C 
ATOM     16  C   UNL A   1      32.557  22.541  23.546  1.00  0.00    -0.080 C 
ATOM     17  C   UNL A   1      33.132  21.282  24.140  1.00  0.00     0.039 C 
ENDBRANCH  13  14
ENDBRANCH   6  13
ENDBRANCH   4   6
ENDBRANCH   3   4
ENDBRANCH   2   3
ENDBRANCH   1   2
BRANCH   1  18
ATOM     18  O   UNL A   1      33.721  28.947  27.330  1.00  0.00    -0.458 OA
BRANCH  18  19
ATOM     19  C   UNL A   1      34.239  30.127  27.739  1.00  0.00     0.338 C 
ATOM     20  O   UNL A   1      33.644  31.179  27.897  1.00  0.00    -0.246 OA
BRANCH  19  21
ATOM     21  C   UNL A   1      35.635  29.929  28.157  1.00  0.00     0.060 A 
ATOM     22  C   UNL A   1      36.608  30.066  27.169  1.00  0.00     0.016 A 
ATOM     23  C   UNL A   1      35.996  29.544  29.446  1.00  0.00     0.016 A 
ATOM     24  C   UNL A   1      37.945  29.818  27.440  1.00  0.00     0.010 A 
ATOM     25  C   UNL A   1      37.347  29.299  29.728  1.00  0.00     0.010 A 
ATOM     26  C   UNL A   1      38.328  29.424  28.725  1.00  0.00    -0.014 A 
BRANCH  26  27
ATOM     27  C   UNL A   1      39.746  29.079  28.980  1.00  0.00     0.031 A 
ATOM     28  C   UNL A   1      40.653  30.099  29.606  1.00  0.00     0.074 A 
ATOM     29  C   UNL A   1      40.202  27.841  28.710  1.00  0.00     0.049 A 
ATOM     30  N   UNL A   1      41.944  30.044  29.803  1.00  0.00    -0.248 NA
ATOM     31  C   UNL A   1      40.023  31.343  30.074  1.00  0.00     0.031 C 
ATOM     32  C   UNL A   1      39.395  26.735  28.189  1.00  0.00     0.029 A 
ATOM     33  N   UNL A   1      41.457  27.304  28.843  1.00  0.00    -0.354 N 
ATOM     34  C   UNL A   1      42.289  31.258  30.384  1.00  0.00     0.074 A 
ATOM     35  C   UNL A   1      41.070  32.029  30.508  1.00  0.00     0.031 C 
ATOM     36  C   UNL A   1      40.176  25.651  28.050  1.00  0.00     0.029 A 
ATOM     37  C   UNL A   1      41.547  26.001  28.412  1.00  0.00     0.049 A 
ATOM     38  H   UNL A   1      42.222  27.804  29.210  1.00  0.00     0.167 HD
ATOM     39  C   UNL A   1      43.512  31.692  30.770  1.00  0.00     0.031 A 
ATOM     40  C   UNL A   1      42.617  25.194  28.286  1.00  0.00     0.031 A 
ATOM     41  C   UNL A   1      44.717  30.915  30.648  1.00  0.00     0.049 A 
ATOM     42  C   UNL A   1      43.976  25.721  28.655  1.00  0.00     0.074 A 
ATOM     43  C   UNL A   1      46.012  31.275  30.977  1.00  0.00     0.029 A 
ATOM     44  N   UNL A   1      44.771  29.616  30.167  1.00  0.00    -0.354 N 
ATOM     45  N   UNL A   1      44.299  26.897  29.140  1.00  0.00    -0.248 NA
ATOM     46  C   UNL A   1      45.118  24.819  28.449  1.00  0.00     0.031 C 
ATOM     47  C   UNL A   1      46.855  30.203  30.662  1.00  0.00     0.029 A 
ATOM     48  C   UNL A   1      46.079  29.161  30.178  1.00  0.00     0.049 A 
ATOM     49  H   UNL A   1      43.995  29.093  29.862  1.00  0.00     0.167 HD
ATOM     50  C   UNL A   1      45.679  26.873  29.304  1.00  0.00     0.074 A 
ATOM     51  C   UNL A   1      46.127  25.561  28.886  1.00  0.00     0.031 C 
ATOM     52  C   UNL A   1      46.502  27.851  29.755  1.00  0.00     0.031 A 
BRANCH  39  53
ATOM     53  C   UNL A   1      43.607  33.093  31.306  1.00  0.00    -0.014 A 
ATOM     54  C   UNL A   1      43.843  34.188  30.456  1.00  0.00     0.010 A 
ATOM     55  C   UNL A   1      43.446  33.316  32.686  1.00  0.00     0.010 A 
ATOM     56  C   UNL A   1      43.956  35.478  30.983  1.00  0.00     0.020 A 
ATOM     57  C   UNL A   1      43.538  34.607  33.213  1.00  0.00     0.020 A 
ATOM     58  C   UNL A   1      43.812  35.678  32.360  1.00  0.00     0.054 A 
BRANCH  58  59
ATOM     59  S   UNL A   1      43.960  37.360  33.022  1.00  0.00     0.124 S 
ATOM     60  O   UNL A   1      42.856  37.406  33.977  1.00  0.00    -0.237 OA
ATOM     61  O   UNL A   1      45.298  37.362  33.608  1.00  0.00    -0.237 OA
ATOM     62  O   UNL A   1      43.799  38.210  31.845  1.00  0.00    -0.744 OA
ENDBRANCH  58  59
ENDBRANCH  39  53
BRANCH  40  63
ATOM     63  C   UNL A   1      42.452  23.824  27.728  1.00  0.00    -0.014 A 
ATOM     64  C   UNL A   1      42.555  23.592  26.346  1.00  0.00     0.010 A 
ATOM     65  C   UNL A   1      42.204  22.738  28.588  1.00  0.00     0.010 A 
ATOM     66  C   UNL A   1      42.405  22.299  25.834  1.00  0.00     0.020 A 
ATOM     67  C   UNL A   1      42.078  21.442  28.082  1.00  0.00     0.020 A 
ATOM     68  C   UNL A   1      42.169  21.232  26.706  1.00  0.00     0.054 A 
BRANCH  68  69
ATOM     69  S   UNL A   1      42.040  19.552  26.032  1.00  0.00     0.124 S 
ATOM     70  O   UNL A   1      42.494  18.740  27.157  1.00  0.00    -0.237 OA
ATOM     71  O   UNL A   1      40.619  19.444  25.709  1.00  0.00    -0.237 OA
ATOM     72  O   UNL A   1      42.933  19.580  24.876  1.00  0.00    -0.744 OA
ENDBRANCH  68  69
ENDBRANCH  40  63
BRANCH  52  73
ATOM     73  C   UNL A   1      47.967  27.530  29.842  1.00  0.00    -0.014 A 
ATOM     74  C   UNL A   1      48.844  27.863  28.796  1.00  0.00     0.010 A 
ATOM     75  C   UNL A   1      48.481  26.938  31.011  1.00  0.00     0.010 A 
ATOM     76  C   UNL A   1      50.210  27.588  28.905  1.00  0.00     0.020 A 
ATOM     77  C   UNL A   1      49.848  26.680  31.132  1.00  0.00     0.020 A 
ATOM     78  C   UNL A   1      50.703  26.996  30.073  1.00  0.00     0.054 A 
BRANCH  78  79
ATOM     79  S   UNL A   1      52.485  26.691  30.217  1.00  0.00     0.124 S 
ATOM     80  O   UNL A   1      52.832  26.274  28.861  1.00  0.00    -0.237 OA
ATOM     81  O   UNL A   1      53.004  27.995  30.625  1.00  0.00    -0.237 OA
ATOM     82  O   UNL A   1      52.576  25.647  31.234  1.00  0.00    -0.744 OA
ENDBRANCH  78  79
ENDBRANCH  52  73
ENDBRANCH  26  27
ENDBRANCH  19  21
ENDBRANCH  18  19
ENDBRANCH   1  18
TORSDOF 16
ENDMDL
MODEL 3
REMARK VINA RESULT:      -9.7      4.996     10.632
REMARK SMILES CC(C)=CC[C@@]1(C(=O)OCCOC(=O)c2ccc(-c3c4nc(c(-c5ccc(S(=O)(=O)[O-])cc5)c5ccc([nH]5)c(-c5ccc(S(=O)(=O)[O-])cc5)c5nc(c(-c6ccc(S(=O)(=O)[O-])cc6)c6ccc3[nH]6)C=C5)C=C4)cc2)CCC[C@H](C)C1
REMARK SMILES IDX 11 1 10 2 9 3 7 4 8 5 6 6 75 7 80 8 76 9 78 10 77 11 79 12
REMARK SMILES IDX 5 13 4 14 1 15 2 16 3 17 12 18 13 19 14 20 15 21 16 22 74 23
REMARK SMILES IDX 17 24 73 25 18 26 19 27 20 28 67 29 21 30 72 31 66 32 68 33
REMARK SMILES IDX 22 34 71 35 65 36 64 37 23 39 53 40 34 41 52 42 35 43 38 44
REMARK SMILES IDX 51 45 69 46 36 47 37 48 50 50 70 51 39 52 24 53 25 54 33 55
REMARK SMILES IDX 26 56 32 57 27 58 28 59 29 60 30 61 31 62 54 63 55 64 63 65
REMARK SMILES IDX 56 66 62 67 57 68 58 69 59 70 60 71 61 72 40 73 41 74 49 75
REMARK SMILES IDX 42 76 48 77 43 78 44 79 45 80 46 81 47 82
REMARK H PARENT 68 38 38 49
REMARK Flexibility Score: inf
ROOT
ATOM      1  C   UNL A   1      38.892  22.852  26.471  1.00  0.00     0.275 C 
ENDROOT
BRANCH   1   2
ATOM      2  C   UNL A   1      37.735  22.456  25.549  1.00  0.00     0.274 C 
BRANCH   2   3
ATOM      3  O   UNL A   1      37.029  23.601  25.026  1.00  0.00    -0.462 OA
BRANCH   3   4
ATOM      4  C   UNL A   1      36.069  23.371  24.094  1.00  0.00     0.312 C 
ATOM      5  O   UNL A   1      36.327  23.009  22.952  1.00  0.00    -0.252 OA
BRANCH   4   6
ATOM      6  C   UNL A   1      34.643  23.758  24.566  1.00  0.00     0.072 C 
ATOM      7  C   UNL A   1      33.756  23.960  23.293  1.00  0.00     0.019 C 
ATOM      8  C   UNL A   1      34.809  25.131  25.275  1.00  0.00     0.022 C 
ATOM      9  C   UNL A   1      32.450  24.698  23.541  1.00  0.00     0.001 C 
ATOM     10  C   UNL A   1      33.520  25.960  25.437  1.00  0.00    -0.013 C 
ATOM     11  C   UNL A   1      32.723  26.065  24.133  1.00  0.00     0.003 C 
ATOM     12  C   UNL A   1      33.846  27.369  25.938  1.00  0.00     0.007 C 
BRANCH   6  13
ATOM     13  C   UNL A   1      33.913  22.694  25.454  1.00  0.00     0.046 C 
BRANCH  13  14
ATOM     14  C   UNL A   1      34.203  21.227  25.287  1.00  0.00    -0.027 C 
ATOM     15  C   UNL A   1      32.369  20.652  23.677  1.00  0.00     0.039 C 
ATOM     16  C   UNL A   1      33.568  20.326  24.516  1.00  0.00    -0.080 C 
ATOM     17  C   UNL A   1      34.083  18.912  24.461  1.00  0.00     0.039 C 
ENDBRANCH  13  14
ENDBRANCH   6  13
ENDBRANCH   4   6
ENDBRANCH   3   4
ENDBRANCH   2   3
ENDBRANCH   1   2
BRANCH   1  18
ATOM     18  O   UNL A   1      38.881  24.265  26.750  1.00  0.00    -0.458 OA
BRANCH  18  19
ATOM     19  C   UNL A   1      40.057  24.904  26.558  1.00  0.00     0.338 C 
ATOM     20  O   UNL A   1      40.799  24.812  25.595  1.00  0.00    -0.246 OA
BRANCH  19  21
ATOM     21  C   UNL A   1      40.250  25.900  27.623  1.00  0.00     0.060 A 
ATOM     22  C   UNL A   1      39.375  25.835  28.705  1.00  0.00     0.016 A 
ATOM     23  C   UNL A   1      41.195  26.920  27.548  1.00  0.00     0.016 A 
ATOM     24  C   UNL A   1      39.419  26.778  29.721  1.00  0.00     0.010 A 
ATOM     25  C   UNL A   1      41.249  27.873  28.575  1.00  0.00     0.010 A 
ATOM     26  C   UNL A   1      40.354  27.814  29.662  1.00  0.00    -0.014 A 
BRANCH  26  27
ATOM     27  C   UNL A   1      40.335  28.863  30.708  1.00  0.00     0.031 A 
ATOM     28  C   UNL A   1      41.341  28.817  31.820  1.00  0.00     0.074 A 
ATOM     29  C   UNL A   1      39.460  29.885  30.627  1.00  0.00     0.049 A 
ATOM     30  N   UNL A   1      41.422  29.562  32.892  1.00  0.00    -0.248 NA
ATOM     31  C   UNL A   1      42.399  27.799  31.710  1.00  0.00     0.031 C 
ATOM     32  C   UNL A   1      38.496  30.092  29.544  1.00  0.00     0.029 A 
ATOM     33  N   UNL A   1      39.246  30.945  31.470  1.00  0.00    -0.354 N 
ATOM     34  C   UNL A   1      42.514  29.082  33.603  1.00  0.00     0.074 A 
ATOM     35  C   UNL A   1      43.066  27.982  32.840  1.00  0.00     0.031 C 
ATOM     36  C   UNL A   1      37.796  31.212  29.788  1.00  0.00     0.029 A 
ATOM     37  C   UNL A   1      38.218  31.766  31.071  1.00  0.00     0.049 A 
ATOM     38  H   UNL A   1      39.776  31.102  32.285  1.00  0.00     0.167 HD
ATOM     39  C   UNL A   1      43.006  29.515  34.788  1.00  0.00     0.031 A 
ATOM     40  C   UNL A   1      37.654  32.822  31.688  1.00  0.00     0.031 A 
ATOM     41  C   UNL A   1      42.455  30.614  35.535  1.00  0.00     0.049 A 
ATOM     42  C   UNL A   1      38.171  33.242  33.037  1.00  0.00     0.074 A 
ATOM     43  C   UNL A   1      42.856  31.110  36.762  1.00  0.00     0.029 A 
ATOM     44  N   UNL A   1      41.387  31.393  35.117  1.00  0.00    -0.354 N 
ATOM     45  N   UNL A   1      39.163  32.736  33.731  1.00  0.00    -0.248 NA
ATOM     46  C   UNL A   1      37.487  34.366  33.690  1.00  0.00     0.031 C 
ATOM     47  C   UNL A   1      42.007  32.170  37.103  1.00  0.00     0.029 A 
ATOM     48  C   UNL A   1      41.106  32.360  36.067  1.00  0.00     0.049 A 
ATOM     49  H   UNL A   1      40.899  31.276  34.270  1.00  0.00     0.167 HD
ATOM     50  C   UNL A   1      39.226  33.485  34.900  1.00  0.00     0.074 A 
ATOM     51  C   UNL A   1      38.186  34.490  34.811  1.00  0.00     0.031 C 
ATOM     52  C   UNL A   1      40.064  33.350  35.957  1.00  0.00     0.031 A 
BRANCH  39  53
ATOM     53  C   UNL A   1      44.166  28.755  35.370  1.00  0.00    -0.014 A 
ATOM     54  C   UNL A   1      45.494  29.128  35.101  1.00  0.00     0.010 A 
ATOM     55  C   UNL A   1      43.917  27.655  36.211  1.00  0.00     0.010 A 
ATOM     56  C   UNL A   1      46.555  28.388  35.631  1.00  0.00     0.020 A 
ATOM     57  C   UNL A   1      44.975  26.926  36.760  1.00  0.00     0.020 A 
ATOM     58  C   UNL A   1      46.288  27.286  36.450  1.00  0.00     0.054 A 
BRANCH  58  59
ATOM     59  S   UNL A   1      47.680  26.341  37.129  1.00  0.00     0.124 S 
ATOM     60  O   UNL A   1      47.006  25.174  37.690  1.00  0.00    -0.237 OA
ATOM     61  O   UNL A   1      48.504  26.085  35.950  1.00  0.00    -0.237 OA
ATOM     62  O   UNL A   1      48.269  27.250  38.110  1.00  0.00    -0.744 OA
ENDBRANCH  58  59
ENDBRANCH  39  53
BRANCH  40  63
ATOM     63  C   UNL A   1      36.495  33.515  31.062  1.00  0.00    -0.014 A 
ATOM     64  C   UNL A   1      35.397  33.925  31.837  1.00  0.00     0.010 A 
ATOM     65  C   UNL A   1      36.495  33.780  29.680  1.00  0.00     0.010 A 
ATOM     66  C   UNL A   1      34.316  34.582  31.238  1.00  0.00     0.020 A 
ATOM     67  C   UNL A   1      35.429  34.457  29.084  1.00  0.00     0.020 A 
ATOM     68  C   UNL A   1      34.340  34.845  29.865  1.00  0.00     0.054 A 
BRANCH  68  69
ATOM     69  S   UNL A   1      32.959  35.753  29.115  1.00  0.00     0.124 S 
ATOM     70  O   UNL A   1      32.398  34.755  28.211  1.00  0.00    -0.237 OA
ATOM     71  O   UNL A   1      32.134  36.094  30.271  1.00  0.00    -0.237 OA
ATOM     72  O   UNL A   1      33.612  36.890  28.469  1.00  0.00    -0.744 OA
ENDBRANCH  68  69
ENDBRANCH  40  63
BRANCH  52  73
ATOM     73  C   UNL A   1      39.909  34.326  37.088  1.00  0.00    -0.014 A 
ATOM     74  C   UNL A   1      40.567  35.568  37.066  1.00  0.00     0.010 A 
ATOM     75  C   UNL A   1      39.051  34.019  38.160  1.00  0.00     0.010 A 
ATOM     76  C   UNL A   1      40.387  36.480  38.110  1.00  0.00     0.020 A 
ATOM     77  C   UNL A   1      38.852  34.935  39.194  1.00  0.00     0.020 A 
ATOM     78  C   UNL A   1      39.532  36.156  39.169  1.00  0.00     0.054 A 
BRANCH  78  79
ATOM     79  S   UNL A   1      39.272  37.372  40.490  1.00  0.00     0.124 S 
ATOM     80  O   UNL A   1      38.876  36.523  41.610  1.00  0.00    -0.237 OA
ATOM     81  O   UNL A   1      40.586  38.002  40.612  1.00  0.00    -0.237 OA
ATOM     82  O   UNL A   1      38.222  38.238  39.960  1.00  0.00    -0.744 OA
ENDBRANCH  78  79
ENDBRANCH  52  73
ENDBRANCH  26  27
ENDBRANCH  19  21
ENDBRANCH  18  19
ENDBRANCH   1  18
TORSDOF 16
ENDMDL
