MODEL 1
REMARK VINA RESULT:     -10.4      0.000      0.000
REMARK SMILES C[NH2+][C@@]1(C(=O)OCCOC(=O)c2ccc(-c3c4nc(c(-c5ccc(S(=O)(=O)[O-])cc5)c5ccc([nH]5)c(-c5ccc(S(=O)(=O)[O-])cc5)c5nc(c(-c6ccc(S(=O)(=O)[O-])cc6)c6ccc3[nH]6)C=C5)C=C4)cc2)CCC[C@H](Oc2cccc(OC)c2)C1
REMARK SMILES IDX 7 1 6 2 4 3 5 4 3 5 72 6 85 7 73 8 75 9 74 10 2 11 1 12
REMARK SMILES IDX 76 15 77 16 78 17 84 18 79 19 81 20 80 21 82 22 83 23 8 24
REMARK SMILES IDX 9 25 10 26 11 27 12 28 13 29 71 30 14 31 70 32 15 33 16 34
REMARK SMILES IDX 17 35 64 36 18 37 69 38 63 39 65 40 19 41 68 42 62 43 61 44
REMARK SMILES IDX 20 46 50 47 31 48 49 49 32 50 35 51 48 52 66 53 33 54 34 55
REMARK SMILES IDX 47 57 67 58 36 59 21 60 22 61 30 62 23 63 29 64 24 65 25 66
REMARK SMILES IDX 26 67 27 68 28 69 51 70 52 71 60 72 53 73 59 74 54 75 55 76
REMARK SMILES IDX 56 77 57 78 58 79 37 80 38 81 46 82 39 83 45 84 40 85 41 86
REMARK SMILES IDX 42 87 43 88 44 89
REMARK H PARENT 2 13 2 14 65 45 35 56
REMARK Flexibility Score: inf
ROOT
ATOM      1  C   UNL A   1      32.169  28.540  25.936  1.00  0.00     0.274 C 
ENDROOT
BRANCH   1   2
ATOM      2  O   UNL A   1      31.869  27.136  25.801  1.00  0.00    -0.457 OA
BRANCH   2   3
ATOM      3  C   UNL A   1      32.805  26.366  25.196  1.00  0.00     0.368 C 
ATOM      4  O   UNL A   1      34.013  26.567  25.307  1.00  0.00    -0.245 OA
BRANCH   3   5
ATOM      5  C   UNL A   1      32.209  25.190  24.332  1.00  0.00     0.197 C 
ATOM      6  C   UNL A   1      33.266  24.938  23.232  1.00  0.00     0.081 C 
ATOM      7  C   UNL A   1      30.808  25.441  23.701  1.00  0.00     0.126 C 
ATOM      8  C   UNL A   1      33.261  26.053  22.191  1.00  0.00     0.011 C 
ATOM      9  C   UNL A   1      30.759  26.400  22.488  1.00  0.00     0.180 C 
ATOM     10  C   UNL A   1      31.903  26.107  21.509  1.00  0.00     0.046 C 
BRANCH   5  11
ATOM     11  N   UNL A   1      32.068  24.047  25.286  1.00  0.00    -0.334 N 
ATOM     12  C   UNL A   1      31.062  23.043  24.997  1.00  0.00     0.331 C 
ATOM     13  H   UNL A   1      32.970  23.570  25.326  1.00  0.00     0.347 HD
ATOM     14  H   UNL A   1      31.757  24.477  26.157  1.00  0.00     0.347 HD
ENDBRANCH   5  11
BRANCH   9  15
ATOM     15  O   UNL A   1      30.800  27.722  23.017  1.00  0.00    -0.490 OA
BRANCH  15  16
ATOM     16  C   UNL A   1      29.687  28.490  23.148  1.00  0.00     0.123 A 
ATOM     17  C   UNL A   1      28.367  28.095  22.967  1.00  0.00     0.047 A 
ATOM     18  C   UNL A   1      29.972  29.827  23.447  1.00  0.00     0.092 A 
ATOM     19  C   UNL A   1      27.353  29.056  22.976  1.00  0.00     0.008 A 
ATOM     20  C   UNL A   1      28.970  30.792  23.465  1.00  0.00     0.122 A 
ATOM     21  C   UNL A   1      27.658  30.400  23.206  1.00  0.00     0.046 A 
BRANCH  20  22
ATOM     22  O   UNL A   1      29.152  32.127  23.699  1.00  0.00    -0.497 OA
ATOM     23  C   UNL A   1      28.625  33.020  22.722  1.00  0.00     0.278 C 
ENDBRANCH  20  22
ENDBRANCH  15  16
ENDBRANCH   9  15
ENDBRANCH   3   5
ENDBRANCH   2   3
ENDBRANCH   1   2
BRANCH   1  24
ATOM     24  C   UNL A   1      32.462  28.859  27.398  1.00  0.00     0.275 C 
BRANCH  24  25
ATOM     25  O   UNL A   1      33.884  28.897  27.588  1.00  0.00    -0.458 OA
BRANCH  25  26
ATOM     26  C   UNL A   1      34.382  30.117  27.889  1.00  0.00     0.338 C 
ATOM     27  O   UNL A   1      33.787  31.175  27.972  1.00  0.00    -0.246 OA
BRANCH  26  28
ATOM     28  C   UNL A   1      35.794  29.957  28.247  1.00  0.00     0.060 A 
ATOM     29  C   UNL A   1      36.746  30.128  27.245  1.00  0.00     0.016 A 
ATOM     30  C   UNL A   1      36.165  29.549  29.523  1.00  0.00     0.016 A 
ATOM     31  C   UNL A   1      38.074  29.800  27.486  1.00  0.00     0.010 A 
ATOM     32  C   UNL A   1      37.515  29.308  29.789  1.00  0.00     0.010 A 
ATOM     33  C   UNL A   1      38.478  29.400  28.765  1.00  0.00    -0.014 A 
BRANCH  33  34
ATOM     34  C   UNL A   1      39.899  29.058  29.028  1.00  0.00     0.031 A 
ATOM     35  C   UNL A   1      40.817  30.086  29.630  1.00  0.00     0.074 A 
ATOM     36  C   UNL A   1      40.364  27.828  28.730  1.00  0.00     0.049 A 
ATOM     37  N   UNL A   1      42.117  30.053  29.768  1.00  0.00    -0.248 NA
ATOM     38  C   UNL A   1      40.191  31.320  30.134  1.00  0.00     0.031 C 
ATOM     39  C   UNL A   1      39.565  26.724  28.193  1.00  0.00     0.029 A 
ATOM     40  N   UNL A   1      41.625  27.299  28.840  1.00  0.00    -0.354 N 
ATOM     41  C   UNL A   1      42.471  31.279  30.318  1.00  0.00     0.074 A 
ATOM     42  C   UNL A   1      41.249  32.034  30.493  1.00  0.00     0.031 C 
ATOM     43  C   UNL A   1      40.346  25.643  28.049  1.00  0.00     0.029 A 
ATOM     44  C   UNL A   1      41.715  25.999  28.403  1.00  0.00     0.049 A 
ATOM     45  H   UNL A   1      42.392  27.803  29.198  1.00  0.00     0.167 HD
ATOM     46  C   UNL A   1      43.706  31.735  30.639  1.00  0.00     0.031 A 
ATOM     47  C   UNL A   1      42.784  25.194  28.260  1.00  0.00     0.031 A 
ATOM     48  C   UNL A   1      44.911  30.964  30.489  1.00  0.00     0.049 A 
ATOM     49  C   UNL A   1      44.146  25.729  28.598  1.00  0.00     0.074 A 
ATOM     50  C   UNL A   1      46.213  31.333  30.775  1.00  0.00     0.029 A 
ATOM     51  N   UNL A   1      44.957  29.657  30.025  1.00  0.00    -0.354 N 
ATOM     52  N   UNL A   1      44.472  26.915  29.055  1.00  0.00    -0.248 NA
ATOM     53  C   UNL A   1      45.284  24.826  28.387  1.00  0.00     0.031 C 
ATOM     54  C   UNL A   1      47.052  30.258  30.455  1.00  0.00     0.029 A 
ATOM     55  C   UNL A   1      46.266  29.207  30.010  1.00  0.00     0.049 A 
ATOM     56  H   UNL A   1      44.175  29.129  29.747  1.00  0.00     0.167 HD
ATOM     57  C   UNL A   1      45.854  26.899  29.190  1.00  0.00     0.074 A 
ATOM     58  C   UNL A   1      46.300  25.579  28.789  1.00  0.00     0.031 C 
ATOM     59  C   UNL A   1      46.683  27.890  29.602  1.00  0.00     0.031 A 
BRANCH  46  60
ATOM     60  C   UNL A   1      43.813  33.152  31.139  1.00  0.00    -0.014 A 
ATOM     61  C   UNL A   1      43.950  34.235  30.254  1.00  0.00     0.010 A 
ATOM     62  C   UNL A   1      43.759  33.400  32.522  1.00  0.00     0.010 A 
ATOM     63  C   UNL A   1      44.074  35.538  30.746  1.00  0.00     0.020 A 
ATOM     64  C   UNL A   1      43.860  34.703  33.018  1.00  0.00     0.020 A 
ATOM     65  C   UNL A   1      44.038  35.763  32.126  1.00  0.00     0.054 A 
BRANCH  65  66
ATOM     66  S   UNL A   1      44.198  37.462  32.743  1.00  0.00     0.124 S 
ATOM     67  O   UNL A   1      43.079  37.549  33.677  1.00  0.00    -0.237 OA
ATOM     68  O   UNL A   1      45.525  37.460  33.353  1.00  0.00    -0.237 OA
ATOM     69  O   UNL A   1      44.070  38.281  31.540  1.00  0.00    -0.744 OA
ENDBRANCH  65  66
ENDBRANCH  46  60
BRANCH  47  70
ATOM     70  C   UNL A   1      42.606  23.818  27.723  1.00  0.00    -0.014 A 
ATOM     71  C   UNL A   1      42.741  23.563  26.348  1.00  0.00     0.010 A 
ATOM     72  C   UNL A   1      42.339  22.746  28.596  1.00  0.00     0.010 A 
ATOM     73  C   UNL A   1      42.609  22.262  25.854  1.00  0.00     0.020 A 
ATOM     74  C   UNL A   1      42.233  21.441  28.109  1.00  0.00     0.020 A 
ATOM     75  C   UNL A   1      42.359  21.208  26.739  1.00  0.00     0.054 A 
BRANCH  75  76
ATOM     76  S   UNL A   1      42.262  19.516  26.090  1.00  0.00     0.124 S 
ATOM     77  O   UNL A   1      43.181  19.573  24.958  1.00  0.00    -0.237 OA
ATOM     78  O   UNL A   1      42.707  18.711  27.226  1.00  0.00    -0.237 OA
ATOM     79  O   UNL A   1      40.850  19.364  25.746  1.00  0.00    -0.744 OA
ENDBRANCH  75  76
ENDBRANCH  47  70
BRANCH  59  80
ATOM     80  C   UNL A   1      48.150  27.572  29.660  1.00  0.00    -0.014 A 
ATOM     81  C   UNL A   1      48.982  27.790  28.548  1.00  0.00     0.010 A 
ATOM     82  C   UNL A   1      48.709  27.088  30.856  1.00  0.00     0.010 A 
ATOM     83  C   UNL A   1      50.346  27.503  28.623  1.00  0.00     0.020 A 
ATOM     84  C   UNL A   1      50.076  26.819  30.941  1.00  0.00     0.020 A 
ATOM     85  C   UNL A   1      50.885  27.015  29.818  1.00  0.00     0.054 A 
BRANCH  85  86
ATOM     86  S   UNL A   1      52.665  26.686  29.906  1.00  0.00     0.124 S 
ATOM     87  O   UNL A   1      53.205  28.011  30.197  1.00  0.00    -0.237 OA
ATOM     88  O   UNL A   1      52.763  25.715  30.994  1.00  0.00    -0.237 OA
ATOM     89  O   UNL A   1      52.984  26.158  28.581  1.00  0.00    -0.744 OA
ENDBRANCH  85  86
ENDBRANCH  59  80
ENDBRANCH  33  34
ENDBRANCH  26  28
ENDBRANCH  25  26
ENDBRANCH  24  25
ENDBRANCH   1  24
TORSDOF 18
ENDMDL
MODEL 2
REMARK VINA RESULT:     -10.1      1.453      3.703
REMARK SMILES C[NH2+][C@@]1(C(=O)OCCOC(=O)c2ccc(-c3c4nc(c(-c5ccc(S(=O)(=O)[O-])cc5)c5ccc([nH]5)c(-c5ccc(S(=O)(=O)[O-])cc5)c5nc(c(-c6ccc(S(=O)(=O)[O-])cc6)c6ccc3[nH]6)C=C5)C=C4)cc2)CCC[C@H](Oc2cccc(OC)c2)C1
REMARK SMILES IDX 7 1 6 2 4 3 5 4 3 5 72 6 85 7 73 8 75 9 74 10 2 11 1 12
REMARK SMILES IDX 76 15 77 16 78 17 84 18 79 19 81 20 80 21 82 22 83 23 8 24
REMARK SMILES IDX 9 25 10 26 11 27 12 28 13 29 71 30 14 31 70 32 15 33 16 34
REMARK SMILES IDX 17 35 64 36 18 37 69 38 63 39 65 40 19 41 68 42 62 43 61 44
REMARK SMILES IDX 20 46 50 47 31 48 49 49 32 50 35 51 48 52 66 53 33 54 34 55
REMARK SMILES IDX 47 57 67 58 36 59 21 60 22 61 30 62 23 63 29 64 24 65 25 66
REMARK SMILES IDX 26 67 27 68 28 69 51 70 52 71 60 72 53 73 59 74 54 75 55 76
REMARK SMILES IDX 56 77 57 78 58 79 37 80 38 81 46 82 39 83 45 84 40 85 41 86
REMARK SMILES IDX 42 87 43 88 44 89
REMARK H PARENT 2 13 2 14 65 45 35 56
REMARK Flexibility Score: inf
ROOT
ATOM      1  C   UNL A   1      32.095  28.956  25.872  1.00  0.00     0.274 C 
ENDROOT
BRANCH   1   2
ATOM      2  O   UNL A   1      32.121  27.680  25.201  1.00  0.00    -0.457 OA
BRANCH   2   3
ATOM      3  C   UNL A   1      32.827  27.611  24.047  1.00  0.00     0.368 C 
ATOM      4  O   UNL A   1      33.962  28.066  23.926  1.00  0.00    -0.245 OA
BRANCH   3   5
ATOM      5  C   UNL A   1      32.060  26.898  22.867  1.00  0.00     0.197 C 
ATOM      6  C   UNL A   1      30.913  26.124  23.557  1.00  0.00     0.081 C 
ATOM      7  C   UNL A   1      32.907  25.945  21.973  1.00  0.00     0.126 C 
ATOM      8  C   UNL A   1      31.437  24.902  24.302  1.00  0.00     0.011 C 
ATOM      9  C   UNL A   1      33.291  24.579  22.591  1.00  0.00     0.180 C 
ATOM     10  C   UNL A   1      32.096  23.948  23.317  1.00  0.00     0.046 C 
BRANCH   5  11
ATOM     11  N   UNL A   1      31.579  28.013  21.995  1.00  0.00    -0.334 N 
ATOM     12  C   UNL A   1      30.621  28.946  22.554  1.00  0.00     0.331 C 
ATOM     13  H   UNL A   1      32.397  28.552  21.710  1.00  0.00     0.347 HD
ATOM     14  H   UNL A   1      31.072  27.548  21.241  1.00  0.00     0.347 HD
ENDBRANCH   5  11
BRANCH   9  15
ATOM     15  O   UNL A   1      34.402  24.823  23.449  1.00  0.00    -0.490 OA
BRANCH  15  16
ATOM     16  C   UNL A   1      35.081  23.821  24.065  1.00  0.00     0.123 A 
ATOM     17  C   UNL A   1      36.029  22.977  23.499  1.00  0.00     0.047 A 
ATOM     18  C   UNL A   1      34.701  23.635  25.399  1.00  0.00     0.092 A 
ATOM     19  C   UNL A   1      36.507  21.888  24.232  1.00  0.00     0.008 A 
ATOM     20  C   UNL A   1      35.176  22.558  26.141  1.00  0.00     0.122 A 
ATOM     21  C   UNL A   1      36.068  21.672  25.540  1.00  0.00     0.046 A 
BRANCH  20  22
ATOM     22  O   UNL A   1      34.829  22.264  27.431  1.00  0.00    -0.497 OA
ATOM     23  C   UNL A   1      33.454  21.978  27.669  1.00  0.00     0.278 C 
ENDBRANCH  20  22
ENDBRANCH  15  16
ENDBRANCH   9  15
ENDBRANCH   3   5
ENDBRANCH   2   3
ENDBRANCH   1   2
BRANCH   1  24
ATOM     24  C   UNL A   1      32.412  28.759  27.350  1.00  0.00     0.275 C 
BRANCH  24  25
ATOM     25  O   UNL A   1      33.835  28.823  27.531  1.00  0.00    -0.458 OA
BRANCH  25  26
ATOM     26  C   UNL A   1      34.301  30.027  27.931  1.00  0.00     0.338 C 
ATOM     27  O   UNL A   1      33.676  31.057  28.107  1.00  0.00    -0.246 OA
BRANCH  26  28
ATOM     28  C   UNL A   1      35.719  29.879  28.266  1.00  0.00     0.060 A 
ATOM     29  C   UNL A   1      36.657  30.125  27.267  1.00  0.00     0.016 A 
ATOM     30  C   UNL A   1      36.112  29.409  29.515  1.00  0.00     0.016 A 
ATOM     31  C   UNL A   1      37.994  29.813  27.476  1.00  0.00     0.010 A 
ATOM     32  C   UNL A   1      37.470  29.183  29.754  1.00  0.00     0.010 A 
ATOM     33  C   UNL A   1      38.419  29.352  28.728  1.00  0.00    -0.014 A 
BRANCH  33  34
ATOM     34  C   UNL A   1      39.850  29.027  28.958  1.00  0.00     0.031 A 
ATOM     35  C   UNL A   1      40.771  30.068  29.532  1.00  0.00     0.074 A 
ATOM     36  C   UNL A   1      40.321  27.801  28.656  1.00  0.00     0.049 A 
ATOM     37  N   UNL A   1      42.075  30.050  29.638  1.00  0.00    -0.248 NA
ATOM     38  C   UNL A   1      40.144  31.299  30.044  1.00  0.00     0.031 C 
ATOM     39  C   UNL A   1      39.521  26.684  28.145  1.00  0.00     0.029 A 
ATOM     40  N   UNL A   1      41.590  27.286  28.738  1.00  0.00    -0.354 N 
ATOM     41  C   UNL A   1      42.428  31.283  30.172  1.00  0.00     0.074 A 
ATOM     42  C   UNL A   1      41.203  32.026  30.372  1.00  0.00     0.031 C 
ATOM     43  C   UNL A   1      40.310  25.611  27.989  1.00  0.00     0.029 A 
ATOM     44  C   UNL A   1      41.684  25.984  28.307  1.00  0.00     0.049 A 
ATOM     45  H   UNL A   1      42.360  27.800  29.074  1.00  0.00     0.167 HD
ATOM     46  C   UNL A   1      43.665  31.755  30.460  1.00  0.00     0.031 A 
ATOM     47  C   UNL A   1      42.758  25.190  28.142  1.00  0.00     0.031 A 
ATOM     48  C   UNL A   1      44.875  30.995  30.286  1.00  0.00     0.049 A 
ATOM     49  C   UNL A   1      44.121  25.741  28.444  1.00  0.00     0.074 A 
ATOM     50  C   UNL A   1      46.180  31.380  30.538  1.00  0.00     0.029 A 
ATOM     51  N   UNL A   1      44.924  29.686  29.828  1.00  0.00    -0.354 N 
ATOM     52  N   UNL A   1      44.445  26.933  28.885  1.00  0.00    -0.248 NA
ATOM     53  C   UNL A   1      45.264  24.849  28.210  1.00  0.00     0.031 C 
ATOM     54  C   UNL A   1      47.022  30.313  30.203  1.00  0.00     0.029 A 
ATOM     55  C   UNL A   1      46.237  29.250  29.784  1.00  0.00     0.049 A 
ATOM     56  H   UNL A   1      44.142  29.148  29.572  1.00  0.00     0.167 HD
ATOM     57  C   UNL A   1      45.831  26.933  28.987  1.00  0.00     0.074 A 
ATOM     58  C   UNL A   1      46.280  25.615  28.583  1.00  0.00     0.031 C 
ATOM     59  C   UNL A   1      46.658  27.936  29.374  1.00  0.00     0.031 A 
BRANCH  46  60
ATOM     60  C   UNL A   1      43.769  33.175  30.949  1.00  0.00    -0.014 A 
ATOM     61  C   UNL A   1      44.036  33.471  32.297  1.00  0.00     0.010 A 
ATOM     62  C   UNL A   1      43.611  34.231  30.033  1.00  0.00     0.010 A 
ATOM     63  C   UNL A   1      44.100  34.800  32.728  1.00  0.00     0.020 A 
ATOM     64  C   UNL A   1      43.696  35.561  30.456  1.00  0.00     0.020 A 
ATOM     65  C   UNL A   1      43.921  35.837  31.807  1.00  0.00     0.054 A 
BRANCH  65  66
ATOM     66  S   UNL A   1      44.012  37.553  32.388  1.00  0.00     0.124 S 
ATOM     67  O   UNL A   1      45.390  37.637  32.863  1.00  0.00    -0.237 OA
ATOM     68  O   UNL A   1      43.718  38.320  31.180  1.00  0.00    -0.237 OA
ATOM     69  O   UNL A   1      42.989  37.622  33.429  1.00  0.00    -0.744 OA
ENDBRANCH  65  66
ENDBRANCH  46  60
BRANCH  47  70
ATOM     70  C   UNL A   1      42.582  23.809  27.618  1.00  0.00    -0.014 A 
ATOM     71  C   UNL A   1      42.743  23.536  26.248  1.00  0.00     0.010 A 
ATOM     72  C   UNL A   1      42.290  22.748  28.497  1.00  0.00     0.010 A 
ATOM     73  C   UNL A   1      42.612  22.231  25.767  1.00  0.00     0.020 A 
ATOM     74  C   UNL A   1      42.185  21.438  28.023  1.00  0.00     0.020 A 
ATOM     75  C   UNL A   1      42.337  21.189  26.659  1.00  0.00     0.054 A 
BRANCH  75  76
ATOM     76  S   UNL A   1      42.243  19.490  26.028  1.00  0.00     0.124 S 
ATOM     77  O   UNL A   1      42.670  18.712  27.186  1.00  0.00    -0.237 OA
ATOM     78  O   UNL A   1      40.833  19.360  25.665  1.00  0.00    -0.237 OA
ATOM     79  O   UNL A   1      43.170  19.495  24.898  1.00  0.00    -0.744 OA
ENDBRANCH  75  76
ENDBRANCH  47  70
BRANCH  59  80
ATOM     80  C   UNL A   1      48.130  27.633  29.397  1.00  0.00    -0.014 A 
ATOM     81  C   UNL A   1      48.723  27.012  30.509  1.00  0.00     0.010 A 
ATOM     82  C   UNL A   1      48.918  27.936  28.273  1.00  0.00     0.010 A 
ATOM     83  C   UNL A   1      50.089  26.723  30.508  1.00  0.00     0.020 A 
ATOM     84  C   UNL A   1      50.281  27.630  28.260  1.00  0.00     0.020 A 
ATOM     85  C   UNL A   1      50.861  27.038  29.385  1.00  0.00     0.054 A 
BRANCH  85  86
ATOM     86  S   UNL A   1      52.625  26.619  29.388  1.00  0.00     0.124 S 
ATOM     87  O   UNL A   1      52.758  25.876  30.638  1.00  0.00    -0.237 OA
ATOM     88  O   UNL A   1      52.774  25.830  28.169  1.00  0.00    -0.237 OA
ATOM     89  O   UNL A   1      53.288  27.922  29.363  1.00  0.00    -0.744 OA
ENDBRANCH  85  86
ENDBRANCH  59  80
ENDBRANCH  33  34
ENDBRANCH  26  28
ENDBRANCH  25  26
ENDBRANCH  24  25
ENDBRANCH   1  24
TORSDOF 18
ENDMDL
MODEL 3
REMARK VINA RESULT:      -9.9      4.984     10.418
REMARK SMILES C[NH2+][C@@]1(C(=O)OCCOC(=O)c2ccc(-c3c4nc(c(-c5ccc(S(=O)(=O)[O-])cc5)c5ccc([nH]5)c(-c5ccc(S(=O)(=O)[O-])cc5)c5nc(c(-c6ccc(S(=O)(=O)[O-])cc6)c6ccc3[nH]6)C=C5)C=C4)cc2)CCC[C@H](Oc2cccc(OC)c2)C1
REMARK SMILES IDX 7 1 6 2 4 3 5 4 3 5 72 6 85 7 73 8 75 9 74 10 2 11 1 12
REMARK SMILES IDX 76 15 77 16 78 17 84 18 79 19 81 20 80 21 82 22 83 23 8 24
REMARK SMILES IDX 9 25 10 26 11 27 12 28 13 29 71 30 14 31 70 32 15 33 16 34
REMARK SMILES IDX 17 35 64 36 18 37 69 38 63 39 65 40 19 41 68 42 62 43 61 44
REMARK SMILES IDX 20 46 50 47 31 48 49 49 32 50 35 51 48 52 66 53 33 54 34 55
REMARK SMILES IDX 47 57 67 58 36 59 21 60 22 61 30 62 23 63 29 64 24 65 25 66
REMARK SMILES IDX 26 67 27 68 28 69 51 70 52 71 60 72 53 73 59 74 54 75 55 76
REMARK SMILES IDX 56 77 57 78 58 79 37 80 38 81 46 82 39 83 45 84 40 85 41 86
REMARK SMILES IDX 42 87 43 88 44 89
REMARK H PARENT 2 13 2 14 65 45 35 56
REMARK Flexibility Score: inf
ROOT
ATOM      1  C   UNL A   1      36.442  23.605  26.087  1.00  0.00     0.274 C 
ENDROOT
BRANCH   1   2
ATOM      2  O   UNL A   1      35.656  24.246  25.063  1.00  0.00    -0.457 OA
BRANCH   2   3
ATOM      3  C   UNL A   1      35.293  23.484  24.004  1.00  0.00     0.368 C 
ATOM      4  O   UNL A   1      35.970  23.388  22.982  1.00  0.00    -0.245 OA
BRANCH   3   5
ATOM      5  C   UNL A   1      33.919  22.733  24.194  1.00  0.00     0.197 C 
ATOM      6  C   UNL A   1      33.342  22.606  22.764  1.00  0.00     0.081 C 
ATOM      7  C   UNL A   1      32.890  23.412  25.144  1.00  0.00     0.126 C 
ATOM      8  C   UNL A   1      32.835  23.948  22.249  1.00  0.00     0.011 C 
ATOM      9  C   UNL A   1      32.166  24.664  24.597  1.00  0.00     0.180 C 
ATOM     10  C   UNL A   1      31.713  24.448  23.147  1.00  0.00     0.046 C 
BRANCH   5  11
ATOM     11  N   UNL A   1      34.283  21.416  24.801  1.00  0.00    -0.334 N 
ATOM     12  C   UNL A   1      33.672  21.061  26.067  1.00  0.00     0.331 C 
ATOM     13  H   UNL A   1      34.031  20.690  24.128  1.00  0.00     0.347 HD
ATOM     14  H   UNL A   1      35.278  21.497  25.011  1.00  0.00     0.347 HD
ENDBRANCH   5  11
BRANCH   9  15
ATOM     15  O   UNL A   1      33.075  25.752  24.743  1.00  0.00    -0.490 OA
BRANCH  15  16
ATOM     16  C   UNL A   1      32.679  26.983  25.156  1.00  0.00     0.123 A 
ATOM     17  C   UNL A   1      31.647  27.754  24.633  1.00  0.00     0.047 A 
ATOM     18  C   UNL A   1      33.468  27.499  26.190  1.00  0.00     0.092 A 
ATOM     19  C   UNL A   1      31.483  29.071  25.066  1.00  0.00     0.008 A 
ATOM     20  C   UNL A   1      33.310  28.808  26.635  1.00  0.00     0.122 A 
ATOM     21  C   UNL A   1      32.323  29.599  26.050  1.00  0.00     0.046 A 
BRANCH  20  22
ATOM     22  O   UNL A   1      34.060  29.418  27.602  1.00  0.00    -0.497 OA
ATOM     23  C   UNL A   1      35.470  29.437  27.394  1.00  0.00     0.278 C 
ENDBRANCH  20  22
ENDBRANCH  15  16
ENDBRANCH   9  15
ENDBRANCH   3   5
ENDBRANCH   2   3
ENDBRANCH   1   2
BRANCH   1  24
ATOM     24  C   UNL A   1      37.923  23.746  25.754  1.00  0.00     0.275 C 
BRANCH  24  25
ATOM     25  O   UNL A   1      38.618  24.212  26.920  1.00  0.00    -0.458 OA
BRANCH  25  26
ATOM     26  C   UNL A   1      39.770  24.873  26.667  1.00  0.00     0.338 C 
ATOM     27  O   UNL A   1      40.481  24.799  25.681  1.00  0.00    -0.246 OA
BRANCH  26  28
ATOM     28  C   UNL A   1      39.987  25.841  27.745  1.00  0.00     0.060 A 
ATOM     29  C   UNL A   1      39.238  25.700  28.911  1.00  0.00     0.016 A 
ATOM     30  C   UNL A   1      40.842  26.924  27.571  1.00  0.00     0.016 A 
ATOM     31  C   UNL A   1      39.266  26.696  29.878  1.00  0.00     0.010 A 
ATOM     32  C   UNL A   1      40.938  27.878  28.587  1.00  0.00     0.010 A 
ATOM     33  C   UNL A   1      40.127  27.791  29.735  1.00  0.00    -0.014 A 
BRANCH  33  34
ATOM     34  C   UNL A   1      40.166  28.852  30.773  1.00  0.00     0.031 A 
ATOM     35  C   UNL A   1      41.162  28.764  31.896  1.00  0.00     0.074 A 
ATOM     36  C   UNL A   1      39.313  29.894  30.706  1.00  0.00     0.049 A 
ATOM     37  N   UNL A   1      41.239  29.477  32.990  1.00  0.00    -0.248 NA
ATOM     38  C   UNL A   1      42.202  27.728  31.781  1.00  0.00     0.031 C 
ATOM     39  C   UNL A   1      38.336  30.126  29.639  1.00  0.00     0.029 A 
ATOM     40  N   UNL A   1      39.132  30.957  31.555  1.00  0.00    -0.354 N 
ATOM     41  C   UNL A   1      42.295  28.942  33.718  1.00  0.00     0.074 A 
ATOM     42  C   UNL A   1      42.832  27.845  32.942  1.00  0.00     0.031 C 
ATOM     43  C   UNL A   1      37.682  31.272  29.881  1.00  0.00     0.029 A 
ATOM     44  C   UNL A   1      38.132  31.811  31.159  1.00  0.00     0.049 A 
ATOM     45  H   UNL A   1      39.668  31.093  32.370  1.00  0.00     0.167 HD
ATOM     46  C   UNL A   1      42.766  29.326  34.929  1.00  0.00     0.031 A 
ATOM     47  C   UNL A   1      37.602  32.886  31.773  1.00  0.00     0.031 A 
ATOM     48  C   UNL A   1      42.243  30.437  35.678  1.00  0.00     0.049 A 
ATOM     49  C   UNL A   1      38.123  33.278  33.125  1.00  0.00     0.074 A 
ATOM     50  C   UNL A   1      42.640  30.907  36.917  1.00  0.00     0.029 A 
ATOM     51  N   UNL A   1      41.216  31.265  35.247  1.00  0.00    -0.354 N 
ATOM     52  N   UNL A   1      39.077  32.721  33.831  1.00  0.00    -0.248 NA
ATOM     53  C   UNL A   1      37.484  34.432  33.772  1.00  0.00     0.031 C 
ATOM     54  C   UNL A   1      41.832  32.001  37.250  1.00  0.00     0.029 A 
ATOM     55  C   UNL A   1      40.961  32.238  36.198  1.00  0.00     0.049 A 
ATOM     56  H   UNL A   1      40.739  31.173  34.391  1.00  0.00     0.167 HD
ATOM     57  C   UNL A   1      39.159  33.460  35.005  1.00  0.00     0.074 A 
ATOM     58  C   UNL A   1      38.172  34.518  34.903  1.00  0.00     0.031 C 
ATOM     59  C   UNL A   1      39.972  33.276  36.075  1.00  0.00     0.031 A 
BRANCH  46  60
ATOM     60  C   UNL A   1      43.872  28.504  35.535  1.00  0.00    -0.014 A 
ATOM     61  C   UNL A   1      45.225  28.806  35.302  1.00  0.00     0.010 A 
ATOM     62  C   UNL A   1      43.546  27.416  36.366  1.00  0.00     0.010 A 
ATOM     63  C   UNL A   1      46.232  28.009  35.856  1.00  0.00     0.020 A 
ATOM     64  C   UNL A   1      44.550  26.631  36.940  1.00  0.00     0.020 A 
ATOM     65  C   UNL A   1      45.888  26.921  36.664  1.00  0.00     0.054 A 
BRANCH  65  66
ATOM     66  S   UNL A   1      47.211  25.902  37.374  1.00  0.00     0.124 S 
ATOM     67  O   UNL A   1      46.897  25.954  38.800  1.00  0.00    -0.237 OA
ATOM     68  O   UNL A   1      47.001  24.607  36.732  1.00  0.00    -0.237 OA
ATOM     69  O   UNL A   1      48.434  26.597  36.980  1.00  0.00    -0.744 OA
ENDBRANCH  65  66
ENDBRANCH  46  60
BRANCH  47  70
ATOM     70  C   UNL A   1      36.484  33.627  31.131  1.00  0.00    -0.014 A 
ATOM     71  C   UNL A   1      36.526  33.941  29.761  1.00  0.00     0.010 A 
ATOM     72  C   UNL A   1      35.348  33.988  31.881  1.00  0.00     0.010 A 
ATOM     73  C   UNL A   1      35.456  34.605  29.155  1.00  0.00     0.020 A 
ATOM     74  C   UNL A   1      34.266  34.628  31.272  1.00  0.00     0.020 A 
ATOM     75  C   UNL A   1      34.331  34.941  29.914  1.00  0.00     0.054 A 
BRANCH  75  76
ATOM     76  S   UNL A   1      32.920  35.738  29.096  1.00  0.00     0.124 S 
ATOM     77  O   UNL A   1      32.072  36.091  30.230  1.00  0.00    -0.237 OA
ATOM     78  O   UNL A   1      33.545  36.861  28.400  1.00  0.00    -0.237 OA
ATOM     79  O   UNL A   1      32.397  34.689  28.223  1.00  0.00    -0.744 OA
ENDBRANCH  75  76
ENDBRANCH  47  70
BRANCH  59  80
ATOM     80  C   UNL A   1      39.839  34.255  37.206  1.00  0.00    -0.014 A 
ATOM     81  C   UNL A   1      40.445  35.521  37.142  1.00  0.00     0.010 A 
ATOM     82  C   UNL A   1      39.062  33.917  38.329  1.00  0.00     0.010 A 
ATOM     83  C   UNL A   1      40.299  36.426  38.196  1.00  0.00     0.020 A 
ATOM     84  C   UNL A   1      38.897  34.827  39.375  1.00  0.00     0.020 A 
ATOM     85  C   UNL A   1      39.529  36.071  39.309  1.00  0.00     0.054 A 
BRANCH  85  86
ATOM     86  S   UNL A   1      39.320  37.275  40.649  1.00  0.00     0.124 S 
ATOM     87  O   UNL A   1      38.777  36.444  41.721  1.00  0.00    -0.237 OA
ATOM     88  O   UNL A   1      40.679  37.764  40.860  1.00  0.00    -0.237 OA
ATOM     89  O   UNL A   1      38.392  38.256  40.088  1.00  0.00    -0.744 OA
ENDBRANCH  85  86
ENDBRANCH  59  80
ENDBRANCH  33  34
ENDBRANCH  26  28
ENDBRANCH  25  26
ENDBRANCH  24  25
ENDBRANCH   1  24
TORSDOF 18
ENDMDL
