MODEL 1
REMARK VINA RESULT:     -15.1      0.000      0.000
REMARK SMILES Cc1ccc(C(=O)N2CCCC[C@@H]2C(=O)OCCOC(=O)c2ccc(-c3c4nc(c(-c5ccc(S(=O)(=O)[O-])cc5)c5ccc([nH]5)c(-c5ccc(S(=O)(=O)[O-])cc5)c5nc(c(-c6ccc(S(=O)(=O)[O-])cc6)c6ccc3[nH]6)C=C5)C=C4)cc2)cc1S(=O)(=O)N1CCCCC1
REMARK SMILES IDX 17 1 16 2 14 3 15 4 13 5 8 6 9 7 10 8 12 9 11 10 6 11 7 12
REMARK SMILES IDX 5 13 1 14 2 15 3 16 83 17 4 18 82 19 84 20 85 21 86 22 87 23
REMARK SMILES IDX 88 24 92 25 89 26 91 27 90 28 18 29 19 30 20 31 21 32 22 33
REMARK SMILES IDX 23 34 81 35 24 36 80 37 25 38 26 39 27 40 74 41 28 42 79 43
REMARK SMILES IDX 73 44 75 45 29 46 78 47 72 48 71 49 30 51 60 52 41 53 59 54
REMARK SMILES IDX 42 55 45 56 58 57 76 58 43 59 44 60 57 62 77 63 46 64 31 65
REMARK SMILES IDX 32 66 40 67 33 68 39 69 34 70 35 71 36 72 37 73 38 74 61 75
REMARK SMILES IDX 62 76 70 77 63 78 69 79 64 80 65 81 66 82 67 83 68 84 47 85
REMARK SMILES IDX 48 86 56 87 49 88 55 89 50 90 51 91 52 92 53 93 54 94
REMARK H PARENT 75 50 45 61
REMARK Flexibility Score: inf
ROOT
ATOM      1  C   UNL A   1      46.020  38.622  26.127  1.00  0.00     0.274 C 
ENDROOT
BRANCH   1   2
ATOM      2  O   UNL A   1      45.587  40.204  25.458  1.00  0.00    -0.461 OA
BRANCH   2   3
ATOM      3  C   UNL A   1      45.160  41.985  25.884  1.00  0.00     0.328 C 
ATOM      4  O   UNL A   1      44.135  42.351  26.504  1.00  0.00    -0.250 OA
BRANCH   3   5
ATOM      5  C   UNL A   1      46.176  43.335  25.535  1.00  0.00     0.195 C 
ATOM      6  N   UNL A   1      46.306  43.386  24.122  1.00  0.00    -0.325 N 
ATOM      7  C   UNL A   1      47.267  44.311  23.455  1.00  0.00     0.121 C 
ATOM      8  C   UNL A   1      48.587  44.495  24.159  1.00  0.00     0.022 C 
ATOM      9  C   UNL A   1      47.484  43.790  26.259  1.00  0.00     0.037 C 
ATOM     10  C   UNL A   1      48.285  44.908  25.585  1.00  0.00     0.005 C 
BRANCH   6  11
ATOM     11  C   UNL A   1      45.144  43.114  23.408  1.00  0.00     0.254 C 
ATOM     12  O   UNL A   1      45.350  42.066  22.744  1.00  0.00    -0.269 OA
BRANCH  11  13
ATOM     13  C   UNL A   1      43.405  43.993  23.598  1.00  0.00     0.041 A 
ATOM     14  C   UNL A   1      43.340  43.705  18.920  1.00  0.00     0.046 C 
ATOM     15  C   UNL A   1      43.383  43.248  20.319  1.00  0.00    -0.031 A 
ATOM     16  C   UNL A   1      41.968  42.376  21.207  1.00  0.00     0.005 A 
ATOM     17  C   UNL A   1      44.455  44.487  21.001  1.00  0.00     0.086 A 
ATOM     18  C   UNL A   1      41.737  42.876  23.084  1.00  0.00     0.014 A 
ATOM     19  C   UNL A   1      44.465  44.809  22.538  1.00  0.00     0.035 A 
BRANCH  17  20
ATOM     20  S   UNL A   1      45.519  45.966  20.034  1.00  0.00     0.243 S 
ATOM     21  O   UNL A   1      46.098  46.780  21.090  1.00  0.00    -0.207 OA
ATOM     22  O   UNL A   1      46.365  45.291  19.071  1.00  0.00    -0.207 OA
BRANCH  20  23
ATOM     23  N   UNL A   1      44.412  47.212  19.021  1.00  0.00    -0.198 NA
ATOM     24  C   UNL A   1      44.394  46.793  17.587  1.00  0.00     0.102 C 
ATOM     25  C   UNL A   1      44.793  48.754  18.953  1.00  0.00     0.102 C 
ATOM     26  C   UNL A   1      43.630  47.807  16.690  1.00  0.00     0.017 C 
ATOM     27  C   UNL A   1      43.588  49.601  18.389  1.00  0.00     0.017 C 
ATOM     28  C   UNL A   1      42.738  48.809  17.419  1.00  0.00     0.003 C 
ENDBRANCH  20  23
ENDBRANCH  17  20
ENDBRANCH  11  13
ENDBRANCH   6  11
ENDBRANCH   3   5
ENDBRANCH   2   3
ENDBRANCH   1   2
BRANCH   1  29
ATOM     29  C   UNL A   1      45.720  38.172  27.679  1.00  0.00     0.275 C 
BRANCH  29  30
ATOM     30  O   UNL A   1      44.850  37.047  28.054  1.00  0.00    -0.458 OA
BRANCH  30  31
ATOM     31  C   UNL A   1      44.014  36.460  27.171  1.00  0.00     0.338 C 
ATOM     32  O   UNL A   1      43.096  36.963  26.560  1.00  0.00    -0.246 OA
BRANCH  31  33
ATOM     33  C   UNL A   1      44.473  35.116  27.051  1.00  0.00     0.060 A 
ATOM     34  C   UNL A   1      46.093  34.523  26.422  1.00  0.00     0.016 A 
ATOM     35  C   UNL A   1      43.415  33.981  28.006  1.00  0.00     0.016 A 
ATOM     36  C   UNL A   1      46.514  32.696  26.553  1.00  0.00     0.010 A 
ATOM     37  C   UNL A   1      43.981  32.313  28.254  1.00  0.00     0.010 A 
ATOM     38  C   UNL A   1      45.395  31.463  27.327  1.00  0.00    -0.014 A 
BRANCH  38  39
ATOM     39  C   UNL A   1      44.773  29.608  26.672  1.00  0.00     0.031 A 
ATOM     40  C   UNL A   1      46.313  28.813  26.267  1.00  0.00     0.074 A 
ATOM     41  C   UNL A   1      43.231  28.982  27.756  1.00  0.00     0.049 A 
ATOM     42  N   UNL A   1      46.582  27.512  26.318  1.00  0.00    -0.248 NA
ATOM     43  C   UNL A   1      47.561  29.583  26.222  1.00  0.00     0.031 C 
ATOM     44  C   UNL A   1      43.471  28.137  29.392  1.00  0.00     0.029 A 
ATOM     45  N   UNL A   1      42.077  29.555  28.502  1.00  0.00    -0.354 N 
ATOM     46  C   UNL A   1      47.829  27.402  26.927  1.00  0.00     0.074 A 
ATOM     47  C   UNL A   1      48.474  28.649  26.545  1.00  0.00     0.031 C 
ATOM     48  C   UNL A   1      42.490  28.203  30.269  1.00  0.00     0.029 A 
ATOM     49  C   UNL A   1      41.476  28.767  29.524  1.00  0.00     0.049 A 
ATOM     50  H   UNL A   1      41.738  30.456  28.295  1.00  0.00     0.167 HD
ATOM     51  C   UNL A   1      48.130  26.502  27.942  1.00  0.00     0.031 A 
ATOM     52  C   UNL A   1      40.368  28.052  29.251  1.00  0.00     0.031 A 
ATOM     53  C   UNL A   1      46.974  25.756  28.566  1.00  0.00     0.049 A 
ATOM     54  C   UNL A   1      40.937  26.406  28.881  1.00  0.00     0.074 A 
ATOM     55  C   UNL A   1      46.544  25.700  29.897  1.00  0.00     0.029 A 
ATOM     56  N   UNL A   1      45.961  25.101  27.849  1.00  0.00    -0.354 N 
ATOM     57  N   UNL A   1      42.127  25.844  29.229  1.00  0.00    -0.248 NA
ATOM     58  C   UNL A   1      40.212  25.313  28.187  1.00  0.00     0.031 C 
ATOM     59  C   UNL A   1      45.279  25.054  29.977  1.00  0.00     0.029 A 
ATOM     60  C   UNL A   1      44.883  24.713  28.703  1.00  0.00     0.049 A 
ATOM     61  H   UNL A   1      45.989  24.933  26.881  1.00  0.00     0.167 HD
ATOM     62  C   UNL A   1      42.393  24.617  28.541  1.00  0.00     0.074 A 
ATOM     63  C   UNL A   1      41.084  24.294  28.020  1.00  0.00     0.031 C 
ATOM     64  C   UNL A   1      43.649  24.067  28.176  1.00  0.00     0.031 A 
BRANCH  51  65
ATOM     65  C   UNL A   1      49.500  26.403  28.677  1.00  0.00    -0.014 A 
ATOM     66  C   UNL A   1      50.690  26.518  27.912  1.00  0.00     0.010 A 
ATOM     67  C   UNL A   1      49.713  26.254  30.062  1.00  0.00     0.010 A 
ATOM     68  C   UNL A   1      51.980  26.474  28.468  1.00  0.00     0.020 A 
ATOM     69  C   UNL A   1      51.001  26.232  30.643  1.00  0.00     0.020 A 
ATOM     70  C   UNL A   1      52.129  26.351  29.841  1.00  0.00     0.054 A 
BRANCH  70  71
ATOM     71  S   UNL A   1      53.794  26.429  30.552  1.00  0.00     0.124 S 
ATOM     72  O   UNL A   1      53.954  27.856  30.820  1.00  0.00    -0.237 OA
ATOM     73  O   UNL A   1      53.672  25.577  31.731  1.00  0.00    -0.237 OA
ATOM     74  O   UNL A   1      54.650  25.899  29.492  1.00  0.00    -0.744 OA
ENDBRANCH  70  71
ENDBRANCH  51  65
BRANCH  52  75
ATOM     75  C   UNL A   1      39.549  29.358  28.709  1.00  0.00    -0.014 A 
ATOM     76  C   UNL A   1      38.421  29.320  27.833  1.00  0.00     0.010 A 
ATOM     77  C   UNL A   1      39.400  30.482  29.524  1.00  0.00     0.010 A 
ATOM     78  C   UNL A   1      37.336  30.315  27.839  1.00  0.00     0.020 A 
ATOM     79  C   UNL A   1      38.395  31.493  29.556  1.00  0.00     0.020 A 
ATOM     80  C   UNL A   1      37.333  31.405  28.715  1.00  0.00     0.054 A 
BRANCH  80  81
ATOM     81  S   UNL A   1      36.002  32.654  28.893  1.00  0.00     0.124 S 
ATOM     82  O   UNL A   1      35.578  32.832  27.506  1.00  0.00    -0.237 OA
ATOM     83  O   UNL A   1      35.044  31.983  29.768  1.00  0.00    -0.237 OA
ATOM     84  O   UNL A   1      36.651  33.832  29.466  1.00  0.00    -0.744 OA
ENDBRANCH  80  81
ENDBRANCH  52  75
BRANCH  64  85
ATOM     85  C   UNL A   1      43.926  22.972  27.072  1.00  0.00    -0.014 A 
ATOM     86  C   UNL A   1      42.971  22.231  26.348  1.00  0.00     0.010 A 
ATOM     87  C   UNL A   1      45.272  22.771  26.644  1.00  0.00     0.010 A 
ATOM     88  C   UNL A   1      43.353  21.197  25.452  1.00  0.00     0.020 A 
ATOM     89  C   UNL A   1      45.661  21.804  25.703  1.00  0.00     0.020 A 
ATOM     90  C   UNL A   1      44.703  20.951  25.191  1.00  0.00     0.054 A 
BRANCH  90  91
ATOM     91  S   UNL A   1      45.217  19.436  24.324  1.00  0.00     0.124 S 
ATOM     92  O   UNL A   1      44.623  18.400  25.167  1.00  0.00    -0.237 OA
ATOM     93  O   UNL A   1      44.616  19.586  23.002  1.00  0.00    -0.237 OA
ATOM     94  O   UNL A   1      46.677  19.490  24.352  1.00  0.00    -0.744 OA
ENDBRANCH  90  91
ENDBRANCH  64  85
ENDBRANCH  38  39
ENDBRANCH  31  33
ENDBRANCH  30  31
ENDBRANCH  29  30
ENDBRANCH   1  29
TORSDOF 18
ENDMDL
MODEL 2
REMARK VINA RESULT:     -15.0      6.642     14.111
REMARK SMILES Cc1ccc(C(=O)N2CCCC[C@@H]2C(=O)OCCOC(=O)c2ccc(-c3c4nc(c(-c5ccc(S(=O)(=O)[O-])cc5)c5ccc([nH]5)c(-c5ccc(S(=O)(=O)[O-])cc5)c5nc(c(-c6ccc(S(=O)(=O)[O-])cc6)c6ccc3[nH]6)C=C5)C=C4)cc2)cc1S(=O)(=O)N1CCCCC1
REMARK SMILES IDX 17 1 16 2 14 3 15 4 13 5 8 6 9 7 10 8 12 9 11 10 6 11 7 12
REMARK SMILES IDX 5 13 1 14 2 15 3 16 83 17 4 18 82 19 84 20 85 21 86 22 87 23
REMARK SMILES IDX 88 24 92 25 89 26 91 27 90 28 18 29 19 30 20 31 21 32 22 33
REMARK SMILES IDX 23 34 81 35 24 36 80 37 25 38 26 39 27 40 74 41 28 42 79 43
REMARK SMILES IDX 73 44 75 45 29 46 78 47 72 48 71 49 30 51 60 52 41 53 59 54
REMARK SMILES IDX 42 55 45 56 58 57 76 58 43 59 44 60 57 62 77 63 46 64 31 65
REMARK SMILES IDX 32 66 40 67 33 68 39 69 34 70 35 71 36 72 37 73 38 74 61 75
REMARK SMILES IDX 62 76 70 77 63 78 69 79 64 80 65 81 66 82 67 83 68 84 47 85
REMARK SMILES IDX 48 86 56 87 49 88 55 89 50 90 51 91 52 92 53 93 54 94
REMARK H PARENT 75 50 45 61
REMARK Flexibility Score: inf
ROOT
ATOM      1  C   UNL A   1      38.798  31.687  36.322  1.00  0.00     0.274 C 
ENDROOT
BRANCH   1   2
ATOM      2  O   UNL A   1      39.700  30.228  35.880  1.00  0.00    -0.461 OA
BRANCH   2   3
ATOM      3  C   UNL A   1      40.857  29.466  34.608  1.00  0.00     0.328 C 
ATOM      4  O   UNL A   1      41.153  28.250  34.540  1.00  0.00    -0.250 OA
BRANCH   3   5
ATOM      5  C   UNL A   1      41.599  30.347  33.323  1.00  0.00     0.195 C 
ATOM      6  N   UNL A   1      40.647  30.399  32.270  1.00  0.00    -0.325 N 
ATOM      7  C   UNL A   1      41.002  30.920  30.918  1.00  0.00     0.121 C 
ATOM      8  C   UNL A   1      42.383  30.566  30.427  1.00  0.00     0.022 C 
ATOM      9  C   UNL A   1      43.063  30.247  32.785  1.00  0.00     0.037 C 
ATOM     10  C   UNL A   1      43.367  31.007  31.491  1.00  0.00     0.005 C 
BRANCH   6  11
ATOM     11  C   UNL A   1      39.332  30.612  32.667  1.00  0.00     0.254 C 
ATOM     12  O   UNL A   1      39.130  31.854  32.639  1.00  0.00    -0.269 OA
BRANCH  11  13
ATOM     13  C   UNL A   1      37.943  29.260  32.937  1.00  0.00     0.041 A 
ATOM     14  C   UNL A   1      37.671  29.368  28.258  1.00  0.00     0.046 C 
ATOM     15  C   UNL A   1      38.268  29.177  29.591  1.00  0.00    -0.031 A 
ATOM     16  C   UNL A   1      38.701  27.503  30.342  1.00  0.00     0.005 A 
ATOM     17  C   UNL A   1      37.550  30.561  30.438  1.00  0.00     0.086 A 
ATOM     18  C   UNL A   1      38.364  27.346  32.262  1.00  0.00     0.014 A 
ATOM     19  C   UNL A   1      37.423  30.590  32.003  1.00  0.00     0.035 A 
BRANCH  17  20
ATOM     20  S   UNL A   1      36.421  32.111  29.678  1.00  0.00     0.243 S 
ATOM     21  O   UNL A   1      37.350  32.928  28.913  1.00  0.00    -0.207 OA
ATOM     22  O   UNL A   1      35.274  31.500  29.038  1.00  0.00    -0.207 OA
BRANCH  20  23
ATOM     23  N   UNL A   1      35.719  33.326  31.033  1.00  0.00    -0.198 NA
ATOM     24  C   UNL A   1      36.862  33.980  31.739  1.00  0.00     0.102 C 
ATOM     25  C   UNL A   1      34.816  32.773  32.219  1.00  0.00     0.102 C 
ATOM     26  C   UNL A   1      36.387  34.875  32.918  1.00  0.00     0.017 C 
ATOM     27  C   UNL A   1      34.092  33.958  32.966  1.00  0.00     0.017 C 
ATOM     28  C   UNL A   1      34.903  35.236  32.931  1.00  0.00     0.003 C 
ENDBRANCH  20  23
ENDBRANCH  17  20
ENDBRANCH  11  13
ENDBRANCH   6  11
ENDBRANCH   3   5
ENDBRANCH   2   3
ENDBRANCH   1   2
BRANCH   1  29
ATOM     29  C   UNL A   1      39.443  33.199  36.310  1.00  0.00     0.275 C 
BRANCH  29  30
ATOM     30  O   UNL A   1      39.488  34.062  35.120  1.00  0.00    -0.458 OA
BRANCH  30  31
ATOM     31  C   UNL A   1      40.046  35.291  35.144  1.00  0.00     0.338 C 
ATOM     32  O   UNL A   1      39.556  36.330  35.531  1.00  0.00    -0.246 OA
BRANCH  31  33
ATOM     33  C   UNL A   1      41.379  35.110  34.672  1.00  0.00     0.060 A 
ATOM     34  C   UNL A   1      42.867  34.628  35.633  1.00  0.00     0.016 A 
ATOM     35  C   UNL A   1      41.413  34.998  32.854  1.00  0.00     0.016 A 
ATOM     36  C   UNL A   1      44.472  34.272  34.721  1.00  0.00     0.010 A 
ATOM     37  C   UNL A   1      42.919  34.460  32.073  1.00  0.00     0.010 A 
ATOM     38  C   UNL A   1      44.621  34.339  32.892  1.00  0.00    -0.014 A 
BRANCH  38  39
ATOM     39  C   UNL A   1      46.031  35.241  31.687  1.00  0.00     0.031 A 
ATOM     40  C   UNL A   1      46.930  33.846  31.044  1.00  0.00     0.074 A 
ATOM     41  C   UNL A   1      45.239  36.815  30.768  1.00  0.00     0.049 A 
ATOM     42  N   UNL A   1      47.548  33.761  29.871  1.00  0.00    -0.248 NA
ATOM     43  C   UNL A   1      46.720  32.504  31.599  1.00  0.00     0.031 C 
ATOM     44  C   UNL A   1      44.260  36.635  29.201  1.00  0.00     0.029 A 
ATOM     45  N   UNL A   1      44.195  37.847  31.010  1.00  0.00    -0.354 N 
ATOM     46  C   UNL A   1      47.203  32.520  29.343  1.00  0.00     0.074 A 
ATOM     47  C   UNL A   1      46.991  31.721  30.539  1.00  0.00     0.031 C 
ATOM     48  C   UNL A   1      43.368  37.563  28.923  1.00  0.00     0.029 A 
ATOM     49  C   UNL A   1      43.633  38.514  29.885  1.00  0.00     0.049 A 
ATOM     50  H   UNL A   1      43.899  38.063  31.925  1.00  0.00     0.167 HD
ATOM     51  C   UNL A   1      46.794  32.312  28.031  1.00  0.00     0.031 A 
ATOM     52  C   UNL A   1      44.105  39.722  29.521  1.00  0.00     0.031 A 
ATOM     53  C   UNL A   1      46.500  33.537  27.198  1.00  0.00     0.049 A 
ATOM     54  C   UNL A   1      45.289  39.406  28.229  1.00  0.00     0.074 A 
ATOM     55  C   UNL A   1      45.330  33.921  26.532  1.00  0.00     0.029 A 
ATOM     56  N   UNL A   1      47.336  34.659  27.097  1.00  0.00    -0.354 N 
ATOM     57  N   UNL A   1      45.384  38.295  27.448  1.00  0.00    -0.248 NA
ATOM     58  C   UNL A   1      46.350  40.303  27.710  1.00  0.00     0.031 C 
ATOM     59  C   UNL A   1      45.446  35.260  26.068  1.00  0.00     0.029 A 
ATOM     60  C   UNL A   1      46.676  35.748  26.449  1.00  0.00     0.049 A 
ATOM     61  H   UNL A   1      48.261  34.692  27.431  1.00  0.00     0.167 HD
ATOM     62  C   UNL A   1      46.607  38.231  26.707  1.00  0.00     0.074 A 
ATOM     63  C   UNL A   1      47.081  39.591  26.825  1.00  0.00     0.031 C 
ATOM     64  C   UNL A   1      47.322  37.080  26.285  1.00  0.00     0.031 A 
BRANCH  51  65
ATOM     65  C   UNL A   1      46.347  30.943  27.437  1.00  0.00    -0.014 A 
ATOM     66  C   UNL A   1      44.995  30.542  27.600  1.00  0.00     0.010 A 
ATOM     67  C   UNL A   1      47.132  30.041  26.694  1.00  0.00     0.010 A 
ATOM     68  C   UNL A   1      44.469  29.346  27.084  1.00  0.00     0.020 A 
ATOM     69  C   UNL A   1      46.617  28.844  26.146  1.00  0.00     0.020 A 
ATOM     70  C   UNL A   1      45.283  28.508  26.338  1.00  0.00     0.054 A 
BRANCH  70  71
ATOM     71  S   UNL A   1      44.557  27.036  25.569  1.00  0.00     0.124 S 
ATOM     72  O   UNL A   1      43.385  27.582  24.890  1.00  0.00    -0.237 OA
ATOM     73  O   UNL A   1      45.632  26.575  24.696  1.00  0.00    -0.237 OA
ATOM     74  O   UNL A   1      44.263  26.162  26.703  1.00  0.00    -0.744 OA
ENDBRANCH  70  71
ENDBRANCH  51  65
BRANCH  52  75
ATOM     75  C   UNL A   1      43.852  40.368  31.000  1.00  0.00    -0.014 A 
ATOM     76  C   UNL A   1      44.833  41.052  31.782  1.00  0.00     0.010 A 
ATOM     77  C   UNL A   1      42.611  40.920  31.323  1.00  0.00     0.010 A 
ATOM     78  C   UNL A   1      44.526  42.131  32.735  1.00  0.00     0.020 A 
ATOM     79  C   UNL A   1      42.248  41.937  32.254  1.00  0.00     0.020 A 
ATOM     80  C   UNL A   1      43.218  42.571  32.962  1.00  0.00     0.054 A 
BRANCH  80  81
ATOM     81  S   UNL A   1      42.710  43.964  34.042  1.00  0.00     0.124 S 
ATOM     82  O   UNL A   1      41.890  43.280  35.039  1.00  0.00    -0.237 OA
ATOM     83  O   UNL A   1      43.989  44.482  34.521  1.00  0.00    -0.237 OA
ATOM     84  O   UNL A   1      41.955  44.868  33.176  1.00  0.00    -0.744 OA
ENDBRANCH  80  81
ENDBRANCH  52  75
BRANCH  64  85
ATOM     85  C   UNL A   1      48.841  37.003  25.862  1.00  0.00    -0.014 A 
ATOM     86  C   UNL A   1      49.358  36.721  24.583  1.00  0.00     0.010 A 
ATOM     87  C   UNL A   1      49.828  37.375  26.824  1.00  0.00     0.010 A 
ATOM     88  C   UNL A   1      50.753  36.580  24.356  1.00  0.00     0.020 A 
ATOM     89  C   UNL A   1      51.211  37.314  26.594  1.00  0.00     0.020 A 
ATOM     90  C   UNL A   1      51.664  36.813  25.388  1.00  0.00     0.054 A 
BRANCH  90  91
ATOM     91  S   UNL A   1      53.405  36.316  25.216  1.00  0.00     0.124 S 
ATOM     92  O   UNL A   1      54.090  37.602  25.333  1.00  0.00    -0.237 OA
ATOM     93  O   UNL A   1      53.604  35.399  26.334  1.00  0.00    -0.237 OA
ATOM     94  O   UNL A   1      53.470  35.702  23.892  1.00  0.00    -0.744 OA
ENDBRANCH  90  91
ENDBRANCH  64  85
ENDBRANCH  38  39
ENDBRANCH  31  33
ENDBRANCH  30  31
ENDBRANCH  29  30
ENDBRANCH   1  29
TORSDOF 18
ENDMDL
MODEL 3
REMARK VINA RESULT:     -14.5      1.701      2.212
REMARK SMILES Cc1ccc(C(=O)N2CCCC[C@@H]2C(=O)OCCOC(=O)c2ccc(-c3c4nc(c(-c5ccc(S(=O)(=O)[O-])cc5)c5ccc([nH]5)c(-c5ccc(S(=O)(=O)[O-])cc5)c5nc(c(-c6ccc(S(=O)(=O)[O-])cc6)c6ccc3[nH]6)C=C5)C=C4)cc2)cc1S(=O)(=O)N1CCCCC1
REMARK SMILES IDX 17 1 16 2 14 3 15 4 13 5 8 6 9 7 10 8 12 9 11 10 6 11 7 12
REMARK SMILES IDX 5 13 1 14 2 15 3 16 83 17 4 18 82 19 84 20 85 21 86 22 87 23
REMARK SMILES IDX 88 24 92 25 89 26 91 27 90 28 18 29 19 30 20 31 21 32 22 33
REMARK SMILES IDX 23 34 81 35 24 36 80 37 25 38 26 39 27 40 74 41 28 42 79 43
REMARK SMILES IDX 73 44 75 45 29 46 78 47 72 48 71 49 30 51 60 52 41 53 59 54
REMARK SMILES IDX 42 55 45 56 58 57 76 58 43 59 44 60 57 62 77 63 46 64 31 65
REMARK SMILES IDX 32 66 40 67 33 68 39 69 34 70 35 71 36 72 37 73 38 74 61 75
REMARK SMILES IDX 62 76 70 77 63 78 69 79 64 80 65 81 66 82 67 83 68 84 47 85
REMARK SMILES IDX 48 86 56 87 49 88 55 89 50 90 51 91 52 92 53 93 54 94
REMARK H PARENT 75 50 45 61
REMARK Flexibility Score: inf
ROOT
ATOM      1  C   UNL A   1      46.801  39.407  25.037  1.00  0.00     0.274 C 
ENDROOT
BRANCH   1   2
ATOM      2  O   UNL A   1      46.438  40.873  24.111  1.00  0.00    -0.461 OA
BRANCH   2   3
ATOM      3  C   UNL A   1      46.743  42.724  23.988  1.00  0.00     0.328 C 
ATOM      4  O   UNL A   1      46.468  43.561  24.879  1.00  0.00    -0.250 OA
BRANCH   3   5
ATOM      5  C   UNL A   1      47.514  43.492  22.649  1.00  0.00     0.195 C 
ATOM      6  N   UNL A   1      46.797  43.094  21.489  1.00  0.00    -0.325 N 
ATOM      7  C   UNL A   1      47.288  43.410  20.117  1.00  0.00     0.121 C 
ATOM      8  C   UNL A   1      48.781  43.325  19.925  1.00  0.00     0.022 C 
ATOM      9  C   UNL A   1      49.042  43.660  22.363  1.00  0.00     0.037 C 
ATOM     10  C   UNL A   1      49.422  44.201  20.982  1.00  0.00     0.005 C 
BRANCH   6  11
ATOM     11  C   UNL A   1      45.416  43.043  21.633  1.00  0.00     0.254 C 
ATOM     12  O   UNL A   1      45.036  41.923  21.206  1.00  0.00    -0.269 OA
BRANCH  11  13
ATOM     13  C   UNL A   1      44.277  44.321  22.585  1.00  0.00     0.041 A 
ATOM     14  C   UNL A   1      41.367  43.604  18.981  1.00  0.00     0.046 C 
ATOM     15  C   UNL A   1      42.185  43.287  20.163  1.00  0.00    -0.031 A 
ATOM     16  C   UNL A   1      41.492  42.863  21.864  1.00  0.00     0.005 A 
ATOM     17  C   UNL A   1      43.602  44.299  19.821  1.00  0.00     0.086 A 
ATOM     18  C   UNL A   1      42.508  43.582  23.373  1.00  0.00     0.014 A 
ATOM     19  C   UNL A   1      44.578  44.758  20.963  1.00  0.00     0.035 A 
BRANCH  17  20
ATOM     20  S   UNL A   1      44.048  45.386  18.126  1.00  0.00     0.243 S 
ATOM     21  O   UNL A   1      45.468  45.176  17.894  1.00  0.00    -0.207 OA
ATOM     22  O   UNL A   1      43.071  44.999  17.130  1.00  0.00    -0.207 OA
BRANCH  20  23
ATOM     23  N   UNL A   1      43.881  47.317  18.349  1.00  0.00    -0.198 NA
ATOM     24  C   UNL A   1      44.005  47.973  17.012  1.00  0.00     0.102 C 
ATOM     25  C   UNL A   1      44.916  48.115  19.253  1.00  0.00     0.102 C 
ATOM     26  C   UNL A   1      44.002  49.525  17.119  1.00  0.00     0.017 C 
ATOM     27  C   UNL A   1      44.382  49.567  19.560  1.00  0.00     0.017 C 
ATOM     28  C   UNL A   1      43.513  50.105  18.444  1.00  0.00     0.003 C 
ENDBRANCH  20  23
ENDBRANCH  17  20
ENDBRANCH  11  13
ENDBRANCH   6  11
ENDBRANCH   3   5
ENDBRANCH   2   3
ENDBRANCH   1   2
BRANCH   1  29
ATOM     29  C   UNL A   1      46.940  39.371  26.675  1.00  0.00     0.275 C 
BRANCH  29  30
ATOM     30  O   UNL A   1      45.954  38.744  27.568  1.00  0.00    -0.458 OA
BRANCH  30  31
ATOM     31  C   UNL A   1      44.816  38.185  27.104  1.00  0.00     0.338 C 
ATOM     32  O   UNL A   1      43.896  38.726  26.529  1.00  0.00    -0.246 OA
BRANCH  31  33
ATOM     33  C   UNL A   1      44.941  36.792  27.374  1.00  0.00     0.060 A 
ATOM     34  C   UNL A   1      46.418  35.880  27.975  1.00  0.00     0.016 A 
ATOM     35  C   UNL A   1      43.303  35.999  27.467  1.00  0.00     0.016 A 
ATOM     36  C   UNL A   1      46.251  34.065  28.435  1.00  0.00     0.010 A 
ATOM     37  C   UNL A   1      43.206  34.341  28.103  1.00  0.00     0.010 A 
ATOM     38  C   UNL A   1      44.659  33.154  28.357  1.00  0.00    -0.014 A 
BRANCH  38  39
ATOM     39  C   UNL A   1      44.197  31.315  27.544  1.00  0.00     0.031 A 
ATOM     40  C   UNL A   1      45.789  30.724  27.012  1.00  0.00     0.074 A 
ATOM     41  C   UNL A   1      42.771  30.434  28.611  1.00  0.00     0.049 A 
ATOM     42  N   UNL A   1      46.189  29.460  26.927  1.00  0.00    -0.248 NA
ATOM     43  C   UNL A   1      46.952  31.619  27.003  1.00  0.00     0.031 C 
ATOM     44  C   UNL A   1      43.163  29.468  30.147  1.00  0.00     0.029 A 
ATOM     45  N   UNL A   1      41.599  30.813  29.446  1.00  0.00    -0.354 N 
ATOM     46  C   UNL A   1      47.465  29.421  27.481  1.00  0.00     0.074 A 
ATOM     47  C   UNL A   1      47.966  30.758  27.203  1.00  0.00     0.031 C 
ATOM     48  C   UNL A   1      42.218  29.350  31.057  1.00  0.00     0.029 A 
ATOM     49  C   UNL A   1      41.123  29.874  30.405  1.00  0.00     0.049 A 
ATOM     50  H   UNL A   1      41.163  31.690  29.339  1.00  0.00     0.167 HD
ATOM     51  C   UNL A   1      47.896  28.465  28.394  1.00  0.00     0.031 A 
ATOM     52  C   UNL A   1      40.081  29.078  30.099  1.00  0.00     0.031 A 
ATOM     53  C   UNL A   1      46.848  27.549  28.979  1.00  0.00     0.049 A 
ATOM     54  C   UNL A   1      40.794  27.541  29.551  1.00  0.00     0.074 A 
ATOM     55  C   UNL A   1      46.482  27.324  30.311  1.00  0.00     0.029 A 
ATOM     56  N   UNL A   1      45.875  26.864  28.234  1.00  0.00    -0.354 N 
ATOM     57  N   UNL A   1      42.048  27.075  29.804  1.00  0.00    -0.248 NA
ATOM     58  C   UNL A   1      40.153  26.450  28.778  1.00  0.00     0.031 C 
ATOM     59  C   UNL A   1      45.292  26.547  30.368  1.00  0.00     0.029 A 
ATOM     60  C   UNL A   1      44.879  26.288  29.080  1.00  0.00     0.049 A 
ATOM     61  H   UNL A   1      45.879  26.791  27.254  1.00  0.00     0.167 HD
ATOM     62  C   UNL A   1      42.406  25.952  28.991  1.00  0.00     0.074 A 
ATOM     63  C   UNL A   1      41.114  25.547  28.484  1.00  0.00     0.031 C 
ATOM     64  C   UNL A   1      43.694  25.571  28.533  1.00  0.00     0.031 A 
BRANCH  51  65
ATOM     65  C   UNL A   1      49.299  28.440  29.071  1.00  0.00    -0.014 A 
ATOM     66  C   UNL A   1      50.298  27.589  28.529  1.00  0.00     0.010 A 
ATOM     67  C   UNL A   1      49.730  29.215  30.164  1.00  0.00     0.010 A 
ATOM     68  C   UNL A   1      51.606  27.503  29.035  1.00  0.00     0.020 A 
ATOM     69  C   UNL A   1      51.047  29.162  30.673  1.00  0.00     0.020 A 
ATOM     70  C   UNL A   1      51.982  28.310  30.099  1.00  0.00     0.054 A 
BRANCH  70  71
ATOM     71  S   UNL A   1      53.707  28.283  30.654  1.00  0.00     0.124 S 
ATOM     72  O   UNL A   1      54.280  27.213  29.841  1.00  0.00    -0.237 OA
ATOM     73  O   UNL A   1      54.162  29.631  30.330  1.00  0.00    -0.237 OA
ATOM     74  O   UNL A   1      53.607  27.989  32.082  1.00  0.00    -0.744 OA
ENDBRANCH  70  71
ENDBRANCH  51  65
BRANCH  52  75
ATOM     75  C   UNL A   1      39.114  30.338  29.715  1.00  0.00    -0.014 A 
ATOM     76  C   UNL A   1      38.259  30.403  28.572  1.00  0.00     0.010 A 
ATOM     77  C   UNL A   1      38.515  31.097  30.722  1.00  0.00     0.010 A 
ATOM     78  C   UNL A   1      36.992  31.153  28.530  1.00  0.00     0.020 A 
ATOM     79  C   UNL A   1      37.314  31.866  30.731  1.00  0.00     0.020 A 
ATOM     80  C   UNL A   1      36.525  31.884  29.627  1.00  0.00     0.054 A 
BRANCH  80  81
ATOM     81  S   UNL A   1      34.926  32.775  29.739  1.00  0.00     0.124 S 
ATOM     82  O   UNL A   1      34.530  32.497  31.118  1.00  0.00    -0.237 OA
ATOM     83  O   UNL A   1      35.306  34.156  29.455  1.00  0.00    -0.237 OA
ATOM     84  O   UNL A   1      34.063  32.147  28.740  1.00  0.00    -0.744 OA
ENDBRANCH  80  81
ENDBRANCH  52  75
BRANCH  64  85
ATOM     85  C   UNL A   1      44.031  24.619  27.319  1.00  0.00    -0.014 A 
ATOM     86  C   UNL A   1      43.591  24.747  25.987  1.00  0.00     0.010 A 
ATOM     87  C   UNL A   1      44.981  23.575  27.525  1.00  0.00     0.010 A 
ATOM     88  C   UNL A   1      43.883  23.761  25.008  1.00  0.00     0.020 A 
ATOM     89  C   UNL A   1      45.341  22.635  26.546  1.00  0.00     0.020 A 
ATOM     90  C   UNL A   1      44.704  22.675  25.320  1.00  0.00     0.054 A 
BRANCH  90  91
ATOM     91  S   UNL A   1      44.815  21.246  24.201  1.00  0.00     0.124 S 
ATOM     92  O   UNL A   1      46.213  20.852  24.364  1.00  0.00    -0.237 OA
ATOM     93  O   UNL A   1      43.835  20.313  24.750  1.00  0.00    -0.237 OA
ATOM     94  O   UNL A   1      44.479  21.795  22.889  1.00  0.00    -0.744 OA
ENDBRANCH  90  91
ENDBRANCH  64  85
ENDBRANCH  38  39
ENDBRANCH  31  33
ENDBRANCH  30  31
ENDBRANCH  29  30
ENDBRANCH   1  29
TORSDOF 18
ENDMDL
