MODEL 1
REMARK VINA RESULT:     -12.2      0.000      0.000
REMARK SMILES O=C(OCCOC(=O)c1cc(N2C(=O)[C@H]3[C@@H]4C=C[C@@H]([C@@H]5C[C@H]45)[C@@H]3C2=O)ccc1Cl)c1ccc(-c2c3nc(c(-c4ccc(S(=O)(=O)[O-])cc4)c4ccc([nH]4)c(-c4ccc(S(=O)(=O)[O-])cc4)c4nc(c(-c5ccc(S(=O)(=O)[O-])cc5)c5ccc2[nH]5)C=C4)C=C3)cc1
REMARK SMILES IDX 4 1 3 2 2 3 1 4 30 5 31 6 89 7 32 8 88 9 33 10 34 11 35 12
REMARK SMILES IDX 82 13 36 14 87 15 81 16 83 17 37 18 86 19 80 20 79 21 38 23
REMARK SMILES IDX 68 24 49 25 67 26 50 27 53 28 66 29 84 30 51 31 52 32 65 34
REMARK SMILES IDX 85 35 54 36 39 37 40 38 48 39 41 40 47 41 42 42 43 43 44 44
REMARK SMILES IDX 45 45 46 46 69 47 70 48 78 49 71 50 77 51 72 52 73 53 74 54
REMARK SMILES IDX 75 55 76 56 55 57 56 58 64 59 57 60 63 61 58 62 59 63 60 64
REMARK SMILES IDX 61 65 62 66 5 67 6 68 7 69 8 70 9 71 10 72 28 73 11 74 27 75
REMARK SMILES IDX 29 76 26 77 12 78 13 79 24 80 14 81 15 82 23 83 25 84 16 85
REMARK SMILES IDX 19 86 17 87 22 88 18 89 20 90 21 91
REMARK H PARENT 83 22 53 33
REMARK Flexibility Score: inf
ROOT
ATOM      1  C   UNL A   1      37.258  22.029  24.574  1.00  0.00     0.275 C 
ENDROOT
BRANCH   1   2
ATOM      2  O   UNL A   1      37.721  22.729  25.738  1.00  0.00    -0.458 OA
BRANCH   2   3
ATOM      3  C   UNL A   1      38.982  22.967  26.163  1.00  0.00     0.338 C 
ATOM      4  O   UNL A   1      39.778  22.028  26.147  1.00  0.00    -0.246 OA
BRANCH   3   5
ATOM      5  C   UNL A   1      39.445  24.267  26.760  1.00  0.00     0.060 A 
ATOM      6  C   UNL A   1      40.190  25.274  26.144  1.00  0.00     0.016 A 
ATOM      7  C   UNL A   1      39.072  24.477  28.094  1.00  0.00     0.016 A 
ATOM      8  C   UNL A   1      40.489  26.472  26.812  1.00  0.00     0.010 A 
ATOM      9  C   UNL A   1      39.341  25.677  28.760  1.00  0.00     0.010 A 
ATOM     10  C   UNL A   1      40.064  26.684  28.124  1.00  0.00    -0.014 A 
BRANCH  10  11
ATOM     11  C   UNL A   1      40.482  27.889  28.875  1.00  0.00     0.031 A 
ATOM     12  C   UNL A   1      41.827  27.889  29.543  1.00  0.00     0.074 A 
ATOM     13  C   UNL A   1      39.676  28.965  28.950  1.00  0.00     0.049 A 
ATOM     14  N   UNL A   1      42.423  28.857  30.187  1.00  0.00    -0.248 NA
ATOM     15  C   UNL A   1      42.612  26.644  29.461  1.00  0.00     0.031 C 
ATOM     16  C   UNL A   1      38.365  29.080  28.314  1.00  0.00     0.029 A 
ATOM     17  N   UNL A   1      39.834  30.164  29.596  1.00  0.00    -0.354 N 
ATOM     18  C   UNL A   1      43.667  28.353  30.546  1.00  0.00     0.074 A 
ATOM     19  C   UNL A   1      43.710  26.973  30.123  1.00  0.00     0.031 C 
ATOM     20  C   UNL A   1      37.819  30.266  28.630  1.00  0.00     0.029 A 
ATOM     21  C   UNL A   1      38.748  31.000  29.482  1.00  0.00     0.049 A 
ATOM     22  H   UNL A   1      40.649  30.404  30.095  1.00  0.00     0.167 HD
ATOM     23  C   UNL A   1      44.698  28.998  31.139  1.00  0.00     0.031 A 
ATOM     24  C   UNL A   1      38.532  32.225  30.002  1.00  0.00     0.031 A 
ATOM     25  C   UNL A   1      44.628  30.358  31.594  1.00  0.00     0.049 A 
ATOM     26  C   UNL A   1      39.651  32.883  30.766  1.00  0.00     0.074 A 
ATOM     27  C   UNL A   1      45.607  31.117  32.204  1.00  0.00     0.029 A 
ATOM     28  N   UNL A   1      43.497  31.157  31.500  1.00  0.00    -0.354 N 
ATOM     29  N   UNL A   1      40.851  32.418  31.027  1.00  0.00    -0.248 NA
ATOM     30  C   UNL A   1      39.404  34.239  31.271  1.00  0.00     0.031 C 
ATOM     31  C   UNL A   1      45.052  32.360  32.528  1.00  0.00     0.029 A 
ATOM     32  C   UNL A   1      43.743  32.393  32.068  1.00  0.00     0.049 A 
ATOM     33  H   UNL A   1      42.644  30.885  31.089  1.00  0.00     0.167 HD
ATOM     34  C   UNL A   1      41.520  33.444  31.683  1.00  0.00     0.074 A 
ATOM     35  C   UNL A   1      40.589  34.551  31.782  1.00  0.00     0.031 C 
ATOM     36  C   UNL A   1      42.794  33.475  32.149  1.00  0.00     0.031 A 
BRANCH  23  37
ATOM     37  C   UNL A   1      45.971  28.219  31.325  1.00  0.00    -0.014 A 
ATOM     38  C   UNL A   1      46.900  28.101  30.273  1.00  0.00     0.010 A 
ATOM     39  C   UNL A   1      46.240  27.585  32.550  1.00  0.00     0.010 A 
ATOM     40  C   UNL A   1      48.049  27.322  30.427  1.00  0.00     0.020 A 
ATOM     41  C   UNL A   1      47.401  26.824  32.716  1.00  0.00     0.020 A 
ATOM     42  C   UNL A   1      48.289  26.682  31.647  1.00  0.00     0.054 A 
BRANCH  42  43
ATOM     43  S   UNL A   1      49.787  25.673  31.818  1.00  0.00     0.124 S 
ATOM     44  O   UNL A   1      49.348  24.637  32.749  1.00  0.00    -0.237 OA
ATOM     45  O   UNL A   1      50.030  25.225  30.449  1.00  0.00    -0.237 OA
ATOM     46  O   UNL A   1      50.775  26.609  32.349  1.00  0.00    -0.744 OA
ENDBRANCH  42  43
ENDBRANCH  23  37
BRANCH  24  47
ATOM     47  C   UNL A   1      37.225  32.911  29.801  1.00  0.00    -0.014 A 
ATOM     48  C   UNL A   1      36.262  32.955  30.825  1.00  0.00     0.010 A 
ATOM     49  C   UNL A   1      36.933  33.522  28.567  1.00  0.00     0.010 A 
ATOM     50  C   UNL A   1      35.024  33.572  30.610  1.00  0.00     0.020 A 
ATOM     51  C   UNL A   1      35.706  34.160  28.356  1.00  0.00     0.020 A 
ATOM     52  C   UNL A   1      34.753  34.169  29.375  1.00  0.00     0.054 A 
BRANCH  52  53
ATOM     53  S   UNL A   1      33.149  34.982  29.129  1.00  0.00     0.124 S 
ATOM     54  O   UNL A   1      33.548  36.314  28.688  1.00  0.00    -0.237 OA
ATOM     55  O   UNL A   1      32.522  34.139  28.114  1.00  0.00    -0.237 OA
ATOM     56  O   UNL A   1      32.528  34.920  30.451  1.00  0.00    -0.744 OA
ENDBRANCH  52  53
ENDBRANCH  24  47
BRANCH  36  57
ATOM     57  C   UNL A   1      43.266  34.761  32.771  1.00  0.00    -0.014 A 
ATOM     58  C   UNL A   1      43.716  35.831  31.980  1.00  0.00     0.010 A 
ATOM     59  C   UNL A   1      43.195  34.915  34.168  1.00  0.00     0.010 A 
ATOM     60  C   UNL A   1      44.114  37.028  32.579  1.00  0.00     0.020 A 
ATOM     61  C   UNL A   1      43.564  36.120  34.767  1.00  0.00     0.020 A 
ATOM     62  C   UNL A   1      44.034  37.166  33.969  1.00  0.00     0.054 A 
BRANCH  62  63
ATOM     63  S   UNL A   1      44.503  38.748  34.717  1.00  0.00     0.124 S 
ATOM     64  O   UNL A   1      43.738  39.700  33.918  1.00  0.00    -0.237 OA
ATOM     65  O   UNL A   1      44.063  38.591  36.102  1.00  0.00    -0.237 OA
ATOM     66  O   UNL A   1      45.952  38.802  34.533  1.00  0.00    -0.744 OA
ENDBRANCH  62  63
ENDBRANCH  36  57
ENDBRANCH  10  11
ENDBRANCH   3   5
ENDBRANCH   2   3
ENDBRANCH   1   2
BRANCH   1  67
ATOM     67  C   UNL A   1      36.719  20.627  24.850  1.00  0.00     0.275 C 
BRANCH  67  68
ATOM     68  O   UNL A   1      35.475  20.628  25.562  1.00  0.00    -0.458 OA
BRANCH  68  69
ATOM     69  C   UNL A   1      34.400  20.152  24.883  1.00  0.00     0.339 C 
ATOM     70  O   UNL A   1      34.117  18.982  24.690  1.00  0.00    -0.246 OA
BRANCH  69  71
ATOM     71  C   UNL A   1      33.528  21.268  24.472  1.00  0.00     0.080 A 
ATOM     72  C   UNL A   1      33.701  22.512  25.115  1.00  0.00     0.044 A 
ATOM     73  C   UNL A   1      32.516  21.097  23.521  1.00  0.00     0.055 A 
ATOM     74  C   UNL A   1      32.848  23.578  24.810  1.00  0.00     0.053 A 
ATOM     75  C   UNL A   1      31.692  22.174  23.195  1.00  0.00     0.023 A 
ATOM     76  Cl  UNL A   1      32.191  19.584  22.750  1.00  0.00    -0.083 Cl
ATOM     77  C   UNL A   1      31.849  23.399  23.843  1.00  0.00     0.028 A 
BRANCH  74  78
ATOM     78  N   UNL A   1      32.971  24.838  25.430  1.00  0.00    -0.250 N 
ATOM     79  C   UNL A   1      33.791  25.867  24.939  1.00  0.00     0.238 C 
ATOM     80  C   UNL A   1      31.980  25.346  26.293  1.00  0.00     0.238 C 
ATOM     81  O   UNL A   1      34.554  25.900  23.997  1.00  0.00    -0.274 OA
ATOM     82  C   UNL A   1      33.491  27.019  25.831  1.00  0.00     0.100 C 
ATOM     83  C   UNL A   1      31.986  26.800  25.968  1.00  0.00     0.100 C 
ATOM     84  O   UNL A   1      31.187  24.758  27.003  1.00  0.00    -0.274 OA
ATOM     85  C   UNL A   1      33.786  28.516  25.647  1.00  0.00     0.028 C 
ATOM     86  C   UNL A   1      31.361  28.062  26.546  1.00  0.00     0.028 C 
ATOM     87  C   UNL A   1      33.544  28.997  27.100  1.00  0.00    -0.026 C 
ATOM     88  C   UNL A   1      32.762  29.304  24.814  1.00  0.00     0.001 C 
ATOM     89  C   UNL A   1      32.311  28.700  27.576  1.00  0.00    -0.026 C 
ATOM     90  C   UNL A   1      31.336  29.064  25.334  1.00  0.00     0.001 C 
ATOM     91  C   UNL A   1      31.714  28.771  23.881  1.00  0.00     0.009 C 
ENDBRANCH  74  78
ENDBRANCH  69  71
ENDBRANCH  68  69
ENDBRANCH  67  68
ENDBRANCH   1  67
TORSDOF 15
ENDMDL
MODEL 2
REMARK VINA RESULT:     -12.0      2.798      9.369
REMARK SMILES O=C(OCCOC(=O)c1cc(N2C(=O)[C@H]3[C@@H]4C=C[C@@H]([C@@H]5C[C@H]45)[C@@H]3C2=O)ccc1Cl)c1ccc(-c2c3nc(c(-c4ccc(S(=O)(=O)[O-])cc4)c4ccc([nH]4)c(-c4ccc(S(=O)(=O)[O-])cc4)c4nc(c(-c5ccc(S(=O)(=O)[O-])cc5)c5ccc2[nH]5)C=C4)C=C3)cc1
REMARK SMILES IDX 4 1 3 2 2 3 1 4 30 5 31 6 89 7 32 8 88 9 33 10 34 11 35 12
REMARK SMILES IDX 82 13 36 14 87 15 81 16 83 17 37 18 86 19 80 20 79 21 38 23
REMARK SMILES IDX 68 24 49 25 67 26 50 27 53 28 66 29 84 30 51 31 52 32 65 34
REMARK SMILES IDX 85 35 54 36 39 37 40 38 48 39 41 40 47 41 42 42 43 43 44 44
REMARK SMILES IDX 45 45 46 46 69 47 70 48 78 49 71 50 77 51 72 52 73 53 74 54
REMARK SMILES IDX 75 55 76 56 55 57 56 58 64 59 57 60 63 61 58 62 59 63 60 64
REMARK SMILES IDX 61 65 62 66 5 67 6 68 7 69 8 70 9 71 10 72 28 73 11 74 27 75
REMARK SMILES IDX 29 76 26 77 12 78 13 79 24 80 14 81 15 82 23 83 25 84 16 85
REMARK SMILES IDX 19 86 17 87 22 88 18 89 20 90 21 91
REMARK H PARENT 83 22 53 33
REMARK Flexibility Score: inf
ROOT
ATOM      1  C   UNL A   1      33.376  28.852  26.628  1.00  0.00     0.275 C 
ENDROOT
BRANCH   1   2
ATOM      2  O   UNL A   1      33.514  29.664  27.802  1.00  0.00    -0.458 OA
BRANCH   2   3
ATOM      3  C   UNL A   1      34.514  30.498  28.169  1.00  0.00     0.338 C 
ATOM      4  O   UNL A   1      34.299  31.709  28.109  1.00  0.00    -0.246 OA
BRANCH   3   5
ATOM      5  C   UNL A   1      35.902  30.050  28.532  1.00  0.00     0.060 A 
ATOM      6  C   UNL A   1      36.345  29.546  29.757  1.00  0.00     0.016 A 
ATOM      7  C   UNL A   1      36.851  30.156  27.507  1.00  0.00     0.016 A 
ATOM      8  C   UNL A   1      37.666  29.100  29.926  1.00  0.00     0.010 A 
ATOM      9  C   UNL A   1      38.161  29.690  27.656  1.00  0.00     0.010 A 
ATOM     10  C   UNL A   1      38.582  29.166  28.876  1.00  0.00    -0.014 A 
BRANCH  10  11
ATOM     11  C   UNL A   1      40.005  28.815  29.083  1.00  0.00     0.031 A 
ATOM     12  C   UNL A   1      40.933  29.865  29.626  1.00  0.00     0.074 A 
ATOM     13  C   UNL A   1      40.456  27.578  28.801  1.00  0.00     0.049 A 
ATOM     14  N   UNL A   1      42.193  29.756  29.954  1.00  0.00    -0.248 NA
ATOM     15  C   UNL A   1      40.364  31.207  29.845  1.00  0.00     0.031 C 
ATOM     16  C   UNL A   1      39.635  26.479  28.299  1.00  0.00     0.029 A 
ATOM     17  N   UNL A   1      41.713  27.038  28.886  1.00  0.00    -0.354 N 
ATOM     18  C   UNL A   1      42.553  31.000  30.458  1.00  0.00     0.074 A 
ATOM     19  C   UNL A   1      41.408  31.869  30.318  1.00  0.00     0.031 C 
ATOM     20  C   UNL A   1      40.412  25.404  28.085  1.00  0.00     0.029 A 
ATOM     21  C   UNL A   1      41.786  25.736  28.446  1.00  0.00     0.049 A 
ATOM     22  H   UNL A   1      42.490  27.534  29.232  1.00  0.00     0.167 HD
ATOM     23  C   UNL A   1      43.724  31.371  31.026  1.00  0.00     0.031 A 
ATOM     24  C   UNL A   1      42.843  24.905  28.352  1.00  0.00     0.031 A 
ATOM     25  C   UNL A   1      44.870  30.510  31.120  1.00  0.00     0.049 A 
ATOM     26  C   UNL A   1      44.172  25.379  28.880  1.00  0.00     0.074 A 
ATOM     27  C   UNL A   1      46.106  30.774  31.676  1.00  0.00     0.029 A 
ATOM     28  N   UNL A   1      44.918  29.215  30.623  1.00  0.00    -0.354 N 
ATOM     29  N   UNL A   1      44.473  26.534  29.427  1.00  0.00    -0.248 NA
ATOM     30  C   UNL A   1      45.291  24.430  28.815  1.00  0.00     0.031 C 
ATOM     31  C   UNL A   1      46.921  29.656  31.467  1.00  0.00     0.029 A 
ATOM     32  C   UNL A   1      46.174  28.675  30.832  1.00  0.00     0.049 A 
ATOM     33  H   UNL A   1      44.169  28.749  30.185  1.00  0.00     0.167 HD
ATOM     34  C   UNL A   1      45.803  26.433  29.818  1.00  0.00     0.074 A 
ATOM     35  C   UNL A   1      46.247  25.106  29.440  1.00  0.00     0.031 C 
ATOM     36  C   UNL A   1      46.583  27.348  30.445  1.00  0.00     0.031 A 
BRANCH  23  37
ATOM     37  C   UNL A   1      43.801  32.770  31.573  1.00  0.00    -0.014 A 
ATOM     38  C   UNL A   1      43.478  33.033  32.918  1.00  0.00     0.010 A 
ATOM     39  C   UNL A   1      44.182  33.835  30.739  1.00  0.00     0.010 A 
ATOM     40  C   UNL A   1      43.487  34.342  33.405  1.00  0.00     0.020 A 
ATOM     41  C   UNL A   1      44.215  35.144  31.230  1.00  0.00     0.020 A 
ATOM     42  C   UNL A   1      43.849  35.391  32.555  1.00  0.00     0.054 A 
BRANCH  42  43
ATOM     43  S   UNL A   1      43.847  37.082  33.213  1.00  0.00     0.124 S 
ATOM     44  O   UNL A   1      43.828  37.880  31.991  1.00  0.00    -0.237 OA
ATOM     45  O   UNL A   1      42.619  37.116  34.004  1.00  0.00    -0.237 OA
ATOM     46  O   UNL A   1      45.084  37.154  33.985  1.00  0.00    -0.744 OA
ENDBRANCH  42  43
ENDBRANCH  23  37
BRANCH  24  47
ATOM     47  C   UNL A   1      42.686  23.547  27.761  1.00  0.00    -0.014 A 
ATOM     48  C   UNL A   1      42.925  23.316  26.395  1.00  0.00     0.010 A 
ATOM     49  C   UNL A   1      42.283  22.469  28.571  1.00  0.00     0.010 A 
ATOM     50  C   UNL A   1      42.739  22.042  25.846  1.00  0.00     0.020 A 
ATOM     51  C   UNL A   1      42.117  21.189  28.032  1.00  0.00     0.020 A 
ATOM     52  C   UNL A   1      42.333  20.987  26.668  1.00  0.00     0.054 A 
BRANCH  52  53
ATOM     53  S   UNL A   1      42.120  19.339  25.936  1.00  0.00     0.124 S 
ATOM     54  O   UNL A   1      40.680  19.294  25.704  1.00  0.00    -0.237 OA
ATOM     55  O   UNL A   1      42.953  19.417  24.739  1.00  0.00    -0.237 OA
ATOM     56  O   UNL A   1      42.616  18.438  26.974  1.00  0.00    -0.744 OA
ENDBRANCH  52  53
ENDBRANCH  24  47
BRANCH  36  57
ATOM     57  C   UNL A   1      47.984  26.930  30.797  1.00  0.00    -0.014 A 
ATOM     58  C   UNL A   1      49.078  27.300  29.997  1.00  0.00     0.010 A 
ATOM     59  C   UNL A   1      48.209  26.208  31.984  1.00  0.00     0.010 A 
ATOM     60  C   UNL A   1      50.374  26.933  30.364  1.00  0.00     0.020 A 
ATOM     61  C   UNL A   1      49.505  25.864  32.369  1.00  0.00     0.020 A 
ATOM     62  C   UNL A   1      50.579  26.218  31.549  1.00  0.00     0.054 A 
BRANCH  62  63
ATOM     63  S   UNL A   1      52.275  25.800  32.034  1.00  0.00     0.124 S 
ATOM     64  O   UNL A   1      52.991  25.923  30.767  1.00  0.00    -0.237 OA
ATOM     65  O   UNL A   1      52.584  26.820  33.033  1.00  0.00    -0.237 OA
ATOM     66  O   UNL A   1      52.161  24.439  32.556  1.00  0.00    -0.744 OA
ENDBRANCH  62  63
ENDBRANCH  36  57
ENDBRANCH  10  11
ENDBRANCH   3   5
ENDBRANCH   2   3
ENDBRANCH   1   2
BRANCH   1  67
ATOM     67  C   UNL A   1      33.276  29.638  25.322  1.00  0.00     0.275 C 
BRANCH  67  68
ATOM     68  O   UNL A   1      31.947  29.679  24.785  1.00  0.00    -0.458 OA
BRANCH  68  69
ATOM     69  C   UNL A   1      31.759  29.023  23.612  1.00  0.00     0.339 C 
ATOM     70  O   UNL A   1      32.233  29.315  22.527  1.00  0.00    -0.246 OA
BRANCH  69  71
ATOM     71  C   UNL A   1      30.955  27.808  23.837  1.00  0.00     0.080 A 
ATOM     72  C   UNL A   1      31.627  26.640  24.255  1.00  0.00     0.044 A 
ATOM     73  C   UNL A   1      29.578  27.782  23.587  1.00  0.00     0.055 A 
ATOM     74  C   UNL A   1      30.916  25.445  24.410  1.00  0.00     0.053 A 
ATOM     75  C   UNL A   1      28.869  26.596  23.778  1.00  0.00     0.023 A 
ATOM     76  Cl  UNL A   1      28.700  29.149  22.997  1.00  0.00    -0.083 Cl
ATOM     77  C   UNL A   1      29.535  25.436  24.174  1.00  0.00     0.028 A 
BRANCH  74  78
ATOM     78  N   UNL A   1      31.540  24.248  24.816  1.00  0.00    -0.250 N 
ATOM     79  C   UNL A   1      32.239  23.402  23.940  1.00  0.00     0.238 C 
ATOM     80  C   UNL A   1      31.919  24.019  26.154  1.00  0.00     0.238 C 
ATOM     81  O   UNL A   1      32.409  23.458  22.741  1.00  0.00    -0.274 OA
ATOM     82  C   UNL A   1      32.820  22.364  24.833  1.00  0.00     0.100 C 
ATOM     83  C   UNL A   1      33.199  23.272  26.001  1.00  0.00     0.100 C 
ATOM     84  O   UNL A   1      31.445  24.454  27.186  1.00  0.00    -0.274 OA
ATOM     85  C   UNL A   1      33.946  21.352  24.572  1.00  0.00     0.028 C 
ATOM     86  C   UNL A   1      34.150  22.514  26.918  1.00  0.00     0.028 C 
ATOM     87  C   UNL A   1      33.713  20.404  25.776  1.00  0.00    -0.026 C 
ATOM     88  C   UNL A   1      35.378  21.873  24.775  1.00  0.00     0.001 C 
ATOM     89  C   UNL A   1      33.756  21.027  26.978  1.00  0.00    -0.026 C 
ATOM     90  C   UNL A   1      35.522  22.545  26.150  1.00  0.00     0.001 C 
ATOM     91  C   UNL A   1      35.846  23.296  24.858  1.00  0.00     0.009 C 
ENDBRANCH  74  78
ENDBRANCH  69  71
ENDBRANCH  68  69
ENDBRANCH  67  68
ENDBRANCH   1  67
TORSDOF 15
ENDMDL
MODEL 3
REMARK VINA RESULT:     -11.9      3.492      4.373
REMARK SMILES O=C(OCCOC(=O)c1cc(N2C(=O)[C@H]3[C@@H]4C=C[C@@H]([C@@H]5C[C@H]45)[C@@H]3C2=O)ccc1Cl)c1ccc(-c2c3nc(c(-c4ccc(S(=O)(=O)[O-])cc4)c4ccc([nH]4)c(-c4ccc(S(=O)(=O)[O-])cc4)c4nc(c(-c5ccc(S(=O)(=O)[O-])cc5)c5ccc2[nH]5)C=C4)C=C3)cc1
REMARK SMILES IDX 4 1 3 2 2 3 1 4 30 5 31 6 89 7 32 8 88 9 33 10 34 11 35 12
REMARK SMILES IDX 82 13 36 14 87 15 81 16 83 17 37 18 86 19 80 20 79 21 38 23
REMARK SMILES IDX 68 24 49 25 67 26 50 27 53 28 66 29 84 30 51 31 52 32 65 34
REMARK SMILES IDX 85 35 54 36 39 37 40 38 48 39 41 40 47 41 42 42 43 43 44 44
REMARK SMILES IDX 45 45 46 46 69 47 70 48 78 49 71 50 77 51 72 52 73 53 74 54
REMARK SMILES IDX 75 55 76 56 55 57 56 58 64 59 57 60 63 61 58 62 59 63 60 64
REMARK SMILES IDX 61 65 62 66 5 67 6 68 7 69 8 70 9 71 10 72 28 73 11 74 27 75
REMARK SMILES IDX 29 76 26 77 12 78 13 79 24 80 14 81 15 82 23 83 25 84 16 85
REMARK SMILES IDX 19 86 17 87 22 88 18 89 20 90 21 91
REMARK H PARENT 83 22 53 33
REMARK Flexibility Score: inf
ROOT
ATOM      1  C   UNL A   1      38.838  23.215  26.500  1.00  0.00     0.275 C 
ENDROOT
BRANCH   1   2
ATOM      2  O   UNL A   1      38.718  24.580  26.928  1.00  0.00    -0.458 OA
BRANCH   2   3
ATOM      3  C   UNL A   1      39.648  25.560  26.975  1.00  0.00     0.338 C 
ATOM      4  O   UNL A   1      40.484  25.597  26.073  1.00  0.00    -0.246 OA
BRANCH   3   5
ATOM      5  C   UNL A   1      39.799  26.533  28.111  1.00  0.00     0.060 A 
ATOM      6  C   UNL A   1      40.622  27.659  28.169  1.00  0.00     0.016 A 
ATOM      7  C   UNL A   1      39.009  26.263  29.237  1.00  0.00     0.016 A 
ATOM      8  C   UNL A   1      40.603  28.519  29.278  1.00  0.00     0.010 A 
ATOM      9  C   UNL A   1      38.963  27.127  30.335  1.00  0.00     0.010 A 
ATOM     10  C   UNL A   1      39.772  28.261  30.369  1.00  0.00    -0.014 A 
BRANCH  10  11
ATOM     11  C   UNL A   1      39.838  29.092  31.591  1.00  0.00     0.031 A 
ATOM     12  C   UNL A   1      40.895  28.785  32.613  1.00  0.00     0.074 A 
ATOM     13  C   UNL A   1      38.975  30.109  31.779  1.00  0.00     0.049 A 
ATOM     14  N   UNL A   1      41.182  29.424  33.716  1.00  0.00    -0.248 NA
ATOM     15  C   UNL A   1      41.753  27.615  32.352  1.00  0.00     0.031 C 
ATOM     16  C   UNL A   1      37.932  30.510  30.837  1.00  0.00     0.029 A 
ATOM     17  N   UNL A   1      38.830  30.985  32.823  1.00  0.00    -0.354 N 
ATOM     18  C   UNL A   1      42.279  28.763  34.254  1.00  0.00     0.074 A 
ATOM     19  C   UNL A   1      42.554  27.627  33.405  1.00  0.00     0.031 C 
ATOM     20  C   UNL A   1      37.229  31.529  31.360  1.00  0.00     0.029 A 
ATOM     21  C   UNL A   1      37.780  31.860  32.669  1.00  0.00     0.049 A 
ATOM     22  H   UNL A   1      39.423  30.988  33.610  1.00  0.00     0.167 HD
ATOM     23  C   UNL A   1      43.016  29.098  35.338  1.00  0.00     0.031 A 
ATOM     24  C   UNL A   1      37.321  32.824  33.491  1.00  0.00     0.031 A 
ATOM     25  C   UNL A   1      42.706  30.205  36.198  1.00  0.00     0.049 A 
ATOM     26  C   UNL A   1      38.086  33.106  34.758  1.00  0.00     0.074 A 
ATOM     27  C   UNL A   1      43.380  30.643  37.321  1.00  0.00     0.029 A 
ATOM     28  N   UNL A   1      41.609  31.041  36.033  1.00  0.00    -0.354 N 
ATOM     29  N   UNL A   1      39.170  32.518  35.210  1.00  0.00    -0.248 NA
ATOM     30  C   UNL A   1      37.593  34.200  35.604  1.00  0.00     0.031 C 
ATOM     31  C   UNL A   1      42.661  31.712  37.867  1.00  0.00     0.029 A 
ATOM     32  C   UNL A   1      41.571  31.975  37.052  1.00  0.00     0.049 A 
ATOM     33  H   UNL A   1      40.955  30.977  35.300  1.00  0.00     0.167 HD
ATOM     34  C   UNL A   1      39.518  33.205  36.367  1.00  0.00     0.074 A 
ATOM     35  C   UNL A   1      38.526  34.247  36.546  1.00  0.00     0.031 C 
ATOM     36  C   UNL A   1      40.569  33.002  37.200  1.00  0.00     0.031 A 
BRANCH  23  37
ATOM     37  C   UNL A   1      44.216  28.241  35.635  1.00  0.00    -0.014 A 
ATOM     38  C   UNL A   1      45.487  28.588  35.139  1.00  0.00     0.010 A 
ATOM     39  C   UNL A   1      44.077  27.072  36.403  1.00  0.00     0.010 A 
ATOM     40  C   UNL A   1      46.586  27.756  35.362  1.00  0.00     0.020 A 
ATOM     41  C   UNL A   1      45.180  26.248  36.649  1.00  0.00     0.020 A 
ATOM     42  C   UNL A   1      46.423  26.586  36.110  1.00  0.00     0.054 A 
BRANCH  42  43
ATOM     43  S   UNL A   1      47.867  25.521  36.380  1.00  0.00     0.124 S 
ATOM     44  O   UNL A   1      48.839  26.088  35.450  1.00  0.00    -0.237 OA
ATOM     45  O   UNL A   1      48.158  25.730  37.796  1.00  0.00    -0.237 OA
ATOM     46  O   UNL A   1      47.382  24.187  36.037  1.00  0.00    -0.744 OA
ENDBRANCH  42  43
ENDBRANCH  23  37
BRANCH  24  47
ATOM     47  C   UNL A   1      36.102  33.602  33.136  1.00  0.00    -0.014 A 
ATOM     48  C   UNL A   1      36.196  34.865  32.525  1.00  0.00     0.010 A 
ATOM     49  C   UNL A   1      34.825  33.079  33.418  1.00  0.00     0.010 A 
ATOM     50  C   UNL A   1      35.043  35.600  32.228  1.00  0.00     0.020 A 
ATOM     51  C   UNL A   1      33.669  33.800  33.103  1.00  0.00     0.020 A 
ATOM     52  C   UNL A   1      33.785  35.063  32.522  1.00  0.00     0.054 A 
BRANCH  52  53
ATOM     53  S   UNL A   1      32.304  36.027  32.108  1.00  0.00     0.124 S 
ATOM     54  O   UNL A   1      32.456  36.215  30.669  1.00  0.00    -0.237 OA
ATOM     55  O   UNL A   1      31.223  35.135  32.520  1.00  0.00    -0.237 OA
ATOM     56  O   UNL A   1      32.446  37.236  32.917  1.00  0.00    -0.744 OA
ENDBRANCH  52  53
ENDBRANCH  24  47
BRANCH  36  57
ATOM     57  C   UNL A   1      40.723  33.951  38.356  1.00  0.00    -0.014 A 
ATOM     58  C   UNL A   1      41.265  35.235  38.178  1.00  0.00     0.010 A 
ATOM     59  C   UNL A   1      40.256  33.568  39.627  1.00  0.00     0.010 A 
ATOM     60  C   UNL A   1      41.363  36.113  39.259  1.00  0.00     0.020 A 
ATOM     61  C   UNL A   1      40.326  34.454  40.703  1.00  0.00     0.020 A 
ATOM     62  C   UNL A   1      40.891  35.717  40.515  1.00  0.00     0.054 A 
BRANCH  62  63
ATOM     63  S   UNL A   1      40.978  36.894  41.891  1.00  0.00     0.124 S 
ATOM     64  O   UNL A   1      41.501  36.061  42.969  1.00  0.00    -0.237 OA
ATOM     65  O   UNL A   1      41.892  37.914  41.383  1.00  0.00    -0.237 OA
ATOM     66  O   UNL A   1      39.594  37.334  42.058  1.00  0.00    -0.744 OA
ENDBRANCH  62  63
ENDBRANCH  36  57
ENDBRANCH  10  11
ENDBRANCH   3   5
ENDBRANCH   2   3
ENDBRANCH   1   2
BRANCH   1  67
ATOM     67  C   UNL A   1      37.856  22.806  25.404  1.00  0.00     0.275 C 
BRANCH  67  68
ATOM     68  O   UNL A   1      36.691  22.139  25.906  1.00  0.00    -0.458 OA
BRANCH  68  69
ATOM     69  C   UNL A   1      36.247  21.085  25.174  1.00  0.00     0.339 C 
ATOM     70  O   UNL A   1      36.837  20.038  24.966  1.00  0.00    -0.246 OA
BRANCH  69  71
ATOM     71  C   UNL A   1      34.866  21.333  24.719  1.00  0.00     0.080 A 
ATOM     72  C   UNL A   1      34.435  22.673  24.620  1.00  0.00     0.044 A 
ATOM     73  C   UNL A   1      33.982  20.282  24.452  1.00  0.00     0.055 A 
ATOM     74  C   UNL A   1      33.111  22.953  24.264  1.00  0.00     0.053 A 
ATOM     75  C   UNL A   1      32.673  20.569  24.063  1.00  0.00     0.023 A 
ATOM     76  Cl  UNL A   1      34.413  18.618  24.629  1.00  0.00    -0.083 Cl
ATOM     77  C   UNL A   1      32.239  21.893  23.982  1.00  0.00     0.028 A 
BRANCH  74  78
ATOM     78  N   UNL A   1      32.626  24.273  24.160  1.00  0.00    -0.250 N 
ATOM     79  C   UNL A   1      31.957  24.937  25.201  1.00  0.00     0.238 C 
ATOM     80  C   UNL A   1      33.144  25.188  23.223  1.00  0.00     0.238 C 
ATOM     81  O   UNL A   1      31.620  24.561  26.303  1.00  0.00    -0.274 OA
ATOM     82  C   UNL A   1      31.764  26.316  24.679  1.00  0.00     0.100 C 
ATOM     83  C   UNL A   1      33.112  26.472  23.977  1.00  0.00     0.100 C 
ATOM     84  O   UNL A   1      33.656  24.990  22.138  1.00  0.00    -0.274 OA
ATOM     85  C   UNL A   1      31.408  27.615  25.419  1.00  0.00     0.028 C 
ATOM     86  C   UNL A   1      33.327  27.945  23.657  1.00  0.00     0.028 C 
ATOM     87  C   UNL A   1      31.016  28.494  24.206  1.00  0.00    -0.026 C 
ATOM     88  C   UNL A   1      32.586  28.365  26.062  1.00  0.00     0.001 C 
ATOM     89  C   UNL A   1      31.990  28.605  23.272  1.00  0.00    -0.026 C 
ATOM     90  C   UNL A   1      33.715  28.582  25.042  1.00  0.00     0.001 C 
ATOM     91  C   UNL A   1      33.963  27.851  26.363  1.00  0.00     0.009 C 
ENDBRANCH  74  78
ENDBRANCH  69  71
ENDBRANCH  68  69
ENDBRANCH  67  68
ENDBRANCH   1  67
TORSDOF 15
ENDMDL
