MODEL 1
REMARK VINA RESULT:     -10.0      0.000      0.000
REMARK SMILES C[C@@H](C(=O)OCCOC(=O)c1ccc(-c2c3nc(c(-c4ccc(S(=O)(=O)[O-])cc4)c4ccc([nH]4)c(-c4ccc(S(=O)(=O)[O-])cc4)c4nc(c(-c5ccc(S(=O)(=O)[O-])cc5)c5ccc2[nH]5)C=C4)C=C3)cc1)c1ccc(Cc2cccs2)cc1F
REMARK SMILES IDX 6 1 5 2 3 3 4 4 2 5 1 6 71 7 72 8 82 9 73 10 81 11 83 12
REMARK SMILES IDX 74 13 75 14 76 15 77 16 80 17 78 18 79 19 7 20 8 21 9 22
REMARK SMILES IDX 10 23 11 24 12 25 70 26 13 27 69 28 14 29 15 30 16 31 63 32
REMARK SMILES IDX 17 33 68 34 62 35 64 36 18 37 67 38 61 39 60 40 19 42 49 43
REMARK SMILES IDX 30 44 48 45 31 46 34 47 47 48 65 49 32 50 33 51 46 53 66 54
REMARK SMILES IDX 35 55 20 56 21 57 29 58 22 59 28 60 23 61 24 62 25 63 26 64
REMARK SMILES IDX 27 65 50 66 51 67 59 68 52 69 58 70 53 71 54 72 55 73 56 74
REMARK SMILES IDX 57 75 36 76 37 77 45 78 38 79 44 80 39 81 40 82 41 83 42 84
REMARK SMILES IDX 43 85
REMARK H PARENT 64 41 34 52
REMARK Flexibility Score: inf
ROOT
ATOM      1  C   UNL A   1      43.641  23.488  25.762  1.00  0.00     0.274 C 
ENDROOT
BRANCH   1   2
ATOM      2  O   UNL A   1      42.777  22.578  25.048  1.00  0.00    -0.462 OA
BRANCH   2   3
ATOM      3  C   UNL A   1      42.408  21.442  25.705  1.00  0.00     0.313 C 
ATOM      4  O   UNL A   1      42.623  20.310  25.284  1.00  0.00    -0.252 OA
BRANCH   3   5
ATOM      5  C   UNL A   1      41.614  21.730  26.984  1.00  0.00     0.129 C 
ATOM      6  C   UNL A   1      41.625  20.571  27.986  1.00  0.00     0.025 C 
BRANCH   5   7
ATOM      7  C   UNL A   1      40.222  22.263  26.667  1.00  0.00     0.002 A 
ATOM      8  C   UNL A   1      39.921  23.609  26.939  1.00  0.00     0.008 A 
ATOM      9  C   UNL A   1      39.232  21.494  26.044  1.00  0.00     0.127 A 
ATOM     10  C   UNL A   1      38.687  24.163  26.576  1.00  0.00     0.004 A 
ATOM     11  C   UNL A   1      37.990  22.034  25.698  1.00  0.00     0.043 A 
ATOM     12  F   UNL A   1      39.476  20.222  25.705  1.00  0.00    -0.207 F 
ATOM     13  C   UNL A   1      37.715  23.387  25.933  1.00  0.00    -0.040 A 
BRANCH  13  14
ATOM     14  C   UNL A   1      36.440  24.022  25.418  1.00  0.00     0.082 C 
BRANCH  14  15
ATOM     15  C   UNL A   1      35.206  23.206  25.655  1.00  0.00     0.009 A 
ATOM     16  C   UNL A   1      34.577  22.919  26.851  1.00  0.00     0.016 A 
ATOM     17  S   UNL A   1      34.343  22.556  24.323  1.00  0.00    -0.149 S 
ATOM     18  C   UNL A   1      33.371  22.183  26.666  1.00  0.00     0.012 A 
ATOM     19  C   UNL A   1      33.122  21.928  25.337  1.00  0.00     0.065 A 
ENDBRANCH  14  15
ENDBRANCH  13  14
ENDBRANCH   5   7
ENDBRANCH   3   5
ENDBRANCH   2   3
ENDBRANCH   1   2
BRANCH   1  20
ATOM     20  C   UNL A   1      43.638  24.853  25.079  1.00  0.00     0.275 C 
BRANCH  20  21
ATOM     21  O   UNL A   1      42.459  25.564  25.486  1.00  0.00    -0.458 OA
BRANCH  21  22
ATOM     22  C   UNL A   1      42.523  26.915  25.432  1.00  0.00     0.338 C 
ATOM     23  O   UNL A   1      42.698  27.595  24.436  1.00  0.00    -0.246 OA
BRANCH  22  24
ATOM     24  C   UNL A   1      42.367  27.471  26.796  1.00  0.00     0.060 A 
ATOM     25  C   UNL A   1      41.715  26.751  27.797  1.00  0.00     0.016 A 
ATOM     26  C   UNL A   1      42.820  28.764  27.064  1.00  0.00     0.016 A 
ATOM     27  C   UNL A   1      41.448  27.352  29.028  1.00  0.00     0.010 A 
ATOM     28  C   UNL A   1      42.620  29.331  28.330  1.00  0.00     0.010 A 
ATOM     29  C   UNL A   1      41.890  28.650  29.320  1.00  0.00    -0.014 A 
BRANCH  29  30
ATOM     30  C   UNL A   1      41.537  29.314  30.614  1.00  0.00     0.031 A 
ATOM     31  C   UNL A   1      40.281  30.150  30.728  1.00  0.00     0.074 A 
ATOM     32  C   UNL A   1      42.296  29.150  31.719  1.00  0.00     0.049 A 
ATOM     33  N   UNL A   1      39.916  30.968  31.684  1.00  0.00    -0.248 NA
ATOM     34  C   UNL A   1      39.319  30.067  29.617  1.00  0.00     0.031 C 
ATOM     35  C   UNL A   1      43.503  28.327  31.810  1.00  0.00     0.029 A 
ATOM     36  N   UNL A   1      42.148  29.655  32.989  1.00  0.00    -0.354 N 
ATOM     37  C   UNL A   1      38.726  31.548  31.257  1.00  0.00     0.074 A 
ATOM     38  C   UNL A   1      38.425  30.984  29.960  1.00  0.00     0.031 C 
ATOM     39  C   UNL A   1      43.945  28.328  33.077  1.00  0.00     0.029 A 
ATOM     40  C   UNL A   1      43.123  29.240  33.866  1.00  0.00     0.049 A 
ATOM     41  H   UNL A   1      41.412  30.256  33.248  1.00  0.00     0.167 HD
ATOM     42  C   UNL A   1      37.956  32.473  31.882  1.00  0.00     0.031 A 
ATOM     43  C   UNL A   1      43.374  29.584  35.145  1.00  0.00     0.031 A 
ATOM     44  C   UNL A   1      38.208  32.987  33.204  1.00  0.00     0.049 A 
ATOM     45  C   UNL A   1      42.523  30.623  35.816  1.00  0.00     0.074 A 
ATOM     46  C   UNL A   1      37.491  33.941  33.908  1.00  0.00     0.029 A 
ATOM     47  N   UNL A   1      39.235  32.569  34.034  1.00  0.00    -0.354 N 
ATOM     48  N   UNL A   1      41.478  31.259  35.345  1.00  0.00    -0.248 NA
ATOM     49  C   UNL A   1      42.907  31.015  37.180  1.00  0.00     0.031 C 
ATOM     50  C   UNL A   1      38.103  34.120  35.154  1.00  0.00     0.029 A 
ATOM     51  C   UNL A   1      39.175  33.248  35.240  1.00  0.00     0.049 A 
ATOM     52  H   UNL A   1      39.908  31.890  33.800  1.00  0.00     0.167 HD
ATOM     53  C   UNL A   1      41.087  32.136  36.350  1.00  0.00     0.074 A 
ATOM     54  C   UNL A   1      41.985  31.925  37.466  1.00  0.00     0.031 C 
ATOM     55  C   UNL A   1      40.082  33.045  36.340  1.00  0.00     0.031 A 
BRANCH  42  56
ATOM     56  C   UNL A   1      36.786  33.036  31.120  1.00  0.00    -0.014 A 
ATOM     57  C   UNL A   1      35.462  32.684  31.432  1.00  0.00     0.010 A 
ATOM     58  C   UNL A   1      37.024  33.977  30.100  1.00  0.00     0.010 A 
ATOM     59  C   UNL A   1      34.397  33.240  30.714  1.00  0.00     0.020 A 
ATOM     60  C   UNL A   1      35.962  34.552  29.397  1.00  0.00     0.020 A 
ATOM     61  C   UNL A   1      34.655  34.167  29.698  1.00  0.00     0.054 A 
BRANCH  61  62
ATOM     62  S   UNL A   1      33.258  34.897  28.800  1.00  0.00     0.124 S 
ATOM     63  O   UNL A   1      32.346  35.240  29.887  1.00  0.00    -0.237 OA
ATOM     64  O   UNL A   1      33.870  36.032  28.114  1.00  0.00    -0.237 OA
ATOM     65  O   UNL A   1      32.807  33.817  27.925  1.00  0.00    -0.744 OA
ENDBRANCH  61  62
ENDBRANCH  42  56
BRANCH  43  66
ATOM     66  C   UNL A   1      44.537  28.981  35.851  1.00  0.00    -0.014 A 
ATOM     67  C   UNL A   1      44.389  27.793  36.587  1.00  0.00     0.010 A 
ATOM     68  C   UNL A   1      45.810  29.573  35.750  1.00  0.00     0.010 A 
ATOM     69  C   UNL A   1      45.499  27.200  37.198  1.00  0.00     0.020 A 
ATOM     70  C   UNL A   1      46.924  28.968  36.335  1.00  0.00     0.020 A 
ATOM     71  C   UNL A   1      46.760  27.786  37.060  1.00  0.00     0.054 A 
BRANCH  71  72
ATOM     72  S   UNL A   1      48.208  26.950  37.766  1.00  0.00     0.124 S 
ATOM     73  O   UNL A   1      48.392  27.671  39.021  1.00  0.00    -0.237 OA
ATOM     74  O   UNL A   1      47.752  25.568  37.891  1.00  0.00    -0.237 OA
ATOM     75  O   UNL A   1      49.244  27.165  36.759  1.00  0.00    -0.744 OA
ENDBRANCH  71  72
ENDBRANCH  43  66
BRANCH  55  76
ATOM     76  C   UNL A   1      39.897  33.879  37.576  1.00  0.00    -0.014 A 
ATOM     77  C   UNL A   1      38.974  33.502  38.568  1.00  0.00     0.010 A 
ATOM     78  C   UNL A   1      40.676  35.034  37.766  1.00  0.00     0.010 A 
ATOM     79  C   UNL A   1      38.809  34.283  39.714  1.00  0.00     0.020 A 
ATOM     80  C   UNL A   1      40.528  35.807  38.921  1.00  0.00     0.020 A 
ATOM     81  C   UNL A   1      39.583  35.435  39.880  1.00  0.00     0.054 A 
BRANCH  81  82
ATOM     82  S   UNL A   1      39.372  36.424  41.387  1.00  0.00     0.124 S 
ATOM     83  O   UNL A   1      38.881  37.691  40.853  1.00  0.00    -0.237 OA
ATOM     84  O   UNL A   1      38.399  35.646  42.151  1.00  0.00    -0.237 OA
ATOM     85  O   UNL A   1      40.714  36.467  41.963  1.00  0.00    -0.744 OA
ENDBRANCH  81  82
ENDBRANCH  55  76
ENDBRANCH  29  30
ENDBRANCH  22  24
ENDBRANCH  21  22
ENDBRANCH  20  21
ENDBRANCH   1  20
TORSDOF 17
ENDMDL
MODEL 2
REMARK VINA RESULT:      -9.8      3.253     10.387
REMARK SMILES C[C@@H](C(=O)OCCOC(=O)c1ccc(-c2c3nc(c(-c4ccc(S(=O)(=O)[O-])cc4)c4ccc([nH]4)c(-c4ccc(S(=O)(=O)[O-])cc4)c4nc(c(-c5ccc(S(=O)(=O)[O-])cc5)c5ccc2[nH]5)C=C4)C=C3)cc1)c1ccc(Cc2cccs2)cc1F
REMARK SMILES IDX 6 1 5 2 3 3 4 4 2 5 1 6 71 7 72 8 82 9 73 10 81 11 83 12
REMARK SMILES IDX 74 13 75 14 76 15 77 16 80 17 78 18 79 19 7 20 8 21 9 22
REMARK SMILES IDX 10 23 11 24 12 25 70 26 13 27 69 28 14 29 15 30 16 31 63 32
REMARK SMILES IDX 17 33 68 34 62 35 64 36 18 37 67 38 61 39 60 40 19 42 49 43
REMARK SMILES IDX 30 44 48 45 31 46 34 47 47 48 65 49 32 50 33 51 46 53 66 54
REMARK SMILES IDX 35 55 20 56 21 57 29 58 22 59 28 60 23 61 24 62 25 63 26 64
REMARK SMILES IDX 27 65 50 66 51 67 59 68 52 69 58 70 53 71 54 72 55 73 56 74
REMARK SMILES IDX 57 75 36 76 37 77 45 78 38 79 44 80 39 81 40 82 41 83 42 84
REMARK SMILES IDX 43 85
REMARK H PARENT 64 41 34 52
REMARK Flexibility Score: inf
ROOT
ATOM      1  C   UNL A   1      33.893  35.815  28.475  1.00  0.00     0.274 C 
ENDROOT
BRANCH   1   2
ATOM      2  O   UNL A   1      33.588  34.510  27.937  1.00  0.00    -0.462 OA
BRANCH   2   3
ATOM      3  C   UNL A   1      34.557  33.559  28.055  1.00  0.00     0.313 C 
ATOM      4  O   UNL A   1      35.684  33.670  27.584  1.00  0.00    -0.252 OA
BRANCH   3   5
ATOM      5  C   UNL A   1      34.060  32.292  28.763  1.00  0.00     0.129 C 
ATOM      6  C   UNL A   1      34.786  32.000  30.080  1.00  0.00     0.025 C 
BRANCH   5   7
ATOM      7  C   UNL A   1      34.007  31.106  27.807  1.00  0.00     0.002 A 
ATOM      8  C   UNL A   1      35.026  30.139  27.852  1.00  0.00     0.008 A 
ATOM      9  C   UNL A   1      32.946  30.883  26.922  1.00  0.00     0.127 A 
ATOM     10  C   UNL A   1      34.967  28.986  27.061  1.00  0.00     0.004 A 
ATOM     11  C   UNL A   1      32.890  29.744  26.113  1.00  0.00     0.043 A 
ATOM     12  F   UNL A   1      31.915  31.736  26.873  1.00  0.00    -0.207 F 
ATOM     13  C   UNL A   1      33.887  28.765  26.196  1.00  0.00    -0.040 A 
BRANCH  13  14
ATOM     14  C   UNL A   1      33.756  27.456  25.446  1.00  0.00     0.082 C 
BRANCH  14  15
ATOM     15  C   UNL A   1      32.367  26.894  25.425  1.00  0.00     0.009 A 
ATOM     16  C   UNL A   1      31.601  26.446  26.483  1.00  0.00     0.016 A 
ATOM     17  S   UNL A   1      31.500  26.819  23.948  1.00  0.00    -0.149 S 
ATOM     18  C   UNL A   1      30.289  26.064  26.078  1.00  0.00     0.012 A 
ATOM     19  C   UNL A   1      30.099  26.226  24.725  1.00  0.00     0.065 A 
ENDBRANCH  14  15
ENDBRANCH  13  14
ENDBRANCH   5   7
ENDBRANCH   3   5
ENDBRANCH   2   3
ENDBRANCH   1   2
BRANCH   1  20
ATOM     20  C   UNL A   1      32.804  36.240  29.458  1.00  0.00     0.275 C 
BRANCH  20  21
ATOM     21  O   UNL A   1      33.404  36.430  30.748  1.00  0.00    -0.458 OA
BRANCH  21  22
ATOM     22  C   UNL A   1      32.991  35.596  31.732  1.00  0.00     0.338 C 
ATOM     23  O   UNL A   1      31.843  35.417  32.098  1.00  0.00    -0.246 OA
BRANCH  22  24
ATOM     24  C   UNL A   1      34.167  34.925  32.334  1.00  0.00     0.060 A 
ATOM     25  C   UNL A   1      35.461  35.382  32.090  1.00  0.00     0.016 A 
ATOM     26  C   UNL A   1      33.977  33.776  33.104  1.00  0.00     0.016 A 
ATOM     27  C   UNL A   1      36.558  34.648  32.545  1.00  0.00     0.010 A 
ATOM     28  C   UNL A   1      35.082  33.089  33.626  1.00  0.00     0.010 A 
ATOM     29  C   UNL A   1      36.394  33.489  33.317  1.00  0.00    -0.014 A 
BRANCH  29  30
ATOM     30  C   UNL A   1      37.572  32.668  33.737  1.00  0.00     0.031 A 
ATOM     31  C   UNL A   1      38.213  32.885  35.090  1.00  0.00     0.074 A 
ATOM     32  C   UNL A   1      38.064  31.688  32.949  1.00  0.00     0.049 A 
ATOM     33  N   UNL A   1      39.354  32.432  35.548  1.00  0.00    -0.248 NA
ATOM     34  C   UNL A   1      37.483  33.733  36.048  1.00  0.00     0.031 C 
ATOM     35  C   UNL A   1      37.531  31.295  31.643  1.00  0.00     0.029 A 
ATOM     36  N   UNL A   1      39.116  30.824  33.145  1.00  0.00    -0.354 N 
ATOM     37  C   UNL A   1      39.512  32.996  36.809  1.00  0.00     0.074 A 
ATOM     38  C   UNL A   1      38.347  33.819  37.050  1.00  0.00     0.031 C 
ATOM     39  C   UNL A   1      38.212  30.232  31.189  1.00  0.00     0.029 A 
ATOM     40  C   UNL A   1      39.302  29.935  32.113  1.00  0.00     0.049 A 
ATOM     41  H   UNL A   1      39.683  30.841  33.951  1.00  0.00     0.167 HD
ATOM     42  C   UNL A   1      40.537  32.852  37.685  1.00  0.00     0.031 A 
ATOM     43  C   UNL A   1      40.262  29.016  31.893  1.00  0.00     0.031 A 
ATOM     44  C   UNL A   1      41.665  31.980  37.486  1.00  0.00     0.049 A 
ATOM     45  C   UNL A   1      41.399  28.881  32.864  1.00  0.00     0.074 A 
ATOM     46  C   UNL A   1      42.759  31.785  38.313  1.00  0.00     0.029 A 
ATOM     47  N   UNL A   1      41.830  31.133  36.402  1.00  0.00    -0.354 N 
ATOM     48  N   UNL A   1      41.598  29.523  33.989  1.00  0.00    -0.248 NA
ATOM     49  C   UNL A   1      42.458  27.922  32.518  1.00  0.00     0.031 C 
ATOM     50  C   UNL A   1      43.600  30.840  37.714  1.00  0.00     0.029 A 
ATOM     51  C   UNL A   1      43.009  30.418  36.535  1.00  0.00     0.049 A 
ATOM     52  H   UNL A   1      41.201  31.052  35.649  1.00  0.00     0.167 HD
ATOM     53  C   UNL A   1      42.812  29.054  34.480  1.00  0.00     0.074 A 
ATOM     54  C   UNL A   1      43.284  28.052  33.547  1.00  0.00     0.031 C 
ATOM     55  C   UNL A   1      43.480  29.435  35.596  1.00  0.00     0.031 A 
BRANCH  42  56
ATOM     56  C   UNL A   1      40.515  33.700  38.929  1.00  0.00    -0.014 A 
ATOM     57  C   UNL A   1      39.996  33.219  40.143  1.00  0.00     0.010 A 
ATOM     58  C   UNL A   1      41.073  34.992  38.886  1.00  0.00     0.010 A 
ATOM     59  C   UNL A   1      40.007  34.029  41.284  1.00  0.00     0.020 A 
ATOM     60  C   UNL A   1      41.108  35.794  40.029  1.00  0.00     0.020 A 
ATOM     61  C   UNL A   1      40.559  35.313  41.218  1.00  0.00     0.054 A 
BRANCH  61  62
ATOM     62  S   UNL A   1      40.589  36.335  42.717  1.00  0.00     0.124 S 
ATOM     63  O   UNL A   1      40.144  35.388  43.736  1.00  0.00    -0.237 OA
ATOM     64  O   UNL A   1      41.990  36.739  42.807  1.00  0.00    -0.237 OA
ATOM     65  O   UNL A   1      39.652  37.416  42.419  1.00  0.00    -0.744 OA
ENDBRANCH  61  62
ENDBRANCH  42  56
BRANCH  43  66
ATOM     66  C   UNL A   1      40.221  28.196  30.652  1.00  0.00    -0.014 A 
ATOM     67  C   UNL A   1      41.110  28.453  29.594  1.00  0.00     0.010 A 
ATOM     68  C   UNL A   1      39.319  27.121  30.545  1.00  0.00     0.010 A 
ATOM     69  C   UNL A   1      41.106  27.641  28.456  1.00  0.00     0.020 A 
ATOM     70  C   UNL A   1      39.331  26.291  29.422  1.00  0.00     0.020 A 
ATOM     71  C   UNL A   1      40.223  26.560  28.382  1.00  0.00     0.054 A 
BRANCH  71  72
ATOM     72  S   UNL A   1      40.301  25.449  26.948  1.00  0.00     0.124 S 
ATOM     73  O   UNL A   1      41.268  24.450  27.390  1.00  0.00    -0.237 OA
ATOM     74  O   UNL A   1      38.922  24.984  26.826  1.00  0.00    -0.237 OA
ATOM     75  O   UNL A   1      40.750  26.325  25.868  1.00  0.00    -0.744 OA
ENDBRANCH  71  72
ENDBRANCH  43  66
BRANCH  55  76
ATOM     76  C   UNL A   1      44.795  28.760  35.873  1.00  0.00    -0.014 A 
ATOM     77  C   UNL A   1      45.999  29.302  35.388  1.00  0.00     0.010 A 
ATOM     78  C   UNL A   1      44.832  27.590  36.651  1.00  0.00     0.010 A 
ATOM     79  C   UNL A   1      47.215  28.668  35.651  1.00  0.00     0.020 A 
ATOM     80  C   UNL A   1      46.049  26.964  36.932  1.00  0.00     0.020 A 
ATOM     81  C   UNL A   1      47.232  27.499  36.417  1.00  0.00     0.054 A 
BRANCH  81  82
ATOM     82  S   UNL A   1      48.825  26.703  36.767  1.00  0.00     0.124 S 
ATOM     83  O   UNL A   1      48.510  25.292  36.566  1.00  0.00    -0.237 OA
ATOM     84  O   UNL A   1      49.711  27.298  35.769  1.00  0.00    -0.237 OA
ATOM     85  O   UNL A   1      49.107  27.089  38.147  1.00  0.00    -0.744 OA
ENDBRANCH  81  82
ENDBRANCH  55  76
ENDBRANCH  29  30
ENDBRANCH  22  24
ENDBRANCH  21  22
ENDBRANCH  20  21
ENDBRANCH   1  20
TORSDOF 17
ENDMDL
MODEL 3
REMARK VINA RESULT:      -9.5      3.357      9.843
REMARK SMILES C[C@@H](C(=O)OCCOC(=O)c1ccc(-c2c3nc(c(-c4ccc(S(=O)(=O)[O-])cc4)c4ccc([nH]4)c(-c4ccc(S(=O)(=O)[O-])cc4)c4nc(c(-c5ccc(S(=O)(=O)[O-])cc5)c5ccc2[nH]5)C=C4)C=C3)cc1)c1ccc(Cc2cccs2)cc1F
REMARK SMILES IDX 6 1 5 2 3 3 4 4 2 5 1 6 71 7 72 8 82 9 73 10 81 11 83 12
REMARK SMILES IDX 74 13 75 14 76 15 77 16 80 17 78 18 79 19 7 20 8 21 9 22
REMARK SMILES IDX 10 23 11 24 12 25 70 26 13 27 69 28 14 29 15 30 16 31 63 32
REMARK SMILES IDX 17 33 68 34 62 35 64 36 18 37 67 38 61 39 60 40 19 42 49 43
REMARK SMILES IDX 30 44 48 45 31 46 34 47 47 48 65 49 32 50 33 51 46 53 66 54
REMARK SMILES IDX 35 55 20 56 21 57 29 58 22 59 28 60 23 61 24 62 25 63 26 64
REMARK SMILES IDX 27 65 50 66 51 67 59 68 52 69 58 70 53 71 54 72 55 73 56 74
REMARK SMILES IDX 57 75 36 76 37 77 45 78 38 79 44 80 39 81 40 82 41 83 42 84
REMARK SMILES IDX 43 85
REMARK H PARENT 64 41 34 52
REMARK Flexibility Score: inf
ROOT
ATOM      1  C   UNL A   1      33.493  35.870  28.956  1.00  0.00     0.274 C 
ENDROOT
BRANCH   1   2
ATOM      2  O   UNL A   1      33.093  34.539  28.566  1.00  0.00    -0.462 OA
BRANCH   2   3
ATOM      3  C   UNL A   1      34.081  33.708  28.127  1.00  0.00     0.313 C 
ATOM      4  O   UNL A   1      34.886  34.007  27.250  1.00  0.00    -0.252 OA
BRANCH   3   5
ATOM      5  C   UNL A   1      34.024  32.323  28.782  1.00  0.00     0.129 C 
ATOM      6  C   UNL A   1      35.167  32.064  29.770  1.00  0.00     0.025 C 
BRANCH   5   7
ATOM      7  C   UNL A   1      33.841  31.223  27.743  1.00  0.00     0.002 A 
ATOM      8  C   UNL A   1      34.806  30.206  27.638  1.00  0.00     0.008 A 
ATOM      9  C   UNL A   1      32.711  31.126  26.923  1.00  0.00     0.127 A 
ATOM     10  C   UNL A   1      34.629  29.127  26.765  1.00  0.00     0.004 A 
ATOM     11  C   UNL A   1      32.537  30.062  26.033  1.00  0.00     0.043 A 
ATOM     12  F   UNL A   1      31.727  32.030  27.016  1.00  0.00    -0.207 F 
ATOM     13  C   UNL A   1      33.483  29.031  25.966  1.00  0.00    -0.040 A 
BRANCH  13  14
ATOM     14  C   UNL A   1      33.229  27.796  25.127  1.00  0.00     0.082 C 
BRANCH  14  15
ATOM     15  C   UNL A   1      32.052  27.907  24.207  1.00  0.00     0.009 A 
ATOM     16  C   UNL A   1      31.924  28.662  23.057  1.00  0.00     0.016 A 
ATOM     17  S   UNL A   1      30.653  26.957  24.491  1.00  0.00    -0.149 S 
ATOM     18  C   UNL A   1      30.680  28.439  22.398  1.00  0.00     0.012 A 
ATOM     19  C   UNL A   1      29.899  27.526  23.068  1.00  0.00     0.065 A 
ENDBRANCH  14  15
ENDBRANCH  13  14
ENDBRANCH   5   7
ENDBRANCH   3   5
ENDBRANCH   2   3
ENDBRANCH   1   2
BRANCH   1  20
ATOM     20  C   UNL A   1      32.531  36.416  30.008  1.00  0.00     0.275 C 
BRANCH  20  21
ATOM     21  O   UNL A   1      33.189  36.389  31.284  1.00  0.00    -0.458 OA
BRANCH  21  22
ATOM     22  C   UNL A   1      32.916  35.327  32.078  1.00  0.00     0.338 C 
ATOM     23  O   UNL A   1      31.823  35.003  32.509  1.00  0.00    -0.246 OA
BRANCH  22  24
ATOM     24  C   UNL A   1      34.173  34.602  32.379  1.00  0.00     0.060 A 
ATOM     25  C   UNL A   1      34.160  33.399  33.084  1.00  0.00     0.016 A 
ATOM     26  C   UNL A   1      35.394  35.168  32.007  1.00  0.00     0.016 A 
ATOM     27  C   UNL A   1      35.361  32.812  33.484  1.00  0.00     0.010 A 
ATOM     28  C   UNL A   1      36.596  34.529  32.342  1.00  0.00     0.010 A 
ATOM     29  C   UNL A   1      36.601  33.363  33.127  1.00  0.00    -0.014 A 
BRANCH  29  30
ATOM     30  C   UNL A   1      37.882  32.768  33.621  1.00  0.00     0.031 A 
ATOM     31  C   UNL A   1      38.622  31.744  32.790  1.00  0.00     0.074 A 
ATOM     32  C   UNL A   1      38.432  33.158  34.791  1.00  0.00     0.049 A 
ATOM     33  N   UNL A   1      39.620  30.966  33.131  1.00  0.00    -0.248 NA
ATOM     34  C   UNL A   1      38.175  31.561  31.399  1.00  0.00     0.031 C 
ATOM     35  C   UNL A   1      37.893  34.180  35.690  1.00  0.00     0.029 A 
ATOM     36  N   UNL A   1      39.589  32.753  35.415  1.00  0.00    -0.354 N 
ATOM     37  C   UNL A   1      39.867  30.155  32.028  1.00  0.00     0.074 A 
ATOM     38  C   UNL A   1      38.922  30.540  31.003  1.00  0.00     0.031 C 
ATOM     39  C   UNL A   1      38.745  34.369  36.708  1.00  0.00     0.029 A 
ATOM     40  C   UNL A   1      39.836  33.405  36.600  1.00  0.00     0.049 A 
ATOM     41  H   UNL A   1      40.185  32.061  35.047  1.00  0.00     0.167 HD
ATOM     42  C   UNL A   1      40.790  29.173  31.882  1.00  0.00     0.031 A 
ATOM     43  C   UNL A   1      40.794  33.226  37.531  1.00  0.00     0.031 A 
ATOM     44  C   UNL A   1      41.782  28.831  32.868  1.00  0.00     0.049 A 
ATOM     45  C   UNL A   1      41.797  32.123  37.362  1.00  0.00     0.074 A 
ATOM     46  C   UNL A   1      42.746  27.837  32.813  1.00  0.00     0.029 A 
ATOM     47  N   UNL A   1      41.962  29.492  34.073  1.00  0.00    -0.354 N 
ATOM     48  N   UNL A   1      41.931  31.279  36.369  1.00  0.00    -0.248 NA
ATOM     49  C   UNL A   1      42.759  31.928  38.458  1.00  0.00     0.031 C 
ATOM     50  C   UNL A   1      43.489  27.879  33.998  1.00  0.00     0.029 A 
ATOM     51  C   UNL A   1      43.016  28.925  34.771  1.00  0.00     0.049 A 
ATOM     52  H   UNL A   1      41.420  30.252  34.386  1.00  0.00     0.167 HD
ATOM     53  C   UNL A   1      42.983  30.442  36.725  1.00  0.00     0.074 A 
ATOM     54  C   UNL A   1      43.472  30.903  38.008  1.00  0.00     0.031 C 
ATOM     55  C   UNL A   1      43.486  29.378  36.054  1.00  0.00     0.031 A 
BRANCH  42  56
ATOM     56  C   UNL A   1      40.741  28.352  30.621  1.00  0.00    -0.014 A 
ATOM     57  C   UNL A   1      41.724  28.469  29.624  1.00  0.00     0.010 A 
ATOM     58  C   UNL A   1      39.709  27.408  30.459  1.00  0.00     0.010 A 
ATOM     59  C   UNL A   1      41.657  27.678  28.471  1.00  0.00     0.020 A 
ATOM     60  C   UNL A   1      39.652  26.600  29.322  1.00  0.00     0.020 A 
ATOM     61  C   UNL A   1      40.618  26.751  28.326  1.00  0.00     0.054 A 
BRANCH  61  62
ATOM     62  S   UNL A   1      40.567  25.716  26.837  1.00  0.00     0.124 S 
ATOM     63  O   UNL A   1      40.792  26.697  25.780  1.00  0.00    -0.237 OA
ATOM     64  O   UNL A   1      41.659  24.772  27.061  1.00  0.00    -0.237 OA
ATOM     65  O   UNL A   1      39.228  25.130  26.869  1.00  0.00    -0.744 OA
ENDBRANCH  61  62
ENDBRANCH  42  56
BRANCH  43  66
ATOM     66  C   UNL A   1      40.799  34.080  38.750  1.00  0.00    -0.014 A 
ATOM     67  C   UNL A   1      40.098  33.687  39.902  1.00  0.00     0.010 A 
ATOM     68  C   UNL A   1      41.549  35.272  38.775  1.00  0.00     0.010 A 
ATOM     69  C   UNL A   1      40.157  34.465  41.063  1.00  0.00     0.020 A 
ATOM     70  C   UNL A   1      41.632  36.035  39.941  1.00  0.00     0.020 A 
ATOM     71  C   UNL A   1      40.931  35.628  41.077  1.00  0.00     0.054 A 
BRANCH  71  72
ATOM     72  S   UNL A   1      41.086  36.570  42.621  1.00  0.00     0.124 S 
ATOM     73  O   UNL A   1      42.214  37.448  42.329  1.00  0.00    -0.237 OA
ATOM     74  O   UNL A   1      39.785  37.226  42.729  1.00  0.00    -0.237 OA
ATOM     75  O   UNL A   1      41.335  35.536  43.623  1.00  0.00    -0.744 OA
ENDBRANCH  71  72
ENDBRANCH  43  66
BRANCH  55  76
ATOM     76  C   UNL A   1      44.629  28.640  36.693  1.00  0.00    -0.014 A 
ATOM     77  C   UNL A   1      45.957  29.056  36.491  1.00  0.00     0.010 A 
ATOM     78  C   UNL A   1      44.373  27.540  37.530  1.00  0.00     0.010 A 
ATOM     79  C   UNL A   1      47.013  28.364  37.090  1.00  0.00     0.020 A 
ATOM     80  C   UNL A   1      45.425  26.858  38.146  1.00  0.00     0.020 A 
ATOM     81  C   UNL A   1      46.740  27.265  37.909  1.00  0.00     0.054 A 
BRANCH  81  82
ATOM     82  S   UNL A   1      48.124  26.394  38.696  1.00  0.00     0.124 S 
ATOM     83  O   UNL A   1      47.782  26.499  40.112  1.00  0.00    -0.237 OA
ATOM     84  O   UNL A   1      48.029  25.052  38.126  1.00  0.00    -0.237 OA
ATOM     85  O   UNL A   1      49.296  27.159  38.279  1.00  0.00    -0.744 OA
ENDBRANCH  81  82
ENDBRANCH  55  76
ENDBRANCH  29  30
ENDBRANCH  22  24
ENDBRANCH  21  22
ENDBRANCH  20  21
ENDBRANCH   1  20
TORSDOF 17
ENDMDL
