MODEL 1
REMARK VINA RESULT:     -11.8      0.000      0.000
REMARK SMILES COc1cccc(/C=C2/C(=O)N(c3cccc(C(=O)OCCOC(=O)c4ccc(-c5c6nc(c(-c7ccc(S(=O)(=O)[O-])cc7)c7ccc([nH]7)c(-c7ccc(S(=O)(=O)[O-])cc7)c7nc(c(-c8ccc(S(=O)(=O)[O-])cc8)c8ccc5[nH]8)C=C7)C=C6)cc4)c3)N=C2C)c1
REMARK SMILES IDX 21 1 20 2 18 3 19 4 17 5 13 6 14 7 86 8 15 9 16 10 12 11
REMARK SMILES IDX 8 12 9 13 10 14 88 15 11 16 87 17 89 18 7 19 3 20 4 21 90 22
REMARK SMILES IDX 5 23 6 24 2 25 1 26 22 27 23 28 24 29 25 30 26 31 27 32
REMARK SMILES IDX 85 33 28 34 84 35 29 36 30 37 31 38 78 39 32 40 83 41 77 42
REMARK SMILES IDX 79 43 33 44 82 45 76 46 75 47 34 49 64 50 45 51 63 52 46 53
REMARK SMILES IDX 49 54 62 55 80 56 47 57 48 58 61 60 81 61 50 62 35 63 36 64
REMARK SMILES IDX 44 65 37 66 43 67 38 68 39 69 40 70 41 71 42 72 65 73 66 74
REMARK SMILES IDX 74 75 67 76 73 77 68 78 69 79 70 80 71 81 72 82 51 83 52 84
REMARK SMILES IDX 60 85 53 86 59 87 54 88 55 89 56 90 57 91 58 92
REMARK H PARENT 79 48 49 59
REMARK Flexibility Score: inf
ROOT
ATOM      1  C   UNL A   1      33.318  30.443  27.539  1.00  0.00     0.275 C 
ENDROOT
BRANCH   1   2
ATOM      2  O   UNL A   1      32.998  30.317  26.139  1.00  0.00    -0.458 OA
BRANCH   2   3
ATOM      3  C   UNL A   1      31.728  30.629  25.766  1.00  0.00     0.338 C 
ATOM      4  O   UNL A   1      31.119  31.649  26.036  1.00  0.00    -0.246 OA
BRANCH   3   5
ATOM      5  C   UNL A   1      31.214  29.578  24.854  1.00  0.00     0.062 A 
ATOM      6  C   UNL A   1      31.299  27.318  24.014  1.00  0.00     0.070 A 
ATOM      7  C   UNL A   1      30.448  27.672  22.961  1.00  0.00     0.028 A 
ATOM      8  C   UNL A   1      31.704  28.280  24.943  1.00  0.00     0.044 A 
ATOM      9  C   UNL A   1      29.890  28.945  22.921  1.00  0.00     0.003 A 
ATOM     10  C   UNL A   1      30.241  29.879  23.894  1.00  0.00     0.016 A 
BRANCH   6  11
ATOM     11  N   UNL A   1      31.727  25.995  24.156  1.00  0.00    -0.196 N 
ATOM     12  C   UNL A   1      32.351  22.939  25.767  1.00  0.00     0.024 C 
ATOM     13  C   UNL A   1      32.282  23.964  24.911  1.00  0.00     0.065 C 
ATOM     14  C   UNL A   1      31.667  25.240  25.329  1.00  0.00     0.280 C 
ATOM     15  C   UNL A   1      32.683  24.188  23.507  1.00  0.00     0.071 C 
ATOM     16  O   UNL A   1      31.221  25.490  26.432  1.00  0.00    -0.267 OA
ATOM     17  N   UNL A   1      32.306  25.361  23.074  1.00  0.00    -0.169 NA
ATOM     18  C   UNL A   1      33.466  23.246  22.659  1.00  0.00     0.069 C 
BRANCH  12  19
ATOM     19  C   UNL A   1      32.993  21.673  25.457  1.00  0.00    -0.021 A 
ATOM     20  C   UNL A   1      35.045  20.445  25.088  1.00  0.00     0.119 A 
ATOM     21  C   UNL A   1      34.289  19.359  24.641  1.00  0.00     0.046 A 
ATOM     22  C   UNL A   1      34.388  21.590  25.530  1.00  0.00     0.054 A 
ATOM     23  C   UNL A   1      32.892  19.414  24.629  1.00  0.00     0.004 A 
ATOM     24  C   UNL A   1      32.240  20.577  25.032  1.00  0.00     0.008 A 
BRANCH  20  25
ATOM     25  O   UNL A   1      36.401  20.289  25.013  1.00  0.00    -0.497 OA
ATOM     26  C   UNL A   1      37.180  21.479  24.933  1.00  0.00     0.278 C 
ENDBRANCH  20  25
ENDBRANCH  12  19
ENDBRANCH   6  11
ENDBRANCH   3   5
ENDBRANCH   2   3
ENDBRANCH   1   2
BRANCH   1  27
ATOM     27  C   UNL A   1      34.339  31.556  27.782  1.00  0.00     0.275 C 
BRANCH  27  28
ATOM     28  O   UNL A   1      35.678  31.030  27.771  1.00  0.00    -0.458 OA
BRANCH  28  29
ATOM     29  C   UNL A   1      36.252  30.921  28.989  1.00  0.00     0.338 C 
ATOM     30  O   UNL A   1      35.799  31.284  30.061  1.00  0.00    -0.246 OA
BRANCH  29  31
ATOM     31  C   UNL A   1      37.519  30.193  28.873  1.00  0.00     0.060 A 
ATOM     32  C   UNL A   1      38.290  30.046  30.018  1.00  0.00     0.016 A 
ATOM     33  C   UNL A   1      38.023  29.815  27.635  1.00  0.00     0.016 A 
ATOM     34  C   UNL A   1      39.621  29.662  29.930  1.00  0.00     0.010 A 
ATOM     35  C   UNL A   1      39.321  29.295  27.564  1.00  0.00     0.010 A 
ATOM     36  C   UNL A   1      40.151  29.256  28.703  1.00  0.00    -0.014 A 
BRANCH  36  37
ATOM     37  C   UNL A   1      41.566  28.810  28.588  1.00  0.00     0.031 A 
ATOM     38  C   UNL A   1      42.676  29.823  28.704  1.00  0.00     0.074 A 
ATOM     39  C   UNL A   1      41.862  27.515  28.348  1.00  0.00     0.049 A 
ATOM     40  N   UNL A   1      43.933  29.714  28.366  1.00  0.00    -0.248 NA
ATOM     41  C   UNL A   1      42.313  31.141  29.252  1.00  0.00     0.031 C 
ATOM     42  C   UNL A   1      40.898  26.413  28.294  1.00  0.00     0.029 A 
ATOM     43  N   UNL A   1      43.066  26.908  28.088  1.00  0.00    -0.354 N 
ATOM     44  C   UNL A   1      44.496  30.966  28.595  1.00  0.00     0.074 A 
ATOM     45  C   UNL A   1      43.441  31.820  29.094  1.00  0.00     0.031 C 
ATOM     46  C   UNL A   1      41.547  25.268  28.037  1.00  0.00     0.029 A 
ATOM     47  C   UNL A   1      42.951  25.568  27.796  1.00  0.00     0.049 A 
ATOM     48  H   UNL A   1      43.927  27.385  28.109  1.00  0.00     0.167 HD
ATOM     49  C   UNL A   1      45.776  31.364  28.398  1.00  0.00     0.031 A 
ATOM     50  C   UNL A   1      43.855  24.688  27.324  1.00  0.00     0.031 A 
ATOM     51  C   UNL A   1      46.818  30.490  27.926  1.00  0.00     0.049 A 
ATOM     52  C   UNL A   1      45.249  25.168  27.033  1.00  0.00     0.074 A 
ATOM     53  C   UNL A   1      48.151  30.783  27.696  1.00  0.00     0.029 A 
ATOM     54  N   UNL A   1      46.646  29.146  27.620  1.00  0.00    -0.354 N 
ATOM     55  N   UNL A   1      45.757  26.366  27.199  1.00  0.00    -0.248 NA
ATOM     56  C   UNL A   1      46.190  24.182  26.486  1.00  0.00     0.031 C 
ATOM     57  C   UNL A   1      48.770  29.635  27.194  1.00  0.00     0.029 A 
ATOM     58  C   UNL A   1      47.843  28.603  27.187  1.00  0.00     0.049 A 
ATOM     59  H   UNL A   1      45.798  28.653  27.699  1.00  0.00     0.167 HD
ATOM     60  C   UNL A   1      47.089  26.267  26.815  1.00  0.00     0.074 A 
ATOM     61  C   UNL A   1      47.306  24.894  26.409  1.00  0.00     0.031 C 
ATOM     62  C   UNL A   1      48.046  27.227  26.808  1.00  0.00     0.031 A 
BRANCH  49  63
ATOM     63  C   UNL A   1      46.109  32.814  28.642  1.00  0.00    -0.014 A 
ATOM     64  C   UNL A   1      46.096  33.763  27.604  1.00  0.00     0.010 A 
ATOM     65  C   UNL A   1      46.409  33.242  29.950  1.00  0.00     0.010 A 
ATOM     66  C   UNL A   1      46.425  35.098  27.859  1.00  0.00     0.020 A 
ATOM     67  C   UNL A   1      46.705  34.582  30.216  1.00  0.00     0.020 A 
ATOM     68  C   UNL A   1      46.729  35.499  29.164  1.00  0.00     0.054 A 
BRANCH  68  69
ATOM     69  S   UNL A   1      47.138  37.240  29.468  1.00  0.00     0.124 S 
ATOM     70  O   UNL A   1      45.974  37.925  28.910  1.00  0.00    -0.237 OA
ATOM     71  O   UNL A   1      47.259  37.290  30.922  1.00  0.00    -0.237 OA
ATOM     72  O   UNL A   1      48.387  37.438  28.734  1.00  0.00    -0.744 OA
ENDBRANCH  68  69
ENDBRANCH  49  63
BRANCH  50  73
ATOM     73  C   UNL A   1      43.449  23.281  27.050  1.00  0.00    -0.014 A 
ATOM     74  C   UNL A   1      43.289  22.367  28.104  1.00  0.00     0.010 A 
ATOM     75  C   UNL A   1      43.197  22.852  25.732  1.00  0.00     0.010 A 
ATOM     76  C   UNL A   1      42.898  21.050  27.847  1.00  0.00     0.020 A 
ATOM     77  C   UNL A   1      42.772  21.546  25.473  1.00  0.00     0.020 A 
ATOM     78  C   UNL A   1      42.637  20.648  26.534  1.00  0.00     0.054 A 
BRANCH  78  79
ATOM     79  S   UNL A   1      42.085  18.946  26.233  1.00  0.00     0.124 S 
ATOM     80  O   UNL A   1      42.258  18.335  27.547  1.00  0.00    -0.237 OA
ATOM     81  O   UNL A   1      40.703  19.137  25.800  1.00  0.00    -0.237 OA
ATOM     82  O   UNL A   1      42.996  18.469  25.195  1.00  0.00    -0.744 OA
ENDBRANCH  78  79
ENDBRANCH  50  73
BRANCH  62  83
ATOM     83  C   UNL A   1      49.442  26.818  26.423  1.00  0.00    -0.014 A 
ATOM     84  C   UNL A   1      50.305  26.189  27.336  1.00  0.00     0.010 A 
ATOM     85  C   UNL A   1      49.857  26.991  25.089  1.00  0.00     0.010 A 
ATOM     86  C   UNL A   1      51.565  25.748  26.922  1.00  0.00     0.020 A 
ATOM     87  C   UNL A   1      51.101  26.524  24.665  1.00  0.00     0.020 A 
ATOM     88  C   UNL A   1      51.952  25.910  25.587  1.00  0.00     0.054 A 
BRANCH  88  89
ATOM     89  S   UNL A   1      53.556  25.252  25.057  1.00  0.00     0.124 S 
ATOM     90  O   UNL A   1      53.528  25.502  23.619  1.00  0.00    -0.237 OA
ATOM     91  O   UNL A   1      54.501  26.064  25.819  1.00  0.00    -0.237 OA
ATOM     92  O   UNL A   1      53.499  23.844  25.445  1.00  0.00    -0.744 OA
ENDBRANCH  88  89
ENDBRANCH  62  83
ENDBRANCH  36  37
ENDBRANCH  29  31
ENDBRANCH  28  29
ENDBRANCH  27  28
ENDBRANCH   1  27
TORSDOF 17
ENDMDL
MODEL 2
REMARK VINA RESULT:     -11.7      6.976      9.064
REMARK SMILES COc1cccc(/C=C2/C(=O)N(c3cccc(C(=O)OCCOC(=O)c4ccc(-c5c6nc(c(-c7ccc(S(=O)(=O)[O-])cc7)c7ccc([nH]7)c(-c7ccc(S(=O)(=O)[O-])cc7)c7nc(c(-c8ccc(S(=O)(=O)[O-])cc8)c8ccc5[nH]8)C=C7)C=C6)cc4)c3)N=C2C)c1
REMARK SMILES IDX 21 1 20 2 18 3 19 4 17 5 13 6 14 7 86 8 15 9 16 10 12 11
REMARK SMILES IDX 8 12 9 13 10 14 88 15 11 16 87 17 89 18 7 19 3 20 4 21 90 22
REMARK SMILES IDX 5 23 6 24 2 25 1 26 22 27 23 28 24 29 25 30 26 31 27 32
REMARK SMILES IDX 85 33 28 34 84 35 29 36 30 37 31 38 78 39 32 40 83 41 77 42
REMARK SMILES IDX 79 43 33 44 82 45 76 46 75 47 34 49 64 50 45 51 63 52 46 53
REMARK SMILES IDX 49 54 62 55 80 56 47 57 48 58 61 60 81 61 50 62 35 63 36 64
REMARK SMILES IDX 44 65 37 66 43 67 38 68 39 69 40 70 41 71 42 72 65 73 66 74
REMARK SMILES IDX 74 75 67 76 73 77 68 78 69 79 70 80 71 81 72 82 51 83 52 84
REMARK SMILES IDX 60 85 53 86 59 87 54 88 55 89 56 90 57 91 58 92
REMARK H PARENT 79 48 49 59
REMARK Flexibility Score: inf
ROOT
ATOM      1  C   UNL A   1      33.763  35.607  28.360  1.00  0.00     0.275 C 
ENDROOT
BRANCH   1   2
ATOM      2  O   UNL A   1      34.097  34.225  28.599  1.00  0.00    -0.458 OA
BRANCH   2   3
ATOM      3  C   UNL A   1      33.317  33.289  27.996  1.00  0.00     0.338 C 
ATOM      4  O   UNL A   1      32.212  33.463  27.511  1.00  0.00    -0.246 OA
BRANCH   3   5
ATOM      5  C   UNL A   1      34.069  32.015  27.897  1.00  0.00     0.062 A 
ATOM      6  C   UNL A   1      34.129  29.662  27.368  1.00  0.00     0.070 A 
ATOM      7  C   UNL A   1      35.390  29.554  27.966  1.00  0.00     0.028 A 
ATOM      8  C   UNL A   1      33.458  30.887  27.361  1.00  0.00     0.044 A 
ATOM      9  C   UNL A   1      36.037  30.696  28.424  1.00  0.00     0.003 A 
ATOM     10  C   UNL A   1      35.392  31.929  28.347  1.00  0.00     0.016 A 
BRANCH   6  11
ATOM     11  N   UNL A   1      33.548  28.549  26.752  1.00  0.00    -0.196 N 
ATOM     12  C   UNL A   1      31.189  26.011  26.193  1.00  0.00     0.024 C 
ATOM     13  C   UNL A   1      32.258  26.813  26.181  1.00  0.00     0.065 C 
ATOM     14  C   UNL A   1      32.353  27.937  27.136  1.00  0.00     0.280 C 
ATOM     15  C   UNL A   1      33.496  26.902  25.379  1.00  0.00     0.071 C 
ATOM     16  O   UNL A   1      31.543  28.210  28.000  1.00  0.00    -0.267 OA
ATOM     17  N   UNL A   1      34.209  27.949  25.697  1.00  0.00    -0.169 NA
ATOM     18  C   UNL A   1      33.948  25.918  24.356  1.00  0.00     0.069 C 
BRANCH  12  19
ATOM     19  C   UNL A   1      31.044  24.850  25.331  1.00  0.00    -0.021 A 
ATOM     20  C   UNL A   1      31.436  22.487  24.981  1.00  0.00     0.119 A 
ATOM     21  C   UNL A   1      31.024  22.638  23.655  1.00  0.00     0.046 A 
ATOM     22  C   UNL A   1      31.410  23.593  25.826  1.00  0.00     0.054 A 
ATOM     23  C   UNL A   1      30.595  23.878  23.174  1.00  0.00     0.004 A 
ATOM     24  C   UNL A   1      30.612  24.991  24.011  1.00  0.00     0.008 A 
BRANCH  20  25
ATOM     25  O   UNL A   1      31.872  21.239  25.325  1.00  0.00    -0.497 OA
ATOM     26  C   UNL A   1      32.507  20.477  24.302  1.00  0.00     0.278 C 
ENDBRANCH  20  25
ENDBRANCH  12  19
ENDBRANCH   6  11
ENDBRANCH   3   5
ENDBRANCH   2   3
ENDBRANCH   1   2
BRANCH   1  27
ATOM     27  C   UNL A   1      33.108  36.246  29.586  1.00  0.00     0.275 C 
BRANCH  27  28
ATOM     28  O   UNL A   1      32.855  35.258  30.601  1.00  0.00    -0.458 OA
BRANCH  28  29
ATOM     29  C   UNL A   1      32.889  35.729  31.867  1.00  0.00     0.338 C 
ATOM     30  O   UNL A   1      32.153  36.558  32.374  1.00  0.00    -0.246 OA
BRANCH  29  31
ATOM     31  C   UNL A   1      33.921  35.018  32.628  1.00  0.00     0.060 A 
ATOM     32  C   UNL A   1      35.210  35.534  32.613  1.00  0.00     0.016 A 
ATOM     33  C   UNL A   1      33.669  33.778  33.202  1.00  0.00     0.016 A 
ATOM     34  C   UNL A   1      36.286  34.762  33.030  1.00  0.00     0.010 A 
ATOM     35  C   UNL A   1      34.736  33.058  33.751  1.00  0.00     0.010 A 
ATOM     36  C   UNL A   1      36.063  33.521  33.631  1.00  0.00    -0.014 A 
BRANCH  36  37
ATOM     37  C   UNL A   1      37.197  32.688  34.116  1.00  0.00     0.031 A 
ATOM     38  C   UNL A   1      37.836  33.004  35.443  1.00  0.00     0.074 A 
ATOM     39  C   UNL A   1      37.677  31.675  33.363  1.00  0.00     0.049 A 
ATOM     40  N   UNL A   1      38.983  32.604  35.924  1.00  0.00    -0.248 NA
ATOM     41  C   UNL A   1      37.093  33.909  36.336  1.00  0.00     0.031 C 
ATOM     42  C   UNL A   1      37.107  31.204  32.098  1.00  0.00     0.029 A 
ATOM     43  N   UNL A   1      38.772  30.867  33.549  1.00  0.00    -0.354 N 
ATOM     44  C   UNL A   1      39.132  33.260  37.142  1.00  0.00     0.074 A 
ATOM     45  C   UNL A   1      37.960  34.089  37.322  1.00  0.00     0.031 C 
ATOM     46  C   UNL A   1      37.843  30.184  31.634  1.00  0.00     0.029 A 
ATOM     47  C   UNL A   1      38.996  30.002  32.503  1.00  0.00     0.049 A 
ATOM     48  H   UNL A   1      39.340  30.903  34.352  1.00  0.00     0.167 HD
ATOM     49  C   UNL A   1      40.158  33.181  38.023  1.00  0.00     0.031 A 
ATOM     50  C   UNL A   1      40.043  29.197  32.233  1.00  0.00     0.031 A 
ATOM     51  C   UNL A   1      41.304  32.329  37.837  1.00  0.00     0.049 A 
ATOM     52  C   UNL A   1      41.209  29.184  33.180  1.00  0.00     0.074 A 
ATOM     53  C   UNL A   1      42.399  32.164  38.667  1.00  0.00     0.029 A 
ATOM     54  N   UNL A   1      41.497  31.489  36.748  1.00  0.00    -0.354 N 
ATOM     55  N   UNL A   1      41.366  29.850  34.299  1.00  0.00    -0.248 NA
ATOM     56  C   UNL A   1      42.342  28.320  32.827  1.00  0.00     0.031 C 
ATOM     57  C   UNL A   1      43.281  31.271  38.052  1.00  0.00     0.029 A 
ATOM     58  C   UNL A   1      42.700  30.819  36.876  1.00  0.00     0.049 A 
ATOM     59  H   UNL A   1      40.870  31.386  35.996  1.00  0.00     0.167 HD
ATOM     60  C   UNL A   1      42.598  29.453  34.805  1.00  0.00     0.074 A 
ATOM     61  C   UNL A   1      43.144  28.490  33.870  1.00  0.00     0.031 C 
ATOM     62  C   UNL A   1      43.217  29.846  35.946  1.00  0.00     0.031 A 
BRANCH  49  63
ATOM     63  C   UNL A   1      40.115  34.074  39.237  1.00  0.00    -0.014 A 
ATOM     64  C   UNL A   1      40.596  35.395  39.204  1.00  0.00     0.010 A 
ATOM     65  C   UNL A   1      39.549  33.587  40.431  1.00  0.00     0.010 A 
ATOM     66  C   UNL A   1      40.556  36.194  40.352  1.00  0.00     0.020 A 
ATOM     67  C   UNL A   1      39.476  34.392  41.572  1.00  0.00     0.020 A 
ATOM     68  C   UNL A   1      39.998  35.686  41.529  1.00  0.00     0.054 A 
BRANCH  68  69
ATOM     69  S   UNL A   1      39.948  36.749  42.999  1.00  0.00     0.124 S 
ATOM     70  O   UNL A   1      41.259  36.501  43.595  1.00  0.00    -0.237 OA
ATOM     71  O   UNL A   1      39.759  38.078  42.425  1.00  0.00    -0.237 OA
ATOM     72  O   UNL A   1      38.812  36.235  43.762  1.00  0.00    -0.744 OA
ENDBRANCH  68  69
ENDBRANCH  49  63
BRANCH  50  73
ATOM     73  C   UNL A   1      40.051  28.381  30.987  1.00  0.00    -0.014 A 
ATOM     74  C   UNL A   1      41.091  28.515  30.053  1.00  0.00     0.010 A 
ATOM     75  C   UNL A   1      39.029  27.443  30.738  1.00  0.00     0.010 A 
ATOM     76  C   UNL A   1      41.104  27.740  28.889  1.00  0.00     0.020 A 
ATOM     77  C   UNL A   1      39.056  26.642  29.593  1.00  0.00     0.020 A 
ATOM     78  C   UNL A   1      40.089  26.806  28.669  1.00  0.00     0.054 A 
BRANCH  78  79
ATOM     79  S   UNL A   1      40.155  25.780  27.174  1.00  0.00     0.124 S 
ATOM     80  O   UNL A   1      40.552  26.750  26.158  1.00  0.00    -0.237 OA
ATOM     81  O   UNL A   1      41.162  24.781  27.523  1.00  0.00    -0.237 OA
ATOM     82  O   UNL A   1      38.793  25.265  27.051  1.00  0.00    -0.744 OA
ENDBRANCH  78  79
ENDBRANCH  50  73
BRANCH  62  83
ATOM     83  C   UNL A   1      44.520  29.181  36.298  1.00  0.00    -0.014 A 
ATOM     84  C   UNL A   1      44.562  27.972  37.012  1.00  0.00     0.010 A 
ATOM     85  C   UNL A   1      45.719  29.741  35.819  1.00  0.00     0.010 A 
ATOM     86  C   UNL A   1      45.786  27.339  37.250  1.00  0.00     0.020 A 
ATOM     87  C   UNL A   1      46.938  29.096  36.028  1.00  0.00     0.020 A 
ATOM     88  C   UNL A   1      46.965  27.900  36.748  1.00  0.00     0.054 A 
BRANCH  88  89
ATOM     89  S   UNL A   1      48.527  27.015  36.997  1.00  0.00     0.124 S 
ATOM     90  O   UNL A   1      48.807  27.280  38.405  1.00  0.00    -0.237 OA
ATOM     91  O   UNL A   1      48.167  25.636  36.676  1.00  0.00    -0.237 OA
ATOM     92  O   UNL A   1      49.441  27.651  36.051  1.00  0.00    -0.744 OA
ENDBRANCH  88  89
ENDBRANCH  62  83
ENDBRANCH  36  37
ENDBRANCH  29  31
ENDBRANCH  28  29
ENDBRANCH  27  28
ENDBRANCH   1  27
TORSDOF 17
ENDMDL
MODEL 3
REMARK VINA RESULT:     -11.5      4.737     11.646
REMARK SMILES COc1cccc(/C=C2/C(=O)N(c3cccc(C(=O)OCCOC(=O)c4ccc(-c5c6nc(c(-c7ccc(S(=O)(=O)[O-])cc7)c7ccc([nH]7)c(-c7ccc(S(=O)(=O)[O-])cc7)c7nc(c(-c8ccc(S(=O)(=O)[O-])cc8)c8ccc5[nH]8)C=C7)C=C6)cc4)c3)N=C2C)c1
REMARK SMILES IDX 21 1 20 2 18 3 19 4 17 5 13 6 14 7 86 8 15 9 16 10 12 11
REMARK SMILES IDX 8 12 9 13 10 14 88 15 11 16 87 17 89 18 7 19 3 20 4 21 90 22
REMARK SMILES IDX 5 23 6 24 2 25 1 26 22 27 23 28 24 29 25 30 26 31 27 32
REMARK SMILES IDX 85 33 28 34 84 35 29 36 30 37 31 38 78 39 32 40 83 41 77 42
REMARK SMILES IDX 79 43 33 44 82 45 76 46 75 47 34 49 64 50 45 51 63 52 46 53
REMARK SMILES IDX 49 54 62 55 80 56 47 57 48 58 61 60 81 61 50 62 35 63 36 64
REMARK SMILES IDX 44 65 37 66 43 67 38 68 39 69 40 70 41 71 42 72 65 73 66 74
REMARK SMILES IDX 74 75 67 76 73 77 68 78 69 79 70 80 71 81 72 82 51 83 52 84
REMARK SMILES IDX 60 85 53 86 59 87 54 88 55 89 56 90 57 91 58 92
REMARK H PARENT 79 48 49 59
REMARK Flexibility Score: inf
ROOT
ATOM      1  C   UNL A   1      40.911  19.943  26.348  1.00  0.00     0.275 C 
ENDROOT
BRANCH   1   2
ATOM      2  O   UNL A   1      41.724  19.274  25.362  1.00  0.00    -0.458 OA
BRANCH   2   3
ATOM      3  C   UNL A   1      42.747  18.506  25.824  1.00  0.00     0.338 C 
ATOM      4  O   UNL A   1      42.671  17.363  26.238  1.00  0.00    -0.246 OA
BRANCH   3   5
ATOM      5  C   UNL A   1      44.026  19.231  25.635  1.00  0.00     0.062 A 
ATOM      6  C   UNL A   1      45.251  21.306  25.502  1.00  0.00     0.070 A 
ATOM      7  C   UNL A   1      46.368  20.621  25.011  1.00  0.00     0.028 A 
ATOM      8  C   UNL A   1      44.071  20.612  25.785  1.00  0.00     0.044 A 
ATOM      9  C   UNL A   1      46.353  19.232  24.944  1.00  0.00     0.003 A 
ATOM     10  C   UNL A   1      45.196  18.540  25.298  1.00  0.00     0.016 A 
BRANCH   6  11
ATOM     11  N   UNL A   1      45.319  22.683  25.734  1.00  0.00    -0.196 N 
ATOM     12  C   UNL A   1      44.761  26.103  25.171  1.00  0.00     0.024 C 
ATOM     13  C   UNL A   1      45.172  24.912  25.620  1.00  0.00     0.065 C 
ATOM     14  C   UNL A   1      44.754  23.674  24.929  1.00  0.00     0.280 C 
ATOM     15  C   UNL A   1      46.006  24.445  26.746  1.00  0.00     0.071 C 
ATOM     16  O   UNL A   1      44.069  23.612  23.927  1.00  0.00    -0.267 OA
ATOM     17  N   UNL A   1      46.038  23.141  26.821  1.00  0.00    -0.169 NA
ATOM     18  C   UNL A   1      46.780  25.310  27.680  1.00  0.00     0.069 C 
BRANCH  12  19
ATOM     19  C   UNL A   1      45.174  27.368  25.754  1.00  0.00    -0.021 A 
ATOM     20  C   UNL A   1      44.548  29.408  26.895  1.00  0.00     0.119 A 
ATOM     21  C   UNL A   1      45.837  29.900  26.675  1.00  0.00     0.046 A 
ATOM     22  C   UNL A   1      44.233  28.124  26.462  1.00  0.00     0.054 A 
ATOM     23  C   UNL A   1      46.800  29.123  26.026  1.00  0.00     0.004 A 
ATOM     24  C   UNL A   1      46.468  27.855  25.556  1.00  0.00     0.008 A 
BRANCH  20  25
ATOM     25  O   UNL A   1      43.682  30.274  27.501  1.00  0.00    -0.497 OA
ATOM     26  C   UNL A   1      43.977  31.663  27.385  1.00  0.00     0.278 C 
ENDBRANCH  20  25
ENDBRANCH  12  19
ENDBRANCH   6  11
ENDBRANCH   3   5
ENDBRANCH   2   3
ENDBRANCH   1   2
BRANCH   1  27
ATOM     27  C   UNL A   1      40.183  21.147  25.748  1.00  0.00     0.275 C 
BRANCH  27  28
ATOM     28  O   UNL A   1      39.740  22.043  26.784  1.00  0.00    -0.458 OA
BRANCH  28  29
ATOM     29  C   UNL A   1      38.865  22.987  26.377  1.00  0.00     0.338 C 
ATOM     30  O   UNL A   1      37.906  22.845  25.638  1.00  0.00    -0.246 OA
BRANCH  29  31
ATOM     31  C   UNL A   1      39.172  24.259  27.037  1.00  0.00     0.060 A 
ATOM     32  C   UNL A   1      39.963  25.173  26.351  1.00  0.00     0.016 A 
ATOM     33  C   UNL A   1      38.837  24.481  28.367  1.00  0.00     0.016 A 
ATOM     34  C   UNL A   1      40.553  26.238  27.018  1.00  0.00     0.010 A 
ATOM     35  C   UNL A   1      39.319  25.632  29.002  1.00  0.00     0.010 A 
ATOM     36  C   UNL A   1      40.220  26.498  28.349  1.00  0.00    -0.014 A 
BRANCH  36  37
ATOM     37  C   UNL A   1      40.815  27.653  29.077  1.00  0.00     0.031 A 
ATOM     38  C   UNL A   1      39.982  28.883  29.327  1.00  0.00     0.074 A 
ATOM     39  C   UNL A   1      42.101  27.618  29.485  1.00  0.00     0.049 A 
ATOM     40  N   UNL A   1      40.363  30.081  29.681  1.00  0.00    -0.248 NA
ATOM     41  C   UNL A   1      38.529  28.749  29.129  1.00  0.00     0.031 C 
ATOM     42  C   UNL A   1      43.001  26.466  29.385  1.00  0.00     0.029 A 
ATOM     43  N   UNL A   1      42.883  28.593  30.055  1.00  0.00    -0.354 N 
ATOM     44  C   UNL A   1      39.210  30.860  29.682  1.00  0.00     0.074 A 
ATOM     45  C   UNL A   1      38.117  29.999  29.286  1.00  0.00     0.031 C 
ATOM     46  C   UNL A   1      44.199  26.793  29.890  1.00  0.00     0.029 A 
ATOM     47  C   UNL A   1      44.190  28.205  30.244  1.00  0.00     0.049 A 
ATOM     48  H   UNL A   1      42.541  29.483  30.304  1.00  0.00     0.167 HD
ATOM     49  C   UNL A   1      39.081  32.176  29.979  1.00  0.00     0.031 A 
ATOM     50  C   UNL A   1      45.278  28.916  30.600  1.00  0.00     0.031 A 
ATOM     51  C   UNL A   1      40.178  33.009  30.396  1.00  0.00     0.049 A 
ATOM     52  C   UNL A   1      45.130  30.391  30.845  1.00  0.00     0.074 A 
ATOM     53  C   UNL A   1      40.162  34.353  30.728  1.00  0.00     0.029 A 
ATOM     54  N   UNL A   1      41.488  32.575  30.549  1.00  0.00    -0.354 N 
ATOM     55  N   UNL A   1      44.048  31.129  30.788  1.00  0.00    -0.248 NA
ATOM     56  C   UNL A   1      46.349  31.131  31.195  1.00  0.00     0.031 C 
ATOM     57  C   UNL A   1      41.471  34.744  31.023  1.00  0.00     0.029 A 
ATOM     58  C   UNL A   1      42.290  33.628  30.952  1.00  0.00     0.049 A 
ATOM     59  H   UNL A   1      41.800  31.655  30.393  1.00  0.00     0.167 HD
ATOM     60  C   UNL A   1      44.448  32.414  31.135  1.00  0.00     0.074 A 
ATOM     61  C   UNL A   1      45.871  32.351  31.400  1.00  0.00     0.031 C 
ATOM     62  C   UNL A   1      43.702  33.541  31.233  1.00  0.00     0.031 A 
BRANCH  49  63
ATOM     63  C   UNL A   1      37.721  32.806  29.812  1.00  0.00    -0.014 A 
ATOM     64  C   UNL A   1      36.865  33.024  30.906  1.00  0.00     0.010 A 
ATOM     65  C   UNL A   1      37.306  33.220  28.532  1.00  0.00     0.010 A 
ATOM     66  C   UNL A   1      35.604  33.597  30.717  1.00  0.00     0.020 A 
ATOM     67  C   UNL A   1      36.059  33.824  28.342  1.00  0.00     0.020 A 
ATOM     68  C   UNL A   1      35.208  33.992  29.436  1.00  0.00     0.054 A 
BRANCH  68  69
ATOM     69  S   UNL A   1      33.571  34.744  29.222  1.00  0.00     0.124 S 
ATOM     70  O   UNL A   1      33.914  36.076  28.728  1.00  0.00    -0.237 OA
ATOM     71  O   UNL A   1      32.937  33.858  28.250  1.00  0.00    -0.237 OA
ATOM     72  O   UNL A   1      32.993  34.709  30.564  1.00  0.00    -0.744 OA
ENDBRANCH  68  69
ENDBRANCH  49  63
BRANCH  50  73
ATOM     73  C   UNL A   1      46.605  28.246  30.692  1.00  0.00    -0.014 A 
ATOM     74  C   UNL A   1      47.491  28.265  29.602  1.00  0.00     0.010 A 
ATOM     75  C   UNL A   1      47.003  27.606  31.882  1.00  0.00     0.010 A 
ATOM     76  C   UNL A   1      48.741  27.646  29.694  1.00  0.00     0.020 A 
ATOM     77  C   UNL A   1      48.265  27.016  31.990  1.00  0.00     0.020 A 
ATOM     78  C   UNL A   1      49.122  27.029  30.888  1.00  0.00     0.054 A 
BRANCH  78  79
ATOM     79  S   UNL A   1      50.769  26.275  30.995  1.00  0.00     0.124 S 
ATOM     80  O   UNL A   1      51.400  26.749  29.767  1.00  0.00    -0.237 OA
ATOM     81  O   UNL A   1      51.293  26.842  32.236  1.00  0.00    -0.237 OA
ATOM     82  O   UNL A   1      50.487  24.842  31.043  1.00  0.00    -0.744 OA
ENDBRANCH  78  79
ENDBRANCH  50  73
BRANCH  62  83
ATOM     83  C   UNL A   1      44.385  34.790  31.721  1.00  0.00    -0.014 A 
ATOM     84  C   UNL A   1      45.076  35.644  30.846  1.00  0.00     0.010 A 
ATOM     85  C   UNL A   1      44.248  35.154  33.074  1.00  0.00     0.010 A 
ATOM     86  C   UNL A   1      45.628  36.838  31.319  1.00  0.00     0.020 A 
ATOM     87  C   UNL A   1      44.771  36.359  33.543  1.00  0.00     0.020 A 
ATOM     88  C   UNL A   1      45.464  37.193  32.663  1.00  0.00     0.054 A 
BRANCH  88  89
ATOM     89  S   UNL A   1      46.115  38.786  33.230  1.00  0.00     0.124 S 
ATOM     90  O   UNL A   1      46.468  38.495  34.616  1.00  0.00    -0.237 OA
ATOM     91  O   UNL A   1      47.243  39.010  32.328  1.00  0.00    -0.237 OA
ATOM     92  O   UNL A   1      44.992  39.704  33.053  1.00  0.00    -0.744 OA
ENDBRANCH  88  89
ENDBRANCH  62  83
ENDBRANCH  36  37
ENDBRANCH  29  31
ENDBRANCH  28  29
ENDBRANCH  27  28
ENDBRANCH   1  27
TORSDOF 17
ENDMDL
