MODEL 1
REMARK VINA RESULT:      -9.9      0.000      0.000
REMARK SMILES COc1ccc(/C=C/c2cc(OC)cc(OC)c2/C=C/C(=O)OCCOC(=O)c2ccc(-c3c4nc(c(-c5ccc(S(=O)(=O)[O-])cc5)c5ccc([nH]5)c(-c5ccc(S(=O)(=O)[O-])cc5)c5nc(c(-c6ccc(S(=O)(=O)[O-])cc6)c6ccc3[nH]6)C=C5)C=C4)cc2)cc1
REMARK SMILES IDX 24 1 23 2 21 3 22 4 20 5 19 6 18 7 9 8 10 9 11 10 15 11
REMARK SMILES IDX 14 12 8 13 7 14 6 15 3 16 4 17 90 18 5 19 89 20 2 21 1 22
REMARK SMILES IDX 12 23 13 24 16 25 17 26 25 27 26 28 27 29 28 30 29 31 30 32
REMARK SMILES IDX 88 33 31 34 87 35 32 36 33 37 34 38 81 39 35 40 86 41 80 42
REMARK SMILES IDX 82 43 36 44 85 45 79 46 78 47 37 49 67 50 48 51 66 52 49 53
REMARK SMILES IDX 52 54 65 55 83 56 50 57 51 58 64 60 84 61 53 62 38 63 39 64
REMARK SMILES IDX 47 65 40 66 46 67 41 68 42 69 43 70 44 71 45 72 68 73 69 74
REMARK SMILES IDX 77 75 70 76 76 77 71 78 72 79 73 80 74 81 75 82 54 83 55 84
REMARK SMILES IDX 63 85 56 86 62 87 57 88 58 89 59 90 60 91 61 92
REMARK H PARENT 82 48 52 59
REMARK Flexibility Score: inf
ROOT
ATOM      1  C   UNL A   1      39.282  21.998  25.900  1.00  0.00     0.275 C 
ENDROOT
BRANCH   1   2
ATOM      2  O   UNL A   1      37.897  22.385  25.805  1.00  0.00    -0.459 OA
BRANCH   2   3
ATOM      3  C   UNL A   1      37.611  23.663  26.155  1.00  0.00     0.330 C 
ATOM      4  O   UNL A   1      38.407  24.493  26.562  1.00  0.00    -0.247 OA
BRANCH   3   5
ATOM      5  C   UNL A   1      36.172  23.977  26.032  1.00  0.00     0.094 C 
ATOM      6  C   UNL A   1      35.531  24.196  24.874  1.00  0.00     0.020 C 
BRANCH   6   7
ATOM      7  C   UNL A   1      34.079  24.477  24.791  1.00  0.00     0.024 A 
ATOM      8  C   UNL A   1      33.151  23.412  24.852  1.00  0.00    -0.011 A 
ATOM      9  C   UNL A   1      31.774  23.673  24.727  1.00  0.00     0.055 A 
ATOM     10  C   UNL A   1      31.292  24.968  24.534  1.00  0.00     0.123 A 
ATOM     11  C   UNL A   1      33.568  25.778  24.605  1.00  0.00     0.130 A 
ATOM     12  C   UNL A   1      32.195  26.024  24.495  1.00  0.00     0.093 A 
BRANCH   8  13
ATOM     13  C   UNL A   1      33.540  21.998  24.990  1.00  0.00     0.009 C 
ATOM     14  C   UNL A   1      32.873  20.985  24.413  1.00  0.00     0.009 C 
BRANCH  14  15
ATOM     15  C   UNL A   1      33.223  19.566  24.587  1.00  0.00    -0.025 A 
ATOM     16  C   UNL A   1      33.800  16.826  24.920  1.00  0.00     0.118 A 
ATOM     17  C   UNL A   1      34.793  17.713  24.509  1.00  0.00     0.047 A 
ATOM     18  C   UNL A   1      32.517  17.308  25.177  1.00  0.00     0.047 A 
ATOM     19  C   UNL A   1      34.504  19.068  24.327  1.00  0.00     0.012 A 
ATOM     20  C   UNL A   1      32.231  18.669  25.005  1.00  0.00     0.012 A 
BRANCH  16  21
ATOM     21  O   UNL A   1      34.206  15.528  25.064  1.00  0.00    -0.497 OA
ATOM     22  C   UNL A   1      33.208  14.618  25.507  1.00  0.00     0.278 C 
ENDBRANCH  16  21
ENDBRANCH  14  15
ENDBRANCH   8  13
BRANCH  10  23
ATOM     23  O   UNL A   1      29.934  25.076  24.413  1.00  0.00    -0.497 OA
ATOM     24  C   UNL A   1      29.446  26.324  23.926  1.00  0.00     0.278 C 
ENDBRANCH  10  23
BRANCH  11  25
ATOM     25  O   UNL A   1      34.350  26.904  24.589  1.00  0.00    -0.496 OA
ATOM     26  C   UNL A   1      33.586  28.097  24.456  1.00  0.00     0.278 C 
ENDBRANCH  11  25
ENDBRANCH   6   7
ENDBRANCH   3   5
ENDBRANCH   2   3
ENDBRANCH   1   2
BRANCH   1  27
ATOM     27  C   UNL A   1      39.423  20.490  26.092  1.00  0.00     0.275 C 
BRANCH  27  28
ATOM     28  O   UNL A   1      40.581  19.999  25.395  1.00  0.00    -0.458 OA
BRANCH  28  29
ATOM     29  C   UNL A   1      41.640  19.715  26.184  1.00  0.00     0.338 C 
ATOM     30  O   UNL A   1      41.963  18.629  26.638  1.00  0.00    -0.246 OA
BRANCH  29  31
ATOM     31  C   UNL A   1      42.456  20.921  26.380  1.00  0.00     0.060 A 
ATOM     32  C   UNL A   1      42.652  21.366  27.681  1.00  0.00     0.016 A 
ATOM     33  C   UNL A   1      42.853  21.703  25.297  1.00  0.00     0.016 A 
ATOM     34  C   UNL A   1      43.130  22.658  27.905  1.00  0.00     0.010 A 
ATOM     35  C   UNL A   1      43.428  22.960  25.531  1.00  0.00     0.010 A 
ATOM     36  C   UNL A   1      43.525  23.479  26.835  1.00  0.00    -0.014 A 
BRANCH  36  37
ATOM     37  C   UNL A   1      43.984  24.882  27.084  1.00  0.00     0.031 A 
ATOM     38  C   UNL A   1      45.415  25.287  26.805  1.00  0.00     0.074 A 
ATOM     39  C   UNL A   1      43.120  25.819  27.525  1.00  0.00     0.049 A 
ATOM     40  N   UNL A   1      46.025  26.412  27.086  1.00  0.00    -0.248 NA
ATOM     41  C   UNL A   1      46.271  24.299  26.130  1.00  0.00     0.031 C 
ATOM     42  C   UNL A   1      41.695  25.608  27.789  1.00  0.00     0.029 A 
ATOM     43  N   UNL A   1      43.310  27.150  27.810  1.00  0.00    -0.354 N 
ATOM     44  C   UNL A   1      47.346  26.245  26.679  1.00  0.00     0.074 A 
ATOM     45  C   UNL A   1      47.448  24.910  26.130  1.00  0.00     0.031 C 
ATOM     46  C   UNL A   1      41.131  26.775  28.135  1.00  0.00     0.029 A 
ATOM     47  C   UNL A   1      42.166  27.800  28.212  1.00  0.00     0.049 A 
ATOM     48  H   UNL A   1      44.185  27.598  27.735  1.00  0.00     0.167 HD
ATOM     49  C   UNL A   1      48.382  27.118  26.754  1.00  0.00     0.031 A 
ATOM     50  C   UNL A   1      41.966  29.063  28.632  1.00  0.00     0.031 A 
ATOM     51  C   UNL A   1      48.281  28.464  27.257  1.00  0.00     0.049 A 
ATOM     52  C   UNL A   1      43.132  30.002  28.745  1.00  0.00     0.074 A 
ATOM     53  C   UNL A   1      49.279  29.418  27.374  1.00  0.00     0.029 A 
ATOM     54  N   UNL A   1      47.111  29.056  27.705  1.00  0.00    -0.354 N 
ATOM     55  N   UNL A   1      44.387  29.795  28.431  1.00  0.00    -0.248 NA
ATOM     56  C   UNL A   1      42.855  31.337  29.293  1.00  0.00     0.031 C 
ATOM     57  C   UNL A   1      48.718  30.576  27.926  1.00  0.00     0.029 A 
ATOM     58  C   UNL A   1      47.363  30.358  28.110  1.00  0.00     0.049 A 
ATOM     59  H   UNL A   1      46.231  28.618  27.734  1.00  0.00     0.167 HD
ATOM     60  C   UNL A   1      45.051  30.977  28.738  1.00  0.00     0.074 A 
ATOM     61  C   UNL A   1      44.056  31.901  29.242  1.00  0.00     0.031 C 
ATOM     62  C   UNL A   1      46.369  31.267  28.619  1.00  0.00     0.031 A 
BRANCH  49  63
ATOM     63  C   UNL A   1      49.737  26.627  26.319  1.00  0.00    -0.014 A 
ATOM     64  C   UNL A   1      50.203  26.818  25.006  1.00  0.00     0.010 A 
ATOM     65  C   UNL A   1      50.571  25.986  27.255  1.00  0.00     0.010 A 
ATOM     66  C   UNL A   1      51.461  26.335  24.626  1.00  0.00     0.020 A 
ATOM     67  C   UNL A   1      51.837  25.523  26.885  1.00  0.00     0.020 A 
ATOM     68  C   UNL A   1      52.265  25.683  25.566  1.00  0.00     0.054 A 
BRANCH  68  69
ATOM     69  S   UNL A   1      53.892  25.065  25.051  1.00  0.00     0.124 S 
ATOM     70  O   UNL A   1      54.732  25.459  26.180  1.00  0.00    -0.237 OA
ATOM     71  O   UNL A   1      53.664  23.630  24.909  1.00  0.00    -0.237 OA
ATOM     72  O   UNL A   1      54.152  25.777  23.802  1.00  0.00    -0.744 OA
ENDBRANCH  68  69
ENDBRANCH  49  63
BRANCH  50  73
ATOM     73  C   UNL A   1      40.597  29.501  29.021  1.00  0.00    -0.014 A 
ATOM     74  C   UNL A   1      39.574  29.578  28.061  1.00  0.00     0.010 A 
ATOM     75  C   UNL A   1      40.307  29.817  30.361  1.00  0.00     0.010 A 
ATOM     76  C   UNL A   1      38.283  29.962  28.435  1.00  0.00     0.020 A 
ATOM     77  C   UNL A   1      39.012  30.174  30.743  1.00  0.00     0.020 A 
ATOM     78  C   UNL A   1      38.009  30.253  29.775  1.00  0.00     0.054 A 
BRANCH  78  79
ATOM     79  S   UNL A   1      36.311  30.674  30.258  1.00  0.00     0.124 S 
ATOM     80  O   UNL A   1      35.959  29.557  31.127  1.00  0.00    -0.237 OA
ATOM     81  O   UNL A   1      36.478  31.965  30.922  1.00  0.00    -0.237 OA
ATOM     82  O   UNL A   1      35.600  30.726  28.982  1.00  0.00    -0.744 OA
ENDBRANCH  78  79
ENDBRANCH  50  73
BRANCH  62  83
ATOM     83  C   UNL A   1      46.808  32.648  29.021  1.00  0.00    -0.014 A 
ATOM     84  C   UNL A   1      47.246  32.916  30.330  1.00  0.00     0.010 A 
ATOM     85  C   UNL A   1      46.810  33.684  28.069  1.00  0.00     0.010 A 
ATOM     86  C   UNL A   1      47.648  34.206  30.689  1.00  0.00     0.020 A 
ATOM     87  C   UNL A   1      47.231  34.969  28.419  1.00  0.00     0.020 A 
ATOM     88  C   UNL A   1      47.633  35.225  29.732  1.00  0.00     0.054 A 
BRANCH  88  89
ATOM     89  S   UNL A   1      48.187  36.885  30.211  1.00  0.00     0.124 S 
ATOM     90  O   UNL A   1      47.834  37.675  29.034  1.00  0.00    -0.237 OA
ATOM     91  O   UNL A   1      47.398  37.158  31.410  1.00  0.00    -0.237 OA
ATOM     92  O   UNL A   1      49.621  36.717  30.442  1.00  0.00    -0.744 OA
ENDBRANCH  88  89
ENDBRANCH  62  83
ENDBRANCH  36  37
ENDBRANCH  29  31
ENDBRANCH  28  29
ENDBRANCH  27  28
ENDBRANCH   1  27
TORSDOF 20
ENDMDL
MODEL 2
REMARK VINA RESULT:      -9.7      6.117     10.702
REMARK SMILES COc1ccc(/C=C/c2cc(OC)cc(OC)c2/C=C/C(=O)OCCOC(=O)c2ccc(-c3c4nc(c(-c5ccc(S(=O)(=O)[O-])cc5)c5ccc([nH]5)c(-c5ccc(S(=O)(=O)[O-])cc5)c5nc(c(-c6ccc(S(=O)(=O)[O-])cc6)c6ccc3[nH]6)C=C5)C=C4)cc2)cc1
REMARK SMILES IDX 24 1 23 2 21 3 22 4 20 5 19 6 18 7 9 8 10 9 11 10 15 11
REMARK SMILES IDX 14 12 8 13 7 14 6 15 3 16 4 17 90 18 5 19 89 20 2 21 1 22
REMARK SMILES IDX 12 23 13 24 16 25 17 26 25 27 26 28 27 29 28 30 29 31 30 32
REMARK SMILES IDX 88 33 31 34 87 35 32 36 33 37 34 38 81 39 35 40 86 41 80 42
REMARK SMILES IDX 82 43 36 44 85 45 79 46 78 47 37 49 67 50 48 51 66 52 49 53
REMARK SMILES IDX 52 54 65 55 83 56 50 57 51 58 64 60 84 61 53 62 38 63 39 64
REMARK SMILES IDX 47 65 40 66 46 67 41 68 42 69 43 70 44 71 45 72 68 73 69 74
REMARK SMILES IDX 77 75 70 76 76 77 71 78 72 79 73 80 74 81 75 82 54 83 55 84
REMARK SMILES IDX 63 85 56 86 62 87 57 88 58 89 59 90 60 91 61 92
REMARK H PARENT 82 48 52 59
REMARK Flexibility Score: inf
ROOT
ATOM      1  C   UNL A   1      43.236  23.240  25.228  1.00  0.00     0.275 C 
ENDROOT
BRANCH   1   2
ATOM      2  O   UNL A   1      44.407  22.430  25.454  1.00  0.00    -0.459 OA
BRANCH   2   3
ATOM      3  C   UNL A   1      45.573  23.102  25.618  1.00  0.00     0.330 C 
ATOM      4  O   UNL A   1      46.691  22.614  25.621  1.00  0.00    -0.247 OA
BRANCH   3   5
ATOM      5  C   UNL A   1      45.368  24.549  25.840  1.00  0.00     0.094 C 
ATOM      6  C   UNL A   1      46.245  25.365  26.444  1.00  0.00     0.020 C 
BRANCH   6   7
ATOM      7  C   UNL A   1      46.015  26.817  26.620  1.00  0.00     0.024 A 
ATOM      8  C   UNL A   1      45.397  27.294  27.799  1.00  0.00    -0.011 A 
ATOM      9  C   UNL A   1      45.137  28.669  27.947  1.00  0.00     0.055 A 
ATOM     10  C   UNL A   1      45.465  29.585  26.947  1.00  0.00     0.123 A 
ATOM     11  C   UNL A   1      46.346  27.763  25.627  1.00  0.00     0.130 A 
ATOM     12  C   UNL A   1      46.091  29.129  25.794  1.00  0.00     0.093 A 
BRANCH   8  13
ATOM     13  C   UNL A   1      44.948  26.420  28.896  1.00  0.00     0.009 C 
ATOM     14  C   UNL A   1      45.694  26.143  29.978  1.00  0.00     0.009 C 
BRANCH  14  15
ATOM     15  C   UNL A   1      45.276  25.231  31.053  1.00  0.00    -0.025 A 
ATOM     16  C   UNL A   1      44.442  23.423  33.051  1.00  0.00     0.118 A 
ATOM     17  C   UNL A   1      45.331  24.452  33.355  1.00  0.00     0.047 A 
ATOM     18  C   UNL A   1      43.957  23.301  31.749  1.00  0.00     0.047 A 
ATOM     19  C   UNL A   1      45.758  25.338  32.363  1.00  0.00     0.012 A 
ATOM     20  C   UNL A   1      44.377  24.197  30.757  1.00  0.00     0.012 A 
BRANCH  16  21
ATOM     21  O   UNL A   1      44.097  22.624  34.106  1.00  0.00    -0.497 OA
ATOM     22  C   UNL A   1      43.263  23.227  35.087  1.00  0.00     0.278 C 
ENDBRANCH  16  21
ENDBRANCH  14  15
ENDBRANCH   8  13
BRANCH  10  23
ATOM     23  O   UNL A   1      45.141  30.887  27.216  1.00  0.00    -0.497 OA
ATOM     24  C   UNL A   1      45.481  31.837  26.209  1.00  0.00     0.278 C 
ENDBRANCH  10  23
BRANCH  11  25
ATOM     25  O   UNL A   1      47.001  27.444  24.466  1.00  0.00    -0.496 OA
ATOM     26  C   UNL A   1      48.046  26.499  24.672  1.00  0.00     0.278 C 
ENDBRANCH  11  25
ENDBRANCH   6   7
ENDBRANCH   3   5
ENDBRANCH   2   3
ENDBRANCH   1   2
BRANCH   1  27
ATOM     27  C   UNL A   1      42.291  23.191  26.425  1.00  0.00     0.275 C 
BRANCH  27  28
ATOM     28  O   UNL A   1      41.214  24.128  26.255  1.00  0.00    -0.458 OA
BRANCH  28  29
ATOM     29  C   UNL A   1      41.596  25.375  25.903  1.00  0.00     0.338 C 
ATOM     30  O   UNL A   1      42.185  25.716  24.890  1.00  0.00    -0.246 OA
BRANCH  29  31
ATOM     31  C   UNL A   1      41.123  26.344  26.899  1.00  0.00     0.060 A 
ATOM     32  C   UNL A   1      41.675  27.618  26.877  1.00  0.00     0.016 A 
ATOM     33  C   UNL A   1      40.300  25.948  27.952  1.00  0.00     0.016 A 
ATOM     34  C   UNL A   1      41.511  28.462  27.977  1.00  0.00     0.010 A 
ATOM     35  C   UNL A   1      40.056  26.839  29.007  1.00  0.00     0.010 A 
ATOM     36  C   UNL A   1      40.701  28.088  29.062  1.00  0.00    -0.014 A 
BRANCH  36  37
ATOM     37  C   UNL A   1      40.577  28.978  30.259  1.00  0.00     0.031 A 
ATOM     38  C   UNL A   1      41.545  28.856  31.415  1.00  0.00     0.074 A 
ATOM     39  C   UNL A   1      39.624  29.931  30.311  1.00  0.00     0.049 A 
ATOM     40  N   UNL A   1      41.512  29.441  32.587  1.00  0.00    -0.248 NA
ATOM     41  C   UNL A   1      42.694  27.954  31.234  1.00  0.00     0.031 C 
ATOM     42  C   UNL A   1      38.648  30.218  29.257  1.00  0.00     0.029 A 
ATOM     43  N   UNL A   1      39.331  30.853  31.287  1.00  0.00    -0.354 N 
ATOM     44  C   UNL A   1      42.595  28.936  33.301  1.00  0.00     0.074 A 
ATOM     45  C   UNL A   1      43.267  27.996  32.430  1.00  0.00     0.031 C 
ATOM     46  C   UNL A   1      37.910  31.279  29.615  1.00  0.00     0.029 A 
ATOM     47  C   UNL A   1      38.291  31.693  30.961  1.00  0.00     0.049 A 
ATOM     48  H   UNL A   1      39.820  30.908  32.140  1.00  0.00     0.167 HD
ATOM     49  C   UNL A   1      42.996  29.223  34.565  1.00  0.00     0.031 A 
ATOM     50  C   UNL A   1      37.680  32.662  31.668  1.00  0.00     0.031 A 
ATOM     51  C   UNL A   1      42.362  30.190  35.423  1.00  0.00     0.049 A 
ATOM     52  C   UNL A   1      38.114  32.937  33.079  1.00  0.00     0.074 A 
ATOM     53  C   UNL A   1      42.698  30.543  36.720  1.00  0.00     0.029 A 
ATOM     54  N   UNL A   1      41.276  30.973  35.067  1.00  0.00    -0.354 N 
ATOM     55  N   UNL A   1      39.089  32.389  33.761  1.00  0.00    -0.248 NA
ATOM     56  C   UNL A   1      37.347  33.947  33.822  1.00  0.00     0.031 C 
ATOM     57  C   UNL A   1      41.793  31.516  37.160  1.00  0.00     0.029 A 
ATOM     58  C   UNL A   1      40.922  31.801  36.122  1.00  0.00     0.049 A 
ATOM     59  H   UNL A   1      40.822  30.946  34.195  1.00  0.00     0.167 HD
ATOM     60  C   UNL A   1      39.056  32.991  35.014  1.00  0.00     0.074 A 
ATOM     61  C   UNL A   1      37.980  33.960  34.988  1.00  0.00     0.031 C 
ATOM     62  C   UNL A   1      39.845  32.755  36.090  1.00  0.00     0.031 A 
BRANCH  49  63
ATOM     63  C   UNL A   1      44.161  28.444  35.117  1.00  0.00    -0.014 A 
ATOM     64  C   UNL A   1      45.487  28.871  34.929  1.00  0.00     0.010 A 
ATOM     65  C   UNL A   1      43.917  27.277  35.865  1.00  0.00     0.010 A 
ATOM     66  C   UNL A   1      46.551  28.117  35.440  1.00  0.00     0.020 A 
ATOM     67  C   UNL A   1      44.974  26.534  36.396  1.00  0.00     0.020 A 
ATOM     68  C   UNL A   1      46.287  26.949  36.162  1.00  0.00     0.054 A 
BRANCH  68  69
ATOM     69  S   UNL A   1      47.681  25.988  36.816  1.00  0.00     0.124 S 
ATOM     70  O   UNL A   1      47.640  26.330  38.235  1.00  0.00    -0.237 OA
ATOM     71  O   UNL A   1      47.308  24.614  36.490  1.00  0.00    -0.237 OA
ATOM     72  O   UNL A   1      48.833  26.508  36.082  1.00  0.00    -0.744 OA
ENDBRANCH  68  69
ENDBRANCH  49  63
BRANCH  50  73
ATOM     73  C   UNL A   1      36.553  33.419  31.059  1.00  0.00    -0.014 A 
ATOM     74  C   UNL A   1      36.778  34.280  29.971  1.00  0.00     0.010 A 
ATOM     75  C   UNL A   1      35.243  33.259  31.547  1.00  0.00     0.010 A 
ATOM     76  C   UNL A   1      35.713  34.967  29.382  1.00  0.00     0.020 A 
ATOM     77  C   UNL A   1      34.173  33.923  30.944  1.00  0.00     0.020 A 
ATOM     78  C   UNL A   1      34.416  34.781  29.870  1.00  0.00     0.054 A 
BRANCH  78  79
ATOM     79  S   UNL A   1      33.034  35.619  29.045  1.00  0.00     0.124 S 
ATOM     80  O   UNL A   1      33.728  36.588  28.204  1.00  0.00    -0.237 OA
ATOM     81  O   UNL A   1      32.373  34.525  28.337  1.00  0.00    -0.237 OA
ATOM     82  O   UNL A   1      32.270  36.183  30.156  1.00  0.00    -0.744 OA
ENDBRANCH  78  79
ENDBRANCH  50  73
BRANCH  62  83
ATOM     83  C   UNL A   1      39.585  33.576  37.324  1.00  0.00    -0.014 A 
ATOM     84  C   UNL A   1      38.844  33.054  38.398  1.00  0.00     0.010 A 
ATOM     85  C   UNL A   1      40.115  34.875  37.420  1.00  0.00     0.010 A 
ATOM     86  C   UNL A   1      38.610  33.830  39.537  1.00  0.00     0.020 A 
ATOM     87  C   UNL A   1      39.900  35.647  38.566  1.00  0.00     0.020 A 
ATOM     88  C   UNL A   1      39.135  35.123  39.611  1.00  0.00     0.054 A 
BRANCH  88  89
ATOM     89  S   UNL A   1      38.845  36.104  41.110  1.00  0.00     0.124 S 
ATOM     90  O   UNL A   1      38.673  37.448  40.566  1.00  0.00    -0.237 OA
ATOM     91  O   UNL A   1      37.640  35.494  41.668  1.00  0.00    -0.237 OA
ATOM     92  O   UNL A   1      40.060  35.899  41.896  1.00  0.00    -0.744 OA
ENDBRANCH  88  89
ENDBRANCH  62  83
ENDBRANCH  36  37
ENDBRANCH  29  31
ENDBRANCH  28  29
ENDBRANCH  27  28
ENDBRANCH   1  27
TORSDOF 20
ENDMDL
MODEL 3
REMARK VINA RESULT:      -9.6      6.370     12.791
REMARK SMILES COc1ccc(/C=C/c2cc(OC)cc(OC)c2/C=C/C(=O)OCCOC(=O)c2ccc(-c3c4nc(c(-c5ccc(S(=O)(=O)[O-])cc5)c5ccc([nH]5)c(-c5ccc(S(=O)(=O)[O-])cc5)c5nc(c(-c6ccc(S(=O)(=O)[O-])cc6)c6ccc3[nH]6)C=C5)C=C4)cc2)cc1
REMARK SMILES IDX 24 1 23 2 21 3 22 4 20 5 19 6 18 7 9 8 10 9 11 10 15 11
REMARK SMILES IDX 14 12 8 13 7 14 6 15 3 16 4 17 90 18 5 19 89 20 2 21 1 22
REMARK SMILES IDX 12 23 13 24 16 25 17 26 25 27 26 28 27 29 28 30 29 31 30 32
REMARK SMILES IDX 88 33 31 34 87 35 32 36 33 37 34 38 81 39 35 40 86 41 80 42
REMARK SMILES IDX 82 43 36 44 85 45 79 46 78 47 37 49 67 50 48 51 66 52 49 53
REMARK SMILES IDX 52 54 65 55 83 56 50 57 51 58 64 60 84 61 53 62 38 63 39 64
REMARK SMILES IDX 47 65 40 66 46 67 41 68 42 69 43 70 44 71 45 72 68 73 69 74
REMARK SMILES IDX 77 75 70 76 76 77 71 78 72 79 73 80 74 81 75 82 54 83 55 84
REMARK SMILES IDX 63 85 56 86 62 87 57 88 58 89 59 90 60 91 61 92
REMARK H PARENT 82 48 52 59
REMARK Flexibility Score: inf
ROOT
ATOM      1  C   UNL A   1      43.329  23.651  25.427  1.00  0.00     0.275 C 
ENDROOT
BRANCH   1   2
ATOM      2  O   UNL A   1      44.452  22.850  25.847  1.00  0.00    -0.459 OA
BRANCH   2   3
ATOM      3  C   UNL A   1      45.664  23.456  25.807  1.00  0.00     0.330 C 
ATOM      4  O   UNL A   1      46.740  22.902  25.650  1.00  0.00    -0.247 OA
BRANCH   3   5
ATOM      5  C   UNL A   1      45.576  24.916  26.014  1.00  0.00     0.094 C 
ATOM      6  C   UNL A   1      46.437  25.641  26.744  1.00  0.00     0.020 C 
BRANCH   6   7
ATOM      7  C   UNL A   1      46.331  27.109  26.902  1.00  0.00     0.024 A 
ATOM      8  C   UNL A   1      46.254  27.674  28.196  1.00  0.00    -0.011 A 
ATOM      9  C   UNL A   1      46.108  29.066  28.347  1.00  0.00     0.055 A 
ATOM     10  C   UNL A   1      46.027  29.914  27.242  1.00  0.00     0.123 A 
ATOM     11  C   UNL A   1      46.256  27.987  25.801  1.00  0.00     0.130 A 
ATOM     12  C   UNL A   1      46.123  29.370  25.967  1.00  0.00     0.093 A 
BRANCH   8  13
ATOM     13  C   UNL A   1      46.266  26.879  29.436  1.00  0.00     0.009 C 
ATOM     14  C   UNL A   1      45.245  26.100  29.829  1.00  0.00     0.009 C 
BRANCH  14  15
ATOM     15  C   UNL A   1      45.227  25.343  31.090  1.00  0.00    -0.025 A 
ATOM     16  C   UNL A   1      45.145  23.824  33.465  1.00  0.00     0.118 A 
ATOM     17  C   UNL A   1      46.043  24.881  33.333  1.00  0.00     0.047 A 
ATOM     18  C   UNL A   1      44.278  23.528  32.413  1.00  0.00     0.047 A 
ATOM     19  C   UNL A   1      46.096  25.625  32.151  1.00  0.00     0.012 A 
ATOM     20  C   UNL A   1      44.324  24.281  31.232  1.00  0.00     0.012 A 
BRANCH  16  21
ATOM     21  O   UNL A   1      45.186  23.175  34.668  1.00  0.00    -0.497 OA
ATOM     22  C   UNL A   1      43.923  22.858  35.238  1.00  0.00     0.278 C 
ENDBRANCH  16  21
ENDBRANCH  14  15
ENDBRANCH   8  13
BRANCH  10  23
ATOM     23  O   UNL A   1      45.869  31.241  27.532  1.00  0.00    -0.497 OA
ATOM     24  C   UNL A   1      46.411  32.159  26.585  1.00  0.00     0.278 C 
ENDBRANCH  10  23
BRANCH  11  25
ATOM     25  O   UNL A   1      46.379  27.579  24.498  1.00  0.00    -0.496 OA
ATOM     26  C   UNL A   1      47.737  27.477  24.085  1.00  0.00     0.278 C 
ENDBRANCH  11  25
ENDBRANCH   6   7
ENDBRANCH   3   5
ENDBRANCH   2   3
ENDBRANCH   1   2
BRANCH   1  27
ATOM     27  C   UNL A   1      42.251  23.701  26.506  1.00  0.00     0.275 C 
BRANCH  27  28
ATOM     28  O   UNL A   1      41.220  24.636  26.145  1.00  0.00    -0.458 OA
BRANCH  28  29
ATOM     29  C   UNL A   1      41.626  25.921  26.053  1.00  0.00     0.338 C 
ATOM     30  O   UNL A   1      41.862  26.558  25.039  1.00  0.00    -0.246 OA
BRANCH  29  31
ATOM     31  C   UNL A   1      41.676  26.527  27.389  1.00  0.00     0.060 A 
ATOM     32  C   UNL A   1      40.696  26.164  28.304  1.00  0.00     0.016 A 
ATOM     33  C   UNL A   1      42.551  27.575  27.670  1.00  0.00     0.016 A 
ATOM     34  C   UNL A   1      40.501  26.934  29.451  1.00  0.00     0.010 A 
ATOM     35  C   UNL A   1      42.416  28.281  28.874  1.00  0.00     0.010 A 
ATOM     36  C   UNL A   1      41.355  28.006  29.757  1.00  0.00    -0.014 A 
BRANCH  36  37
ATOM     37  C   UNL A   1      41.103  28.858  30.962  1.00  0.00     0.031 A 
ATOM     38  C   UNL A   1      39.957  29.844  30.984  1.00  0.00     0.074 A 
ATOM     39  C   UNL A   1      41.871  28.732  32.064  1.00  0.00     0.049 A 
ATOM     40  N   UNL A   1      39.669  30.758  31.879  1.00  0.00    -0.248 NA
ATOM     41  C   UNL A   1      39.017  29.805  29.852  1.00  0.00     0.031 C 
ATOM     42  C   UNL A   1      42.980  27.789  32.227  1.00  0.00     0.029 A 
ATOM     43  N   UNL A   1      41.821  29.389  33.270  1.00  0.00    -0.354 N 
ATOM     44  C   UNL A   1      38.557  31.438  31.391  1.00  0.00     0.074 A 
ATOM     45  C   UNL A   1      38.221  30.831  30.121  1.00  0.00     0.031 C 
ATOM     46  C   UNL A   1      43.462  27.885  33.475  1.00  0.00     0.029 A 
ATOM     47  C   UNL A   1      42.765  28.959  34.174  1.00  0.00     0.049 A 
ATOM     48  H   UNL A   1      41.172  30.103  33.469  1.00  0.00     0.167 HD
ATOM     49  C   UNL A   1      37.875  32.472  31.944  1.00  0.00     0.031 A 
ATOM     50  C   UNL A   1      43.069  29.394  35.412  1.00  0.00     0.031 A 
ATOM     51  C   UNL A   1      38.173  33.053  33.228  1.00  0.00     0.049 A 
ATOM     52  C   UNL A   1      42.329  30.566  35.990  1.00  0.00     0.074 A 
ATOM     53  C   UNL A   1      37.538  34.107  33.865  1.00  0.00     0.029 A 
ATOM     54  N   UNL A   1      39.175  32.619  34.081  1.00  0.00    -0.354 N 
ATOM     55  N   UNL A   1      41.335  31.245  35.475  1.00  0.00    -0.248 NA
ATOM     56  C   UNL A   1      42.772  31.043  37.307  1.00  0.00     0.031 C 
ATOM     57  C   UNL A   1      38.179  34.331  35.090  1.00  0.00     0.029 A 
ATOM     58  C   UNL A   1      39.184  33.389  35.233  1.00  0.00     0.049 A 
ATOM     59  H   UNL A   1      39.791  31.874  33.895  1.00  0.00     0.167 HD
ATOM     60  C   UNL A   1      41.027  32.229  36.408  1.00  0.00     0.074 A 
ATOM     61  C   UNL A   1      41.927  32.042  37.528  1.00  0.00     0.031 C 
ATOM     62  C   UNL A   1      40.088  33.202  36.338  1.00  0.00     0.031 A 
BRANCH  49  63
ATOM     63  C   UNL A   1      36.758  33.078  31.137  1.00  0.00    -0.014 A 
ATOM     64  C   UNL A   1      35.409  32.888  31.487  1.00  0.00     0.010 A 
ATOM     65  C   UNL A   1      37.068  33.878  30.021  1.00  0.00     0.010 A 
ATOM     66  C   UNL A   1      34.391  33.449  30.708  1.00  0.00     0.020 A 
ATOM     67  C   UNL A   1      36.055  34.460  29.254  1.00  0.00     0.020 A 
ATOM     68  C   UNL A   1      34.721  34.224  29.592  1.00  0.00     0.054 A 
BRANCH  68  69
ATOM     69  S   UNL A   1      33.384  34.943  28.596  1.00  0.00     0.124 S 
ATOM     70  O   UNL A   1      34.117  35.870  27.737  1.00  0.00    -0.237 OA
ATOM     71  O   UNL A   1      32.819  33.776  27.923  1.00  0.00    -0.237 OA
ATOM     72  O   UNL A   1      32.513  35.568  29.588  1.00  0.00    -0.744 OA
ENDBRANCH  68  69
ENDBRANCH  49  63
BRANCH  50  73
ATOM     73  C   UNL A   1      44.166  28.737  36.174  1.00  0.00    -0.014 A 
ATOM     74  C   UNL A   1      43.898  27.623  36.988  1.00  0.00     0.010 A 
ATOM     75  C   UNL A   1      45.487  29.208  36.067  1.00  0.00     0.010 A 
ATOM     76  C   UNL A   1      44.935  26.990  37.680  1.00  0.00     0.020 A 
ATOM     77  C   UNL A   1      46.529  28.561  36.735  1.00  0.00     0.020 A 
ATOM     78  C   UNL A   1      46.245  27.461  37.546  1.00  0.00     0.054 A 
BRANCH  78  79
ATOM     79  S   UNL A   1      47.589  26.581  38.389  1.00  0.00     0.124 S 
ATOM     80  O   UNL A   1      46.868  25.519  39.081  1.00  0.00    -0.237 OA
ATOM     81  O   UNL A   1      48.436  26.151  37.278  1.00  0.00    -0.237 OA
ATOM     82  O   UNL A   1      48.177  27.606  39.249  1.00  0.00    -0.744 OA
ENDBRANCH  78  79
ENDBRANCH  50  73
BRANCH  62  83
ATOM     83  C   UNL A   1      39.971  34.129  37.517  1.00  0.00    -0.014 A 
ATOM     84  C   UNL A   1      39.068  33.862  38.561  1.00  0.00     0.010 A 
ATOM     85  C   UNL A   1      40.796  35.266  37.594  1.00  0.00     0.010 A 
ATOM     86  C   UNL A   1      38.970  34.734  39.649  1.00  0.00     0.020 A 
ATOM     87  C   UNL A   1      40.714  36.129  38.690  1.00  0.00     0.020 A 
ATOM     88  C   UNL A   1      39.790  35.865  39.704  1.00  0.00     0.054 A 
BRANCH  88  89
ATOM     89  S   UNL A   1      39.667  36.969  41.139  1.00  0.00     0.124 S 
ATOM     90  O   UNL A   1      38.839  38.053  40.619  1.00  0.00    -0.237 OA
ATOM     91  O   UNL A   1      39.033  36.122  42.146  1.00  0.00    -0.237 OA
ATOM     92  O   UNL A   1      41.057  37.325  41.419  1.00  0.00    -0.744 OA
ENDBRANCH  88  89
ENDBRANCH  62  83
ENDBRANCH  36  37
ENDBRANCH  29  31
ENDBRANCH  28  29
ENDBRANCH  27  28
ENDBRANCH   1  27
TORSDOF 20
ENDMDL
