MODEL 1
REMARK VINA RESULT:     -11.2      0.000      0.000
REMARK SMILES CCc1cc(OC(F)(F)F)cc2c1O[C@@H](C(F)(F)F)C(C(=O)OCCOC(=O)c1ccc(-c3c4nc(c(-c5ccc(S(=O)(=O)[O-])cc5)c5ccc([nH]5)c(-c5ccc(S(=O)(=O)[O-])cc5)c5nc(c(-c6ccc(S(=O)(=O)[O-])cc6)c6ccc3[nH]6)C=C5)C=C4)cc1)=C2
REMARK SMILES IDX 25 1 24 2 23 3 21 4 22 5 20 6 3 7 4 8 13 9 5 10 12 11 14 12
REMARK SMILES IDX 11 13 89 14 15 15 2 16 1 17 6 18 7 19 8 20 9 21 10 22 16 23
REMARK SMILES IDX 17 24 18 25 19 26 26 27 27 28 28 29 29 30 30 31 88 32 31 33
REMARK SMILES IDX 87 34 32 35 33 36 34 37 81 38 35 39 86 40 80 41 82 42 36 43
REMARK SMILES IDX 85 44 79 45 78 46 37 48 67 49 48 50 66 51 49 52 52 53 65 54
REMARK SMILES IDX 83 55 50 56 51 57 64 59 84 60 53 61 38 62 39 63 47 64 40 65
REMARK SMILES IDX 46 66 41 67 42 68 43 69 44 70 45 71 68 72 69 73 77 74 70 75
REMARK SMILES IDX 76 76 71 77 72 78 73 79 74 80 75 81 54 82 55 83 63 84 56 85
REMARK SMILES IDX 62 86 57 87 58 88 59 89 60 90 61 91
REMARK H PARENT 82 47 52 58
REMARK Flexibility Score: inf
ROOT
ATOM      1  C   UNL A   1      32.917  30.467  26.613  1.00  0.00     0.275 C 
ENDROOT
BRANCH   1   2
ATOM      2  C   UNL A   1      32.618  29.545  25.424  1.00  0.00     0.275 C 
BRANCH   2   3
ATOM      3  O   UNL A   1      31.418  28.770  25.632  1.00  0.00    -0.459 OA
BRANCH   3   4
ATOM      4  C   UNL A   1      31.572  27.639  26.368  1.00  0.00     0.338 C 
ATOM      5  O   UNL A   1      31.196  27.492  27.514  1.00  0.00    -0.246 OA
BRANCH   4   6
ATOM      6  C   UNL A   1      32.231  26.559  25.597  1.00  0.00     0.087 C 
ATOM      7  C   UNL A   1      33.764  23.382  23.347  1.00  0.00    -0.002 A 
ATOM      8  C   UNL A   1      35.108  23.006  23.529  1.00  0.00     0.054 A 
ATOM      9  C   UNL A   1      33.241  24.360  24.201  1.00  0.00     0.131 A 
ATOM     10  C   UNL A   1      35.905  23.601  24.511  1.00  0.00     0.130 A 
ATOM     11  C   UNL A   1      34.049  25.042  25.124  1.00  0.00     0.021 A 
ATOM     12  O   UNL A   1      31.890  24.571  24.203  1.00  0.00    -0.475 OA
ATOM     13  C   UNL A   1      35.383  24.653  25.276  1.00  0.00     0.058 A 
ATOM     14  C   UNL A   1      33.458  26.117  25.933  1.00  0.00     0.027 C 
ATOM     15  C   UNL A   1      31.497  25.949  24.417  1.00  0.00     0.316 C 
BRANCH   7  16
ATOM     16  C   UNL A   1      32.987  22.674  22.253  1.00  0.00     0.036 C 
ATOM     17  C   UNL A   1      32.194  21.424  22.620  1.00  0.00     0.009 C 
ENDBRANCH   7  16
BRANCH  10  18
ATOM     18  O   UNL A   1      37.193  23.252  24.809  1.00  0.00    -0.406 OA
BRANCH  18  19
ATOM     19  C   UNL A   1      37.410  21.940  25.309  1.00  0.00     0.573 C 
ATOM     20  F   UNL A   1      37.492  21.033  24.312  1.00  0.00    -0.132 F 
ATOM     21  F   UNL A   1      38.530  21.890  26.059  1.00  0.00    -0.132 F 
ATOM     22  F   UNL A   1      36.365  21.597  26.095  1.00  0.00    -0.132 F 
ENDBRANCH  18  19
ENDBRANCH  10  18
BRANCH  15  23
ATOM     23  C   UNL A   1      29.957  25.988  24.370  1.00  0.00     0.430 C 
ATOM     24  F   UNL A   1      29.404  25.747  25.579  1.00  0.00    -0.167 F 
ATOM     25  F   UNL A   1      29.538  27.234  24.019  1.00  0.00    -0.167 F 
ATOM     26  F   UNL A   1      29.442  25.128  23.468  1.00  0.00    -0.167 F 
ENDBRANCH  15  23
ENDBRANCH   4   6
ENDBRANCH   3   4
ENDBRANCH   2   3
ENDBRANCH   1   2
BRANCH   1  27
ATOM     27  O   UNL A   1      33.888  29.897  27.510  1.00  0.00    -0.458 OA
BRANCH  27  28
ATOM     28  C   UNL A   1      34.633  30.801  28.192  1.00  0.00     0.338 C 
ATOM     29  O   UNL A   1      34.229  31.822  28.726  1.00  0.00    -0.246 OA
BRANCH  28  30
ATOM     30  C   UNL A   1      36.007  30.294  28.378  1.00  0.00     0.060 A 
ATOM     31  C   UNL A   1      36.336  29.821  29.651  1.00  0.00     0.016 A 
ATOM     32  C   UNL A   1      36.967  30.291  27.364  1.00  0.00     0.016 A 
ATOM     33  C   UNL A   1      37.585  29.258  29.902  1.00  0.00     0.010 A 
ATOM     34  C   UNL A   1      38.247  29.786  27.632  1.00  0.00     0.010 A 
ATOM     35  C   UNL A   1      38.556  29.252  28.897  1.00  0.00    -0.014 A 
BRANCH  35  36
ATOM     36  C   UNL A   1      39.935  28.809  29.216  1.00  0.00     0.031 A 
ATOM     37  C   UNL A   1      40.862  29.771  29.900  1.00  0.00     0.074 A 
ATOM     38  C   UNL A   1      40.344  27.558  28.933  1.00  0.00     0.049 A 
ATOM     39  N   UNL A   1      42.126  29.630  30.201  1.00  0.00    -0.248 NA
ATOM     40  C   UNL A   1      40.282  31.058  30.315  1.00  0.00     0.031 C 
ATOM     41  C   UNL A   1      39.506  26.499  28.373  1.00  0.00     0.029 A 
ATOM     42  N   UNL A   1      41.577  26.970  29.079  1.00  0.00    -0.354 N 
ATOM     43  C   UNL A   1      42.497  30.809  30.835  1.00  0.00     0.074 A 
ATOM     44  C   UNL A   1      41.326  31.659  30.867  1.00  0.00     0.031 C 
ATOM     45  C   UNL A   1      40.257  25.395  28.201  1.00  0.00     0.029 A 
ATOM     46  C   UNL A   1      41.636  25.683  28.594  1.00  0.00     0.049 A 
ATOM     47  H   UNL A   1      42.346  27.425  29.490  1.00  0.00     0.167 HD
ATOM     48  C   UNL A   1      43.705  31.156  31.336  1.00  0.00     0.031 A 
ATOM     49  C   UNL A   1      42.687  24.851  28.453  1.00  0.00     0.031 A 
ATOM     50  C   UNL A   1      44.875  30.322  31.262  1.00  0.00     0.049 A 
ATOM     51  C   UNL A   1      44.057  25.316  28.891  1.00  0.00     0.074 A 
ATOM     52  C   UNL A   1      46.157  30.600  31.702  1.00  0.00     0.029 A 
ATOM     53  N   UNL A   1      44.911  29.054  30.701  1.00  0.00    -0.354 N 
ATOM     54  N   UNL A   1      44.402  26.443  29.467  1.00  0.00    -0.248 NA
ATOM     55  C   UNL A   1      45.181  24.396  28.658  1.00  0.00     0.031 C 
ATOM     56  C   UNL A   1      46.980  29.527  31.353  1.00  0.00     0.029 A 
ATOM     57  C   UNL A   1      46.197  28.547  30.766  1.00  0.00     0.049 A 
ATOM     58  H   UNL A   1      44.136  28.585  30.316  1.00  0.00     0.167 HD
ATOM     59  C   UNL A   1      45.769  26.345  29.708  1.00  0.00     0.074 A 
ATOM     60  C   UNL A   1      46.191  25.053  29.215  1.00  0.00     0.031 C 
ATOM     61  C   UNL A   1      46.599  27.244  30.295  1.00  0.00     0.031 A 
BRANCH  48  62
ATOM     62  C   UNL A   1      43.835  32.520  31.958  1.00  0.00    -0.014 A 
ATOM     63  C   UNL A   1      43.505  32.742  33.307  1.00  0.00     0.010 A 
ATOM     64  C   UNL A   1      44.332  33.587  31.188  1.00  0.00     0.010 A 
ATOM     65  C   UNL A   1      43.641  34.016  33.865  1.00  0.00     0.020 A 
ATOM     66  C   UNL A   1      44.496  34.855  31.750  1.00  0.00     0.020 A 
ATOM     67  C   UNL A   1      44.135  35.064  33.082  1.00  0.00     0.054 A 
BRANCH  67  68
ATOM     68  S   UNL A   1      44.323  36.701  33.840  1.00  0.00     0.124 S 
ATOM     69  O   UNL A   1      42.936  37.148  33.938  1.00  0.00    -0.237 OA
ATOM     70  O   UNL A   1      44.973  36.391  35.111  1.00  0.00    -0.237 OA
ATOM     71  O   UNL A   1      45.147  37.436  32.884  1.00  0.00    -0.744 OA
ENDBRANCH  67  68
ENDBRANCH  48  62
BRANCH  49  72
ATOM     72  C   UNL A   1      42.513  23.507  27.827  1.00  0.00    -0.014 A 
ATOM     73  C   UNL A   1      42.113  22.399  28.594  1.00  0.00     0.010 A 
ATOM     74  C   UNL A   1      42.790  23.321  26.460  1.00  0.00     0.010 A 
ATOM     75  C   UNL A   1      42.026  21.127  28.016  1.00  0.00     0.020 A 
ATOM     76  C   UNL A   1      42.673  22.059  25.870  1.00  0.00     0.020 A 
ATOM     77  C   UNL A   1      42.308  20.965  26.657  1.00  0.00     0.054 A 
BRANCH  77  78
ATOM     78  S   UNL A   1      42.173  19.310  25.924  1.00  0.00     0.124 S 
ATOM     79  O   UNL A   1      42.746  18.468  26.969  1.00  0.00    -0.237 OA
ATOM     80  O   UNL A   1      40.733  19.173  25.719  1.00  0.00    -0.237 OA
ATOM     81  O   UNL A   1      42.964  19.411  24.699  1.00  0.00    -0.744 OA
ENDBRANCH  77  78
ENDBRANCH  49  72
BRANCH  61  82
ATOM     82  C   UNL A   1      48.036  26.847  30.517  1.00  0.00    -0.014 A 
ATOM     83  C   UNL A   1      49.039  27.144  29.579  1.00  0.00     0.010 A 
ATOM     84  C   UNL A   1      48.399  26.257  31.743  1.00  0.00     0.010 A 
ATOM     85  C   UNL A   1      50.378  26.845  29.858  1.00  0.00     0.020 A 
ATOM     86  C   UNL A   1      49.736  25.986  32.039  1.00  0.00     0.020 A 
ATOM     87  C   UNL A   1      50.718  26.277  31.091  1.00  0.00     0.054 A 
BRANCH  87  88
ATOM     88  S   UNL A   1      52.468  25.978  31.462  1.00  0.00     0.124 S 
ATOM     89  O   UNL A   1      53.089  26.123  30.149  1.00  0.00    -0.237 OA
ATOM     90  O   UNL A   1      52.776  27.034  32.424  1.00  0.00    -0.237 OA
ATOM     91  O   UNL A   1      52.482  24.623  32.010  1.00  0.00    -0.744 OA
ENDBRANCH  87  88
ENDBRANCH  61  82
ENDBRANCH  35  36
ENDBRANCH  28  30
ENDBRANCH  27  28
ENDBRANCH   1  27
TORSDOF 18
ENDMDL
MODEL 2
REMARK VINA RESULT:     -10.5      2.670      9.234
REMARK SMILES CCc1cc(OC(F)(F)F)cc2c1O[C@@H](C(F)(F)F)C(C(=O)OCCOC(=O)c1ccc(-c3c4nc(c(-c5ccc(S(=O)(=O)[O-])cc5)c5ccc([nH]5)c(-c5ccc(S(=O)(=O)[O-])cc5)c5nc(c(-c6ccc(S(=O)(=O)[O-])cc6)c6ccc3[nH]6)C=C5)C=C4)cc1)=C2
REMARK SMILES IDX 25 1 24 2 23 3 21 4 22 5 20 6 3 7 4 8 13 9 5 10 12 11 14 12
REMARK SMILES IDX 11 13 89 14 15 15 2 16 1 17 6 18 7 19 8 20 9 21 10 22 16 23
REMARK SMILES IDX 17 24 18 25 19 26 26 27 27 28 28 29 29 30 30 31 88 32 31 33
REMARK SMILES IDX 87 34 32 35 33 36 34 37 81 38 35 39 86 40 80 41 82 42 36 43
REMARK SMILES IDX 85 44 79 45 78 46 37 48 67 49 48 50 66 51 49 52 52 53 65 54
REMARK SMILES IDX 83 55 50 56 51 57 64 59 84 60 53 61 38 62 39 63 47 64 40 65
REMARK SMILES IDX 46 66 41 67 42 68 43 69 44 70 45 71 68 72 69 73 77 74 70 75
REMARK SMILES IDX 76 76 71 77 72 78 73 79 74 80 75 81 54 82 55 83 63 84 56 85
REMARK SMILES IDX 62 86 57 87 58 88 59 89 60 90 61 91
REMARK H PARENT 82 47 52 58
REMARK Flexibility Score: inf
ROOT
ATOM      1  C   UNL A   1      36.932  21.816  25.578  1.00  0.00     0.275 C 
ENDROOT
BRANCH   1   2
ATOM      2  C   UNL A   1      35.462  22.174  25.827  1.00  0.00     0.275 C 
BRANCH   2   3
ATOM      3  O   UNL A   1      34.660  22.015  24.638  1.00  0.00    -0.459 OA
BRANCH   3   4
ATOM      4  C   UNL A   1      34.782  23.001  23.712  1.00  0.00     0.338 C 
ATOM      5  O   UNL A   1      35.550  22.987  22.771  1.00  0.00    -0.246 OA
BRANCH   4   6
ATOM      6  C   UNL A   1      33.832  24.112  23.954  1.00  0.00     0.087 C 
ATOM      7  C   UNL A   1      30.919  27.079  24.418  1.00  0.00    -0.002 A 
ATOM      8  C   UNL A   1      31.309  28.348  24.888  1.00  0.00     0.054 A 
ATOM      9  C   UNL A   1      31.928  26.147  24.150  1.00  0.00     0.131 A 
ATOM     10  C   UNL A   1      32.654  28.663  25.103  1.00  0.00     0.130 A 
ATOM     11  C   UNL A   1      33.273  26.406  24.455  1.00  0.00     0.021 A 
ATOM     12  O   UNL A   1      31.598  25.004  23.476  1.00  0.00    -0.475 OA
ATOM     13  C   UNL A   1      33.629  27.672  24.930  1.00  0.00     0.058 A 
ATOM     14  C   UNL A   1      34.273  25.354  24.228  1.00  0.00     0.027 C 
ATOM     15  C   UNL A   1      32.342  23.829  23.884  1.00  0.00     0.316 C 
BRANCH   7  16
ATOM     16  C   UNL A   1      29.434  26.839  24.217  1.00  0.00     0.036 C 
ATOM     17  C   UNL A   1      28.651  27.823  23.353  1.00  0.00     0.009 C 
ENDBRANCH   7  16
BRANCH  10  18
ATOM     18  O   UNL A   1      33.131  29.885  25.487  1.00  0.00    -0.406 OA
BRANCH  18  19
ATOM     19  C   UNL A   1      32.852  30.302  26.816  1.00  0.00     0.573 C 
ATOM     20  F   UNL A   1      33.813  31.121  27.296  1.00  0.00    -0.132 F 
ATOM     21  F   UNL A   1      31.655  30.922  26.885  1.00  0.00    -0.132 F 
ATOM     22  F   UNL A   1      32.804  29.210  27.612  1.00  0.00    -0.132 F 
ENDBRANCH  18  19
ENDBRANCH  10  18
BRANCH  15  23
ATOM     23  C   UNL A   1      31.826  22.653  23.033  1.00  0.00     0.430 C 
ATOM     24  F   UNL A   1      31.829  21.487  23.716  1.00  0.00    -0.167 F 
ATOM     25  F   UNL A   1      30.528  22.869  22.687  1.00  0.00    -0.167 F 
ATOM     26  F   UNL A   1      32.521  22.497  21.886  1.00  0.00    -0.167 F 
ENDBRANCH  15  23
ENDBRANCH   4   6
ENDBRANCH   3   4
ENDBRANCH   2   3
ENDBRANCH   1   2
BRANCH   1  27
ATOM     27  O   UNL A   1      37.773  22.984  25.530  1.00  0.00    -0.458 OA
BRANCH  27  28
ATOM     28  C   UNL A   1      38.969  22.850  26.151  1.00  0.00     0.338 C 
ATOM     29  O   UNL A   1      39.748  21.917  26.038  1.00  0.00    -0.246 OA
BRANCH  28  30
ATOM     30  C   UNL A   1      39.318  24.096  26.863  1.00  0.00     0.060 A 
ATOM     31  C   UNL A   1      40.148  24.995  26.189  1.00  0.00     0.016 A 
ATOM     32  C   UNL A   1      38.877  24.390  28.155  1.00  0.00     0.016 A 
ATOM     33  C   UNL A   1      40.472  26.227  26.752  1.00  0.00     0.010 A 
ATOM     34  C   UNL A   1      39.257  25.601  28.751  1.00  0.00     0.010 A 
ATOM     35  C   UNL A   1      40.040  26.532  28.046  1.00  0.00    -0.014 A 
BRANCH  35  36
ATOM     36  C   UNL A   1      40.527  27.768  28.705  1.00  0.00     0.031 A 
ATOM     37  C   UNL A   1      41.928  27.798  29.241  1.00  0.00     0.074 A 
ATOM     38  C   UNL A   1      39.744  28.860  28.795  1.00  0.00     0.049 A 
ATOM     39  N   UNL A   1      42.535  28.734  29.923  1.00  0.00    -0.248 NA
ATOM     40  C   UNL A   1      42.764  26.619  28.958  1.00  0.00     0.031 C 
ATOM     41  C   UNL A   1      38.408  28.994  28.216  1.00  0.00     0.029 A 
ATOM     42  N   UNL A   1      39.966  30.066  29.413  1.00  0.00    -0.354 N 
ATOM     43  C   UNL A   1      43.819  28.259  30.154  1.00  0.00     0.074 A 
ATOM     44  C   UNL A   1      43.903  26.946  29.550  1.00  0.00     0.031 C 
ATOM     45  C   UNL A   1      37.919  30.208  28.528  1.00  0.00     0.029 A 
ATOM     46  C   UNL A   1      38.886  30.918  29.364  1.00  0.00     0.049 A 
ATOM     47  H   UNL A   1      40.816  30.300  29.850  1.00  0.00     0.167 HD
ATOM     48  C   UNL A   1      44.835  28.858  30.819  1.00  0.00     0.031 A 
ATOM     49  C   UNL A   1      38.690  32.114  29.956  1.00  0.00     0.031 A 
ATOM     50  C   UNL A   1      44.731  30.144  31.455  1.00  0.00     0.049 A 
ATOM     51  C   UNL A   1      39.789  32.699  30.812  1.00  0.00     0.074 A 
ATOM     52  C   UNL A   1      45.690  30.820  32.189  1.00  0.00     0.029 A 
ATOM     53  N   UNL A   1      43.599  30.946  31.442  1.00  0.00    -0.354 N 
ATOM     54  N   UNL A   1      40.993  32.231  31.046  1.00  0.00    -0.248 NA
ATOM     55  C   UNL A   1      39.504  33.975  31.487  1.00  0.00     0.031 C 
ATOM     56  C   UNL A   1      45.118  31.999  32.672  1.00  0.00     0.029 A 
ATOM     57  C   UNL A   1      43.830  32.097  32.174  1.00  0.00     0.049 A 
ATOM     58  H   UNL A   1      42.757  30.727  30.980  1.00  0.00     0.167 HD
ATOM     59  C   UNL A   1      41.621  33.177  31.852  1.00  0.00     0.074 A 
ATOM     60  C   UNL A   1      40.667  34.242  32.068  1.00  0.00     0.031 C 
ATOM     61  C   UNL A   1      42.879  33.166  32.359  1.00  0.00     0.031 A 
BRANCH  48  62
ATOM     62  C   UNL A   1      46.129  28.100  30.942  1.00  0.00    -0.014 A 
ATOM     63  C   UNL A   1      47.201  28.340  30.065  1.00  0.00     0.010 A 
ATOM     64  C   UNL A   1      46.285  27.161  31.977  1.00  0.00     0.010 A 
ATOM     65  C   UNL A   1      48.397  27.628  30.203  1.00  0.00     0.020 A 
ATOM     66  C   UNL A   1      47.488  26.469  32.136  1.00  0.00     0.020 A 
ATOM     67  C   UNL A   1      48.532  26.697  31.238  1.00  0.00     0.054 A 
BRANCH  67  68
ATOM     68  S   UNL A   1      50.103  25.808  31.407  1.00  0.00     0.124 S 
ATOM     69  O   UNL A   1      50.164  25.064  30.152  1.00  0.00    -0.237 OA
ATOM     70  O   UNL A   1      51.072  26.893  31.540  1.00  0.00    -0.237 OA
ATOM     71  O   UNL A   1      49.915  24.993  32.605  1.00  0.00    -0.744 OA
ENDBRANCH  67  68
ENDBRANCH  48  62
BRANCH  49  72
ATOM     72  C   UNL A   1      37.389  32.830  29.810  1.00  0.00    -0.014 A 
ATOM     73  C   UNL A   1      36.341  32.617  30.724  1.00  0.00     0.010 A 
ATOM     74  C   UNL A   1      37.176  33.699  28.724  1.00  0.00     0.010 A 
ATOM     75  C   UNL A   1      35.098  33.233  30.537  1.00  0.00     0.020 A 
ATOM     76  C   UNL A   1      35.946  34.342  28.552  1.00  0.00     0.020 A 
ATOM     77  C   UNL A   1      34.909  34.092  29.450  1.00  0.00     0.054 A 
BRANCH  77  78
ATOM     78  S   UNL A   1      33.294  34.892  29.237  1.00  0.00     0.124 S 
ATOM     79  O   UNL A   1      32.593  33.940  28.382  1.00  0.00    -0.237 OA
ATOM     80  O   UNL A   1      32.807  34.990  30.610  1.00  0.00    -0.237 OA
ATOM     81  O   UNL A   1      33.625  36.170  28.608  1.00  0.00    -0.744 OA
ENDBRANCH  77  78
ENDBRANCH  49  72
BRANCH  61  82
ATOM     82  C   UNL A   1      43.343  34.372  33.136  1.00  0.00    -0.014 A 
ATOM     83  C   UNL A   1      43.940  35.476  32.504  1.00  0.00     0.010 A 
ATOM     84  C   UNL A   1      43.077  34.435  34.517  1.00  0.00     0.010 A 
ATOM     85  C   UNL A   1      44.273  36.617  33.242  1.00  0.00     0.020 A 
ATOM     86  C   UNL A   1      43.380  35.584  35.252  1.00  0.00     0.020 A 
ATOM     87  C   UNL A   1      43.982  36.667  34.610  1.00  0.00     0.054 A 
BRANCH  87  88
ATOM     88  S   UNL A   1      44.347  38.189  35.527  1.00  0.00     0.124 S 
ATOM     89  O   UNL A   1      43.668  39.201  34.722  1.00  0.00    -0.237 OA
ATOM     90  O   UNL A   1      43.753  37.924  36.835  1.00  0.00    -0.237 OA
ATOM     91  O   UNL A   1      45.806  38.262  35.515  1.00  0.00    -0.744 OA
ENDBRANCH  87  88
ENDBRANCH  61  82
ENDBRANCH  35  36
ENDBRANCH  28  30
ENDBRANCH  27  28
ENDBRANCH   1  27
TORSDOF 18
ENDMDL
MODEL 3
REMARK VINA RESULT:     -10.5      2.477      3.000
REMARK SMILES CCc1cc(OC(F)(F)F)cc2c1O[C@@H](C(F)(F)F)C(C(=O)OCCOC(=O)c1ccc(-c3c4nc(c(-c5ccc(S(=O)(=O)[O-])cc5)c5ccc([nH]5)c(-c5ccc(S(=O)(=O)[O-])cc5)c5nc(c(-c6ccc(S(=O)(=O)[O-])cc6)c6ccc3[nH]6)C=C5)C=C4)cc1)=C2
REMARK SMILES IDX 25 1 24 2 23 3 21 4 22 5 20 6 3 7 4 8 13 9 5 10 12 11 14 12
REMARK SMILES IDX 11 13 89 14 15 15 2 16 1 17 6 18 7 19 8 20 9 21 10 22 16 23
REMARK SMILES IDX 17 24 18 25 19 26 26 27 27 28 28 29 29 30 30 31 88 32 31 33
REMARK SMILES IDX 87 34 32 35 33 36 34 37 81 38 35 39 86 40 80 41 82 42 36 43
REMARK SMILES IDX 85 44 79 45 78 46 37 48 67 49 48 50 66 51 49 52 52 53 65 54
REMARK SMILES IDX 83 55 50 56 51 57 64 59 84 60 53 61 38 62 39 63 47 64 40 65
REMARK SMILES IDX 46 66 41 67 42 68 43 69 44 70 45 71 68 72 69 73 77 74 70 75
REMARK SMILES IDX 76 76 71 77 72 78 73 79 74 80 75 81 54 82 55 83 63 84 56 85
REMARK SMILES IDX 62 86 57 87 58 88 59 89 60 90 61 91
REMARK H PARENT 82 47 52 58
REMARK Flexibility Score: inf
ROOT
ATOM      1  C   UNL A   1      34.009  29.662  26.237  1.00  0.00     0.275 C 
ENDROOT
BRANCH   1   2
ATOM      2  C   UNL A   1      32.966  29.206  25.210  1.00  0.00     0.275 C 
BRANCH   2   3
ATOM      3  O   UNL A   1      31.726  28.817  25.838  1.00  0.00    -0.459 OA
BRANCH   3   4
ATOM      4  C   UNL A   1      31.754  27.635  26.508  1.00  0.00     0.338 C 
ATOM      5  O   UNL A   1      31.315  27.454  27.627  1.00  0.00    -0.246 OA
BRANCH   4   6
ATOM      6  C   UNL A   1      32.359  26.551  25.700  1.00  0.00     0.087 C 
ATOM      7  C   UNL A   1      33.733  23.380  23.341  1.00  0.00    -0.002 A 
ATOM      8  C   UNL A   1      35.060  22.938  23.501  1.00  0.00     0.054 A 
ATOM      9  C   UNL A   1      33.260  24.354  24.229  1.00  0.00     0.131 A 
ATOM     10  C   UNL A   1      35.888  23.468  24.495  1.00  0.00     0.130 A 
ATOM     11  C   UNL A   1      34.103  24.971  25.166  1.00  0.00     0.021 A 
ATOM     12  O   UNL A   1      31.920  24.624  24.248  1.00  0.00    -0.475 OA
ATOM     13  C   UNL A   1      35.419  24.517  25.295  1.00  0.00     0.058 A 
ATOM     14  C   UNL A   1      33.567  26.045  26.012  1.00  0.00     0.027 C 
ATOM     15  C   UNL A   1      31.590  26.012  24.507  1.00  0.00     0.316 C 
BRANCH   7  16
ATOM     16  C   UNL A   1      32.916  22.741  22.233  1.00  0.00     0.036 C 
ATOM     17  C   UNL A   1      32.154  21.456  22.542  1.00  0.00     0.009 C 
ENDBRANCH   7  16
BRANCH  10  18
ATOM     18  O   UNL A   1      37.162  23.052  24.771  1.00  0.00    -0.406 OA
BRANCH  18  19
ATOM     19  C   UNL A   1      37.316  21.744  25.303  1.00  0.00     0.573 C 
ATOM     20  F   UNL A   1      37.390  20.813  24.328  1.00  0.00    -0.132 F 
ATOM     21  F   UNL A   1      38.413  21.668  26.084  1.00  0.00    -0.132 F 
ATOM     22  F   UNL A   1      36.238  21.458  26.068  1.00  0.00    -0.132 F 
ENDBRANCH  18  19
ENDBRANCH  10  18
BRANCH  15  23
ATOM     23  C   UNL A   1      30.053  26.121  24.475  1.00  0.00     0.430 C 
ATOM     24  F   UNL A   1      29.499  25.270  23.583  1.00  0.00    -0.167 F 
ATOM     25  F   UNL A   1      29.540  25.766  25.684  1.00  0.00    -0.167 F 
ATOM     26  F   UNL A   1      29.627  27.374  24.216  1.00  0.00    -0.167 F 
ENDBRANCH  15  23
ENDBRANCH   4   6
ENDBRANCH   3   4
ENDBRANCH   2   3
ENDBRANCH   1   2
BRANCH   1  27
ATOM     27  O   UNL A   1      33.410  30.366  27.342  1.00  0.00    -0.458 OA
BRANCH  27  28
ATOM     28  C   UNL A   1      34.122  31.425  27.795  1.00  0.00     0.338 C 
ATOM     29  O   UNL A   1      33.725  32.574  27.906  1.00  0.00    -0.246 OA
BRANCH  28  30
ATOM     30  C   UNL A   1      35.421  30.975  28.334  1.00  0.00     0.060 A 
ATOM     31  C   UNL A   1      35.393  29.911  29.239  1.00  0.00     0.016 A 
ATOM     32  C   UNL A   1      36.638  31.570  27.996  1.00  0.00     0.016 A 
ATOM     33  C   UNL A   1      36.574  29.373  29.744  1.00  0.00     0.010 A 
ATOM     34  C   UNL A   1      37.824  31.072  28.554  1.00  0.00     0.010 A 
ATOM     35  C   UNL A   1      37.798  29.961  29.417  1.00  0.00    -0.014 A 
BRANCH  35  36
ATOM     36  C   UNL A   1      39.035  29.493  30.088  1.00  0.00     0.031 A 
ATOM     37  C   UNL A   1      39.491  30.194  31.334  1.00  0.00     0.074 A 
ATOM     38  C   UNL A   1      39.724  28.438  29.614  1.00  0.00     0.049 A 
ATOM     39  N   UNL A   1      40.577  30.012  32.037  1.00  0.00    -0.248 NA
ATOM     40  C   UNL A   1      38.593  31.231  31.869  1.00  0.00     0.031 C 
ATOM     41  C   UNL A   1      39.325  27.606  28.480  1.00  0.00     0.029 A 
ATOM     42  N   UNL A   1      40.912  27.888  30.033  1.00  0.00    -0.354 N 
ATOM     43  C   UNL A   1      40.499  30.910  33.093  1.00  0.00     0.074 A 
ATOM     44  C   UNL A   1      39.262  31.646  32.934  1.00  0.00     0.031 C 
ATOM     45  C   UNL A   1      40.266  26.664  28.279  1.00  0.00     0.029 A 
ATOM     46  C   UNL A   1      41.353  26.855  29.238  1.00  0.00     0.049 A 
ATOM     47  H   UNL A   1      41.402  28.204  30.826  1.00  0.00     0.167 HD
ATOM     48  C   UNL A   1      41.381  31.111  34.100  1.00  0.00     0.031 A 
ATOM     49  C   UNL A   1      42.514  26.170  29.263  1.00  0.00     0.031 A 
ATOM     50  C   UNL A   1      42.629  30.407  34.228  1.00  0.00     0.049 A 
ATOM     51  C   UNL A   1      43.547  26.510  30.312  1.00  0.00     0.074 A 
ATOM     52  C   UNL A   1      43.612  30.568  35.188  1.00  0.00     0.029 A 
ATOM     53  N   UNL A   1      43.072  29.416  33.364  1.00  0.00    -0.354 N 
ATOM     54  N   UNL A   1      43.473  27.380  31.292  1.00  0.00    -0.248 NA
ATOM     55  C   UNL A   1      44.822  25.778  30.258  1.00  0.00     0.031 C 
ATOM     56  C   UNL A   1      44.675  29.720  34.869  1.00  0.00     0.029 A 
ATOM     57  C   UNL A   1      44.322  28.973  33.757  1.00  0.00     0.049 A 
ATOM     58  H   UNL A   1      42.570  29.079  32.587  1.00  0.00     0.167 HD
ATOM     59  C   UNL A   1      44.668  27.262  31.997  1.00  0.00     0.074 A 
ATOM     60  C   UNL A   1      45.448  26.242  31.332  1.00  0.00     0.031 C 
ATOM     61  C   UNL A   1      45.077  27.934  33.101  1.00  0.00     0.031 A 
BRANCH  48  62
ATOM     62  C   UNL A   1      41.053  32.178  35.109  1.00  0.00    -0.014 A 
ATOM     63  C   UNL A   1      40.333  31.878  36.280  1.00  0.00     0.010 A 
ATOM     64  C   UNL A   1      41.508  33.492  34.901  1.00  0.00     0.010 A 
ATOM     65  C   UNL A   1      40.046  32.884  37.208  1.00  0.00     0.020 A 
ATOM     66  C   UNL A   1      41.248  34.494  35.839  1.00  0.00     0.020 A 
ATOM     67  C   UNL A   1      40.506  34.185  36.980  1.00  0.00     0.054 A 
BRANCH  67  68
ATOM     68  S   UNL A   1      40.140  35.463  38.213  1.00  0.00     0.124 S 
ATOM     69  O   UNL A   1      39.798  36.606  37.371  1.00  0.00    -0.237 OA
ATOM     70  O   UNL A   1      39.028  34.879  38.960  1.00  0.00    -0.237 OA
ATOM     71  O   UNL A   1      41.389  35.594  38.961  1.00  0.00    -0.744 OA
ENDBRANCH  67  68
ENDBRANCH  48  62
BRANCH  49  72
ATOM     72  C   UNL A   1      42.799  25.122  28.239  1.00  0.00    -0.014 A 
ATOM     73  C   UNL A   1      42.501  23.770  28.486  1.00  0.00     0.010 A 
ATOM     74  C   UNL A   1      43.413  25.470  27.021  1.00  0.00     0.010 A 
ATOM     75  C   UNL A   1      42.841  22.784  27.552  1.00  0.00     0.020 A 
ATOM     76  C   UNL A   1      43.724  24.493  26.071  1.00  0.00     0.020 A 
ATOM     77  C   UNL A   1      43.452  23.153  26.350  1.00  0.00     0.054 A 
BRANCH  77  78
ATOM     78  S   UNL A   1      43.869  21.860  25.146  1.00  0.00     0.124 S 
ATOM     79  O   UNL A   1      42.814  20.879  25.377  1.00  0.00    -0.237 OA
ATOM     80  O   UNL A   1      43.800  22.578  23.876  1.00  0.00    -0.237 OA
ATOM     81  O   UNL A   1      45.211  21.440  25.545  1.00  0.00    -0.744 OA
ENDBRANCH  77  78
ENDBRANCH  49  72
BRANCH  61  82
ATOM     82  C   UNL A   1      46.395  27.547  33.724  1.00  0.00    -0.014 A 
ATOM     83  C   UNL A   1      47.591  28.207  33.398  1.00  0.00     0.010 A 
ATOM     84  C   UNL A   1      46.408  26.566  34.734  1.00  0.00     0.010 A 
ATOM     85  C   UNL A   1      48.780  27.886  34.063  1.00  0.00     0.020 A 
ATOM     86  C   UNL A   1      47.586  26.263  35.422  1.00  0.00     0.020 A 
ATOM     87  C   UNL A   1      48.767  26.922  35.078  1.00  0.00     0.054 A 
BRANCH  87  88
ATOM     88  S   UNL A   1      50.302  26.584  35.982  1.00  0.00     0.124 S 
ATOM     89  O   UNL A   1      50.755  25.342  35.362  1.00  0.00    -0.237 OA
ATOM     90  O   UNL A   1      51.112  27.765  35.690  1.00  0.00    -0.237 OA
ATOM     91  O   UNL A   1      49.869  26.463  37.373  1.00  0.00    -0.744 OA
ENDBRANCH  87  88
ENDBRANCH  61  82
ENDBRANCH  35  36
ENDBRANCH  28  30
ENDBRANCH  27  28
ENDBRANCH   1  27
TORSDOF 18
ENDMDL
