MODEL 1
REMARK VINA RESULT:     -10.9      0.000      0.000
REMARK SMILES O=C(OCCOC(=O)c1ccc(-c2c3nc(c(-c4ccc(S(=O)(=O)[O-])cc4)c4ccc([nH]4)c(-c4ccc(S(=O)(=O)[O-])cc4)c4nc(c(-c5ccc(S(=O)(=O)[O-])cc5)c5ccc2[nH]5)C=C4)C=C3)cc1)c1ccc(N[C@H]2OC[C@@H](O)[C@@H](O)[C@H]2O)cc1
REMARK SMILES IDX 4 1 3 2 2 3 1 4 69 5 70 6 84 7 71 8 83 9 72 10 73 11 74 13
REMARK SMILES IDX 75 14 81 15 76 16 79 17 77 18 82 19 80 21 78 23 5 25 6 26
REMARK SMILES IDX 7 27 8 28 9 29 10 30 68 31 11 32 67 33 12 34 13 35 14 36
REMARK SMILES IDX 61 37 15 38 66 39 60 40 62 41 16 42 65 43 59 44 58 45 17 47
REMARK SMILES IDX 47 48 28 49 46 50 29 51 32 52 45 53 63 54 30 55 31 56 44 58
REMARK SMILES IDX 64 59 33 60 18 61 19 62 27 63 20 64 26 65 21 66 22 67 23 68
REMARK SMILES IDX 24 69 25 70 48 71 49 72 57 73 50 74 56 75 51 76 52 77 53 78
REMARK SMILES IDX 54 79 55 80 34 81 35 82 43 83 36 84 42 85 37 86 38 87 39 88
REMARK SMILES IDX 40 89 41 90
REMARK H PARENT 73 12 82 20 80 22 78 24 62 46 32 57
REMARK Flexibility Score: inf
ROOT
ATOM      1  C   UNL A   1      43.205  21.783  25.863  1.00  0.00     0.275 C 
ENDROOT
BRANCH   1   2
ATOM      2  O   UNL A   1      42.044  20.943  25.749  1.00  0.00    -0.458 OA
BRANCH   2   3
ATOM      3  C   UNL A   1      40.905  20.915  26.481  1.00  0.00     0.338 C 
ATOM      4  O   UNL A   1      41.013  20.922  27.708  1.00  0.00    -0.246 OA
BRANCH   3   5
ATOM      5  C   UNL A   1      39.522  20.769  25.909  1.00  0.00     0.060 A 
ATOM      6  C   UNL A   1      38.934  19.606  25.415  1.00  0.00     0.018 A 
ATOM      7  C   UNL A   1      38.726  21.927  25.904  1.00  0.00     0.018 A 
ATOM      8  C   UNL A   1      37.586  19.573  25.027  1.00  0.00     0.026 A 
ATOM      9  C   UNL A   1      37.390  21.896  25.478  1.00  0.00     0.026 A 
ATOM     10  C   UNL A   1      36.782  20.709  25.069  1.00  0.00     0.036 A 
BRANCH  10  11
ATOM     11  N   UNL A   1      35.428  20.698  24.798  1.00  0.00    -0.358 N 
ATOM     12  H   UNL A   1      35.072  19.947  24.269  1.00  0.00     0.163 HD
BRANCH  11  13
ATOM     13  C   UNL A   1      34.492  21.716  25.239  1.00  0.00     0.244 C 
ATOM     14  O   UNL A   1      33.410  21.798  24.307  1.00  0.00    -0.353 OA
ATOM     15  C   UNL A   1      33.925  21.330  26.624  1.00  0.00     0.195 C 
ATOM     16  C   UNL A   1      32.465  22.825  24.635  1.00  0.00     0.197 C 
ATOM     17  C   UNL A   1      32.960  22.437  27.066  1.00  0.00     0.178 C 
ATOM     18  C   UNL A   1      31.848  22.634  26.025  1.00  0.00     0.171 C 
BRANCH  15  19
ATOM     19  O   UNL A   1      33.192  20.084  26.546  1.00  0.00    -0.386 OA
ATOM     20  H   UNL A   1      33.318  19.689  25.669  1.00  0.00     0.211 HD
ENDBRANCH  15  19
BRANCH  17  21
ATOM     21  O   UNL A   1      32.401  22.125  28.343  1.00  0.00    -0.387 OA
ATOM     22  H   UNL A   1      31.473  22.409  28.369  1.00  0.00     0.211 HD
ENDBRANCH  17  21
BRANCH  18  23
ATOM     23  O   UNL A   1      30.961  21.508  26.008  1.00  0.00    -0.388 OA
ATOM     24  H   UNL A   1      31.419  20.730  26.361  1.00  0.00     0.211 HD
ENDBRANCH  18  23
ENDBRANCH  11  13
ENDBRANCH  10  11
ENDBRANCH   3   5
ENDBRANCH   2   3
ENDBRANCH   1   2
BRANCH   1  25
ATOM     25  C   UNL A   1      43.015  23.173  25.244  1.00  0.00     0.275 C 
BRANCH  25  26
ATOM     26  O   UNL A   1      42.274  24.061  26.098  1.00  0.00    -0.458 OA
BRANCH  26  27
ATOM     27  C   UNL A   1      42.467  25.383  25.851  1.00  0.00     0.338 C 
ATOM     28  O   UNL A   1      42.660  25.882  24.753  1.00  0.00    -0.246 OA
BRANCH  27  29
ATOM     29  C   UNL A   1      42.300  26.191  27.085  1.00  0.00     0.060 A 
ATOM     30  C   UNL A   1      41.360  25.748  28.024  1.00  0.00     0.016 A 
ATOM     31  C   UNL A   1      43.020  27.366  27.332  1.00  0.00     0.016 A 
ATOM     32  C   UNL A   1      41.110  26.491  29.181  1.00  0.00     0.010 A 
ATOM     33  C   UNL A   1      42.778  28.103  28.501  1.00  0.00     0.010 A 
ATOM     34  C   UNL A   1      41.799  27.689  29.421  1.00  0.00    -0.014 A 
BRANCH  34  35
ATOM     35  C   UNL A   1      41.416  28.536  30.585  1.00  0.00     0.031 A 
ATOM     36  C   UNL A   1      42.195  28.437  31.871  1.00  0.00     0.074 A 
ATOM     37  C   UNL A   1      40.420  29.438  30.495  1.00  0.00     0.049 A 
ATOM     38  N   UNL A   1      42.091  29.164  32.955  1.00  0.00    -0.248 NA
ATOM     39  C   UNL A   1      43.229  27.392  31.941  1.00  0.00     0.031 C 
ATOM     40  C   UNL A   1      39.598  29.673  29.311  1.00  0.00     0.029 A 
ATOM     41  N   UNL A   1      39.934  30.334  31.418  1.00  0.00    -0.354 N 
ATOM     42  C   UNL A   1      43.066  28.690  33.824  1.00  0.00     0.074 A 
ATOM     43  C   UNL A   1      43.708  27.571  33.164  1.00  0.00     0.031 C 
ATOM     44  C   UNL A   1      38.698  30.634  29.581  1.00  0.00     0.029 A 
ATOM     45  C   UNL A   1      38.885  31.093  30.955  1.00  0.00     0.049 A 
ATOM     46  H   UNL A   1      40.303  30.422  32.326  1.00  0.00     0.167 HD
ATOM     47  C   UNL A   1      43.421  29.156  35.044  1.00  0.00     0.031 A 
ATOM     48  C   UNL A   1      38.163  32.058  31.560  1.00  0.00     0.031 A 
ATOM     49  C   UNL A   1      42.777  30.246  35.728  1.00  0.00     0.049 A 
ATOM     50  C   UNL A   1      38.521  32.504  32.954  1.00  0.00     0.074 A 
ATOM     51  C   UNL A   1      43.084  30.785  36.967  1.00  0.00     0.029 A 
ATOM     52  N   UNL A   1      41.693  30.958  35.243  1.00  0.00    -0.354 N 
ATOM     53  N   UNL A   1      39.493  32.087  33.730  1.00  0.00    -0.248 NA
ATOM     54  C   UNL A   1      37.700  33.574  33.541  1.00  0.00     0.031 C 
ATOM     55  C   UNL A   1      42.154  31.790  37.252  1.00  0.00     0.029 A 
ATOM     56  C   UNL A   1      41.303  31.915  36.167  1.00  0.00     0.049 A 
ATOM     57  H   UNL A   1      41.262  30.807  34.371  1.00  0.00     0.167 HD
ATOM     58  C   UNL A   1      39.423  32.872  34.879  1.00  0.00     0.074 A 
ATOM     59  C   UNL A   1      38.321  33.792  34.693  1.00  0.00     0.031 C 
ATOM     60  C   UNL A   1      40.208  32.833  35.984  1.00  0.00     0.031 A 
BRANCH  47  61
ATOM     61  C   UNL A   1      44.579  28.477  35.725  1.00  0.00    -0.014 A 
ATOM     62  C   UNL A   1      44.367  27.368  36.564  1.00  0.00     0.010 A 
ATOM     63  C   UNL A   1      45.893  28.923  35.495  1.00  0.00     0.010 A 
ATOM     64  C   UNL A   1      45.443  26.740  37.191  1.00  0.00     0.020 A 
ATOM     65  C   UNL A   1      46.975  28.280  36.100  1.00  0.00     0.020 A 
ATOM     66  C   UNL A   1      46.742  27.203  36.959  1.00  0.00     0.054 A 
BRANCH  66  67
ATOM     67  S   UNL A   1      48.124  26.356  37.773  1.00  0.00     0.124 S 
ATOM     68  O   UNL A   1      48.960  25.982  36.635  1.00  0.00    -0.237 OA
ATOM     69  O   UNL A   1      48.672  27.396  38.640  1.00  0.00    -0.237 OA
ATOM     70  O   UNL A   1      47.485  25.242  38.469  1.00  0.00    -0.744 OA
ENDBRANCH  66  67
ENDBRANCH  47  61
BRANCH  48  71
ATOM     71  C   UNL A   1      37.017  32.688  30.849  1.00  0.00    -0.014 A 
ATOM     72  C   UNL A   1      37.228  33.690  29.884  1.00  0.00     0.010 A 
ATOM     73  C   UNL A   1      35.701  32.316  31.172  1.00  0.00     0.010 A 
ATOM     74  C   UNL A   1      36.142  34.331  29.281  1.00  0.00     0.020 A 
ATOM     75  C   UNL A   1      34.613  32.936  30.554  1.00  0.00     0.020 A 
ATOM     76  C   UNL A   1      34.840  33.953  29.625  1.00  0.00     0.054 A 
BRANCH  76  77
ATOM     77  S   UNL A   1      33.442  34.785  28.821  1.00  0.00     0.124 S 
ATOM     78  O   UNL A   1      34.071  35.990  28.291  1.00  0.00    -0.237 OA
ATOM     79  O   UNL A   1      33.017  33.801  27.828  1.00  0.00    -0.237 OA
ATOM     80  O   UNL A   1      32.499  34.999  29.917  1.00  0.00    -0.744 OA
ENDBRANCH  76  77
ENDBRANCH  48  71
BRANCH  60  81
ATOM     81  C   UNL A   1      39.935  33.841  37.072  1.00  0.00    -0.014 A 
ATOM     82  C   UNL A   1      40.347  35.180  36.951  1.00  0.00     0.010 A 
ATOM     83  C   UNL A   1      39.217  33.450  38.218  1.00  0.00     0.010 A 
ATOM     84  C   UNL A   1      40.079  36.099  37.971  1.00  0.00     0.020 A 
ATOM     85  C   UNL A   1      38.924  34.372  39.227  1.00  0.00     0.020 A 
ATOM     86  C   UNL A   1      39.373  35.688  39.105  1.00  0.00     0.054 A 
BRANCH  86  87
ATOM     87  S   UNL A   1      39.009  36.905  40.400  1.00  0.00     0.124 S 
ATOM     88  O   UNL A   1      40.330  37.142  40.975  1.00  0.00    -0.237 OA
ATOM     89  O   UNL A   1      38.442  38.020  39.645  1.00  0.00    -0.237 OA
ATOM     90  O   UNL A   1      38.064  36.212  41.274  1.00  0.00    -0.744 OA
ENDBRANCH  86  87
ENDBRANCH  60  81
ENDBRANCH  34  35
ENDBRANCH  27  29
ENDBRANCH  26  27
ENDBRANCH  25  26
ENDBRANCH   1  25
TORSDOF 19
ENDMDL
MODEL 2
REMARK VINA RESULT:     -10.7      6.145     12.314
REMARK SMILES O=C(OCCOC(=O)c1ccc(-c2c3nc(c(-c4ccc(S(=O)(=O)[O-])cc4)c4ccc([nH]4)c(-c4ccc(S(=O)(=O)[O-])cc4)c4nc(c(-c5ccc(S(=O)(=O)[O-])cc5)c5ccc2[nH]5)C=C4)C=C3)cc1)c1ccc(N[C@H]2OC[C@@H](O)[C@@H](O)[C@H]2O)cc1
REMARK SMILES IDX 4 1 3 2 2 3 1 4 69 5 70 6 84 7 71 8 83 9 72 10 73 11 74 13
REMARK SMILES IDX 75 14 81 15 76 16 79 17 77 18 82 19 80 21 78 23 5 25 6 26
REMARK SMILES IDX 7 27 8 28 9 29 10 30 68 31 11 32 67 33 12 34 13 35 14 36
REMARK SMILES IDX 61 37 15 38 66 39 60 40 62 41 16 42 65 43 59 44 58 45 17 47
REMARK SMILES IDX 47 48 28 49 46 50 29 51 32 52 45 53 63 54 30 55 31 56 44 58
REMARK SMILES IDX 64 59 33 60 18 61 19 62 27 63 20 64 26 65 21 66 22 67 23 68
REMARK SMILES IDX 24 69 25 70 48 71 49 72 57 73 50 74 56 75 51 76 52 77 53 78
REMARK SMILES IDX 54 79 55 80 34 81 35 82 43 83 36 84 42 85 37 86 38 87 39 88
REMARK SMILES IDX 40 89 41 90
REMARK H PARENT 73 12 82 20 80 22 78 24 62 46 32 57
REMARK Flexibility Score: inf
ROOT
ATOM      1  C   UNL A   1      34.685  33.703  30.523  1.00  0.00     0.275 C 
ENDROOT
BRANCH   1   2
ATOM      2  O   UNL A   1      34.098  33.251  29.291  1.00  0.00    -0.458 OA
BRANCH   2   3
ATOM      3  C   UNL A   1      34.642  32.565  28.259  1.00  0.00     0.338 C 
ATOM      4  O   UNL A   1      35.542  33.110  27.620  1.00  0.00    -0.246 OA
BRANCH   3   5
ATOM      5  C   UNL A   1      34.157  31.229  27.767  1.00  0.00     0.060 A 
ATOM      6  C   UNL A   1      32.894  30.926  27.262  1.00  0.00     0.018 A 
ATOM      7  C   UNL A   1      35.093  30.181  27.791  1.00  0.00     0.018 A 
ATOM      8  C   UNL A   1      32.606  29.667  26.713  1.00  0.00     0.026 A 
ATOM      9  C   UNL A   1      34.785  28.912  27.276  1.00  0.00     0.026 A 
ATOM     10  C   UNL A   1      33.548  28.643  26.690  1.00  0.00     0.036 A 
BRANCH  10  11
ATOM     11  N   UNL A   1      33.343  27.428  26.068  1.00  0.00    -0.358 N 
ATOM     12  H   UNL A   1      34.078  26.772  26.089  1.00  0.00     0.163 HD
BRANCH  11  13
ATOM     13  C   UNL A   1      32.119  27.048  25.386  1.00  0.00     0.244 C 
ATOM     14  O   UNL A   1      32.438  26.189  24.287  1.00  0.00    -0.353 OA
ATOM     15  C   UNL A   1      31.200  26.282  26.364  1.00  0.00     0.195 C 
ATOM     16  C   UNL A   1      31.287  25.812  23.519  1.00  0.00     0.197 C 
ATOM     17  C   UNL A   1      29.911  25.918  25.617  1.00  0.00     0.178 C 
ATOM     18  C   UNL A   1      30.229  25.092  24.361  1.00  0.00     0.171 C 
BRANCH  15  19
ATOM     19  O   UNL A   1      31.835  25.059  26.809  1.00  0.00    -0.386 OA
ATOM     20  H   UNL A   1      31.212  24.321  26.722  1.00  0.00     0.211 HD
ENDBRANCH  15  19
BRANCH  17  21
ATOM     21  O   UNL A   1      29.026  25.200  26.477  1.00  0.00    -0.387 OA
ATOM     22  H   UNL A   1      28.182  25.673  26.542  1.00  0.00     0.211 HD
ENDBRANCH  17  21
BRANCH  18  23
ATOM     23  O   UNL A   1      30.700  23.786  24.715  1.00  0.00    -0.388 OA
ATOM     24  H   UNL A   1      30.237  23.480  25.511  1.00  0.00     0.211 HD
ENDBRANCH  18  23
ENDBRANCH  11  13
ENDBRANCH  10  11
ENDBRANCH   3   5
ENDBRANCH   2   3
ENDBRANCH   1   2
BRANCH   1  25
ATOM     25  C   UNL A   1      35.120  32.559  31.447  1.00  0.00     0.275 C 
BRANCH  25  26
ATOM     26  O   UNL A   1      36.495  32.188  31.257  1.00  0.00    -0.458 OA
BRANCH  26  27
ATOM     27  C   UNL A   1      36.719  30.850  31.174  1.00  0.00     0.338 C 
ATOM     28  O   UNL A   1      35.894  29.975  31.386  1.00  0.00    -0.246 OA
BRANCH  27  29
ATOM     29  C   UNL A   1      38.087  30.563  30.673  1.00  0.00     0.060 A 
ATOM     30  C   UNL A   1      38.260  30.470  29.287  1.00  0.00     0.016 A 
ATOM     31  C   UNL A   1      39.184  30.369  31.520  1.00  0.00     0.016 A 
ATOM     32  C   UNL A   1      39.509  30.146  28.750  1.00  0.00     0.010 A 
ATOM     33  C   UNL A   1      40.441  30.058  30.978  1.00  0.00     0.010 A 
ATOM     34  C   UNL A   1      40.608  29.912  29.589  1.00  0.00    -0.014 A 
BRANCH  34  35
ATOM     35  C   UNL A   1      41.890  29.429  29.006  1.00  0.00     0.031 A 
ATOM     36  C   UNL A   1      43.054  30.376  28.871  1.00  0.00     0.074 A 
ATOM     37  C   UNL A   1      42.053  28.142  28.647  1.00  0.00     0.049 A 
ATOM     38  N   UNL A   1      44.282  30.122  28.494  1.00  0.00    -0.248 NA
ATOM     39  C   UNL A   1      42.806  31.785  29.215  1.00  0.00     0.031 C 
ATOM     40  C   UNL A   1      41.032  27.102  28.747  1.00  0.00     0.029 A 
ATOM     41  N   UNL A   1      43.144  27.484  28.132  1.00  0.00    -0.354 N 
ATOM     42  C   UNL A   1      44.963  31.330  28.586  1.00  0.00     0.074 A 
ATOM     43  C   UNL A   1      43.995  32.328  28.994  1.00  0.00     0.031 C 
ATOM     44  C   UNL A   1      41.536  25.942  28.291  1.00  0.00     0.029 A 
ATOM     45  C   UNL A   1      42.921  26.152  27.876  1.00  0.00     0.049 A 
ATOM     46  H   UNL A   1      44.007  27.928  27.960  1.00  0.00     0.167 HD
ATOM     47  C   UNL A   1      46.277  31.586  28.383  1.00  0.00     0.031 A 
ATOM     48  C   UNL A   1      43.738  25.201  27.379  1.00  0.00     0.031 A 
ATOM     49  C   UNL A   1      47.248  30.615  27.951  1.00  0.00     0.049 A 
ATOM     50  C   UNL A   1      45.178  25.529  27.078  1.00  0.00     0.074 A 
ATOM     51  C   UNL A   1      48.603  30.795  27.729  1.00  0.00     0.029 A 
ATOM     52  N   UNL A   1      46.970  29.289  27.663  1.00  0.00    -0.354 N 
ATOM     53  N   UNL A   1      45.818  26.663  27.239  1.00  0.00    -0.248 NA
ATOM     54  C   UNL A   1      46.014  24.438  26.556  1.00  0.00     0.031 C 
ATOM     55  C   UNL A   1      49.136  29.589  27.260  1.00  0.00     0.029 A 
ATOM     56  C   UNL A   1      48.124  28.645  27.242  1.00  0.00     0.049 A 
ATOM     57  H   UNL A   1      46.085  28.866  27.743  1.00  0.00     0.167 HD
ATOM     58  C   UNL A   1      47.137  26.408  26.875  1.00  0.00     0.074 A 
ATOM     59  C   UNL A   1      47.207  25.013  26.495  1.00  0.00     0.031 C 
ATOM     60  C   UNL A   1      48.196  27.256  26.865  1.00  0.00     0.031 A 
BRANCH  47  61
ATOM     61  C   UNL A   1      46.747  32.994  28.635  1.00  0.00    -0.014 A 
ATOM     62  C   UNL A   1      46.785  33.933  27.590  1.00  0.00     0.010 A 
ATOM     63  C   UNL A   1      47.112  33.394  29.933  1.00  0.00     0.010 A 
ATOM     64  C   UNL A   1      47.218  35.238  27.828  1.00  0.00     0.020 A 
ATOM     65  C   UNL A   1      47.521  34.706  30.180  1.00  0.00     0.020 A 
ATOM     66  C   UNL A   1      47.589  35.616  29.122  1.00  0.00     0.054 A 
BRANCH  66  67
ATOM     67  S   UNL A   1      48.130  37.323  29.406  1.00  0.00     0.124 S 
ATOM     68  O   UNL A   1      47.223  37.754  30.468  1.00  0.00    -0.237 OA
ATOM     69  O   UNL A   1      49.526  37.156  29.803  1.00  0.00    -0.237 OA
ATOM     70  O   UNL A   1      47.927  37.971  28.113  1.00  0.00    -0.744 OA
ENDBRANCH  66  67
ENDBRANCH  47  61
BRANCH  48  71
ATOM     71  C   UNL A   1      43.222  23.827  27.134  1.00  0.00    -0.014 A 
ATOM     72  C   UNL A   1      43.128  22.893  28.181  1.00  0.00     0.010 A 
ATOM     73  C   UNL A   1      42.863  23.435  25.832  1.00  0.00     0.010 A 
ATOM     74  C   UNL A   1      42.718  21.582  27.924  1.00  0.00     0.020 A 
ATOM     75  C   UNL A   1      42.429  22.133  25.575  1.00  0.00     0.020 A 
ATOM     76  C   UNL A   1      42.376  21.208  26.620  1.00  0.00     0.054 A 
BRANCH  76  77
ATOM     77  S   UNL A   1      41.830  19.506  26.307  1.00  0.00     0.124 S 
ATOM     78  O   UNL A   1      40.386  19.671  26.177  1.00  0.00    -0.237 OA
ATOM     79  O   UNL A   1      42.544  19.165  25.079  1.00  0.00    -0.237 OA
ATOM     80  O   UNL A   1      42.274  18.784  27.498  1.00  0.00    -0.744 OA
ENDBRANCH  76  77
ENDBRANCH  48  71
BRANCH  60  81
ATOM     81  C   UNL A   1      49.538  26.696  26.466  1.00  0.00    -0.014 A 
ATOM     82  C   UNL A   1      50.001  26.776  25.141  1.00  0.00     0.010 A 
ATOM     83  C   UNL A   1      50.368  26.116  27.444  1.00  0.00     0.010 A 
ATOM     84  C   UNL A   1      51.252  26.254  24.794  1.00  0.00     0.020 A 
ATOM     85  C   UNL A   1      51.629  25.617  27.107  1.00  0.00     0.020 A 
ATOM     86  C   UNL A   1      52.056  25.674  25.779  1.00  0.00     0.054 A 
BRANCH  86  87
ATOM     87  S   UNL A   1      53.688  25.033  25.312  1.00  0.00     0.124 S 
ATOM     88  O   UNL A   1      53.920  25.694  24.031  1.00  0.00    -0.237 OA
ATOM     89  O   UNL A   1      54.538  25.480  26.413  1.00  0.00    -0.237 OA
ATOM     90  O   UNL A   1      53.486  23.587  25.239  1.00  0.00    -0.744 OA
ENDBRANCH  86  87
ENDBRANCH  60  81
ENDBRANCH  34  35
ENDBRANCH  27  29
ENDBRANCH  26  27
ENDBRANCH  25  26
ENDBRANCH   1  25
TORSDOF 19
ENDMDL
MODEL 3
REMARK VINA RESULT:     -10.4      1.263      2.014
REMARK SMILES O=C(OCCOC(=O)c1ccc(-c2c3nc(c(-c4ccc(S(=O)(=O)[O-])cc4)c4ccc([nH]4)c(-c4ccc(S(=O)(=O)[O-])cc4)c4nc(c(-c5ccc(S(=O)(=O)[O-])cc5)c5ccc2[nH]5)C=C4)C=C3)cc1)c1ccc(N[C@H]2OC[C@@H](O)[C@@H](O)[C@H]2O)cc1
REMARK SMILES IDX 4 1 3 2 2 3 1 4 69 5 70 6 84 7 71 8 83 9 72 10 73 11 74 13
REMARK SMILES IDX 75 14 81 15 76 16 79 17 77 18 82 19 80 21 78 23 5 25 6 26
REMARK SMILES IDX 7 27 8 28 9 29 10 30 68 31 11 32 67 33 12 34 13 35 14 36
REMARK SMILES IDX 61 37 15 38 66 39 60 40 62 41 16 42 65 43 59 44 58 45 17 47
REMARK SMILES IDX 47 48 28 49 46 50 29 51 32 52 45 53 63 54 30 55 31 56 44 58
REMARK SMILES IDX 64 59 33 60 18 61 19 62 27 63 20 64 26 65 21 66 22 67 23 68
REMARK SMILES IDX 24 69 25 70 48 71 49 72 57 73 50 74 56 75 51 76 52 77 53 78
REMARK SMILES IDX 54 79 55 80 34 81 35 82 43 83 36 84 42 85 37 86 38 87 39 88
REMARK SMILES IDX 40 89 41 90
REMARK H PARENT 73 12 82 20 80 22 78 24 62 46 32 57
REMARK Flexibility Score: inf
ROOT
ATOM      1  C   UNL A   1      42.861  21.758  26.130  1.00  0.00     0.275 C 
ENDROOT
BRANCH   1   2
ATOM      2  O   UNL A   1      41.493  21.593  25.719  1.00  0.00    -0.458 OA
BRANCH   2   3
ATOM      3  C   UNL A   1      40.355  21.554  26.452  1.00  0.00     0.338 C 
ATOM      4  O   UNL A   1      40.351  20.855  27.465  1.00  0.00    -0.246 OA
BRANCH   3   5
ATOM      5  C   UNL A   1      39.062  22.217  26.062  1.00  0.00     0.060 A 
ATOM      6  C   UNL A   1      38.640  23.501  26.399  1.00  0.00     0.018 A 
ATOM      7  C   UNL A   1      38.203  21.466  25.242  1.00  0.00     0.018 A 
ATOM      8  C   UNL A   1      37.465  24.051  25.862  1.00  0.00     0.026 A 
ATOM      9  C   UNL A   1      37.010  22.009  24.741  1.00  0.00     0.026 A 
ATOM     10  C   UNL A   1      36.638  23.327  25.009  1.00  0.00     0.036 A 
BRANCH  10  11
ATOM     11  N   UNL A   1      35.533  23.862  24.378  1.00  0.00    -0.358 N 
ATOM     12  H   UNL A   1      35.651  24.708  23.888  1.00  0.00     0.163 HD
BRANCH  11  13
ATOM     13  C   UNL A   1      34.210  23.264  24.384  1.00  0.00     0.244 C 
ATOM     14  O   UNL A   1      33.249  24.249  24.773  1.00  0.00    -0.353 OA
ATOM     15  C   UNL A   1      33.863  22.765  22.963  1.00  0.00     0.195 C 
ATOM     16  C   UNL A   1      31.917  23.726  24.864  1.00  0.00     0.197 C 
ATOM     17  C   UNL A   1      32.473  22.121  23.014  1.00  0.00     0.178 C 
ATOM     18  C   UNL A   1      31.432  23.120  23.543  1.00  0.00     0.171 C 
BRANCH  15  19
ATOM     19  O   UNL A   1      33.825  23.870  22.030  1.00  0.00    -0.386 OA
ATOM     20  H   UNL A   1      33.998  23.543  21.133  1.00  0.00     0.211 HD
ENDBRANCH  15  19
BRANCH  17  21
ATOM     21  O   UNL A   1      32.099  21.647  21.720  1.00  0.00    -0.387 OA
ATOM     22  H   UNL A   1      32.895  21.407  21.220  1.00  0.00     0.211 HD
ENDBRANCH  17  21
BRANCH  18  23
ATOM     23  O   UNL A   1      31.199  24.164  22.589  1.00  0.00    -0.388 OA
ATOM     24  H   UNL A   1      31.984  24.275  22.032  1.00  0.00     0.211 HD
ENDBRANCH  18  23
ENDBRANCH  11  13
ENDBRANCH  10  11
ENDBRANCH   3   5
ENDBRANCH   2   3
ENDBRANCH   1   2
BRANCH   1  25
ATOM     25  C   UNL A   1      43.261  23.222  26.345  1.00  0.00     0.275 C 
BRANCH  25  26
ATOM     26  O   UNL A   1      42.145  24.121  26.234  1.00  0.00    -0.458 OA
BRANCH  26  27
ATOM     27  C   UNL A   1      42.479  25.421  26.016  1.00  0.00     0.338 C 
ATOM     28  O   UNL A   1      43.039  25.855  25.021  1.00  0.00    -0.246 OA
BRANCH  27  29
ATOM     29  C   UNL A   1      41.970  26.296  27.102  1.00  0.00     0.060 A 
ATOM     30  C   UNL A   1      42.584  27.544  27.266  1.00  0.00     0.016 A 
ATOM     31  C   UNL A   1      40.933  25.920  27.962  1.00  0.00     0.016 A 
ATOM     32  C   UNL A   1      42.195  28.394  28.305  1.00  0.00     0.010 A 
ATOM     33  C   UNL A   1      40.534  26.780  28.997  1.00  0.00     0.010 A 
ATOM     34  C   UNL A   1      41.182  28.012  29.197  1.00  0.00    -0.014 A 
BRANCH  34  35
ATOM     35  C   UNL A   1      40.883  28.867  30.379  1.00  0.00     0.031 A 
ATOM     36  C   UNL A   1      41.718  28.739  31.626  1.00  0.00     0.074 A 
ATOM     37  C   UNL A   1      39.913  29.800  30.338  1.00  0.00     0.049 A 
ATOM     38  N   UNL A   1      41.689  29.465  32.715  1.00  0.00    -0.248 NA
ATOM     39  C   UNL A   1      42.720  27.662  31.645  1.00  0.00     0.031 C 
ATOM     40  C   UNL A   1      39.044  30.065  29.194  1.00  0.00     0.029 A 
ATOM     41  N   UNL A   1      39.500  30.708  31.284  1.00  0.00    -0.354 N 
ATOM     42  C   UNL A   1      42.688  28.957  33.535  1.00  0.00     0.074 A 
ATOM     43  C   UNL A   1      43.262  27.821  32.844  1.00  0.00     0.031 C 
ATOM     44  C   UNL A   1      38.188  31.054  29.508  1.00  0.00     0.029 A 
ATOM     45  C   UNL A   1      38.454  31.502  30.874  1.00  0.00     0.049 A 
ATOM     46  H   UNL A   1      39.914  30.782  32.174  1.00  0.00     0.167 HD
ATOM     47  C   UNL A   1      43.116  29.407  34.739  1.00  0.00     0.031 A 
ATOM     48  C   UNL A   1      37.793  32.488  31.513  1.00  0.00     0.031 A 
ATOM     49  C   UNL A   1      42.540  30.515  35.454  1.00  0.00     0.049 A 
ATOM     50  C   UNL A   1      38.232  32.917  32.890  1.00  0.00     0.074 A 
ATOM     51  C   UNL A   1      42.922  31.040  36.678  1.00  0.00     0.029 A 
ATOM     52  N   UNL A   1      41.457  31.263  35.023  1.00  0.00    -0.354 N 
ATOM     53  N   UNL A   1      39.225  32.467  33.618  1.00  0.00    -0.248 NA
ATOM     54  C   UNL A   1      37.474  34.011  33.518  1.00  0.00     0.031 C 
ATOM     55  C   UNL A   1      42.039  32.073  37.009  1.00  0.00     0.029 A 
ATOM     56  C   UNL A   1      41.142  32.229  35.966  1.00  0.00     0.049 A 
ATOM     57  H   UNL A   1      40.981  31.128  34.172  1.00  0.00     0.167 HD
ATOM     58  C   UNL A   1      39.235  33.249  34.770  1.00  0.00     0.074 A 
ATOM     59  C   UNL A   1      38.156  34.205  34.639  1.00  0.00     0.031 C 
ATOM     60  C   UNL A   1      40.069  33.182  35.837  1.00  0.00     0.031 A 
BRANCH  47  61
ATOM     61  C   UNL A   1      44.283  28.690  35.362  1.00  0.00    -0.014 A 
ATOM     62  C   UNL A   1      44.074  27.590  36.213  1.00  0.00     0.010 A 
ATOM     63  C   UNL A   1      45.598  29.090  35.065  1.00  0.00     0.010 A 
ATOM     64  C   UNL A   1      45.159  26.925  36.788  1.00  0.00     0.020 A 
ATOM     65  C   UNL A   1      46.686  28.411  35.618  1.00  0.00     0.020 A 
ATOM     66  C   UNL A   1      46.460  27.343  36.490  1.00  0.00     0.054 A 
BRANCH  66  67
ATOM     67  S   UNL A   1      47.850  26.450  37.236  1.00  0.00     0.124 S 
ATOM     68  O   UNL A   1      47.528  26.528  38.659  1.00  0.00    -0.237 OA
ATOM     69  O   UNL A   1      47.737  25.122  36.639  1.00  0.00    -0.237 OA
ATOM     70  O   UNL A   1      49.020  27.219  36.820  1.00  0.00    -0.744 OA
ENDBRANCH  66  67
ENDBRANCH  47  61
BRANCH  48  71
ATOM     71  C   UNL A   1      36.636  33.156  30.859  1.00  0.00    -0.014 A 
ATOM     72  C   UNL A   1      36.757  33.717  29.575  1.00  0.00     0.010 A 
ATOM     73  C   UNL A   1      35.414  33.274  31.545  1.00  0.00     0.010 A 
ATOM     74  C   UNL A   1      35.688  34.412  29.003  1.00  0.00     0.020 A 
ATOM     75  C   UNL A   1      34.335  33.946  30.967  1.00  0.00     0.020 A 
ATOM     76  C   UNL A   1      34.484  34.528  29.706  1.00  0.00     0.054 A 
BRANCH  76  77
ATOM     77  S   UNL A   1      33.101  35.420  28.942  1.00  0.00     0.124 S 
ATOM     78  O   UNL A   1      32.541  34.406  28.055  1.00  0.00    -0.237 OA
ATOM     79  O   UNL A   1      32.280  35.779  30.096  1.00  0.00    -0.237 OA
ATOM     80  O   UNL A   1      33.752  36.546  28.276  1.00  0.00    -0.744 OA
ENDBRANCH  76  77
ENDBRANCH  48  71
BRANCH  60  81
ATOM     81  C   UNL A   1      39.881  34.195  36.938  1.00  0.00    -0.014 A 
ATOM     82  C   UNL A   1      39.120  33.899  38.083  1.00  0.00     0.010 A 
ATOM     83  C   UNL A   1      40.511  35.450  36.844  1.00  0.00     0.010 A 
ATOM     84  C   UNL A   1      38.962  34.852  39.095  1.00  0.00     0.020 A 
ATOM     85  C   UNL A   1      40.378  36.395  37.865  1.00  0.00     0.020 A 
ATOM     86  C   UNL A   1      39.590  36.096  38.978  1.00  0.00     0.054 A 
BRANCH  86  87
ATOM     87  S   UNL A   1      39.398  37.304  40.318  1.00  0.00     0.124 S 
ATOM     88  O   UNL A   1      38.617  38.355  39.671  1.00  0.00    -0.237 OA
ATOM     89  O   UNL A   1      38.694  36.539  41.344  1.00  0.00    -0.237 OA
ATOM     90  O   UNL A   1      40.772  37.669  40.657  1.00  0.00    -0.744 OA
ENDBRANCH  86  87
ENDBRANCH  60  81
ENDBRANCH  34  35
ENDBRANCH  27  29
ENDBRANCH  26  27
ENDBRANCH  25  26
ENDBRANCH   1  25
TORSDOF 19
ENDMDL
