MODEL 1
REMARK VINA RESULT:     -12.7      0.000      0.000
REMARK SMILES O=C1C[C@H](c2cn[nH]c2C(=O)OCCOC(=O)c2ccc(-c3c4nc(c(-c5ccc(S(=O)(=O)[O-])cc5)c5ccc([nH]5)c(-c5ccc(S(=O)(=O)[O-])cc5)c5nc(c(-c6ccc(S(=O)(=O)[O-])cc6)c6ccc3[nH]6)C=C5)C=C4)cc2)c2c(-c3cccs3)n[nH]c2N1
REMARK SMILES IDX 14 1 13 2 12 3 10 4 11 5 9 6 5 7 6 8 7 9 8 10 4 12 1 13 2 14
REMARK SMILES IDX 3 15 88 16 87 17 78 19 86 20 79 21 85 22 80 24 81 25 84 26
REMARK SMILES IDX 82 27 83 28 15 29 16 30 17 31 18 32 19 33 77 34 20 35 76 36
REMARK SMILES IDX 21 37 22 38 23 39 70 40 24 41 75 42 69 43 71 44 25 45 74 46
REMARK SMILES IDX 68 47 67 48 26 50 56 51 37 52 55 53 38 54 41 55 54 56 72 57
REMARK SMILES IDX 39 58 40 59 53 61 73 62 42 63 27 64 28 65 36 66 29 67 35 68
REMARK SMILES IDX 30 69 31 70 32 71 33 72 34 73 57 74 58 75 66 76 59 77 65 78
REMARK SMILES IDX 60 79 61 80 62 81 63 82 64 83 43 84 44 85 52 86 45 87 51 88
REMARK SMILES IDX 46 89 47 90 48 91 49 92 50 93
REMARK H PARENT 8 11 88 18 86 23 71 49 41 60
REMARK Flexibility Score: inf
ROOT
ATOM      1  C   UNL A   1      33.057  30.842  27.211  1.00  0.00     0.275 C 
ENDROOT
BRANCH   1   2
ATOM      2  C   UNL A   1      32.585  30.068  26.005  1.00  0.00     0.275 C 
BRANCH   2   3
ATOM      3  O   UNL A   1      31.857  28.922  26.474  1.00  0.00    -0.457 OA
BRANCH   3   4
ATOM      4  C   UNL A   1      32.432  27.709  26.396  1.00  0.00     0.356 C 
ATOM      5  O   UNL A   1      33.613  27.482  26.651  1.00  0.00    -0.244 OA
BRANCH   4   6
ATOM      6  C   UNL A   1      31.492  26.690  26.004  1.00  0.00     0.147 A 
ATOM      7  C   UNL A   1      30.790  26.305  24.856  1.00  0.00     0.013 A 
ATOM      8  C   UNL A   1      30.092  25.134  25.290  1.00  0.00     0.140 A 
ATOM      9  N   UNL A   1      30.292  24.832  26.568  1.00  0.00    -0.183 NA
ATOM     10  N   UNL A   1      31.088  25.819  26.986  1.00  0.00    -0.271 N 
ATOM     11  H   UNL A   1      31.364  25.915  27.927  1.00  0.00     0.190 HD
BRANCH   7  12
ATOM     12  C   UNL A   1      30.670  26.788  23.418  1.00  0.00     0.069 C 
ATOM     13  O   UNL A   1      28.955  30.108  23.387  1.00  0.00    -0.275 OA
ATOM     14  C   UNL A   1      29.815  29.253  23.173  1.00  0.00     0.226 C 
ATOM     15  C   UNL A   1      29.481  27.763  23.222  1.00  0.00     0.114 C 
ATOM     16  N   UNL A   1      31.053  29.630  22.711  1.00  0.00    -0.311 N 
ATOM     17  C   UNL A   1      31.998  28.675  22.472  1.00  0.00     0.132 A 
ATOM     18  H   UNL A   1      31.256  30.581  22.556  1.00  0.00     0.171 HD
ATOM     19  C   UNL A   1      31.879  27.340  22.758  1.00  0.00     0.031 A 
ATOM     20  N   UNL A   1      33.255  28.868  21.993  1.00  0.00    -0.262 N 
ATOM     21  C   UNL A   1      33.139  26.788  22.409  1.00  0.00     0.108 A 
ATOM     22  N   UNL A   1      33.988  27.735  21.967  1.00  0.00    -0.173 NA
ATOM     23  H   UNL A   1      33.594  29.744  21.696  1.00  0.00     0.192 HD
BRANCH  21  24
ATOM     24  C   UNL A   1      33.568  25.389  22.726  1.00  0.00     0.055 A 
ATOM     25  C   UNL A   1      34.370  25.059  23.800  1.00  0.00     0.022 A 
ATOM     26  S   UNL A   1      33.004  24.009  21.902  1.00  0.00    -0.142 S 
ATOM     27  C   UNL A   1      34.436  23.650  24.004  1.00  0.00     0.012 A 
ATOM     28  C   UNL A   1      33.792  22.960  23.002  1.00  0.00     0.065 A 
ENDBRANCH  21  24
ENDBRANCH   7  12
ENDBRANCH   4   6
ENDBRANCH   3   4
ENDBRANCH   2   3
ENDBRANCH   1   2
BRANCH   1  29
ATOM     29  O   UNL A   1      34.447  30.608  27.345  1.00  0.00    -0.458 OA
BRANCH  29  30
ATOM     30  C   UNL A   1      35.220  31.620  27.788  1.00  0.00     0.338 C 
ATOM     31  O   UNL A   1      35.090  32.811  27.586  1.00  0.00    -0.246 OA
BRANCH  30  32
ATOM     32  C   UNL A   1      36.362  30.989  28.447  1.00  0.00     0.060 A 
ATOM     33  C   UNL A   1      37.281  31.795  29.120  1.00  0.00     0.016 A 
ATOM     34  C   UNL A   1      36.611  29.632  28.172  1.00  0.00     0.016 A 
ATOM     35  C   UNL A   1      38.536  31.276  29.352  1.00  0.00     0.010 A 
ATOM     36  C   UNL A   1      37.859  29.131  28.377  1.00  0.00     0.010 A 
ATOM     37  C   UNL A   1      38.822  29.986  28.889  1.00  0.00    -0.014 A 
BRANCH  37  38
ATOM     38  C   UNL A   1      40.144  29.446  29.052  1.00  0.00     0.031 A 
ATOM     39  C   UNL A   1      40.447  29.154  30.464  1.00  0.00     0.074 A 
ATOM     40  C   UNL A   1      40.912  29.093  28.008  1.00  0.00     0.049 A 
ATOM     41  N   UNL A   1      41.169  29.871  31.255  1.00  0.00    -0.248 NA
ATOM     42  C   UNL A   1      39.675  28.096  31.139  1.00  0.00     0.031 C 
ATOM     43  C   UNL A   1      40.569  29.038  26.584  1.00  0.00     0.029 A 
ATOM     44  N   UNL A   1      42.167  28.591  28.036  1.00  0.00    -0.354 N 
ATOM     45  C   UNL A   1      41.148  29.202  32.468  1.00  0.00     0.074 A 
ATOM     46  C   UNL A   1      40.037  28.288  32.408  1.00  0.00     0.031 C 
ATOM     47  C   UNL A   1      41.509  28.316  25.929  1.00  0.00     0.029 A 
ATOM     48  C   UNL A   1      42.582  27.992  26.856  1.00  0.00     0.049 A 
ATOM     49  H   UNL A   1      42.742  28.646  28.833  1.00  0.00     0.167 HD
ATOM     50  C   UNL A   1      42.224  29.232  33.299  1.00  0.00     0.031 A 
ATOM     51  C   UNL A   1      43.700  27.236  26.703  1.00  0.00     0.031 A 
ATOM     52  C   UNL A   1      43.173  30.242  32.898  1.00  0.00     0.049 A 
ATOM     53  C   UNL A   1      44.606  27.579  27.834  1.00  0.00     0.074 A 
ATOM     54  C   UNL A   1      43.117  31.613  32.745  1.00  0.00     0.029 A 
ATOM     55  N   UNL A   1      44.251  29.814  32.153  1.00  0.00    -0.354 N 
ATOM     56  N   UNL A   1      45.146  28.759  27.983  1.00  0.00    -0.248 NA
ATOM     57  C   UNL A   1      44.515  26.783  29.051  1.00  0.00     0.031 C 
ATOM     58  C   UNL A   1      43.869  31.883  31.564  1.00  0.00     0.029 A 
ATOM     59  C   UNL A   1      44.413  30.682  31.102  1.00  0.00     0.049 A 
ATOM     60  H   UNL A   1      44.806  29.024  32.342  1.00  0.00     0.167 HD
ATOM     61  C   UNL A   1      45.054  29.026  29.344  1.00  0.00     0.074 A 
ATOM     62  C   UNL A   1      44.744  27.737  29.961  1.00  0.00     0.031 C 
ATOM     63  C   UNL A   1      44.952  30.308  29.808  1.00  0.00     0.031 A 
BRANCH  50  64
ATOM     64  C   UNL A   1      42.603  28.081  34.187  1.00  0.00    -0.014 A 
ATOM     65  C   UNL A   1      42.776  28.317  35.562  1.00  0.00     0.010 A 
ATOM     66  C   UNL A   1      43.044  26.838  33.684  1.00  0.00     0.010 A 
ATOM     67  C   UNL A   1      43.399  27.370  36.384  1.00  0.00     0.020 A 
ATOM     68  C   UNL A   1      43.623  25.869  34.501  1.00  0.00     0.020 A 
ATOM     69  C   UNL A   1      43.823  26.154  35.843  1.00  0.00     0.054 A 
BRANCH  69  70
ATOM     70  S   UNL A   1      44.689  24.970  36.898  1.00  0.00     0.124 S 
ATOM     71  O   UNL A   1      44.065  25.210  38.195  1.00  0.00    -0.237 OA
ATOM     72  O   UNL A   1      44.365  23.697  36.260  1.00  0.00    -0.237 OA
ATOM     73  O   UNL A   1      46.089  25.376  36.790  1.00  0.00    -0.744 OA
ENDBRANCH  69  70
ENDBRANCH  50  64
BRANCH  51  74
ATOM     74  C   UNL A   1      43.872  26.009  25.884  1.00  0.00    -0.014 A 
ATOM     75  C   UNL A   1      45.142  25.630  25.406  1.00  0.00     0.010 A 
ATOM     76  C   UNL A   1      42.839  25.051  25.822  1.00  0.00     0.010 A 
ATOM     77  C   UNL A   1      45.386  24.323  24.950  1.00  0.00     0.020 A 
ATOM     78  C   UNL A   1      43.073  23.747  25.364  1.00  0.00     0.020 A 
ATOM     79  C   UNL A   1      44.353  23.380  24.954  1.00  0.00     0.054 A 
BRANCH  79  80
ATOM     80  S   UNL A   1      44.719  21.646  24.546  1.00  0.00     0.124 S 
ATOM     81  O   UNL A   1      44.616  21.640  23.091  1.00  0.00    -0.237 OA
ATOM     82  O   UNL A   1      46.065  21.470  25.086  1.00  0.00    -0.237 OA
ATOM     83  O   UNL A   1      43.674  20.900  25.246  1.00  0.00    -0.744 OA
ENDBRANCH  79  80
ENDBRANCH  51  74
BRANCH  63  84
ATOM     84  C   UNL A   1      45.228  31.445  28.845  1.00  0.00    -0.014 A 
ATOM     85  C   UNL A   1      46.490  32.048  28.665  1.00  0.00     0.010 A 
ATOM     86  C   UNL A   1      44.184  31.816  27.980  1.00  0.00     0.010 A 
ATOM     87  C   UNL A   1      46.686  33.019  27.668  1.00  0.00     0.020 A 
ATOM     88  C   UNL A   1      44.378  32.765  26.975  1.00  0.00     0.020 A 
ATOM     89  C   UNL A   1      45.624  33.373  26.830  1.00  0.00     0.054 A 
BRANCH  89  90
ATOM     90  S   UNL A   1      45.879  34.609  25.525  1.00  0.00     0.124 S 
ATOM     91  O   UNL A   1      44.972  34.154  24.475  1.00  0.00    -0.237 OA
ATOM     92  O   UNL A   1      45.504  35.859  26.182  1.00  0.00    -0.237 OA
ATOM     93  O   UNL A   1      47.301  34.490  25.205  1.00  0.00    -0.744 OA
ENDBRANCH  89  90
ENDBRANCH  63  84
ENDBRANCH  37  38
ENDBRANCH  30  32
ENDBRANCH  29  30
ENDBRANCH   1  29
TORSDOF 16
ENDMDL
MODEL 2
REMARK VINA RESULT:     -12.4      3.283      9.562
REMARK SMILES O=C1C[C@H](c2cn[nH]c2C(=O)OCCOC(=O)c2ccc(-c3c4nc(c(-c5ccc(S(=O)(=O)[O-])cc5)c5ccc([nH]5)c(-c5ccc(S(=O)(=O)[O-])cc5)c5nc(c(-c6ccc(S(=O)(=O)[O-])cc6)c6ccc3[nH]6)C=C5)C=C4)cc2)c2c(-c3cccs3)n[nH]c2N1
REMARK SMILES IDX 14 1 13 2 12 3 10 4 11 5 9 6 5 7 6 8 7 9 8 10 4 12 1 13 2 14
REMARK SMILES IDX 3 15 88 16 87 17 78 19 86 20 79 21 85 22 80 24 81 25 84 26
REMARK SMILES IDX 82 27 83 28 15 29 16 30 17 31 18 32 19 33 77 34 20 35 76 36
REMARK SMILES IDX 21 37 22 38 23 39 70 40 24 41 75 42 69 43 71 44 25 45 74 46
REMARK SMILES IDX 68 47 67 48 26 50 56 51 37 52 55 53 38 54 41 55 54 56 72 57
REMARK SMILES IDX 39 58 40 59 53 61 73 62 42 63 27 64 28 65 36 66 29 67 35 68
REMARK SMILES IDX 30 69 31 70 32 71 33 72 34 73 57 74 58 75 66 76 59 77 65 78
REMARK SMILES IDX 60 79 61 80 62 81 63 82 64 83 43 84 44 85 52 86 45 87 51 88
REMARK SMILES IDX 46 89 47 90 48 91 49 92 50 93
REMARK H PARENT 8 11 88 18 86 23 71 49 41 60
REMARK Flexibility Score: inf
ROOT
ATOM      1  C   UNL A   1      38.173  21.466  25.709  1.00  0.00     0.275 C 
ENDROOT
BRANCH   1   2
ATOM      2  C   UNL A   1      37.385  21.747  24.452  1.00  0.00     0.275 C 
BRANCH   2   3
ATOM      3  O   UNL A   1      36.034  22.048  24.836  1.00  0.00    -0.457 OA
BRANCH   3   4
ATOM      4  C   UNL A   1      35.509  23.237  24.493  1.00  0.00     0.356 C 
ATOM      5  O   UNL A   1      35.901  24.320  24.922  1.00  0.00    -0.244 OA
BRANCH   4   6
ATOM      6  C   UNL A   1      34.443  23.098  23.533  1.00  0.00     0.147 A 
ATOM      7  C   UNL A   1      33.186  22.487  23.452  1.00  0.00     0.013 A 
ATOM      8  C   UNL A   1      32.730  22.877  22.153  1.00  0.00     0.140 A 
ATOM      9  N   UNL A   1      33.602  23.613  21.474  1.00  0.00    -0.183 NA
ATOM     10  N   UNL A   1      34.645  23.678  22.304  1.00  0.00    -0.271 N 
ATOM     11  H   UNL A   1      35.496  24.108  22.055  1.00  0.00     0.190 HD
BRANCH   7  12
ATOM     12  C   UNL A   1      32.306  21.641  24.360  1.00  0.00     0.069 C 
ATOM     13  O   UNL A   1      33.791  18.225  24.663  1.00  0.00    -0.275 OA
ATOM     14  C   UNL A   1      33.330  19.316  25.001  1.00  0.00     0.226 C 
ATOM     15  C   UNL A   1      32.437  20.125  24.063  1.00  0.00     0.114 C 
ATOM     16  N   UNL A   1      33.469  19.742  26.299  1.00  0.00    -0.311 N 
ATOM     17  C   UNL A   1      32.951  20.950  26.668  1.00  0.00     0.132 A 
ATOM     18  H   UNL A   1      33.939  19.182  26.958  1.00  0.00     0.171 HD
ATOM     19  C   UNL A   1      32.383  21.869  25.825  1.00  0.00     0.031 A 
ATOM     20  N   UNL A   1      32.975  21.509  27.906  1.00  0.00    -0.262 N 
ATOM     21  C   UNL A   1      32.083  22.978  26.657  1.00  0.00     0.108 A 
ATOM     22  N   UNL A   1      32.474  22.762  27.928  1.00  0.00    -0.173 NA
ATOM     23  H   UNL A   1      33.323  21.047  28.703  1.00  0.00     0.192 HD
BRANCH  21  24
ATOM     24  C   UNL A   1      31.628  24.314  26.158  1.00  0.00     0.055 A 
ATOM     25  C   UNL A   1      30.303  24.695  26.091  1.00  0.00     0.022 A 
ATOM     26  S   UNL A   1      32.680  25.591  25.756  1.00  0.00    -0.142 S 
ATOM     27  C   UNL A   1      30.160  26.083  25.801  1.00  0.00     0.012 A 
ATOM     28  C   UNL A   1      31.374  26.675  25.531  1.00  0.00     0.065 A 
ENDBRANCH  21  24
ENDBRANCH   7  12
ENDBRANCH   4   6
ENDBRANCH   3   4
ENDBRANCH   2   3
ENDBRANCH   1   2
BRANCH   1  29
ATOM     29  O   UNL A   1      39.088  22.532  25.881  1.00  0.00    -0.458 OA
BRANCH  29  30
ATOM     30  C   UNL A   1      39.970  22.452  26.899  1.00  0.00     0.338 C 
ATOM     31  O   UNL A   1      40.273  21.477  27.557  1.00  0.00    -0.246 OA
BRANCH  30  32
ATOM     32  C   UNL A   1      40.390  23.826  27.168  1.00  0.00     0.060 A 
ATOM     33  C   UNL A   1      41.599  24.042  27.829  1.00  0.00     0.016 A 
ATOM     34  C   UNL A   1      39.450  24.852  26.964  1.00  0.00     0.016 A 
ATOM     35  C   UNL A   1      41.779  25.258  28.452  1.00  0.00     0.010 A 
ATOM     36  C   UNL A   1      39.616  26.042  27.602  1.00  0.00     0.010 A 
ATOM     37  C   UNL A   1      40.738  26.195  28.401  1.00  0.00    -0.014 A 
BRANCH  37  38
ATOM     38  C   UNL A   1      40.868  27.444  29.102  1.00  0.00     0.031 A 
ATOM     39  C   UNL A   1      41.918  28.295  28.517  1.00  0.00     0.074 A 
ATOM     40  C   UNL A   1      39.999  27.829  30.051  1.00  0.00     0.049 A 
ATOM     41  N   UNL A   1      43.107  28.469  28.981  1.00  0.00    -0.248 NA
ATOM     42  C   UNL A   1      41.718  28.810  27.152  1.00  0.00     0.031 C 
ATOM     43  C   UNL A   1      38.742  27.200  30.466  1.00  0.00     0.029 A 
ATOM     44  N   UNL A   1      40.024  28.965  30.784  1.00  0.00    -0.354 N 
ATOM     45  C   UNL A   1      43.720  29.334  28.089  1.00  0.00     0.074 A 
ATOM     46  C   UNL A   1      42.930  29.302  26.886  1.00  0.00     0.031 C 
ATOM     47  C   UNL A   1      38.025  28.084  31.200  1.00  0.00     0.029 A 
ATOM     48  C   UNL A   1      38.835  29.271  31.427  1.00  0.00     0.049 A 
ATOM     49  H   UNL A   1      40.826  29.533  30.854  1.00  0.00     0.167 HD
ATOM     50  C   UNL A   1      44.646  30.234  28.515  1.00  0.00     0.031 A 
ATOM     51  C   UNL A   1      38.545  30.450  32.037  1.00  0.00     0.031 A 
ATOM     52  C   UNL A   1      45.080  29.949  29.860  1.00  0.00     0.049 A 
ATOM     53  C   UNL A   1      39.847  31.117  32.318  1.00  0.00     0.074 A 
ATOM     54  C   UNL A   1      45.691  28.872  30.470  1.00  0.00     0.029 A 
ATOM     55  N   UNL A   1      44.481  30.675  30.867  1.00  0.00    -0.354 N 
ATOM     56  N   UNL A   1      40.729  30.638  33.152  1.00  0.00    -0.248 NA
ATOM     57  C   UNL A   1      40.378  32.031  31.316  1.00  0.00     0.031 C 
ATOM     58  C   UNL A   1      45.048  28.752  31.737  1.00  0.00     0.029 A 
ATOM     59  C   UNL A   1      44.139  29.804  31.872  1.00  0.00     0.049 A 
ATOM     60  H   UNL A   1      44.326  31.646  30.866  1.00  0.00     0.167 HD
ATOM     61  C   UNL A   1      41.955  30.827  32.527  1.00  0.00     0.074 A 
ATOM     62  C   UNL A   1      41.684  31.773  31.446  1.00  0.00     0.031 C 
ATOM     63  C   UNL A   1      43.006  29.985  32.762  1.00  0.00     0.031 A 
BRANCH  50  64
ATOM     64  C   UNL A   1      44.821  31.586  27.883  1.00  0.00    -0.014 A 
ATOM     65  C   UNL A   1      46.106  31.977  27.468  1.00  0.00     0.010 A 
ATOM     66  C   UNL A   1      43.822  32.582  27.916  1.00  0.00     0.010 A 
ATOM     67  C   UNL A   1      46.385  33.310  27.144  1.00  0.00     0.020 A 
ATOM     68  C   UNL A   1      44.077  33.902  27.552  1.00  0.00     0.020 A 
ATOM     69  C   UNL A   1      45.367  34.264  27.194  1.00  0.00     0.054 A 
BRANCH  69  70
ATOM     70  S   UNL A   1      45.755  35.993  26.843  1.00  0.00     0.124 S 
ATOM     71  O   UNL A   1      44.426  36.594  26.786  1.00  0.00    -0.237 OA
ATOM     72  O   UNL A   1      46.573  36.363  27.994  1.00  0.00    -0.237 OA
ATOM     73  O   UNL A   1      46.472  35.931  25.570  1.00  0.00    -0.744 OA
ENDBRANCH  69  70
ENDBRANCH  50  64
BRANCH  51  74
ATOM     74  C   UNL A   1      37.252  31.180  32.053  1.00  0.00    -0.014 A 
ATOM     75  C   UNL A   1      36.730  31.702  33.253  1.00  0.00     0.010 A 
ATOM     76  C   UNL A   1      36.675  31.623  30.845  1.00  0.00     0.010 A 
ATOM     77  C   UNL A   1      35.721  32.681  33.241  1.00  0.00     0.020 A 
ATOM     78  C   UNL A   1      35.666  32.595  30.825  1.00  0.00     0.020 A 
ATOM     79  C   UNL A   1      35.211  33.139  32.023  1.00  0.00     0.054 A 
BRANCH  79  80
ATOM     80  S   UNL A   1      34.047  34.537  32.008  1.00  0.00     0.124 S 
ATOM     81  O   UNL A   1      33.004  34.085  32.922  1.00  0.00    -0.237 OA
ATOM     82  O   UNL A   1      34.872  35.643  32.486  1.00  0.00    -0.237 OA
ATOM     83  O   UNL A   1      33.644  34.633  30.605  1.00  0.00    -0.744 OA
ENDBRANCH  79  80
ENDBRANCH  51  74
BRANCH  63  84
ATOM     84  C   UNL A   1      42.907  29.018  33.923  1.00  0.00    -0.014 A 
ATOM     85  C   UNL A   1      43.279  29.323  35.249  1.00  0.00     0.010 A 
ATOM     86  C   UNL A   1      42.269  27.790  33.678  1.00  0.00     0.010 A 
ATOM     87  C   UNL A   1      43.046  28.407  36.290  1.00  0.00     0.020 A 
ATOM     88  C   UNL A   1      42.017  26.884  34.710  1.00  0.00     0.020 A 
ATOM     89  C   UNL A   1      42.418  27.190  36.010  1.00  0.00     0.054 A 
BRANCH  89  90
ATOM     90  S   UNL A   1      42.095  26.014  37.355  1.00  0.00     0.124 S 
ATOM     91  O   UNL A   1      43.028  26.450  38.390  1.00  0.00    -0.237 OA
ATOM     92  O   UNL A   1      40.680  26.235  37.648  1.00  0.00    -0.237 OA
ATOM     93  O   UNL A   1      42.399  24.712  36.760  1.00  0.00    -0.744 OA
ENDBRANCH  89  90
ENDBRANCH  63  84
ENDBRANCH  37  38
ENDBRANCH  30  32
ENDBRANCH  29  30
ENDBRANCH   1  29
TORSDOF 16
ENDMDL
MODEL 3
REMARK VINA RESULT:     -12.3      1.210      2.459
REMARK SMILES O=C1C[C@H](c2cn[nH]c2C(=O)OCCOC(=O)c2ccc(-c3c4nc(c(-c5ccc(S(=O)(=O)[O-])cc5)c5ccc([nH]5)c(-c5ccc(S(=O)(=O)[O-])cc5)c5nc(c(-c6ccc(S(=O)(=O)[O-])cc6)c6ccc3[nH]6)C=C5)C=C4)cc2)c2c(-c3cccs3)n[nH]c2N1
REMARK SMILES IDX 14 1 13 2 12 3 10 4 11 5 9 6 5 7 6 8 7 9 8 10 4 12 1 13 2 14
REMARK SMILES IDX 3 15 88 16 87 17 78 19 86 20 79 21 85 22 80 24 81 25 84 26
REMARK SMILES IDX 82 27 83 28 15 29 16 30 17 31 18 32 19 33 77 34 20 35 76 36
REMARK SMILES IDX 21 37 22 38 23 39 70 40 24 41 75 42 69 43 71 44 25 45 74 46
REMARK SMILES IDX 68 47 67 48 26 50 56 51 37 52 55 53 38 54 41 55 54 56 72 57
REMARK SMILES IDX 39 58 40 59 53 61 73 62 42 63 27 64 28 65 36 66 29 67 35 68
REMARK SMILES IDX 30 69 31 70 32 71 33 72 34 73 57 74 58 75 66 76 59 77 65 78
REMARK SMILES IDX 60 79 61 80 62 81 63 82 64 83 43 84 44 85 52 86 45 87 51 88
REMARK SMILES IDX 46 89 47 90 48 91 49 92 50 93
REMARK H PARENT 8 11 88 18 86 23 71 49 41 60
REMARK Flexibility Score: inf
ROOT
ATOM      1  C   UNL A   1      33.257  30.525  26.620  1.00  0.00     0.275 C 
ENDROOT
BRANCH   1   2
ATOM      2  C   UNL A   1      33.249  29.191  25.914  1.00  0.00     0.275 C 
BRANCH   2   3
ATOM      3  O   UNL A   1      31.902  28.693  25.928  1.00  0.00    -0.457 OA
BRANCH   3   4
ATOM      4  C   UNL A   1      31.548  27.799  26.869  1.00  0.00     0.356 C 
ATOM      5  O   UNL A   1      31.312  28.082  28.041  1.00  0.00    -0.244 OA
BRANCH   4   6
ATOM      6  C   UNL A   1      31.448  26.465  26.335  1.00  0.00     0.147 A 
ATOM      7  C   UNL A   1      32.039  25.700  25.323  1.00  0.00     0.013 A 
ATOM      8  C   UNL A   1      31.411  24.425  25.484  1.00  0.00     0.140 A 
ATOM      9  N   UNL A   1      30.504  24.390  26.453  1.00  0.00    -0.183 NA
ATOM     10  N   UNL A   1      30.504  25.646  26.905  1.00  0.00    -0.271 N 
ATOM     11  H   UNL A   1      29.876  25.962  27.595  1.00  0.00     0.190 HD
BRANCH   7  12
ATOM     12  C   UNL A   1      33.104  25.909  24.256  1.00  0.00     0.069 C 
ATOM     13  O   UNL A   1      35.197  22.824  23.999  1.00  0.00    -0.275 OA
ATOM     14  C   UNL A   1      34.470  23.756  23.654  1.00  0.00     0.226 C 
ATOM     15  C   UNL A   1      34.357  25.027  24.493  1.00  0.00     0.114 C 
ATOM     16  N   UNL A   1      33.884  23.739  22.412  1.00  0.00    -0.311 N 
ATOM     17  C   UNL A   1      33.084  24.779  22.034  1.00  0.00     0.132 A 
ATOM     18  H   UNL A   1      34.038  22.983  21.800  1.00  0.00     0.171 HD
ATOM     19  C   UNL A   1      32.698  25.823  22.831  1.00  0.00     0.031 A 
ATOM     20  N   UNL A   1      32.451  24.934  20.841  1.00  0.00    -0.262 N 
ATOM     21  C   UNL A   1      31.815  26.582  22.021  1.00  0.00     0.108 A 
ATOM     22  N   UNL A   1      31.645  26.017  20.810  1.00  0.00    -0.173 NA
ATOM     23  H   UNL A   1      32.569  24.321  20.080  1.00  0.00     0.192 HD
BRANCH  21  24
ATOM     24  C   UNL A   1      30.976  27.720  22.516  1.00  0.00     0.055 A 
ATOM     25  C   UNL A   1      31.290  29.048  22.310  1.00  0.00     0.022 A 
ATOM     26  S   UNL A   1      29.454  27.531  23.257  1.00  0.00    -0.142 S 
ATOM     27  C   UNL A   1      30.219  29.913  22.678  1.00  0.00     0.012 A 
ATOM     28  C   UNL A   1      29.185  29.221  23.269  1.00  0.00     0.065 A 
ENDBRANCH  21  24
ENDBRANCH   7  12
ENDBRANCH   4   6
ENDBRANCH   3   4
ENDBRANCH   2   3
ENDBRANCH   1   2
BRANCH   1  29
ATOM     29  O   UNL A   1      34.177  30.430  27.691  1.00  0.00    -0.458 OA
BRANCH  29  30
ATOM     30  C   UNL A   1      35.034  31.454  27.884  1.00  0.00     0.338 C 
ATOM     31  O   UNL A   1      34.942  32.598  27.485  1.00  0.00    -0.246 OA
BRANCH  30  32
ATOM     32  C   UNL A   1      36.199  30.877  28.552  1.00  0.00     0.060 A 
ATOM     33  C   UNL A   1      37.165  31.734  29.078  1.00  0.00     0.016 A 
ATOM     34  C   UNL A   1      36.410  29.492  28.425  1.00  0.00     0.016 A 
ATOM     35  C   UNL A   1      38.423  31.217  29.305  1.00  0.00     0.010 A 
ATOM     36  C   UNL A   1      37.658  28.989  28.621  1.00  0.00     0.010 A 
ATOM     37  C   UNL A   1      38.662  29.875  28.980  1.00  0.00    -0.014 A 
BRANCH  37  38
ATOM     38  C   UNL A   1      39.982  29.328  29.136  1.00  0.00     0.031 A 
ATOM     39  C   UNL A   1      40.345  29.167  30.555  1.00  0.00     0.074 A 
ATOM     40  C   UNL A   1      40.695  28.861  28.098  1.00  0.00     0.049 A 
ATOM     41  N   UNL A   1      41.113  29.943  31.240  1.00  0.00    -0.248 NA
ATOM     42  C   UNL A   1      39.588  28.195  31.362  1.00  0.00     0.031 C 
ATOM     43  C   UNL A   1      40.286  28.676  26.703  1.00  0.00     0.029 A 
ATOM     44  N   UNL A   1      41.942  28.340  28.119  1.00  0.00    -0.354 N 
ATOM     45  C   UNL A   1      41.138  29.395  32.512  1.00  0.00     0.074 A 
ATOM     46  C   UNL A   1      40.012  28.501  32.590  1.00  0.00     0.031 C 
ATOM     47  C   UNL A   1      41.184  27.876  26.080  1.00  0.00     0.029 A 
ATOM     48  C   UNL A   1      42.294  27.622  26.986  1.00  0.00     0.049 A 
ATOM     49  H   UNL A   1      42.554  28.460  28.881  1.00  0.00     0.167 HD
ATOM     50  C   UNL A   1      42.251  29.484  33.287  1.00  0.00     0.031 A 
ATOM     51  C   UNL A   1      43.392  26.833  26.857  1.00  0.00     0.031 A 
ATOM     52  C   UNL A   1      43.195  30.431  32.748  1.00  0.00     0.049 A 
ATOM     53  C   UNL A   1      44.354  27.265  27.909  1.00  0.00     0.074 A 
ATOM     54  C   UNL A   1      43.154  31.782  32.466  1.00  0.00     0.029 A 
ATOM     55  N   UNL A   1      44.231  29.912  32.002  1.00  0.00    -0.354 N 
ATOM     56  N   UNL A   1      44.918  28.443  27.919  1.00  0.00    -0.248 NA
ATOM     57  C   UNL A   1      44.306  26.592  29.200  1.00  0.00     0.031 C 
ATOM     58  C   UNL A   1      43.855  31.922  31.232  1.00  0.00     0.029 A 
ATOM     59  C   UNL A   1      44.358  30.671  30.866  1.00  0.00     0.049 A 
ATOM     60  H   UNL A   1      44.783  29.133  32.242  1.00  0.00     0.167 HD
ATOM     61  C   UNL A   1      44.893  28.842  29.249  1.00  0.00     0.074 A 
ATOM     62  C   UNL A   1      44.592  27.625  30.002  1.00  0.00     0.031 C 
ATOM     63  C   UNL A   1      44.832  30.164  29.591  1.00  0.00     0.031 A 
BRANCH  50  64
ATOM     64  C   UNL A   1      42.653  28.416  34.265  1.00  0.00    -0.014 A 
ATOM     65  C   UNL A   1      42.972  28.791  35.582  1.00  0.00     0.010 A 
ATOM     66  C   UNL A   1      42.974  27.099  33.873  1.00  0.00     0.010 A 
ATOM     67  C   UNL A   1      43.621  27.903  36.448  1.00  0.00     0.020 A 
ATOM     68  C   UNL A   1      43.578  26.192  34.740  1.00  0.00     0.020 A 
ATOM     69  C   UNL A   1      43.924  26.610  36.017  1.00  0.00     0.054 A 
BRANCH  69  70
ATOM     70  S   UNL A   1      44.825  25.497  37.119  1.00  0.00     0.124 S 
ATOM     71  O   UNL A   1      44.413  25.978  38.434  1.00  0.00    -0.237 OA
ATOM     72  O   UNL A   1      44.305  24.190  36.726  1.00  0.00    -0.237 OA
ATOM     73  O   UNL A   1      46.225  25.734  36.774  1.00  0.00    -0.744 OA
ENDBRANCH  69  70
ENDBRANCH  50  64
BRANCH  51  74
ATOM     74  C   UNL A   1      43.507  25.529  26.155  1.00  0.00    -0.014 A 
ATOM     75  C   UNL A   1      44.583  25.270  25.283  1.00  0.00     0.010 A 
ATOM     76  C   UNL A   1      42.723  24.432  26.568  1.00  0.00     0.010 A 
ATOM     77  C   UNL A   1      44.905  23.956  24.898  1.00  0.00     0.020 A 
ATOM     78  C   UNL A   1      43.035  23.121  26.184  1.00  0.00     0.020 A 
ATOM     79  C   UNL A   1      44.141  22.886  25.371  1.00  0.00     0.054 A 
BRANCH  79  80
ATOM     80  S   UNL A   1      44.675  21.181  25.026  1.00  0.00     0.124 S 
ATOM     81  O   UNL A   1      46.018  21.154  25.596  1.00  0.00    -0.237 OA
ATOM     82  O   UNL A   1      43.673  20.385  25.730  1.00  0.00    -0.237 OA
ATOM     83  O   UNL A   1      44.618  21.092  23.568  1.00  0.00    -0.744 OA
ENDBRANCH  79  80
ENDBRANCH  51  74
BRANCH  63  84
ATOM     84  C   UNL A   1      45.080  31.197  28.511  1.00  0.00    -0.014 A 
ATOM     85  C   UNL A   1      44.084  31.711  27.655  1.00  0.00     0.010 A 
ATOM     86  C   UNL A   1      46.360  31.776  28.464  1.00  0.00     0.010 A 
ATOM     87  C   UNL A   1      44.375  32.752  26.757  1.00  0.00     0.020 A 
ATOM     88  C   UNL A   1      46.651  32.824  27.588  1.00  0.00     0.020 A 
ATOM     89  C   UNL A   1      45.661  33.300  26.729  1.00  0.00     0.054 A 
BRANCH  89  90
ATOM     90  S   UNL A   1      46.036  34.661  25.587  1.00  0.00     0.124 S 
ATOM     91  O   UNL A   1      45.199  34.347  24.432  1.00  0.00    -0.237 OA
ATOM     92  O   UNL A   1      45.640  35.844  26.348  1.00  0.00    -0.237 OA
ATOM     93  O   UNL A   1      47.475  34.536  25.356  1.00  0.00    -0.744 OA
ENDBRANCH  89  90
ENDBRANCH  63  84
ENDBRANCH  37  38
ENDBRANCH  30  32
ENDBRANCH  29  30
ENDBRANCH   1  29
TORSDOF 16
ENDMDL
