MODEL 1
REMARK VINA RESULT:     -13.1      0.000      0.000
REMARK SMILES O=C(OCCOC(=O)[C@@H]1[C@H](C(=O)Nc2ccccc2OC(F)F)[C@@H]2C=C[C@H]1C2)c1ccc(-c2c3nc(c(-c4ccc(S(=O)(=O)[O-])cc4)c4ccc([nH]4)c(-c4ccc(S(=O)(=O)[O-])cc4)c4nc(c(-c5ccc(S(=O)(=O)[O-])cc5)c5ccc2[nH]5)C=C4)C=C3)cc1
REMARK SMILES IDX 5 1 4 2 3 3 2 4 1 5 29 6 30 7 88 8 31 9 87 10 32 11 33 12
REMARK SMILES IDX 34 13 81 14 35 15 86 16 80 17 82 18 36 19 85 20 79 21 78 22
REMARK SMILES IDX 37 24 67 25 48 26 66 27 49 28 52 29 65 30 83 31 50 32 51 33
REMARK SMILES IDX 64 35 84 36 53 37 38 38 39 39 47 40 40 41 46 42 41 43 42 44
REMARK SMILES IDX 43 45 44 46 45 47 68 48 69 49 77 50 70 51 76 52 71 53 72 54
REMARK SMILES IDX 73 55 74 56 75 57 54 58 55 59 63 60 56 61 62 62 57 63 58 64
REMARK SMILES IDX 59 65 60 66 61 67 6 68 7 69 8 70 9 71 10 72 27 73 24 74
REMARK SMILES IDX 26 75 28 76 25 77 11 78 12 79 13 80 14 82 15 83 19 84 16 85
REMARK SMILES IDX 18 86 17 87 20 88 21 89 22 90 23 91
REMARK H PARENT 82 23 52 34 13 81
REMARK Flexibility Score: inf
ROOT
ATOM      1  C   UNL A   1      36.466  22.783  23.466  1.00  0.00     0.274 C 
ENDROOT
BRANCH   1   2
ATOM      2  C   UNL A   1      37.080  23.722  24.582  1.00  0.00     0.275 C 
BRANCH   2   3
ATOM      3  O   UNL A   1      37.414  23.083  25.786  1.00  0.00    -0.458 OA
BRANCH   3   4
ATOM      4  C   UNL A   1      38.689  22.578  25.844  1.00  0.00     0.338 C 
ATOM      5  O   UNL A   1      38.850  21.375  25.693  1.00  0.00    -0.246 OA
BRANCH   4   6
ATOM      6  C   UNL A   1      39.878  23.777  26.417  1.00  0.00     0.060 A 
ATOM      7  C   UNL A   1      39.092  24.202  27.858  1.00  0.00     0.016 A 
ATOM      8  C   UNL A   1      41.085  25.044  25.474  1.00  0.00     0.016 A 
ATOM      9  C   UNL A   1      39.473  25.511  28.618  1.00  0.00     0.010 A 
ATOM     10  C   UNL A   1      41.219  26.655  26.392  1.00  0.00     0.010 A 
ATOM     11  C   UNL A   1      40.495  26.696  27.998  1.00  0.00    -0.014 A 
BRANCH  11  12
ATOM     12  C   UNL A   1      40.591  27.774  28.976  1.00  0.00     0.031 A 
ATOM     13  C   UNL A   1      41.844  27.704  29.746  1.00  0.00     0.074 A 
ATOM     14  C   UNL A   1      39.779  28.860  28.940  1.00  0.00     0.049 A 
ATOM     15  N   UNL A   1      42.424  28.622  30.450  1.00  0.00    -0.248 NA
ATOM     16  C   UNL A   1      42.609  26.457  29.622  1.00  0.00     0.031 C 
ATOM     17  C   UNL A   1      38.638  29.106  28.038  1.00  0.00     0.029 A 
ATOM     18  N   UNL A   1      39.791  29.992  29.714  1.00  0.00    -0.354 N 
ATOM     19  C   UNL A   1      43.628  28.048  30.814  1.00  0.00     0.074 A 
ATOM     20  C   UNL A   1      43.744  26.761  30.200  1.00  0.00     0.031 C 
ATOM     21  C   UNL A   1      38.024  30.256  28.370  1.00  0.00     0.029 A 
ATOM     22  C   UNL A   1      38.714  30.831  29.509  1.00  0.00     0.049 A 
ATOM     23  H   UNL A   1      40.506  30.190  30.361  1.00  0.00     0.167 HD
ATOM     24  C   UNL A   1      44.515  28.512  31.703  1.00  0.00     0.031 A 
ATOM     25  C   UNL A   1      38.325  31.914  30.209  1.00  0.00     0.031 A 
ATOM     26  C   UNL A   1      44.210  29.648  32.501  1.00  0.00     0.049 A 
ATOM     27  C   UNL A   1      39.225  32.313  31.342  1.00  0.00     0.074 A 
ATOM     28  C   UNL A   1      44.921  30.170  33.552  1.00  0.00     0.029 A 
ATOM     29  N   UNL A   1      43.036  30.385  32.371  1.00  0.00    -0.354 N 
ATOM     30  N   UNL A   1      40.354  31.750  31.714  1.00  0.00    -0.248 NA
ATOM     31  C   UNL A   1      38.832  33.476  32.140  1.00  0.00     0.031 C 
ATOM     32  C   UNL A   1      44.135  31.177  34.113  1.00  0.00     0.029 A 
ATOM     33  C   UNL A   1      42.992  31.355  33.340  1.00  0.00     0.049 A 
ATOM     34  H   UNL A   1      42.343  30.232  31.687  1.00  0.00     0.167 HD
ATOM     35  C   UNL A   1      40.835  32.515  32.761  1.00  0.00     0.074 A 
ATOM     36  C   UNL A   1      39.867  33.582  32.963  1.00  0.00     0.031 C 
ATOM     37  C   UNL A   1      41.976  32.371  33.479  1.00  0.00     0.031 A 
BRANCH  24  38
ATOM     38  C   UNL A   1      45.692  27.627  31.958  1.00  0.00    -0.014 A 
ATOM     39  C   UNL A   1      45.643  26.626  32.949  1.00  0.00     0.010 A 
ATOM     40  C   UNL A   1      46.907  27.913  31.317  1.00  0.00     0.010 A 
ATOM     41  C   UNL A   1      46.799  25.933  33.299  1.00  0.00     0.020 A 
ATOM     42  C   UNL A   1      48.050  27.181  31.624  1.00  0.00     0.020 A 
ATOM     43  C   UNL A   1      47.987  26.195  32.613  1.00  0.00     0.054 A 
BRANCH  43  44
ATOM     44  S   UNL A   1      49.432  25.174  32.985  1.00  0.00     0.124 S 
ATOM     45  O   UNL A   1      50.241  26.072  33.804  1.00  0.00    -0.237 OA
ATOM     46  O   UNL A   1      48.834  24.044  33.690  1.00  0.00    -0.237 OA
ATOM     47  O   UNL A   1      49.985  24.863  31.669  1.00  0.00    -0.744 OA
ENDBRANCH  43  44
ENDBRANCH  24  38
BRANCH  25  48
ATOM     48  C   UNL A   1      37.051  32.632  29.901  1.00  0.00    -0.014 A 
ATOM     49  C   UNL A   1      35.820  32.210  30.434  1.00  0.00     0.010 A 
ATOM     50  C   UNL A   1      37.065  33.770  29.068  1.00  0.00     0.010 A 
ATOM     51  C   UNL A   1      34.638  32.904  30.144  1.00  0.00     0.020 A 
ATOM     52  C   UNL A   1      35.892  34.486  28.802  1.00  0.00     0.020 A 
ATOM     53  C   UNL A   1      34.683  34.047  29.339  1.00  0.00     0.054 A 
BRANCH  53  54
ATOM     54  S   UNL A   1      33.151  34.975  29.048  1.00  0.00     0.124 S 
ATOM     55  O   UNL A   1      33.648  36.223  28.481  1.00  0.00    -0.237 OA
ATOM     56  O   UNL A   1      32.431  34.102  28.124  1.00  0.00    -0.237 OA
ATOM     57  O   UNL A   1      32.557  35.088  30.379  1.00  0.00    -0.744 OA
ENDBRANCH  53  54
ENDBRANCH  25  48
BRANCH  37  58
ATOM     58  C   UNL A   1      42.272  33.430  34.490  1.00  0.00    -0.014 A 
ATOM     59  C   UNL A   1      41.826  33.328  35.815  1.00  0.00     0.010 A 
ATOM     60  C   UNL A   1      43.127  34.480  34.106  1.00  0.00     0.010 A 
ATOM     61  C   UNL A   1      42.211  34.292  36.742  1.00  0.00     0.020 A 
ATOM     62  C   UNL A   1      43.562  35.404  35.045  1.00  0.00     0.020 A 
ATOM     63  C   UNL A   1      43.088  35.311  36.353  1.00  0.00     0.054 A 
BRANCH  63  64
ATOM     64  S   UNL A   1      43.641  36.493  37.602  1.00  0.00     0.124 S 
ATOM     65  O   UNL A   1      42.707  36.234  38.694  1.00  0.00    -0.237 OA
ATOM     66  O   UNL A   1      45.021  36.075  37.837  1.00  0.00    -0.237 OA
ATOM     67  O   UNL A   1      43.489  37.789  36.945  1.00  0.00    -0.744 OA
ENDBRANCH  63  64
ENDBRANCH  37  58
ENDBRANCH  11  12
ENDBRANCH   4   6
ENDBRANCH   3   4
ENDBRANCH   2   3
ENDBRANCH   1   2
BRANCH   1  68
ATOM     68  O   UNL A   1      34.968  22.982  22.747  1.00  0.00    -0.462 OA
BRANCH  68  69
ATOM     69  C   UNL A   1      33.602  23.610  22.707  1.00  0.00     0.310 C 
ATOM     70  O   UNL A   1      33.235  23.946  21.575  1.00  0.00    -0.252 OA
BRANCH  69  71
ATOM     71  C   UNL A   1      32.439  23.963  24.184  1.00  0.00     0.119 C 
ATOM     72  C   UNL A   1      30.697  24.828  24.642  1.00  0.00     0.100 C 
ATOM     73  C   UNL A   1      33.483  24.125  25.367  1.00  0.00     0.027 C 
ATOM     74  C   UNL A   1      31.742  25.140  26.276  1.00  0.00     0.025 C 
ATOM     75  C   UNL A   1      33.942  25.528  25.600  1.00  0.00    -0.027 C 
ATOM     76  C   UNL A   1      32.616  23.943  26.584  1.00  0.00     0.017 C 
ATOM     77  C   UNL A   1      32.924  26.150  26.187  1.00  0.00    -0.027 C 
BRANCH  72  78
ATOM     78  C   UNL A   1      29.160  26.421  24.145  1.00  0.00     0.229 C 
ATOM     79  O   UNL A   1      27.943  26.600  23.990  1.00  0.00    -0.274 OA
ATOM     80  N   UNL A   1      29.963  27.986  23.666  1.00  0.00    -0.323 N 
ATOM     81  H   UNL A   1      29.425  28.806  23.570  1.00  0.00     0.170 HD
BRANCH  80  82
ATOM     82  C   UNL A   1      31.704  28.037  23.372  1.00  0.00     0.084 A 
ATOM     83  C   UNL A   1      32.161  27.276  22.318  1.00  0.00     0.030 A 
ATOM     84  C   UNL A   1      32.796  28.946  24.240  1.00  0.00     0.149 A 
ATOM     85  C   UNL A   1      33.538  27.331  22.050  1.00  0.00     0.002 A 
ATOM     86  C   UNL A   1      34.125  28.940  23.861  1.00  0.00     0.049 A 
ATOM     87  C   UNL A   1      34.469  28.136  22.773  1.00  0.00     0.004 A 
BRANCH  84  88
ATOM     88  O   UNL A   1      32.692  29.596  25.719  1.00  0.00    -0.433 OA
BRANCH  88  89
ATOM     89  C   UNL A   1      33.098  30.725  27.110  1.00  0.00     0.542 C 
ATOM     90  F   UNL A   1      33.657  30.094  28.211  1.00  0.00    -0.167 F 
ATOM     91  F   UNL A   1      34.080  31.641  26.976  1.00  0.00    -0.167 F 
ENDBRANCH  88  89
ENDBRANCH  84  88
ENDBRANCH  80  82
ENDBRANCH  72  78
ENDBRANCH  69  71
ENDBRANCH  68  69
ENDBRANCH   1  68
TORSDOF 18
ENDMDL
MODEL 2
REMARK VINA RESULT:     -11.6      3.351      8.608
REMARK SMILES O=C(OCCOC(=O)[C@@H]1[C@H](C(=O)Nc2ccccc2OC(F)F)[C@@H]2C=C[C@H]1C2)c1ccc(-c2c3nc(c(-c4ccc(S(=O)(=O)[O-])cc4)c4ccc([nH]4)c(-c4ccc(S(=O)(=O)[O-])cc4)c4nc(c(-c5ccc(S(=O)(=O)[O-])cc5)c5ccc2[nH]5)C=C4)C=C3)cc1
REMARK SMILES IDX 5 1 4 2 3 3 2 4 1 5 29 6 30 7 88 8 31 9 87 10 32 11 33 12
REMARK SMILES IDX 34 13 81 14 35 15 86 16 80 17 82 18 36 19 85 20 79 21 78 22
REMARK SMILES IDX 37 24 67 25 48 26 66 27 49 28 52 29 65 30 83 31 50 32 51 33
REMARK SMILES IDX 64 35 84 36 53 37 38 38 39 39 47 40 40 41 46 42 41 43 42 44
REMARK SMILES IDX 43 45 44 46 45 47 68 48 69 49 77 50 70 51 76 52 71 53 72 54
REMARK SMILES IDX 73 55 74 56 75 57 54 58 55 59 63 60 56 61 62 62 57 63 58 64
REMARK SMILES IDX 59 65 60 66 61 67 6 68 7 69 8 70 9 71 10 72 27 73 24 74
REMARK SMILES IDX 26 75 28 76 25 77 11 78 12 79 13 80 14 82 15 83 19 84 16 85
REMARK SMILES IDX 18 86 17 87 20 88 21 89 22 90 23 91
REMARK H PARENT 82 23 52 34 13 81
REMARK Flexibility Score: inf
ROOT
ATOM      1  C   UNL A   1      36.589  22.890  23.332  1.00  0.00     0.274 C 
ENDROOT
BRANCH   1   2
ATOM      2  C   UNL A   1      37.020  23.484  24.734  1.00  0.00     0.275 C 
BRANCH   2   3
ATOM      3  O   UNL A   1      37.558  22.554  25.638  1.00  0.00    -0.458 OA
BRANCH   3   4
ATOM      4  C   UNL A   1      38.809  22.858  26.112  1.00  0.00     0.338 C 
ATOM      5  O   UNL A   1      39.682  22.004  26.048  1.00  0.00    -0.246 OA
BRANCH   4   6
ATOM      6  C   UNL A   1      38.852  24.401  27.005  1.00  0.00     0.060 A 
ATOM      7  C   UNL A   1      40.064  25.156  26.090  1.00  0.00     0.016 A 
ATOM      8  C   UNL A   1      38.536  24.871  28.910  1.00  0.00     0.016 A 
ATOM      9  C   UNL A   1      40.814  26.409  26.641  1.00  0.00     0.010 A 
ATOM     10  C   UNL A   1      39.698  26.208  29.474  1.00  0.00     0.010 A 
ATOM     11  C   UNL A   1      40.663  26.979  28.218  1.00  0.00    -0.014 A 
BRANCH  11  12
ATOM     12  C   UNL A   1      41.529  28.143  28.368  1.00  0.00     0.031 A 
ATOM     13  C   UNL A   1      40.797  29.305  28.899  1.00  0.00     0.074 A 
ATOM     14  C   UNL A   1      42.882  28.052  28.322  1.00  0.00     0.049 A 
ATOM     15  N   UNL A   1      41.258  30.379  29.452  1.00  0.00    -0.248 NA
ATOM     16  C   UNL A   1      39.333  29.197  28.904  1.00  0.00     0.031 C 
ATOM     17  C   UNL A   1      43.697  26.859  28.022  1.00  0.00     0.029 A 
ATOM     18  N   UNL A   1      43.836  29.015  28.531  1.00  0.00    -0.354 N 
ATOM     19  C   UNL A   1      40.124  31.041  29.887  1.00  0.00     0.074 A 
ATOM     20  C   UNL A   1      38.974  30.232  29.621  1.00  0.00     0.031 C 
ATOM     21  C   UNL A   1      45.001  27.188  27.983  1.00  0.00     0.029 A 
ATOM     22  C   UNL A   1      45.123  28.609  28.247  1.00  0.00     0.049 A 
ATOM     23  H   UNL A   1      43.620  29.919  28.856  1.00  0.00     0.167 HD
ATOM     24  C   UNL A   1      40.041  32.291  30.357  1.00  0.00     0.031 A 
ATOM     25  C   UNL A   1      46.255  29.336  28.171  1.00  0.00     0.031 A 
ATOM     26  C   UNL A   1      41.173  33.152  30.324  1.00  0.00     0.049 A 
ATOM     27  C   UNL A   1      46.115  30.793  28.506  1.00  0.00     0.074 A 
ATOM     28  C   UNL A   1      41.237  34.490  30.617  1.00  0.00     0.029 A 
ATOM     29  N   UNL A   1      42.430  32.749  29.883  1.00  0.00    -0.354 N 
ATOM     30  N   UNL A   1      45.031  31.434  28.886  1.00  0.00    -0.248 NA
ATOM     31  C   UNL A   1      47.317  31.624  28.421  1.00  0.00     0.031 C 
ATOM     32  C   UNL A   1      42.520  34.919  30.276  1.00  0.00     0.029 A 
ATOM     33  C   UNL A   1      43.283  33.824  29.881  1.00  0.00     0.049 A 
ATOM     34  H   UNL A   1      42.671  31.832  29.615  1.00  0.00     0.167 HD
ATOM     35  C   UNL A   1      45.426  32.736  29.134  1.00  0.00     0.074 A 
ATOM     36  C   UNL A   1      46.852  32.789  28.854  1.00  0.00     0.031 C 
ATOM     37  C   UNL A   1      44.692  33.790  29.570  1.00  0.00     0.031 A 
BRANCH  24  38
ATOM     38  C   UNL A   1      38.661  32.770  30.669  1.00  0.00    -0.014 A 
ATOM     39  C   UNL A   1      37.826  33.281  29.655  1.00  0.00     0.010 A 
ATOM     40  C   UNL A   1      38.262  32.864  32.012  1.00  0.00     0.010 A 
ATOM     41  C   UNL A   1      36.617  33.887  29.985  1.00  0.00     0.020 A 
ATOM     42  C   UNL A   1      37.027  33.418  32.338  1.00  0.00     0.020 A 
ATOM     43  C   UNL A   1      36.213  33.924  31.321  1.00  0.00     0.054 A 
BRANCH  43  44
ATOM     44  S   UNL A   1      34.573  34.582  31.700  1.00  0.00     0.124 S 
ATOM     45  O   UNL A   1      33.912  33.431  32.309  1.00  0.00    -0.237 OA
ATOM     46  O   UNL A   1      34.886  35.683  32.608  1.00  0.00    -0.237 OA
ATOM     47  O   UNL A   1      34.050  34.982  30.396  1.00  0.00    -0.744 OA
ENDBRANCH  43  44
ENDBRANCH  24  38
BRANCH  25  48
ATOM     48  C   UNL A   1      47.548  28.731  27.730  1.00  0.00    -0.014 A 
ATOM     49  C   UNL A   1      48.490  28.251  28.657  1.00  0.00     0.010 A 
ATOM     50  C   UNL A   1      47.843  28.619  26.356  1.00  0.00     0.010 A 
ATOM     51  C   UNL A   1      49.692  27.675  28.224  1.00  0.00     0.020 A 
ATOM     52  C   UNL A   1      49.028  28.015  25.917  1.00  0.00     0.020 A 
ATOM     53  C   UNL A   1      49.948  27.549  26.855  1.00  0.00     0.054 A 
BRANCH  53  54
ATOM     54  S   UNL A   1      51.474  26.723  26.321  1.00  0.00     0.124 S 
ATOM     55  O   UNL A   1      52.469  27.777  26.483  1.00  0.00    -0.237 OA
ATOM     56  O   UNL A   1      51.571  25.611  27.264  1.00  0.00    -0.237 OA
ATOM     57  O   UNL A   1      51.193  26.337  24.940  1.00  0.00    -0.744 OA
ENDBRANCH  53  54
ENDBRANCH  25  48
BRANCH  37  58
ATOM     58  C   UNL A   1      45.432  35.057  29.842  1.00  0.00    -0.014 A 
ATOM     59  C   UNL A   1      45.454  36.111  28.918  1.00  0.00     0.010 A 
ATOM     60  C   UNL A   1      46.008  35.218  31.117  1.00  0.00     0.010 A 
ATOM     61  C   UNL A   1      46.076  37.308  29.258  1.00  0.00     0.020 A 
ATOM     62  C   UNL A   1      46.570  36.433  31.480  1.00  0.00     0.020 A 
ATOM     63  C   UNL A   1      46.613  37.464  30.542  1.00  0.00     0.054 A 
BRANCH  63  64
ATOM     64  S   UNL A   1      47.331  39.061  30.985  1.00  0.00     0.124 S 
ATOM     65  O   UNL A   1      46.685  39.956  30.029  1.00  0.00    -0.237 OA
ATOM     66  O   UNL A   1      46.915  39.215  32.376  1.00  0.00    -0.237 OA
ATOM     67  O   UNL A   1      48.765  38.864  30.784  1.00  0.00    -0.744 OA
ENDBRANCH  63  64
ENDBRANCH  37  58
ENDBRANCH  11  12
ENDBRANCH   4   6
ENDBRANCH   3   4
ENDBRANCH   2   3
ENDBRANCH   1   2
BRANCH   1  68
ATOM     68  O   UNL A   1      35.083  23.069  22.624  1.00  0.00    -0.462 OA
BRANCH  68  69
ATOM     69  C   UNL A   1      33.699  23.656  22.609  1.00  0.00     0.310 C 
ATOM     70  O   UNL A   1      33.302  23.983  21.485  1.00  0.00    -0.252 OA
BRANCH  69  71
ATOM     71  C   UNL A   1      32.553  23.973  24.107  1.00  0.00     0.119 C 
ATOM     72  C   UNL A   1      30.770  24.735  24.590  1.00  0.00     0.100 C 
ATOM     73  C   UNL A   1      33.613  24.237  25.257  1.00  0.00     0.027 C 
ATOM     74  C   UNL A   1      31.832  25.161  26.185  1.00  0.00     0.025 C 
ATOM     75  C   UNL A   1      33.984  25.673  25.440  1.00  0.00    -0.027 C 
ATOM     76  C   UNL A   1      32.791  24.033  26.501  1.00  0.00     0.017 C 
ATOM     77  C   UNL A   1      32.941  26.243  26.038  1.00  0.00    -0.027 C 
BRANCH  72  78
ATOM     78  C   UNL A   1      29.118  26.209  24.093  1.00  0.00     0.229 C 
ATOM     79  O   UNL A   1      27.891  26.297  23.938  1.00  0.00    -0.274 OA
ATOM     80  N   UNL A   1      29.802  27.829  23.612  1.00  0.00    -0.323 N 
ATOM     81  H   UNL A   1      29.205  28.606  23.516  1.00  0.00     0.170 HD
BRANCH  80  82
ATOM     82  C   UNL A   1      31.535  28.009  23.317  1.00  0.00     0.084 A 
ATOM     83  C   UNL A   1      32.063  27.214  22.323  1.00  0.00     0.030 A 
ATOM     84  C   UNL A   1      32.537  29.072  24.115  1.00  0.00     0.149 A 
ATOM     85  C   UNL A   1      33.432  27.369  22.053  1.00  0.00     0.002 A 
ATOM     86  C   UNL A   1      33.864  29.153  23.739  1.00  0.00     0.049 A 
ATOM     87  C   UNL A   1      34.284  28.303  22.715  1.00  0.00     0.004 A 
BRANCH  84  88
ATOM     88  O   UNL A   1      32.367  29.818  25.542  1.00  0.00    -0.433 OA
BRANCH  88  89
ATOM     89  C   UNL A   1      31.814  31.106  26.729  1.00  0.00     0.542 C 
ATOM     90  F   UNL A   1      32.836  31.907  27.216  1.00  0.00    -0.167 F 
ATOM     91  F   UNL A   1      31.040  32.129  26.309  1.00  0.00    -0.167 F 
ENDBRANCH  88  89
ENDBRANCH  84  88
ENDBRANCH  80  82
ENDBRANCH  72  78
ENDBRANCH  69  71
ENDBRANCH  68  69
ENDBRANCH   1  68
TORSDOF 18
ENDMDL
MODEL 3
REMARK VINA RESULT:     -11.3      5.299      8.627
REMARK SMILES O=C(OCCOC(=O)[C@@H]1[C@H](C(=O)Nc2ccccc2OC(F)F)[C@@H]2C=C[C@H]1C2)c1ccc(-c2c3nc(c(-c4ccc(S(=O)(=O)[O-])cc4)c4ccc([nH]4)c(-c4ccc(S(=O)(=O)[O-])cc4)c4nc(c(-c5ccc(S(=O)(=O)[O-])cc5)c5ccc2[nH]5)C=C4)C=C3)cc1
REMARK SMILES IDX 5 1 4 2 3 3 2 4 1 5 29 6 30 7 88 8 31 9 87 10 32 11 33 12
REMARK SMILES IDX 34 13 81 14 35 15 86 16 80 17 82 18 36 19 85 20 79 21 78 22
REMARK SMILES IDX 37 24 67 25 48 26 66 27 49 28 52 29 65 30 83 31 50 32 51 33
REMARK SMILES IDX 64 35 84 36 53 37 38 38 39 39 47 40 40 41 46 42 41 43 42 44
REMARK SMILES IDX 43 45 44 46 45 47 68 48 69 49 77 50 70 51 76 52 71 53 72 54
REMARK SMILES IDX 73 55 74 56 75 57 54 58 55 59 63 60 56 61 62 62 57 63 58 64
REMARK SMILES IDX 59 65 60 66 61 67 6 68 7 69 8 70 9 71 10 72 27 73 24 74
REMARK SMILES IDX 26 75 28 76 25 77 11 78 12 79 13 80 14 82 15 83 19 84 16 85
REMARK SMILES IDX 18 86 17 87 20 88 21 89 22 90 23 91
REMARK H PARENT 82 23 52 34 13 81
REMARK Flexibility Score: inf
ROOT
ATOM      1  C   UNL A   1      32.322  31.219  26.992  1.00  0.00     0.274 C 
ENDROOT
BRANCH   1   2
ATOM      2  C   UNL A   1      33.793  31.101  27.565  1.00  0.00     0.275 C 
BRANCH   2   3
ATOM      3  O   UNL A   1      34.462  32.319  27.753  1.00  0.00    -0.458 OA
BRANCH   3   4
ATOM      4  C   UNL A   1      34.092  33.021  28.873  1.00  0.00     0.338 C 
ATOM      5  O   UNL A   1      33.374  34.003  28.738  1.00  0.00    -0.246 OA
BRANCH   4   6
ATOM      6  C   UNL A   1      34.978  32.508  30.332  1.00  0.00     0.060 A 
ATOM      7  C   UNL A   1      35.794  33.965  30.624  1.00  0.00     0.016 A 
ATOM      8  C   UNL A   1      35.720  30.760  30.920  1.00  0.00     0.016 A 
ATOM      9  C   UNL A   1      37.036  34.009  31.569  1.00  0.00     0.010 A 
ATOM     10  C   UNL A   1      37.338  30.981  31.808  1.00  0.00     0.010 A 
ATOM     11  C   UNL A   1      37.795  32.640  32.189  1.00  0.00    -0.014 A 
BRANCH  11  12
ATOM     12  C   UNL A   1      38.925  33.074  33.003  1.00  0.00     0.031 A 
ATOM     13  C   UNL A   1      40.114  33.358  32.182  1.00  0.00     0.074 A 
ATOM     14  C   UNL A   1      38.782  33.461  34.295  1.00  0.00     0.049 A 
ATOM     15  N   UNL A   1      41.170  34.043  32.482  1.00  0.00    -0.248 NA
ATOM     16  C   UNL A   1      40.062  32.894  30.790  1.00  0.00     0.031 C 
ATOM     17  C   UNL A   1      37.559  33.422  35.120  1.00  0.00     0.029 A 
ATOM     18  N   UNL A   1      39.707  33.976  35.167  1.00  0.00    -0.354 N 
ATOM     19  C   UNL A   1      41.874  34.101  31.293  1.00  0.00     0.074 A 
ATOM     20  C   UNL A   1      41.110  33.472  30.260  1.00  0.00     0.031 C 
ATOM     21  C   UNL A   1      37.837  33.806  36.379  1.00  0.00     0.029 A 
ATOM     22  C   UNL A   1      39.252  34.112  36.462  1.00  0.00     0.049 A 
ATOM     23  H   UNL A   1      40.619  34.226  34.892  1.00  0.00     0.167 HD
ATOM     24  C   UNL A   1      43.127  34.536  31.109  1.00  0.00     0.031 A 
ATOM     25  C   UNL A   1      39.935  34.411  37.584  1.00  0.00     0.031 A 
ATOM     26  C   UNL A   1      43.943  34.876  32.223  1.00  0.00     0.049 A 
ATOM     27  C   UNL A   1      41.396  34.702  37.398  1.00  0.00     0.074 A 
ATOM     28  C   UNL A   1      45.278  35.192  32.239  1.00  0.00     0.029 A 
ATOM     29  N   UNL A   1      43.492  34.855  33.540  1.00  0.00    -0.354 N 
ATOM     30  N   UNL A   1      42.078  34.725  36.273  1.00  0.00    -0.248 NA
ATOM     31  C   UNL A   1      42.181  35.015  38.593  1.00  0.00     0.031 C 
ATOM     32  C   UNL A   1      45.657  35.283  33.578  1.00  0.00     0.029 A 
ATOM     33  C   UNL A   1      44.533  35.139  34.387  1.00  0.00     0.049 A 
ATOM     34  H   UNL A   1      42.566  34.666  33.820  1.00  0.00     0.167 HD
ATOM     35  C   UNL A   1      43.364  35.101  36.615  1.00  0.00     0.074 A 
ATOM     36  C   UNL A   1      43.362  35.292  38.057  1.00  0.00     0.031 C 
ATOM     37  C   UNL A   1      44.445  35.294  35.819  1.00  0.00     0.031 A 
BRANCH  24  38
ATOM     38  C   UNL A   1      43.658  34.397  29.720  1.00  0.00    -0.014 A 
ATOM     39  C   UNL A   1      43.424  35.396  28.753  1.00  0.00     0.010 A 
ATOM     40  C   UNL A   1      44.248  33.182  29.337  1.00  0.00     0.010 A 
ATOM     41  C   UNL A   1      43.767  35.173  27.422  1.00  0.00     0.020 A 
ATOM     42  C   UNL A   1      44.644  32.981  28.018  1.00  0.00     0.020 A 
ATOM     43  C   UNL A   1      44.401  33.979  27.070  1.00  0.00     0.054 A 
BRANCH  43  44
ATOM     44  S   UNL A   1      44.968  33.783  25.365  1.00  0.00     0.124 S 
ATOM     45  O   UNL A   1      43.842  34.312  24.602  1.00  0.00    -0.237 OA
ATOM     46  O   UNL A   1      46.179  34.600  25.349  1.00  0.00    -0.237 OA
ATOM     47  O   UNL A   1      45.188  32.345  25.236  1.00  0.00    -0.744 OA
ENDBRANCH  43  44
ENDBRANCH  24  38
BRANCH  25  48
ATOM     48  C   UNL A   1      39.281  34.399  38.928  1.00  0.00    -0.014 A 
ATOM     49  C   UNL A   1      38.883  33.198  39.542  1.00  0.00     0.010 A 
ATOM     50  C   UNL A   1      39.062  35.609  39.618  1.00  0.00     0.010 A 
ATOM     51  C   UNL A   1      38.283  33.206  40.809  1.00  0.00     0.020 A 
ATOM     52  C   UNL A   1      38.493  35.620  40.897  1.00  0.00     0.020 A 
ATOM     53  C   UNL A   1      38.104  34.417  41.485  1.00  0.00     0.054 A 
BRANCH  53  54
ATOM     54  S   UNL A   1      37.402  34.391  43.159  1.00  0.00     0.124 S 
ATOM     55  O   UNL A   1      38.165  33.324  43.798  1.00  0.00    -0.237 OA
ATOM     56  O   UNL A   1      37.684  35.744  43.633  1.00  0.00    -0.237 OA
ATOM     57  O   UNL A   1      35.987  34.098  42.935  1.00  0.00    -0.744 OA
ENDBRANCH  53  54
ENDBRANCH  25  48
BRANCH  37  58
ATOM     58  C   UNL A   1      45.683  35.804  36.480  1.00  0.00    -0.014 A 
ATOM     59  C   UNL A   1      46.712  34.941  36.883  1.00  0.00     0.010 A 
ATOM     60  C   UNL A   1      45.849  37.198  36.572  1.00  0.00     0.010 A 
ATOM     61  C   UNL A   1      47.887  35.473  37.405  1.00  0.00     0.020 A 
ATOM     62  C   UNL A   1      47.045  37.731  37.030  1.00  0.00     0.020 A 
ATOM     63  C   UNL A   1      48.049  36.863  37.458  1.00  0.00     0.054 A 
BRANCH  63  64
ATOM     64  S   UNL A   1      49.621  37.523  38.054  1.00  0.00     0.124 S 
ATOM     65  O   UNL A   1      50.462  36.329  38.067  1.00  0.00    -0.237 OA
ATOM     66  O   UNL A   1      49.949  38.516  37.035  1.00  0.00    -0.237 OA
ATOM     67  O   UNL A   1      49.292  38.069  39.369  1.00  0.00    -0.744 OA
ENDBRANCH  63  64
ENDBRANCH  37  58
ENDBRANCH  11  12
ENDBRANCH   4   6
ENDBRANCH   3   4
ENDBRANCH   2   3
ENDBRANCH   1   2
BRANCH   1  68
ATOM     68  O   UNL A   1      31.748  30.444  25.625  1.00  0.00    -0.462 OA
BRANCH  68  69
ATOM     69  C   UNL A   1      31.428  29.188  24.863  1.00  0.00     0.310 C 
ATOM     70  O   UNL A   1      30.566  29.335  23.988  1.00  0.00    -0.252 OA
BRANCH  69  71
ATOM     71  C   UNL A   1      32.165  27.443  25.131  1.00  0.00     0.119 C 
ATOM     72  C   UNL A   1      33.143  25.985  24.177  1.00  0.00     0.100 C 
ATOM     73  C   UNL A   1      31.163  26.847  26.206  1.00  0.00     0.027 C 
ATOM     74  C   UNL A   1      32.044  24.967  25.447  1.00  0.00     0.025 C 
ATOM     75  C   UNL A   1      30.009  26.095  25.627  1.00  0.00    -0.027 C 
ATOM     76  C   UNL A   1      31.951  25.695  26.770  1.00  0.00     0.017 C 
ATOM     77  C   UNL A   1      30.508  24.938  25.200  1.00  0.00    -0.027 C 
BRANCH  72  78
ATOM     78  C   UNL A   1      33.584  24.942  22.211  1.00  0.00     0.229 C 
ATOM     79  O   UNL A   1      33.391  25.024  20.988  1.00  0.00    -0.274 OA
ATOM     80  N   UNL A   1      34.399  23.334  22.485  1.00  0.00    -0.323 N 
ATOM     81  H   UNL A   1      34.783  22.842  21.723  1.00  0.00     0.170 HD
BRANCH  80  82
ATOM     82  C   UNL A   1      34.499  22.657  24.113  1.00  0.00     0.084 A 
ATOM     83  C   UNL A   1      35.273  23.358  25.012  1.00  0.00     0.030 A 
ATOM     84  C   UNL A   1      33.712  21.283  24.629  1.00  0.00     0.149 A 
ATOM     85  C   UNL A   1      35.336  22.852  26.320  1.00  0.00     0.002 A 
ATOM     86  C   UNL A   1      33.830  20.901  25.952  1.00  0.00     0.049 A 
ATOM     87  C   UNL A   1      34.636  21.693  26.770  1.00  0.00     0.004 A 
BRANCH  84  88
ATOM     88  O   UNL A   1      33.091  20.043  23.794  1.00  0.00    -0.433 OA
BRANCH  88  89
ATOM     89  C   UNL A   1      32.769  18.292  23.343  1.00  0.00     0.542 C 
ATOM     90  F   UNL A   1      32.479  17.470  24.421  1.00  0.00    -0.167 F 
ATOM     91  F   UNL A   1      31.668  17.965  22.634  1.00  0.00    -0.167 F 
ENDBRANCH  88  89
ENDBRANCH  84  88
ENDBRANCH  80  82
ENDBRANCH  72  78
ENDBRANCH  69  71
ENDBRANCH  68  69
ENDBRANCH   1  68
TORSDOF 18
ENDMDL
