MODEL 1
REMARK VINA RESULT:     -12.0      0.000      0.000
REMARK SMILES COc1ccc(/C=C2/C(=O)N(c3ccccc3)C(=O)N=C2OCCOC(=O)c2ccc(-c3c4nc(c(-c5ccc(S(=O)(=O)[O-])cc5)c5ccc([nH]5)c(-c5ccc(S(=O)(=O)[O-])cc5)c5nc(c(-c6ccc(S(=O)(=O)[O-])cc6)c6ccc3[nH]6)C=C5)C=C4)cc2)cc1C(=O)[O-]
REMARK SMILES IDX 24 1 23 2 22 3 21 4 7 5 8 6 9 7 10 8 11 9 20 10 18 11 19 12
REMARK SMILES IDX 6 13 3 14 4 15 89 16 5 17 88 18 2 19 1 20 90 21 91 22 92 23
REMARK SMILES IDX 12 24 13 25 17 26 14 27 16 28 15 29 25 30 26 31 27 32 28 33
REMARK SMILES IDX 29 34 87 35 30 36 86 37 31 38 32 39 33 40 80 41 34 42 85 43
REMARK SMILES IDX 79 44 81 45 35 46 84 47 78 48 77 49 36 51 66 52 47 53 65 54
REMARK SMILES IDX 48 55 51 56 64 57 82 58 49 59 50 60 63 62 83 63 52 64 37 65
REMARK SMILES IDX 38 66 46 67 39 68 45 69 40 70 41 71 42 72 43 73 44 74 67 75
REMARK SMILES IDX 68 76 76 77 69 78 75 79 70 80 71 81 72 82 73 83 74 84 53 85
REMARK SMILES IDX 54 86 62 87 55 88 61 89 56 90 57 91 58 92 59 93 60 94
REMARK H PARENT 81 50 51 61
REMARK Flexibility Score: inf
ROOT
ATOM      1  C   UNL A   1      36.681  23.138  24.420  1.00  0.00     0.274 C 
ENDROOT
BRANCH   1   2
ATOM      2  C   UNL A   1      35.277  23.672  24.120  1.00  0.00     0.273 C 
BRANCH   2   3
ATOM      3  O   UNL A   1      34.368  23.351  25.201  1.00  0.00    -0.473 OA
BRANCH   3   4
ATOM      4  C   UNL A   1      33.188  23.999  25.316  1.00  0.00     0.231 C 
ATOM      5  C   UNL A   1      31.855  22.299  23.985  1.00  0.00     0.027 C 
ATOM      6  C   UNL A   1      32.186  23.553  24.351  1.00  0.00     0.103 C 
ATOM      7  C   UNL A   1      31.353  24.679  23.824  1.00  0.00     0.272 C 
ATOM      8  O   UNL A   1      30.754  24.558  22.757  1.00  0.00    -0.268 OA
ATOM      9  N   UNL A   1      31.290  25.775  24.683  1.00  0.00    -0.226 N 
ATOM     10  N   UNL A   1      32.999  24.986  26.115  1.00  0.00    -0.156 NA
ATOM     11  C   UNL A   1      31.802  25.665  25.985  1.00  0.00     0.358 C 
ATOM     12  O   UNL A   1      31.281  26.153  26.982  1.00  0.00    -0.245 OA
BRANCH   5  13
ATOM     13  C   UNL A   1      32.350  20.964  24.392  1.00  0.00    -0.024 A 
ATOM     14  C   UNL A   1      33.287  18.344  24.969  1.00  0.00     0.127 A 
ATOM     15  C   UNL A   1      33.065  19.265  25.992  1.00  0.00     0.048 A 
ATOM     16  C   UNL A   1      32.958  18.694  23.657  1.00  0.00     0.040 A 
ATOM     17  C   UNL A   1      32.564  20.542  25.707  1.00  0.00     0.012 A 
ATOM     18  C   UNL A   1      32.527  20.006  23.379  1.00  0.00     0.022 A 
BRANCH  14  19
ATOM     19  O   UNL A   1      33.671  17.088  25.352  1.00  0.00    -0.496 OA
ATOM     20  C   UNL A   1      32.561  16.302  25.794  1.00  0.00     0.278 C 
ENDBRANCH  14  19
BRANCH  16  21
ATOM     21  C   UNL A   1      32.899  17.741  22.528  1.00  0.00     0.075 C 
ATOM     22  O   UNL A   1      32.005  17.701  21.700  1.00  0.00    -0.545 OA
ATOM     23  O   UNL A   1      33.958  16.925  22.421  1.00  0.00    -0.545 OA
ENDBRANCH  16  21
ENDBRANCH   5  13
BRANCH   9  24
ATOM     24  C   UNL A   1      30.655  26.992  24.243  1.00  0.00     0.054 A 
ATOM     25  C   UNL A   1      29.294  26.963  23.873  1.00  0.00     0.027 A 
ATOM     26  C   UNL A   1      31.366  28.176  24.003  1.00  0.00     0.027 A 
ATOM     27  C   UNL A   1      28.699  28.042  23.209  1.00  0.00     0.002 A 
ATOM     28  C   UNL A   1      30.757  29.272  23.377  1.00  0.00     0.002 A 
ATOM     29  C   UNL A   1      29.434  29.194  22.954  1.00  0.00     0.000 A 
ENDBRANCH   9  24
ENDBRANCH   3   4
ENDBRANCH   2   3
ENDBRANCH   1   2
BRANCH   1  30
ATOM     30  O   UNL A   1      37.219  23.822  25.565  1.00  0.00    -0.458 OA
BRANCH  30  31
ATOM     31  C   UNL A   1      38.342  23.282  26.087  1.00  0.00     0.338 C 
ATOM     32  O   UNL A   1      38.799  22.171  25.883  1.00  0.00    -0.246 OA
BRANCH  31  33
ATOM     33  C   UNL A   1      39.107  24.375  26.699  1.00  0.00     0.060 A 
ATOM     34  C   UNL A   1      38.928  24.532  28.068  1.00  0.00     0.016 A 
ATOM     35  C   UNL A   1      39.935  25.244  25.990  1.00  0.00     0.016 A 
ATOM     36  C   UNL A   1      39.559  25.562  28.740  1.00  0.00     0.010 A 
ATOM     37  C   UNL A   1      40.556  26.305  26.673  1.00  0.00     0.010 A 
ATOM     38  C   UNL A   1      40.343  26.488  28.052  1.00  0.00    -0.014 A 
BRANCH  38  39
ATOM     39  C   UNL A   1      40.730  27.723  28.788  1.00  0.00     0.031 A 
ATOM     40  C   UNL A   1      42.178  27.930  29.145  1.00  0.00     0.074 A 
ATOM     41  C   UNL A   1      39.864  28.742  28.946  1.00  0.00     0.049 A 
ATOM     42  N   UNL A   1      42.738  28.912  29.803  1.00  0.00    -0.248 NA
ATOM     43  C   UNL A   1      43.121  26.898  28.685  1.00  0.00     0.031 C 
ATOM     44  C   UNL A   1      38.473  28.748  28.489  1.00  0.00     0.029 A 
ATOM     45  N   UNL A   1      40.045  29.995  29.478  1.00  0.00    -0.354 N 
ATOM     46  C   UNL A   1      44.086  28.585  29.891  1.00  0.00     0.074 A 
ATOM     47  C   UNL A   1      44.263  27.324  29.204  1.00  0.00     0.031 C 
ATOM     48  C   UNL A   1      37.948  29.965  28.705  1.00  0.00     0.029 A 
ATOM     49  C   UNL A   1      38.932  30.797  29.392  1.00  0.00     0.049 A 
ATOM     50  H   UNL A   1      40.892  30.291  29.883  1.00  0.00     0.167 HD
ATOM     51  C   UNL A   1      45.085  29.263  30.506  1.00  0.00     0.031 A 
ATOM     52  C   UNL A   1      38.715  32.051  29.841  1.00  0.00     0.031 A 
ATOM     53  C   UNL A   1      44.912  30.526  31.170  1.00  0.00     0.049 A 
ATOM     54  C   UNL A   1      39.818  32.765  30.577  1.00  0.00     0.074 A 
ATOM     55  C   UNL A   1      45.836  31.254  31.901  1.00  0.00     0.029 A 
ATOM     56  N   UNL A   1      43.737  31.263  31.167  1.00  0.00    -0.354 N 
ATOM     57  N   UNL A   1      41.052  32.375  30.792  1.00  0.00    -0.248 NA
ATOM     58  C   UNL A   1      39.489  34.076  31.151  1.00  0.00     0.031 C 
ATOM     59  C   UNL A   1      45.205  32.412  32.373  1.00  0.00     0.029 A 
ATOM     60  C   UNL A   1      43.905  32.432  31.891  1.00  0.00     0.049 A 
ATOM     61  H   UNL A   1      42.903  30.993  30.717  1.00  0.00     0.167 HD
ATOM     62  C   UNL A   1      41.643  33.386  31.543  1.00  0.00     0.074 A 
ATOM     63  C   UNL A   1      40.643  34.424  31.703  1.00  0.00     0.031 C 
ATOM     64  C   UNL A   1      42.893  33.442  32.067  1.00  0.00     0.031 A 
BRANCH  51  65
ATOM     65  C   UNL A   1      46.422  28.576  30.575  1.00  0.00    -0.014 A 
ATOM     66  C   UNL A   1      47.461  28.872  29.676  1.00  0.00     0.010 A 
ATOM     67  C   UNL A   1      46.614  27.568  31.539  1.00  0.00     0.010 A 
ATOM     68  C   UNL A   1      48.645  28.128  29.699  1.00  0.00     0.020 A 
ATOM     69  C   UNL A   1      47.804  26.841  31.582  1.00  0.00     0.020 A 
ATOM     70  C   UNL A   1      48.802  27.106  30.643  1.00  0.00     0.054 A 
BRANCH  70  71
ATOM     71  S   UNL A   1      50.326  26.123  30.629  1.00  0.00     0.124 S 
ATOM     72  O   UNL A   1      51.317  27.112  30.209  1.00  0.00    -0.237 OA
ATOM     73  O   UNL A   1      50.435  25.676  32.015  1.00  0.00    -0.237 OA
ATOM     74  O   UNL A   1      50.049  25.069  29.658  1.00  0.00    -0.744 OA
ENDBRANCH  70  71
ENDBRANCH  51  65
BRANCH  52  75
ATOM     75  C   UNL A   1      37.374  32.675  29.667  1.00  0.00    -0.014 A 
ATOM     76  C   UNL A   1      36.402  32.609  30.680  1.00  0.00     0.010 A 
ATOM     77  C   UNL A   1      37.076  33.374  28.482  1.00  0.00     0.010 A 
ATOM     78  C   UNL A   1      35.163  33.238  30.516  1.00  0.00     0.020 A 
ATOM     79  C   UNL A   1      35.852  34.030  28.326  1.00  0.00     0.020 A 
ATOM     80  C   UNL A   1      34.900  33.954  29.342  1.00  0.00     0.054 A 
BRANCH  80  81
ATOM     81  S   UNL A   1      33.329  34.848  29.183  1.00  0.00     0.124 S 
ATOM     82  O   UNL A   1      32.626  34.050  28.183  1.00  0.00    -0.237 OA
ATOM     83  O   UNL A   1      32.786  34.784  30.537  1.00  0.00    -0.237 OA
ATOM     84  O   UNL A   1      33.740  36.181  28.748  1.00  0.00    -0.744 OA
ENDBRANCH  80  81
ENDBRANCH  52  75
BRANCH  64  85
ATOM     85  C   UNL A   1      43.244  34.666  32.872  1.00  0.00    -0.014 A 
ATOM     86  C   UNL A   1      43.719  35.832  32.244  1.00  0.00     0.010 A 
ATOM     87  C   UNL A   1      43.077  34.658  34.268  1.00  0.00     0.010 A 
ATOM     88  C   UNL A   1      44.064  36.953  33.004  1.00  0.00     0.020 A 
ATOM     89  C   UNL A   1      43.397  35.786  35.029  1.00  0.00     0.020 A 
ATOM     90  C   UNL A   1      43.910  36.919  34.393  1.00  0.00     0.054 A 
BRANCH  90  91
ATOM     91  S   UNL A   1      44.359  38.387  35.360  1.00  0.00     0.124 S 
ATOM     92  O   UNL A   1      43.716  39.457  34.602  1.00  0.00    -0.237 OA
ATOM     93  O   UNL A   1      43.775  38.104  36.669  1.00  0.00    -0.237 OA
ATOM     94  O   UNL A   1      45.820  38.389  35.325  1.00  0.00    -0.744 OA
ENDBRANCH  90  91
ENDBRANCH  64  85
ENDBRANCH  38  39
ENDBRANCH  31  33
ENDBRANCH  30  31
ENDBRANCH   1  30
TORSDOF 17
ENDMDL
MODEL 2
REMARK VINA RESULT:     -11.8      1.308      4.715
REMARK SMILES COc1ccc(/C=C2/C(=O)N(c3ccccc3)C(=O)N=C2OCCOC(=O)c2ccc(-c3c4nc(c(-c5ccc(S(=O)(=O)[O-])cc5)c5ccc([nH]5)c(-c5ccc(S(=O)(=O)[O-])cc5)c5nc(c(-c6ccc(S(=O)(=O)[O-])cc6)c6ccc3[nH]6)C=C5)C=C4)cc2)cc1C(=O)[O-]
REMARK SMILES IDX 24 1 23 2 22 3 21 4 7 5 8 6 9 7 10 8 11 9 20 10 18 11 19 12
REMARK SMILES IDX 6 13 3 14 4 15 89 16 5 17 88 18 2 19 1 20 90 21 91 22 92 23
REMARK SMILES IDX 12 24 13 25 17 26 14 27 16 28 15 29 25 30 26 31 27 32 28 33
REMARK SMILES IDX 29 34 87 35 30 36 86 37 31 38 32 39 33 40 80 41 34 42 85 43
REMARK SMILES IDX 79 44 81 45 35 46 84 47 78 48 77 49 36 51 66 52 47 53 65 54
REMARK SMILES IDX 48 55 51 56 64 57 82 58 49 59 50 60 63 62 83 63 52 64 37 65
REMARK SMILES IDX 38 66 46 67 39 68 45 69 40 70 41 71 42 72 43 73 44 74 67 75
REMARK SMILES IDX 68 76 76 77 69 78 75 79 70 80 71 81 72 82 73 83 74 84 53 85
REMARK SMILES IDX 54 86 62 87 55 88 61 89 56 90 57 91 58 92 59 93 60 94
REMARK H PARENT 81 50 51 61
REMARK Flexibility Score: inf
ROOT
ATOM      1  C   UNL A   1      36.395  22.999  24.473  1.00  0.00     0.274 C 
ENDROOT
BRANCH   1   2
ATOM      2  C   UNL A   1      35.743  23.920  23.437  1.00  0.00     0.273 C 
BRANCH   2   3
ATOM      3  O   UNL A   1      34.309  23.978  23.637  1.00  0.00    -0.473 OA
BRANCH   3   4
ATOM      4  C   UNL A   1      33.608  22.849  23.877  1.00  0.00     0.231 C 
ATOM      5  C   UNL A   1      32.700  23.606  26.122  1.00  0.00     0.027 C 
ATOM      6  C   UNL A   1      33.219  22.694  25.277  1.00  0.00     0.103 C 
ATOM      7  C   UNL A   1      33.308  21.275  25.745  1.00  0.00     0.272 C 
ATOM      8  O   UNL A   1      33.399  21.026  26.946  1.00  0.00    -0.268 OA
ATOM      9  N   UNL A   1      33.202  20.341  24.717  1.00  0.00    -0.226 N 
ATOM     10  N   UNL A   1      33.400  21.944  22.989  1.00  0.00    -0.156 NA
ATOM     11  C   UNL A   1      32.831  20.765  23.431  1.00  0.00     0.358 C 
ATOM     12  O   UNL A   1      32.079  20.148  22.685  1.00  0.00    -0.245 OA
BRANCH   5  13
ATOM     13  C   UNL A   1      32.346  25.036  25.973  1.00  0.00    -0.024 A 
ATOM     14  C   UNL A   1      31.499  27.718  25.568  1.00  0.00     0.127 A 
ATOM     15  C   UNL A   1      32.672  27.437  26.269  1.00  0.00     0.048 A 
ATOM     16  C   UNL A   1      30.787  26.666  24.986  1.00  0.00     0.040 A 
ATOM     17  C   UNL A   1      33.106  26.115  26.432  1.00  0.00     0.012 A 
ATOM     18  C   UNL A   1      31.197  25.340  25.222  1.00  0.00     0.022 A 
BRANCH  14  19
ATOM     19  O   UNL A   1      31.213  29.040  25.365  1.00  0.00    -0.496 OA
ATOM     20  C   UNL A   1      32.391  29.851  25.389  1.00  0.00     0.278 C 
ENDBRANCH  14  19
BRANCH  16  21
ATOM     21  C   UNL A   1      29.688  26.840  24.012  1.00  0.00     0.075 C 
ATOM     22  O   UNL A   1      28.560  26.398  24.153  1.00  0.00    -0.545 OA
ATOM     23  O   UNL A   1      29.992  27.593  22.945  1.00  0.00    -0.545 OA
ENDBRANCH  16  21
ENDBRANCH   5  13
BRANCH   9  24
ATOM     24  C   UNL A   1      33.426  18.944  24.994  1.00  0.00     0.054 A 
ATOM     25  C   UNL A   1      34.581  18.318  24.479  1.00  0.00     0.027 A 
ATOM     26  C   UNL A   1      32.468  18.129  25.612  1.00  0.00     0.027 A 
ATOM     27  C   UNL A   1      34.723  16.925  24.503  1.00  0.00     0.002 A 
ATOM     28  C   UNL A   1      32.633  16.738  25.674  1.00  0.00     0.002 A 
ATOM     29  C   UNL A   1      33.744  16.135  25.094  1.00  0.00     0.000 A 
ENDBRANCH   9  24
ENDBRANCH   3   4
ENDBRANCH   2   3
ENDBRANCH   1   2
BRANCH   1  30
ATOM     30  O   UNL A   1      37.099  23.794  25.443  1.00  0.00    -0.458 OA
BRANCH  30  31
ATOM     31  C   UNL A   1      38.213  23.227  25.957  1.00  0.00     0.338 C 
ATOM     32  O   UNL A   1      38.660  22.118  25.723  1.00  0.00    -0.246 OA
BRANCH  31  33
ATOM     33  C   UNL A   1      38.984  24.293  26.608  1.00  0.00     0.060 A 
ATOM     34  C   UNL A   1      38.781  24.422  27.977  1.00  0.00     0.016 A 
ATOM     35  C   UNL A   1      39.839  25.164  25.936  1.00  0.00     0.016 A 
ATOM     36  C   UNL A   1      39.416  25.426  28.685  1.00  0.00     0.010 A 
ATOM     37  C   UNL A   1      40.464  26.199  26.654  1.00  0.00     0.010 A 
ATOM     38  C   UNL A   1      40.228  26.353  28.033  1.00  0.00    -0.014 A 
BRANCH  38  39
ATOM     39  C   UNL A   1      40.621  27.564  28.804  1.00  0.00     0.031 A 
ATOM     40  C   UNL A   1      42.063  27.732  29.206  1.00  0.00     0.074 A 
ATOM     41  C   UNL A   1      39.773  28.600  28.959  1.00  0.00     0.049 A 
ATOM     42  N   UNL A   1      42.625  28.688  29.898  1.00  0.00    -0.248 NA
ATOM     43  C   UNL A   1      42.996  26.688  28.752  1.00  0.00     0.031 C 
ATOM     44  C   UNL A   1      38.396  28.646  28.463  1.00  0.00     0.029 A 
ATOM     45  N   UNL A   1      39.967  29.838  29.521  1.00  0.00    -0.354 N 
ATOM     46  C   UNL A   1      43.963  28.329  30.018  1.00  0.00     0.074 A 
ATOM     47  C   UNL A   1      44.131  27.078  29.310  1.00  0.00     0.031 C 
ATOM     48  C   UNL A   1      37.893  29.870  28.690  1.00  0.00     0.029 A 
ATOM     49  C   UNL A   1      38.874  30.666  29.420  1.00  0.00     0.049 A 
ATOM     50  H   UNL A   1      40.808  30.106  29.956  1.00  0.00     0.167 HD
ATOM     51  C   UNL A   1      44.959  28.972  30.674  1.00  0.00     0.031 A 
ATOM     52  C   UNL A   1      38.673  31.915  29.889  1.00  0.00     0.031 A 
ATOM     53  C   UNL A   1      44.795  30.225  31.359  1.00  0.00     0.049 A 
ATOM     54  C   UNL A   1      39.770  32.590  30.669  1.00  0.00     0.074 A 
ATOM     55  C   UNL A   1      45.713  30.917  32.129  1.00  0.00     0.029 A 
ATOM     56  N   UNL A   1      43.637  30.988  31.338  1.00  0.00    -0.354 N 
ATOM     57  N   UNL A   1      40.989  32.168  30.911  1.00  0.00    -0.248 NA
ATOM     58  C   UNL A   1      39.454  33.896  31.261  1.00  0.00     0.031 C 
ATOM     59  C   UNL A   1      45.095  32.079  32.607  1.00  0.00     0.029 A 
ATOM     60  C   UNL A   1      43.810  32.138  32.089  1.00  0.00     0.049 A 
ATOM     61  H   UNL A   1      42.810  30.746  30.860  1.00  0.00     0.167 HD
ATOM     62  C   UNL A   1      41.580  33.150  31.698  1.00  0.00     0.074 A 
ATOM     63  C   UNL A   1      40.600  34.207  31.852  1.00  0.00     0.031 C 
ATOM     64  C   UNL A   1      42.816  33.168  32.258  1.00  0.00     0.031 A 
BRANCH  51  65
ATOM     65  C   UNL A   1      46.278  28.254  30.766  1.00  0.00    -0.014 A 
ATOM     66  C   UNL A   1      47.308  28.461  29.833  1.00  0.00     0.010 A 
ATOM     67  C   UNL A   1      46.459  27.305  31.790  1.00  0.00     0.010 A 
ATOM     68  C   UNL A   1      48.472  27.688  29.886  1.00  0.00     0.020 A 
ATOM     69  C   UNL A   1      47.631  26.549  31.861  1.00  0.00     0.020 A 
ATOM     70  C   UNL A   1      48.618  26.726  30.891  1.00  0.00     0.054 A 
BRANCH  70  71
ATOM     71  S   UNL A   1      50.115  25.701  30.918  1.00  0.00     0.124 S 
ATOM     72  O   UNL A   1      49.833  24.787  32.022  1.00  0.00    -0.237 OA
ATOM     73  O   UNL A   1      50.117  25.097  29.588  1.00  0.00    -0.237 OA
ATOM     74  O   UNL A   1      51.187  26.662  31.164  1.00  0.00    -0.744 OA
ENDBRANCH  70  71
ENDBRANCH  51  65
BRANCH  52  75
ATOM     75  C   UNL A   1      37.352  32.573  29.690  1.00  0.00    -0.014 A 
ATOM     76  C   UNL A   1      36.376  32.568  30.702  1.00  0.00     0.010 A 
ATOM     77  C   UNL A   1      37.077  33.241  28.482  1.00  0.00     0.010 A 
ATOM     78  C   UNL A   1      35.156  33.228  30.513  1.00  0.00     0.020 A 
ATOM     79  C   UNL A   1      35.873  33.928  28.301  1.00  0.00     0.020 A 
ATOM     80  C   UNL A   1      34.917  33.913  29.316  1.00  0.00     0.054 A 
BRANCH  80  81
ATOM     81  S   UNL A   1      33.374  34.847  29.123  1.00  0.00     0.124 S 
ATOM     82  O   UNL A   1      33.861  36.148  28.674  1.00  0.00    -0.237 OA
ATOM     83  O   UNL A   1      32.650  34.065  28.124  1.00  0.00    -0.237 OA
ATOM     84  O   UNL A   1      32.792  34.822  30.463  1.00  0.00    -0.744 OA
ENDBRANCH  80  81
ENDBRANCH  52  75
BRANCH  64  85
ATOM     85  C   UNL A   1      43.171  34.367  33.097  1.00  0.00    -0.014 A 
ATOM     86  C   UNL A   1      43.646  35.550  32.502  1.00  0.00     0.010 A 
ATOM     87  C   UNL A   1      43.007  34.319  34.492  1.00  0.00     0.010 A 
ATOM     88  C   UNL A   1      43.995  36.649  33.293  1.00  0.00     0.020 A 
ATOM     89  C   UNL A   1      43.331  35.424  35.285  1.00  0.00     0.020 A 
ATOM     90  C   UNL A   1      43.844  36.575  34.681  1.00  0.00     0.054 A 
BRANCH  90  91
ATOM     91  S   UNL A   1      44.298  38.012  35.689  1.00  0.00     0.124 S 
ATOM     92  O   UNL A   1      45.747  37.861  35.797  1.00  0.00    -0.237 OA
ATOM     93  O   UNL A   1      43.842  39.136  34.873  1.00  0.00    -0.237 OA
ATOM     94  O   UNL A   1      43.556  37.813  36.931  1.00  0.00    -0.744 OA
ENDBRANCH  90  91
ENDBRANCH  64  85
ENDBRANCH  38  39
ENDBRANCH  31  33
ENDBRANCH  30  31
ENDBRANCH   1  30
TORSDOF 17
ENDMDL
MODEL 3
REMARK VINA RESULT:     -11.8      2.506      8.121
REMARK SMILES COc1ccc(/C=C2/C(=O)N(c3ccccc3)C(=O)N=C2OCCOC(=O)c2ccc(-c3c4nc(c(-c5ccc(S(=O)(=O)[O-])cc5)c5ccc([nH]5)c(-c5ccc(S(=O)(=O)[O-])cc5)c5nc(c(-c6ccc(S(=O)(=O)[O-])cc6)c6ccc3[nH]6)C=C5)C=C4)cc2)cc1C(=O)[O-]
REMARK SMILES IDX 24 1 23 2 22 3 21 4 7 5 8 6 9 7 10 8 11 9 20 10 18 11 19 12
REMARK SMILES IDX 6 13 3 14 4 15 89 16 5 17 88 18 2 19 1 20 90 21 91 22 92 23
REMARK SMILES IDX 12 24 13 25 17 26 14 27 16 28 15 29 25 30 26 31 27 32 28 33
REMARK SMILES IDX 29 34 87 35 30 36 86 37 31 38 32 39 33 40 80 41 34 42 85 43
REMARK SMILES IDX 79 44 81 45 35 46 84 47 78 48 77 49 36 51 66 52 47 53 65 54
REMARK SMILES IDX 48 55 51 56 64 57 82 58 49 59 50 60 63 62 83 63 52 64 37 65
REMARK SMILES IDX 38 66 46 67 39 68 45 69 40 70 41 71 42 72 43 73 44 74 67 75
REMARK SMILES IDX 68 76 76 77 69 78 75 79 70 80 71 81 72 82 73 83 74 84 53 85
REMARK SMILES IDX 54 86 62 87 55 88 61 89 56 90 57 91 58 92 59 93 60 94
REMARK H PARENT 81 50 51 61
REMARK Flexibility Score: inf
ROOT
ATOM      1  C   UNL A   1      37.140  21.718  24.716  1.00  0.00     0.274 C 
ENDROOT
BRANCH   1   2
ATOM      2  C   UNL A   1      36.534  22.569  23.596  1.00  0.00     0.273 C 
BRANCH   2   3
ATOM      3  O   UNL A   1      35.090  22.448  23.588  1.00  0.00    -0.473 OA
BRANCH   3   4
ATOM      4  C   UNL A   1      34.321  23.419  24.127  1.00  0.00     0.231 C 
ATOM      5  C   UNL A   1      32.185  22.050  24.141  1.00  0.00     0.027 C 
ATOM      6  C   UNL A   1      32.889  23.185  23.961  1.00  0.00     0.103 C 
ATOM      7  C   UNL A   1      32.129  24.443  23.676  1.00  0.00     0.272 C 
ATOM      8  O   UNL A   1      31.025  24.389  23.137  1.00  0.00    -0.268 OA
ATOM      9  N   UNL A   1      32.761  25.593  24.142  1.00  0.00    -0.226 N 
ATOM     10  N   UNL A   1      34.799  24.498  24.636  1.00  0.00    -0.156 NA
ATOM     11  C   UNL A   1      33.885  25.477  24.976  1.00  0.00     0.358 C 
ATOM     12  O   UNL A   1      34.112  26.198  25.942  1.00  0.00    -0.245 OA
BRANCH   5  13
ATOM     13  C   UNL A   1      32.566  20.679  24.552  1.00  0.00    -0.024 A 
ATOM     14  C   UNL A   1      33.304  17.998  25.135  1.00  0.00     0.127 A 
ATOM     15  C   UNL A   1      33.025  18.901  26.160  1.00  0.00     0.048 A 
ATOM     16  C   UNL A   1      33.131  18.401  23.809  1.00  0.00     0.040 A 
ATOM     17  C   UNL A   1      32.622  20.211  25.868  1.00  0.00     0.012 A 
ATOM     18  C   UNL A   1      32.798  19.741  23.532  1.00  0.00     0.022 A 
BRANCH  14  19
ATOM     19  O   UNL A   1      33.582  16.713  25.514  1.00  0.00    -0.496 OA
ATOM     20  C   UNL A   1      32.392  15.966  25.780  1.00  0.00     0.278 C 
ENDBRANCH  14  19
BRANCH  16  21
ATOM     21  C   UNL A   1      33.140  17.484  22.649  1.00  0.00     0.075 C 
ATOM     22  O   UNL A   1      33.929  16.566  22.497  1.00  0.00    -0.545 OA
ATOM     23  O   UNL A   1      32.155  17.684  21.762  1.00  0.00    -0.545 OA
ENDBRANCH  16  21
ENDBRANCH   5  13
BRANCH   9  24
ATOM     24  C   UNL A   1      32.227  26.889  23.805  1.00  0.00     0.054 A 
ATOM     25  C   UNL A   1      31.034  27.322  24.421  1.00  0.00     0.027 A 
ATOM     26  C   UNL A   1      32.743  27.677  22.767  1.00  0.00     0.027 A 
ATOM     27  C   UNL A   1      30.342  28.446  23.954  1.00  0.00     0.002 A 
ATOM     28  C   UNL A   1      32.073  28.828  22.330  1.00  0.00     0.002 A 
ATOM     29  C   UNL A   1      30.859  29.194  22.902  1.00  0.00     0.000 A 
ENDBRANCH   9  24
ENDBRANCH   3   4
ENDBRANCH   2   3
ENDBRANCH   1   2
BRANCH   1  30
ATOM     30  O   UNL A   1      37.749  22.579  25.694  1.00  0.00    -0.458 OA
BRANCH  30  31
ATOM     31  C   UNL A   1      38.923  22.141  26.198  1.00  0.00     0.338 C 
ATOM     32  O   UNL A   1      39.491  21.090  25.960  1.00  0.00    -0.246 OA
BRANCH  31  33
ATOM     33  C   UNL A   1      39.574  23.288  26.844  1.00  0.00     0.060 A 
ATOM     34  C   UNL A   1      39.150  24.537  26.404  1.00  0.00     0.016 A 
ATOM     35  C   UNL A   1      40.579  23.181  27.804  1.00  0.00     0.016 A 
ATOM     36  C   UNL A   1      39.731  25.687  26.906  1.00  0.00     0.010 A 
ATOM     37  C   UNL A   1      41.184  24.352  28.294  1.00  0.00     0.010 A 
ATOM     38  C   UNL A   1      40.782  25.614  27.820  1.00  0.00    -0.014 A 
BRANCH  38  39
ATOM     39  C   UNL A   1      41.543  26.868  28.072  1.00  0.00     0.031 A 
ATOM     40  C   UNL A   1      40.876  27.980  28.839  1.00  0.00     0.074 A 
ATOM     41  C   UNL A   1      42.865  26.945  27.824  1.00  0.00     0.049 A 
ATOM     42  N   UNL A   1      41.336  29.163  29.152  1.00  0.00    -0.248 NA
ATOM     43  C   UNL A   1      39.515  27.712  29.331  1.00  0.00     0.031 C 
ATOM     44  C   UNL A   1      43.679  25.875  27.244  1.00  0.00     0.029 A 
ATOM     45  N   UNL A   1      43.768  27.946  28.088  1.00  0.00    -0.354 N 
ATOM     46  C   UNL A   1      40.299  29.804  29.821  1.00  0.00     0.074 A 
ATOM     47  C   UNL A   1      39.194  28.872  29.884  1.00  0.00     0.031 C 
ATOM     48  C   UNL A   1      44.968  26.255  27.254  1.00  0.00     0.029 A 
ATOM     49  C   UNL A   1      45.062  27.622  27.757  1.00  0.00     0.049 A 
ATOM     50  H   UNL A   1      43.511  28.813  28.476  1.00  0.00     0.167 HD
ATOM     51  C   UNL A   1      40.261  31.064  30.319  1.00  0.00     0.031 A 
ATOM     52  C   UNL A   1      46.194  28.352  27.823  1.00  0.00     0.031 A 
ATOM     53  C   UNL A   1      41.366  31.982  30.275  1.00  0.00     0.049 A 
ATOM     54  C   UNL A   1      46.122  29.771  28.323  1.00  0.00     0.074 A 
ATOM     55  C   UNL A   1      41.407  33.308  30.669  1.00  0.00     0.029 A 
ATOM     56  N   UNL A   1      42.638  31.661  29.824  1.00  0.00    -0.354 N 
ATOM     57  N   UNL A   1      45.092  30.422  28.809  1.00  0.00    -0.248 NA
ATOM     58  C   UNL A   1      47.360  30.559  28.257  1.00  0.00     0.031 C 
ATOM     59  C   UNL A   1      42.694  33.799  30.418  1.00  0.00     0.029 A 
ATOM     60  C   UNL A   1      43.469  32.764  29.919  1.00  0.00     0.049 A 
ATOM     61  H   UNL A   1      42.910  30.777  29.483  1.00  0.00     0.167 HD
ATOM     62  C   UNL A   1      45.553  31.703  29.092  1.00  0.00     0.074 A 
ATOM     63  C   UNL A   1      46.965  31.719  28.765  1.00  0.00     0.031 C 
ATOM     64  C   UNL A   1      44.866  32.774  29.562  1.00  0.00     0.031 A 
BRANCH  51  65
ATOM     65  C   UNL A   1      38.936  31.538  30.850  1.00  0.00    -0.014 A 
ATOM     66  C   UNL A   1      37.931  32.045  30.007  1.00  0.00     0.010 A 
ATOM     67  C   UNL A   1      38.720  31.520  32.241  1.00  0.00     0.010 A 
ATOM     68  C   UNL A   1      36.761  32.584  30.552  1.00  0.00     0.020 A 
ATOM     69  C   UNL A   1      37.542  32.034  32.786  1.00  0.00     0.020 A 
ATOM     70  C   UNL A   1      36.582  32.588  31.939  1.00  0.00     0.054 A 
BRANCH  70  71
ATOM     71  S   UNL A   1      35.078  33.331  32.630  1.00  0.00     0.124 S 
ATOM     72  O   UNL A   1      35.210  33.012  34.049  1.00  0.00    -0.237 OA
ATOM     73  O   UNL A   1      35.228  34.743  32.288  1.00  0.00    -0.237 OA
ATOM     74  O   UNL A   1      33.998  32.637  31.934  1.00  0.00    -0.744 OA
ENDBRANCH  70  71
ENDBRANCH  51  65
BRANCH  52  75
ATOM     75  C   UNL A   1      47.476  27.772  27.335  1.00  0.00    -0.014 A 
ATOM     76  C   UNL A   1      47.864  27.889  25.989  1.00  0.00     0.010 A 
ATOM     77  C   UNL A   1      48.337  27.117  28.237  1.00  0.00     0.010 A 
ATOM     78  C   UNL A   1      49.091  27.374  25.558  1.00  0.00     0.020 A 
ATOM     79  C   UNL A   1      49.577  26.629  27.817  1.00  0.00     0.020 A 
ATOM     80  C   UNL A   1      49.945  26.756  26.478  1.00  0.00     0.054 A 
BRANCH  80  81
ATOM     81  S   UNL A   1      51.576  26.181  25.928  1.00  0.00     0.124 S 
ATOM     82  O   UNL A   1      51.475  26.325  24.478  1.00  0.00    -0.237 OA
ATOM     83  O   UNL A   1      52.484  27.111  26.594  1.00  0.00    -0.237 OA
ATOM     84  O   UNL A   1      51.635  24.806  26.420  1.00  0.00    -0.744 OA
ENDBRANCH  80  81
ENDBRANCH  52  75
BRANCH  64  85
ATOM     85  C   UNL A   1      45.635  34.057  29.742  1.00  0.00    -0.014 A 
ATOM     86  C   UNL A   1      46.437  34.265  30.879  1.00  0.00     0.010 A 
ATOM     87  C   UNL A   1      45.574  35.055  28.753  1.00  0.00     0.010 A 
ATOM     88  C   UNL A   1      47.127  35.469  31.046  1.00  0.00     0.020 A 
ATOM     89  C   UNL A   1      46.283  36.250  28.905  1.00  0.00     0.020 A 
ATOM     90  C   UNL A   1      47.038  36.458  30.061  1.00  0.00     0.054 A 
BRANCH  90  91
ATOM     91  S   UNL A   1      47.945  38.011  30.296  1.00  0.00     0.124 S 
ATOM     92  O   UNL A   1      49.179  37.548  30.926  1.00  0.00    -0.237 OA
ATOM     93  O   UNL A   1      48.086  38.512  28.931  1.00  0.00    -0.237 OA
ATOM     94  O   UNL A   1      47.064  38.800  31.153  1.00  0.00    -0.744 OA
ENDBRANCH  90  91
ENDBRANCH  64  85
ENDBRANCH  38  39
ENDBRANCH  31  33
ENDBRANCH  30  31
ENDBRANCH   1  30
TORSDOF 17
ENDMDL
