MODEL 1
REMARK VINA RESULT:      -8.9      0.000      0.000
REMARK SMILES C=Cc1cccc(-c2ccc([C@@H](C)C(=O)OCCOC(=O)c3ccc(-c4c5nc(c(-c6ccc(S(=O)(=O)[O-])cc6)c6ccc([nH]6)c(-c6ccc(S(=O)(=O)[O-])cc6)c6nc(c(-c7ccc(S(=O)(=O)[O-])cc7)c7ccc4[nH]7)C=C6)C=C5)cc3)cc2)c1
REMARK SMILES IDX 17 1 16 2 14 3 15 4 12 5 13 6 11 7 8 8 9 9 83 10 10 11 82 12
REMARK SMILES IDX 7 13 3 14 4 15 84 16 5 17 6 18 2 19 1 20 18 21 19 22 20 23
REMARK SMILES IDX 21 24 22 25 23 26 81 27 24 28 80 29 25 30 26 31 27 32 74 33
REMARK SMILES IDX 28 34 79 35 73 36 75 37 29 38 78 39 72 40 71 41 30 43 60 44
REMARK SMILES IDX 41 45 59 46 42 47 45 48 58 49 76 50 43 51 44 52 57 54 77 55
REMARK SMILES IDX 46 56 31 57 32 58 40 59 33 60 39 61 34 62 35 63 36 64 37 65
REMARK SMILES IDX 38 66 61 67 62 68 70 69 63 70 69 71 64 72 65 73 66 74 67 75
REMARK SMILES IDX 68 76 47 77 48 78 56 79 49 80 55 81 50 82 51 83 52 84 53 85
REMARK SMILES IDX 54 86
REMARK H PARENT 75 42 45 53
REMARK Flexibility Score: inf
ROOT
ATOM      1  C   UNL A   1      33.290  33.690  28.175  1.00  0.00     0.274 C 
ENDROOT
BRANCH   1   2
ATOM      2  O   UNL A   1      34.055  34.568  29.021  1.00  0.00    -0.462 OA
BRANCH   2   3
ATOM      3  C   UNL A   1      33.982  34.344  30.359  1.00  0.00     0.313 C 
ATOM      4  O   UNL A   1      33.230  34.949  31.117  1.00  0.00    -0.252 OA
BRANCH   3   5
ATOM      5  C   UNL A   1      34.966  33.297  30.865  1.00  0.00     0.126 C 
ATOM      6  C   UNL A   1      34.650  32.956  32.321  1.00  0.00     0.025 C 
BRANCH   5   7
ATOM      7  C   UNL A   1      36.441  33.600  30.649  1.00  0.00    -0.034 A 
ATOM      8  C   UNL A   1      39.209  34.096  30.216  1.00  0.00    -0.018 A 
ATOM      9  C   UNL A   1      38.559  34.555  31.372  1.00  0.00     0.009 A 
ATOM     10  C   UNL A   1      38.443  33.399  29.271  1.00  0.00     0.009 A 
ATOM     11  C   UNL A   1      37.200  34.307  31.589  1.00  0.00     0.005 A 
ATOM     12  C   UNL A   1      37.081  33.154  29.483  1.00  0.00     0.005 A 
BRANCH   8  13
ATOM     13  C   UNL A   1      40.653  34.311  30.024  1.00  0.00    -0.018 A 
ATOM     14  C   UNL A   1      42.987  33.792  30.563  1.00  0.00    -0.026 A 
ATOM     15  C   UNL A   1      43.406  34.783  29.668  1.00  0.00     0.008 A 
ATOM     16  C   UNL A   1      41.612  33.572  30.741  1.00  0.00     0.016 A 
ATOM     17  C   UNL A   1      42.473  35.523  28.945  1.00  0.00     0.001 A 
ATOM     18  C   UNL A   1      41.110  35.287  29.122  1.00  0.00     0.009 A 
BRANCH  14  19
ATOM     19  C   UNL A   1      44.005  33.062  31.330  1.00  0.00     0.000 C 
ATOM     20  C   UNL A   1      45.159  33.595  31.747  1.00  0.00     0.009 C 
ENDBRANCH  14  19
ENDBRANCH   8  13
ENDBRANCH   5   7
ENDBRANCH   3   5
ENDBRANCH   2   3
ENDBRANCH   1   2
BRANCH   1  21
ATOM     21  C   UNL A   1      34.174  32.595  27.579  1.00  0.00     0.275 C 
BRANCH  21  22
ATOM     22  O   UNL A   1      33.661  31.288  27.891  1.00  0.00    -0.458 OA
BRANCH  22  23
ATOM     23  C   UNL A   1      34.330  30.255  27.328  1.00  0.00     0.338 C 
ATOM     24  O   UNL A   1      34.012  29.611  26.346  1.00  0.00    -0.246 OA
BRANCH  23  25
ATOM     25  C   UNL A   1      35.587  30.046  28.054  1.00  0.00     0.060 A 
ATOM     26  C   UNL A   1      36.795  30.102  27.353  1.00  0.00     0.016 A 
ATOM     27  C   UNL A   1      35.559  29.712  29.407  1.00  0.00     0.016 A 
ATOM     28  C   UNL A   1      37.991  29.810  28.006  1.00  0.00     0.010 A 
ATOM     29  C   UNL A   1      36.758  29.430  30.060  1.00  0.00     0.010 A 
ATOM     30  C   UNL A   1      37.978  29.464  29.362  1.00  0.00    -0.014 A 
BRANCH  30  31
ATOM     31  C   UNL A   1      39.224  29.081  30.065  1.00  0.00     0.031 A 
ATOM     32  C   UNL A   1      39.665  29.872  31.261  1.00  0.00     0.074 A 
ATOM     33  C   UNL A   1      39.978  28.069  29.598  1.00  0.00     0.049 A 
ATOM     34  N   UNL A   1      40.810  29.851  31.889  1.00  0.00    -0.248 NA
ATOM     35  C   UNL A   1      38.686  30.821  31.818  1.00  0.00     0.031 C 
ATOM     36  C   UNL A   1      39.624  27.193  28.480  1.00  0.00     0.029 A 
ATOM     37  N   UNL A   1      41.214  27.624  29.994  1.00  0.00    -0.354 N 
ATOM     38  C   UNL A   1      40.707  30.806  32.892  1.00  0.00     0.074 A 
ATOM     39  C   UNL A   1      39.386  31.389  32.789  1.00  0.00     0.031 C 
ATOM     40  C   UNL A   1      40.629  26.327  28.268  1.00  0.00     0.029 A 
ATOM     41  C   UNL A   1      41.718  26.627  29.194  1.00  0.00     0.049 A 
ATOM     42  H   UNL A   1      41.693  27.985  30.775  1.00  0.00     0.167 HD
ATOM     43  C   UNL A   1      41.636  31.168  33.809  1.00  0.00     0.031 A 
ATOM     44  C   UNL A   1      42.936  26.052  29.179  1.00  0.00     0.031 A 
ATOM     45  C   UNL A   1      42.945  30.580  33.899  1.00  0.00     0.049 A 
ATOM     46  C   UNL A   1      43.976  26.513  30.165  1.00  0.00     0.074 A 
ATOM     47  C   UNL A   1      43.964  30.877  34.786  1.00  0.00     0.029 A 
ATOM     48  N   UNL A   1      43.416  29.573  33.069  1.00  0.00    -0.354 N 
ATOM     49  N   UNL A   1      43.876  27.435  31.094  1.00  0.00    -0.248 NA
ATOM     50  C   UNL A   1      45.291  25.862  30.100  1.00  0.00     0.031 C 
ATOM     51  C   UNL A   1      45.065  30.074  34.470  1.00  0.00     0.029 A 
ATOM     52  C   UNL A   1      44.714  29.243  33.417  1.00  0.00     0.049 A 
ATOM     53  H   UNL A   1      42.902  29.154  32.343  1.00  0.00     0.167 HD
ATOM     54  C   UNL A   1      45.106  27.454  31.742  1.00  0.00     0.074 A 
ATOM     55  C   UNL A   1      45.932  26.452  31.101  1.00  0.00     0.031 C 
ATOM     56  C   UNL A   1      45.512  28.228  32.777  1.00  0.00     0.031 A 
BRANCH  43  57
ATOM     57  C   UNL A   1      41.281  32.282  34.755  1.00  0.00    -0.014 A 
ATOM     58  C   UNL A   1      41.425  33.631  34.384  1.00  0.00     0.010 A 
ATOM     59  C   UNL A   1      40.769  31.973  36.028  1.00  0.00     0.010 A 
ATOM     60  C   UNL A   1      41.102  34.650  35.285  1.00  0.00     0.020 A 
ATOM     61  C   UNL A   1      40.423  32.989  36.924  1.00  0.00     0.020 A 
ATOM     62  C   UNL A   1      40.609  34.323  36.551  1.00  0.00     0.054 A 
BRANCH  62  63
ATOM     63  S   UNL A   1      40.188  35.662  37.699  1.00  0.00     0.124 S 
ATOM     64  O   UNL A   1      38.964  35.156  38.315  1.00  0.00    -0.237 OA
ATOM     65  O   UNL A   1      41.356  35.715  38.575  1.00  0.00    -0.237 OA
ATOM     66  O   UNL A   1      40.014  36.823  36.829  1.00  0.00    -0.744 OA
ENDBRANCH  62  63
ENDBRANCH  43  57
BRANCH  44  67
ATOM     67  C   UNL A   1      43.247  25.004  28.170  1.00  0.00    -0.014 A 
ATOM     68  C   UNL A   1      42.944  23.656  28.425  1.00  0.00     0.010 A 
ATOM     69  C   UNL A   1      43.830  25.354  26.939  1.00  0.00     0.010 A 
ATOM     70  C   UNL A   1      43.226  22.675  27.469  1.00  0.00     0.020 A 
ATOM     71  C   UNL A   1      44.091  24.380  25.971  1.00  0.00     0.020 A 
ATOM     72  C   UNL A   1      43.796  23.045  26.247  1.00  0.00     0.054 A 
BRANCH  72  73
ATOM     73  S   UNL A   1      44.100  21.764  24.997  1.00  0.00     0.124 S 
ATOM     74  O   UNL A   1      43.118  20.747  25.360  1.00  0.00    -0.237 OA
ATOM     75  O   UNL A   1      43.843  22.474  23.746  1.00  0.00    -0.237 OA
ATOM     76  O   UNL A   1      45.496  21.396  25.218  1.00  0.00    -0.744 OA
ENDBRANCH  72  73
ENDBRANCH  44  67
BRANCH  56  77
ATOM     77  C   UNL A   1      46.891  27.991  33.327  1.00  0.00    -0.014 A 
ATOM     78  C   UNL A   1      47.123  27.029  34.324  1.00  0.00     0.010 A 
ATOM     79  C   UNL A   1      47.982  28.679  32.763  1.00  0.00     0.010 A 
ATOM     80  C   UNL A   1      48.426  26.763  34.755  1.00  0.00     0.020 A 
ATOM     81  C   UNL A   1      49.286  28.402  33.177  1.00  0.00     0.020 A 
ATOM     82  C   UNL A   1      49.500  27.449  34.176  1.00  0.00     0.054 A 
BRANCH  82  83
ATOM     83  S   UNL A   1      51.188  27.029  34.692  1.00  0.00     0.124 S 
ATOM     84  O   UNL A   1      51.158  27.350  36.116  1.00  0.00    -0.237 OA
ATOM     85  O   UNL A   1      51.279  25.607  34.369  1.00  0.00    -0.237 OA
ATOM     86  O   UNL A   1      52.026  27.901  33.873  1.00  0.00    -0.744 OA
ENDBRANCH  82  83
ENDBRANCH  56  77
ENDBRANCH  30  31
ENDBRANCH  23  25
ENDBRANCH  22  23
ENDBRANCH  21  22
ENDBRANCH   1  21
TORSDOF 17
ENDMDL
MODEL 2
REMARK VINA RESULT:      -8.9      2.397      3.813
REMARK SMILES C=Cc1cccc(-c2ccc([C@@H](C)C(=O)OCCOC(=O)c3ccc(-c4c5nc(c(-c6ccc(S(=O)(=O)[O-])cc6)c6ccc([nH]6)c(-c6ccc(S(=O)(=O)[O-])cc6)c6nc(c(-c7ccc(S(=O)(=O)[O-])cc7)c7ccc4[nH]7)C=C6)C=C5)cc3)cc2)c1
REMARK SMILES IDX 17 1 16 2 14 3 15 4 12 5 13 6 11 7 8 8 9 9 83 10 10 11 82 12
REMARK SMILES IDX 7 13 3 14 4 15 84 16 5 17 6 18 2 19 1 20 18 21 19 22 20 23
REMARK SMILES IDX 21 24 22 25 23 26 81 27 24 28 80 29 25 30 26 31 27 32 74 33
REMARK SMILES IDX 28 34 79 35 73 36 75 37 29 38 78 39 72 40 71 41 30 43 60 44
REMARK SMILES IDX 41 45 59 46 42 47 45 48 58 49 76 50 43 51 44 52 57 54 77 55
REMARK SMILES IDX 46 56 31 57 32 58 40 59 33 60 39 61 34 62 35 63 36 64 37 65
REMARK SMILES IDX 38 66 61 67 62 68 70 69 63 70 69 71 64 72 65 73 66 74 67 75
REMARK SMILES IDX 68 76 47 77 48 78 56 79 49 80 55 81 50 82 51 83 52 84 53 85
REMARK SMILES IDX 54 86
REMARK H PARENT 75 42 45 53
REMARK Flexibility Score: inf
ROOT
ATOM      1  C   UNL A   1      33.050  34.973  28.771  1.00  0.00     0.274 C 
ENDROOT
BRANCH   1   2
ATOM      2  O   UNL A   1      33.036  34.673  30.179  1.00  0.00    -0.462 OA
BRANCH   2   3
ATOM      3  C   UNL A   1      32.972  35.731  31.029  1.00  0.00     0.313 C 
ATOM      4  O   UNL A   1      32.637  36.863  30.694  1.00  0.00    -0.252 OA
BRANCH   3   5
ATOM      5  C   UNL A   1      33.411  35.407  32.451  1.00  0.00     0.126 C 
ATOM      6  C   UNL A   1      33.517  36.698  33.262  1.00  0.00     0.025 C 
BRANCH   5   7
ATOM      7  C   UNL A   1      34.647  34.532  32.592  1.00  0.00    -0.034 A 
ATOM      8  C   UNL A   1      36.920  32.849  32.904  1.00  0.00    -0.018 A 
ATOM      9  C   UNL A   1      37.049  34.246  32.847  1.00  0.00     0.009 A 
ATOM     10  C   UNL A   1      35.632  32.309  32.783  1.00  0.00     0.009 A 
ATOM     11  C   UNL A   1      35.933  35.075  32.701  1.00  0.00     0.005 A 
ATOM     12  C   UNL A   1      34.512  33.136  32.630  1.00  0.00     0.005 A 
BRANCH   8  13
ATOM     13  C   UNL A   1      38.094  31.988  33.118  1.00  0.00    -0.018 A 
ATOM     14  C   UNL A   1      39.210  29.810  32.972  1.00  0.00    -0.026 A 
ATOM     15  C   UNL A   1      40.341  30.357  33.586  1.00  0.00     0.008 A 
ATOM     16  C   UNL A   1      38.090  30.629  32.753  1.00  0.00     0.016 A 
ATOM     17  C   UNL A   1      40.368  31.702  33.952  1.00  0.00     0.001 A 
ATOM     18  C   UNL A   1      39.254  32.508  33.718  1.00  0.00     0.009 A 
BRANCH  14  19
ATOM     19  C   UNL A   1      39.214  28.380  32.637  1.00  0.00     0.000 C 
ATOM     20  C   UNL A   1      38.218  27.754  31.998  1.00  0.00     0.009 C 
ENDBRANCH  14  19
ENDBRANCH   8  13
ENDBRANCH   5   7
ENDBRANCH   3   5
ENDBRANCH   2   3
ENDBRANCH   1   2
BRANCH   1  21
ATOM     21  C   UNL A   1      33.256  33.706  27.941  1.00  0.00     0.275 C 
BRANCH  21  22
ATOM     22  O   UNL A   1      33.973  32.708  28.689  1.00  0.00    -0.458 OA
BRANCH  22  23
ATOM     23  C   UNL A   1      34.323  31.604  27.991  1.00  0.00     0.338 C 
ATOM     24  O   UNL A   1      33.634  30.964  27.218  1.00  0.00    -0.246 OA
BRANCH  23  25
ATOM     25  C   UNL A   1      35.734  31.301  28.249  1.00  0.00     0.060 A 
ATOM     26  C   UNL A   1      36.302  30.161  27.673  1.00  0.00     0.016 A 
ATOM     27  C   UNL A   1      36.465  32.099  29.127  1.00  0.00     0.016 A 
ATOM     28  C   UNL A   1      37.613  29.804  27.985  1.00  0.00     0.010 A 
ATOM     29  C   UNL A   1      37.780  31.746  29.429  1.00  0.00     0.010 A 
ATOM     30  C   UNL A   1      38.357  30.591  28.872  1.00  0.00    -0.014 A 
BRANCH  30  31
ATOM     31  C   UNL A   1      39.726  30.200  29.276  1.00  0.00     0.031 A 
ATOM     32  C   UNL A   1      40.639  31.232  29.870  1.00  0.00     0.074 A 
ATOM     33  C   UNL A   1      40.161  28.945  29.059  1.00  0.00     0.049 A 
ATOM     34  N   UNL A   1      41.924  31.167  30.093  1.00  0.00    -0.248 NA
ATOM     35  C   UNL A   1      40.021  32.512  30.256  1.00  0.00     0.031 C 
ATOM     36  C   UNL A   1      39.348  27.843  28.541  1.00  0.00     0.029 A 
ATOM     37  N   UNL A   1      41.407  28.394  29.224  1.00  0.00    -0.354 N 
ATOM     38  C   UNL A   1      42.280  32.407  30.611  1.00  0.00     0.074 A 
ATOM     39  C   UNL A   1      41.073  33.204  30.669  1.00  0.00     0.031 C 
ATOM     40  C   UNL A   1      40.122  26.752  28.414  1.00  0.00     0.029 A 
ATOM     41  C   UNL A   1      41.492  27.095  28.784  1.00  0.00     0.049 A 
ATOM     42  H   UNL A   1      42.166  28.883  29.619  1.00  0.00     0.167 HD
ATOM     43  C   UNL A   1      43.504  32.840  30.993  1.00  0.00     0.031 A 
ATOM     44  C   UNL A   1      42.563  26.288  28.649  1.00  0.00     0.031 A 
ATOM     45  C   UNL A   1      44.696  32.036  30.928  1.00  0.00     0.049 A 
ATOM     46  C   UNL A   1      43.925  26.810  29.020  1.00  0.00     0.074 A 
ATOM     47  C   UNL A   1      45.987  32.379  31.286  1.00  0.00     0.029 A 
ATOM     48  N   UNL A   1      44.739  30.725  30.476  1.00  0.00    -0.354 N 
ATOM     49  N   UNL A   1      44.253  27.993  29.485  1.00  0.00    -0.248 NA
ATOM     50  C   UNL A   1      45.060  25.894  28.844  1.00  0.00     0.031 C 
ATOM     51  C   UNL A   1      46.819  31.288  31.014  1.00  0.00     0.029 A 
ATOM     52  C   UNL A   1      46.036  30.248  30.535  1.00  0.00     0.049 A 
ATOM     53  H   UNL A   1      43.961  30.211  30.162  1.00  0.00     0.167 HD
ATOM     54  C   UNL A   1      45.629  27.952  29.685  1.00  0.00     0.074 A 
ATOM     55  C   UNL A   1      46.070  26.630  29.292  1.00  0.00     0.031 C 
ATOM     56  C   UNL A   1      46.450  28.921  30.156  1.00  0.00     0.031 A 
BRANCH  43  57
ATOM     57  C   UNL A   1      43.621  34.261  31.470  1.00  0.00    -0.014 A 
ATOM     58  C   UNL A   1      43.948  35.305  30.586  1.00  0.00     0.010 A 
ATOM     59  C   UNL A   1      43.373  34.561  32.822  1.00  0.00     0.010 A 
ATOM     60  C   UNL A   1      44.064  36.617  31.055  1.00  0.00     0.020 A 
ATOM     61  C   UNL A   1      43.465  35.874  33.290  1.00  0.00     0.020 A 
ATOM     62  C   UNL A   1      43.829  36.893  32.405  1.00  0.00     0.054 A 
BRANCH  62  63
ATOM     63  S   UNL A   1      43.976  38.604  32.987  1.00  0.00     0.124 S 
ATOM     64  O   UNL A   1      42.828  38.717  33.883  1.00  0.00    -0.237 OA
ATOM     65  O   UNL A   1      45.284  38.611  33.640  1.00  0.00    -0.237 OA
ATOM     66  O   UNL A   1      43.892  39.396  31.762  1.00  0.00    -0.744 OA
ENDBRANCH  62  63
ENDBRANCH  43  57
BRANCH  44  67
ATOM     67  C   UNL A   1      42.390  24.916  28.104  1.00  0.00    -0.014 A 
ATOM     68  C   UNL A   1      42.352  24.699  26.716  1.00  0.00     0.010 A 
ATOM     69  C   UNL A   1      42.284  23.813  28.972  1.00  0.00     0.010 A 
ATOM     70  C   UNL A   1      42.202  23.406  26.205  1.00  0.00     0.020 A 
ATOM     71  C   UNL A   1      42.159  22.517  28.465  1.00  0.00     0.020 A 
ATOM     72  C   UNL A   1      42.108  22.322  27.084  1.00  0.00     0.054 A 
BRANCH  72  73
ATOM     73  S   UNL A   1      41.973  20.647  26.401  1.00  0.00     0.124 S 
ATOM     74  O   UNL A   1      42.971  20.672  25.336  1.00  0.00    -0.237 OA
ATOM     75  O   UNL A   1      42.298  19.807  27.551  1.00  0.00    -0.237 OA
ATOM     76  O   UNL A   1      40.584  20.570  25.957  1.00  0.00    -0.744 OA
ENDBRANCH  72  73
ENDBRANCH  44  67
BRANCH  56  77
ATOM     77  C   UNL A   1      47.904  28.580  30.330  1.00  0.00    -0.014 A 
ATOM     78  C   UNL A   1      48.372  27.957  31.500  1.00  0.00     0.010 A 
ATOM     79  C   UNL A   1      48.794  28.801  29.262  1.00  0.00     0.010 A 
ATOM     80  C   UNL A   1      49.710  27.568  31.601  1.00  0.00     0.020 A 
ATOM     81  C   UNL A   1      50.126  28.396  29.353  1.00  0.00     0.020 A 
ATOM     82  C   UNL A   1      50.579  27.786  30.525  1.00  0.00     0.054 A 
BRANCH  82  83
ATOM     83  S   UNL A   1      52.291  27.199  30.648  1.00  0.00     0.124 S 
ATOM     84  O   UNL A   1      53.042  28.349  30.152  1.00  0.00    -0.237 OA
ATOM     85  O   UNL A   1      52.435  26.921  32.075  1.00  0.00    -0.237 OA
ATOM     86  O   UNL A   1      52.314  26.019  29.786  1.00  0.00    -0.744 OA
ENDBRANCH  82  83
ENDBRANCH  56  77
ENDBRANCH  30  31
ENDBRANCH  23  25
ENDBRANCH  22  23
ENDBRANCH  21  22
ENDBRANCH   1  21
TORSDOF 17
ENDMDL
MODEL 3
REMARK VINA RESULT:      -8.9      3.445     10.885
REMARK SMILES C=Cc1cccc(-c2ccc([C@@H](C)C(=O)OCCOC(=O)c3ccc(-c4c5nc(c(-c6ccc(S(=O)(=O)[O-])cc6)c6ccc([nH]6)c(-c6ccc(S(=O)(=O)[O-])cc6)c6nc(c(-c7ccc(S(=O)(=O)[O-])cc7)c7ccc4[nH]7)C=C6)C=C5)cc3)cc2)c1
REMARK SMILES IDX 17 1 16 2 14 3 15 4 12 5 13 6 11 7 8 8 9 9 83 10 10 11 82 12
REMARK SMILES IDX 7 13 3 14 4 15 84 16 5 17 6 18 2 19 1 20 18 21 19 22 20 23
REMARK SMILES IDX 21 24 22 25 23 26 81 27 24 28 80 29 25 30 26 31 27 32 74 33
REMARK SMILES IDX 28 34 79 35 73 36 75 37 29 38 78 39 72 40 71 41 30 43 60 44
REMARK SMILES IDX 41 45 59 46 42 47 45 48 58 49 76 50 43 51 44 52 57 54 77 55
REMARK SMILES IDX 46 56 31 57 32 58 40 59 33 60 39 61 34 62 35 63 36 64 37 65
REMARK SMILES IDX 38 66 61 67 62 68 70 69 63 70 69 71 64 72 65 73 66 74 67 75
REMARK SMILES IDX 68 76 47 77 48 78 56 79 49 80 55 81 50 82 51 83 52 84 53 85
REMARK SMILES IDX 54 86
REMARK H PARENT 75 42 45 53
REMARK Flexibility Score: inf
ROOT
ATOM      1  C   UNL A   1      41.057  19.672  26.355  1.00  0.00     0.274 C 
ENDROOT
BRANCH   1   2
ATOM      2  O   UNL A   1      42.184  20.452  26.797  1.00  0.00    -0.462 OA
BRANCH   2   3
ATOM      3  C   UNL A   1      42.977  20.982  25.829  1.00  0.00     0.313 C 
ATOM      4  O   UNL A   1      43.559  20.318  24.978  1.00  0.00    -0.252 OA
BRANCH   3   5
ATOM      5  C   UNL A   1      43.134  22.495  25.919  1.00  0.00     0.126 C 
ATOM      6  C   UNL A   1      44.019  22.988  24.776  1.00  0.00     0.025 C 
BRANCH   5   7
ATOM      7  C   UNL A   1      43.569  23.047  27.268  1.00  0.00    -0.034 A 
ATOM      8  C   UNL A   1      44.322  24.128  29.790  1.00  0.00    -0.018 A 
ATOM      9  C   UNL A   1      45.279  23.845  28.803  1.00  0.00     0.009 A 
ATOM     10  C   UNL A   1      42.981  23.842  29.498  1.00  0.00     0.009 A 
ATOM     11  C   UNL A   1      44.911  23.320  27.561  1.00  0.00     0.005 A 
ATOM     12  C   UNL A   1      42.609  23.310  28.257  1.00  0.00     0.005 A 
BRANCH   8  13
ATOM     13  C   UNL A   1      44.713  24.735  31.073  1.00  0.00    -0.018 A 
ATOM     14  C   UNL A   1      45.633  26.603  32.367  1.00  0.00    -0.026 A 
ATOM     15  C   UNL A   1      45.499  25.848  33.537  1.00  0.00     0.008 A 
ATOM     16  C   UNL A   1      45.249  26.035  31.142  1.00  0.00     0.016 A 
ATOM     17  C   UNL A   1      44.967  24.561  33.491  1.00  0.00     0.001 A 
ATOM     18  C   UNL A   1      44.578  24.012  32.270  1.00  0.00     0.009 A 
BRANCH  14  19
ATOM     19  C   UNL A   1      46.231  27.941  32.459  1.00  0.00     0.000 C 
ATOM     20  C   UNL A   1      45.598  29.017  32.941  1.00  0.00     0.009 C 
ENDBRANCH  14  19
ENDBRANCH   8  13
ENDBRANCH   5   7
ENDBRANCH   3   5
ENDBRANCH   2   3
ENDBRANCH   1   2
BRANCH   1  21
ATOM     21  C   UNL A   1      39.893  20.574  25.944  1.00  0.00     0.275 C 
BRANCH  21  22
ATOM     22  O   UNL A   1      39.819  21.740  26.783  1.00  0.00    -0.458 OA
BRANCH  22  23
ATOM     23  C   UNL A   1      38.920  22.674  26.396  1.00  0.00     0.338 C 
ATOM     24  O   UNL A   1      37.845  22.492  25.858  1.00  0.00    -0.246 OA
BRANCH  23  25
ATOM     25  C   UNL A   1      39.408  24.000  26.790  1.00  0.00     0.060 A 
ATOM     26  C   UNL A   1      40.109  24.772  25.859  1.00  0.00     0.016 A 
ATOM     27  C   UNL A   1      39.242  24.437  28.103  1.00  0.00     0.016 A 
ATOM     28  C   UNL A   1      40.663  25.991  26.244  1.00  0.00     0.010 A 
ATOM     29  C   UNL A   1      39.788  25.663  28.483  1.00  0.00     0.010 A 
ATOM     30  C   UNL A   1      40.513  26.439  27.562  1.00  0.00    -0.014 A 
BRANCH  30  31
ATOM     31  C   UNL A   1      41.149  27.696  28.018  1.00  0.00     0.031 A 
ATOM     32  C   UNL A   1      42.645  27.807  28.011  1.00  0.00     0.074 A 
ATOM     33  C   UNL A   1      40.390  28.704  28.486  1.00  0.00     0.049 A 
ATOM     34  N   UNL A   1      43.409  28.714  28.557  1.00  0.00    -0.248 NA
ATOM     35  C   UNL A   1      43.378  26.746  27.299  1.00  0.00     0.031 C 
ATOM     36  C   UNL A   1      38.927  28.734  28.490  1.00  0.00     0.029 A 
ATOM     37  N   UNL A   1      40.752  29.890  29.074  1.00  0.00    -0.354 N 
ATOM     38  C   UNL A   1      44.714  28.319  28.289  1.00  0.00     0.074 A 
ATOM     39  C   UNL A   1      44.638  27.089  27.531  1.00  0.00     0.031 C 
ATOM     40  C   UNL A   1      38.515  29.874  29.070  1.00  0.00     0.029 A 
ATOM     41  C   UNL A   1      39.681  30.622  29.530  1.00  0.00     0.049 A 
ATOM     42  H   UNL A   1      41.687  30.187  29.162  1.00  0.00     0.167 HD
ATOM     43  C   UNL A   1      45.868  28.926  28.653  1.00  0.00     0.031 A 
ATOM     44  C   UNL A   1      39.646  31.744  30.274  1.00  0.00     0.031 A 
ATOM     45  C   UNL A   1      45.929  30.148  29.408  1.00  0.00     0.049 A 
ATOM     46  C   UNL A   1      40.940  32.368  30.722  1.00  0.00     0.074 A 
ATOM     47  C   UNL A   1      47.046  30.844  29.833  1.00  0.00     0.029 A 
ATOM     48  N   UNL A   1      44.822  30.858  29.850  1.00  0.00    -0.354 N 
ATOM     49  N   UNL A   1      42.169  31.972  30.485  1.00  0.00    -0.248 NA
ATOM     50  C   UNL A   1      40.845  33.584  31.542  1.00  0.00     0.031 C 
ATOM     51  C   UNL A   1      46.615  31.956  30.565  1.00  0.00     0.029 A 
ATOM     52  C   UNL A   1      45.228  31.978  30.552  1.00  0.00     0.049 A 
ATOM     53  H   UNL A   1      43.886  30.602  29.686  1.00  0.00     0.167 HD
ATOM     54  C   UNL A   1      42.993  32.907  31.100  1.00  0.00     0.074 A 
ATOM     55  C   UNL A   1      42.125  33.888  31.719  1.00  0.00     0.031 C 
ATOM     56  C   UNL A   1      44.346  32.952  31.145  1.00  0.00     0.031 A 
BRANCH  43  57
ATOM     57  C   UNL A   1      47.158  28.248  28.277  1.00  0.00    -0.014 A 
ATOM     58  C   UNL A   1      47.820  28.551  27.073  1.00  0.00     0.010 A 
ATOM     59  C   UNL A   1      47.730  27.311  29.156  1.00  0.00     0.010 A 
ATOM     60  C   UNL A   1      49.010  27.899  26.738  1.00  0.00     0.020 A 
ATOM     61  C   UNL A   1      48.932  26.674  28.836  1.00  0.00     0.020 A 
ATOM     62  C   UNL A   1      49.555  26.960  27.618  1.00  0.00     0.054 A 
BRANCH  62  63
ATOM     63  S   UNL A   1      51.105  26.133  27.166  1.00  0.00     0.124 S 
ATOM     64  O   UNL A   1      50.724  24.725  27.230  1.00  0.00    -0.237 OA
ATOM     65  O   UNL A   1      51.368  26.653  25.826  1.00  0.00    -0.237 OA
ATOM     66  O   UNL A   1      52.046  26.573  28.195  1.00  0.00    -0.744 OA
ENDBRANCH  62  63
ENDBRANCH  43  57
BRANCH  44  67
ATOM     67  C   UNL A   1      38.336  32.326  30.673  1.00  0.00    -0.014 A 
ATOM     68  C   UNL A   1      37.740  31.971  31.895  1.00  0.00     0.010 A 
ATOM     69  C   UNL A   1      37.687  33.255  29.840  1.00  0.00     0.010 A 
ATOM     70  C   UNL A   1      36.515  32.528  32.273  1.00  0.00     0.020 A 
ATOM     71  C   UNL A   1      36.475  33.834  30.225  1.00  0.00     0.020 A 
ATOM     72  C   UNL A   1      35.891  33.458  31.436  1.00  0.00     0.054 A 
BRANCH  72  73
ATOM     73  S   UNL A   1      34.331  34.214  31.972  1.00  0.00     0.124 S 
ATOM     74  O   UNL A   1      33.776  33.182  32.842  1.00  0.00    -0.237 OA
ATOM     75  O   UNL A   1      34.781  35.431  32.643  1.00  0.00    -0.237 OA
ATOM     76  O   UNL A   1      33.610  34.434  30.721  1.00  0.00    -0.744 OA
ENDBRANCH  72  73
ENDBRANCH  44  67
BRANCH  56  77
ATOM     77  C   UNL A   1      44.984  34.124  31.836  1.00  0.00    -0.014 A 
ATOM     78  C   UNL A   1      45.344  34.064  33.193  1.00  0.00     0.010 A 
ATOM     79  C   UNL A   1      45.312  35.269  31.085  1.00  0.00     0.010 A 
ATOM     80  C   UNL A   1      46.017  35.134  33.790  1.00  0.00     0.020 A 
ATOM     81  C   UNL A   1      46.001  36.330  31.673  1.00  0.00     0.020 A 
ATOM     82  C   UNL A   1      46.345  36.259  33.025  1.00  0.00     0.054 A 
BRANCH  82  83
ATOM     83  S   UNL A   1      47.290  37.600  33.800  1.00  0.00     0.124 S 
ATOM     84  O   UNL A   1      48.494  37.639  32.974  1.00  0.00    -0.237 OA
ATOM     85  O   UNL A   1      46.395  38.747  33.661  1.00  0.00    -0.237 OA
ATOM     86  O   UNL A   1      47.488  37.136  35.171  1.00  0.00    -0.744 OA
ENDBRANCH  82  83
ENDBRANCH  56  77
ENDBRANCH  30  31
ENDBRANCH  23  25
ENDBRANCH  22  23
ENDBRANCH  21  22
ENDBRANCH   1  21
TORSDOF 17
ENDMDL
