MODEL 1
REMARK VINA RESULT:      -8.8      0.000      0.000
REMARK SMILES O=C(Cc1cccc(-c2ccn(C(F)F)c(=O)c2)c1)OCCOC(=O)c1ccc(-c2c3nc(c(-c4ccc(S(=O)(=O)[O-])cc4)c4ccc([nH]4)c(-c4ccc(S(=O)(=O)[O-])cc4)c4nc(c(-c5ccc(S(=O)(=O)[O-])cc5)c5ccc2[nH]5)C=C4)C=C3)cc1
REMARK SMILES IDX 21 1 20 2 2 3 1 4 3 5 4 6 5 7 19 8 6 9 8 10 7 11 9 12 10 13
REMARK SMILES IDX 18 14 11 15 16 16 12 17 17 18 13 19 14 20 15 21 22 22 23 23
REMARK SMILES IDX 24 24 25 25 26 26 27 27 85 28 28 29 84 30 29 31 30 32 31 33
REMARK SMILES IDX 78 34 32 35 83 36 77 37 79 38 33 39 82 40 76 41 75 42 34 44
REMARK SMILES IDX 64 45 45 46 63 47 46 48 49 49 62 50 80 51 47 52 48 53 61 55
REMARK SMILES IDX 81 56 50 57 35 58 36 59 44 60 37 61 43 62 38 63 39 64 40 65
REMARK SMILES IDX 41 66 42 67 65 68 66 69 74 70 67 71 73 72 68 73 69 74 70 75
REMARK SMILES IDX 71 76 72 77 51 78 52 79 60 80 53 81 59 82 54 83 55 84 56 85
REMARK SMILES IDX 57 86 58 87
REMARK H PARENT 79 43 49 54
REMARK Flexibility Score: inf
ROOT
ATOM      1  C   UNL A   1      34.945  33.448  28.307  1.00  0.00     0.274 C 
ENDROOT
BRANCH   1   2
ATOM      2  O   UNL A   1      35.240  33.068  29.666  1.00  0.00    -0.462 OA
BRANCH   2   3
ATOM      3  C   UNL A   1      34.523  33.436  30.754  1.00  0.00     0.310 C 
ATOM      4  O   UNL A   1      33.659  34.306  30.649  1.00  0.00    -0.252 OA
BRANCH   3   5
ATOM      5  C   UNL A   1      34.788  32.757  32.082  1.00  0.00     0.158 C 
BRANCH   5   6
ATOM      6  C   UNL A   1      36.153  33.029  32.645  1.00  0.00    -0.036 A 
ATOM      7  C   UNL A   1      36.569  34.325  32.969  1.00  0.00     0.004 A 
ATOM      8  C   UNL A   1      37.015  31.958  32.890  1.00  0.00     0.013 A 
ATOM      9  C   UNL A   1      37.843  34.545  33.494  1.00  0.00     0.001 A 
ATOM     10  C   UNL A   1      38.290  32.167  33.425  1.00  0.00    -0.018 A 
ATOM     11  C   UNL A   1      38.705  33.469  33.719  1.00  0.00     0.009 A 
BRANCH  10  12
ATOM     12  C   UNL A   1      39.119  30.978  33.680  1.00  0.00    -0.011 A 
ATOM     13  C   UNL A   1      40.379  31.060  34.397  1.00  0.00     0.027 A 
ATOM     14  C   UNL A   1      38.772  29.821  33.092  1.00  0.00     0.080 A 
ATOM     15  C   UNL A   1      41.234  30.033  34.381  1.00  0.00     0.095 A 
ATOM     16  C   UNL A   1      39.677  28.640  33.148  1.00  0.00     0.255 A 
ATOM     17  N   UNL A   1      40.910  28.852  33.743  1.00  0.00    -0.258 N 
ATOM     18  O   UNL A   1      39.294  27.583  32.662  1.00  0.00    -0.269 OA
BRANCH  17  19
ATOM     19  C   UNL A   1      41.863  27.777  33.668  1.00  0.00     0.451 C 
ATOM     20  F   UNL A   1      42.278  27.575  32.395  1.00  0.00    -0.185 F 
ATOM     21  F   UNL A   1      42.948  28.026  34.438  1.00  0.00    -0.185 F 
ENDBRANCH  17  19
ENDBRANCH  10  12
ENDBRANCH   5   6
ENDBRANCH   3   5
ENDBRANCH   2   3
ENDBRANCH   1   2
BRANCH   1  22
ATOM     22  C   UNL A   1      33.904  32.525  27.673  1.00  0.00     0.275 C 
BRANCH  22  23
ATOM     23  O   UNL A   1      33.855  31.270  28.374  1.00  0.00    -0.458 OA
BRANCH  23  24
ATOM     24  C   UNL A   1      34.347  30.201  27.697  1.00  0.00     0.338 C 
ATOM     25  O   UNL A   1      33.817  29.636  26.755  1.00  0.00    -0.246 OA
BRANCH  24  26
ATOM     26  C   UNL A   1      35.742  29.947  28.133  1.00  0.00     0.060 A 
ATOM     27  C   UNL A   1      36.761  30.075  27.179  1.00  0.00     0.016 A 
ATOM     28  C   UNL A   1      36.064  29.644  29.460  1.00  0.00     0.016 A 
ATOM     29  C   UNL A   1      38.094  29.867  27.541  1.00  0.00     0.010 A 
ATOM     30  C   UNL A   1      37.399  29.432  29.821  1.00  0.00     0.010 A 
ATOM     31  C   UNL A   1      38.418  29.515  28.858  1.00  0.00    -0.014 A 
BRANCH  31  32
ATOM     32  C   UNL A   1      39.793  29.064  29.189  1.00  0.00     0.031 A 
ATOM     33  C   UNL A   1      40.709  30.021  29.904  1.00  0.00     0.074 A 
ATOM     34  C   UNL A   1      40.228  27.831  28.871  1.00  0.00     0.049 A 
ATOM     35  N   UNL A   1      41.942  29.846  30.304  1.00  0.00    -0.248 NA
ATOM     36  C   UNL A   1      40.157  31.352  30.208  1.00  0.00     0.031 C 
ATOM     37  C   UNL A   1      39.442  26.797  28.200  1.00  0.00     0.029 A 
ATOM     38  N   UNL A   1      41.454  27.244  29.074  1.00  0.00    -0.354 N 
ATOM     39  C   UNL A   1      42.311  31.037  30.915  1.00  0.00     0.074 A 
ATOM     40  C   UNL A   1      41.186  31.941  30.799  1.00  0.00     0.031 C 
ATOM     41  C   UNL A   1      40.208  25.702  28.042  1.00  0.00     0.029 A 
ATOM     42  C   UNL A   1      41.542  25.963  28.583  1.00  0.00     0.049 A 
ATOM     43  H   UNL A   1      42.198  27.698  29.530  1.00  0.00     0.167 HD
ATOM     44  C   UNL A   1      43.475  31.354  31.529  1.00  0.00     0.031 A 
ATOM     45  C   UNL A   1      42.582  25.105  28.567  1.00  0.00     0.031 A 
ATOM     46  C   UNL A   1      44.608  30.476  31.625  1.00  0.00     0.049 A 
ATOM     47  C   UNL A   1      43.898  25.509  29.184  1.00  0.00     0.074 A 
ATOM     48  C   UNL A   1      45.827  30.709  32.238  1.00  0.00     0.029 A 
ATOM     49  N   UNL A   1      44.669  29.202  31.083  1.00  0.00    -0.354 N 
ATOM     50  N   UNL A   1      44.214  26.623  29.800  1.00  0.00    -0.248 NA
ATOM     51  C   UNL A   1      44.995  24.531  29.110  1.00  0.00     0.031 C 
ATOM     52  C   UNL A   1      46.643  29.593  32.024  1.00  0.00     0.029 A 
ATOM     53  C   UNL A   1      45.914  28.647  31.323  1.00  0.00     0.049 A 
ATOM     54  H   UNL A   1      43.935  28.759  30.598  1.00  0.00     0.167 HD
ATOM     55  C   UNL A   1      45.534  26.466  30.214  1.00  0.00     0.074 A 
ATOM     56  C   UNL A   1      45.956  25.149  29.785  1.00  0.00     0.031 C 
ATOM     57  C   UNL A   1      46.323  27.333  30.896  1.00  0.00     0.031 A 
BRANCH  44  58
ATOM     58  C   UNL A   1      43.580  32.729  32.126  1.00  0.00    -0.014 A 
ATOM     59  C   UNL A   1      44.069  33.809  31.366  1.00  0.00     0.010 A 
ATOM     60  C   UNL A   1      43.175  32.948  33.454  1.00  0.00     0.010 A 
ATOM     61  C   UNL A   1      44.188  35.076  31.940  1.00  0.00     0.020 A 
ATOM     62  C   UNL A   1      43.272  34.220  34.024  1.00  0.00     0.020 A 
ATOM     63  C   UNL A   1      43.796  35.272  33.268  1.00  0.00     0.054 A 
BRANCH  63  64
ATOM     64  S   UNL A   1      43.959  36.927  33.990  1.00  0.00     0.124 S 
ATOM     65  O   UNL A   1      45.343  36.915  34.458  1.00  0.00    -0.237 OA
ATOM     66  O   UNL A   1      43.690  37.803  32.852  1.00  0.00    -0.237 OA
ATOM     67  O   UNL A   1      42.946  36.948  35.041  1.00  0.00    -0.744 OA
ENDBRANCH  63  64
ENDBRANCH  44  58
BRANCH  45  68
ATOM     68  C   UNL A   1      42.435  23.765  27.936  1.00  0.00    -0.014 A 
ATOM     69  C   UNL A   1      41.900  22.687  28.662  1.00  0.00     0.010 A 
ATOM     70  C   UNL A   1      42.868  23.553  26.614  1.00  0.00     0.010 A 
ATOM     71  C   UNL A   1      41.828  21.413  28.088  1.00  0.00     0.020 A 
ATOM     72  C   UNL A   1      42.776  22.286  26.029  1.00  0.00     0.020 A 
ATOM     73  C   UNL A   1      42.273  21.220  26.777  1.00  0.00     0.054 A 
BRANCH  73  74
ATOM     74  S   UNL A   1      42.163  19.563  26.047  1.00  0.00     0.124 S 
ATOM     75  O   UNL A   1      42.615  18.719  27.148  1.00  0.00    -0.237 OA
ATOM     76  O   UNL A   1      40.746  19.458  25.709  1.00  0.00    -0.237 OA
ATOM     77  O   UNL A   1      43.069  19.636  24.903  1.00  0.00    -0.744 OA
ENDBRANCH  73  74
ENDBRANCH  45  68
BRANCH  57  78
ATOM     78  C   UNL A   1      47.714  26.882  31.258  1.00  0.00    -0.014 A 
ATOM     79  C   UNL A   1      47.944  26.040  32.359  1.00  0.00     0.010 A 
ATOM     80  C   UNL A   1      48.797  27.251  30.438  1.00  0.00     0.010 A 
ATOM     81  C   UNL A   1      49.237  25.593  32.647  1.00  0.00     0.020 A 
ATOM     82  C   UNL A   1      50.086  26.786  30.709  1.00  0.00     0.020 A 
ATOM     83  C   UNL A   1      50.301  25.968  31.819  1.00  0.00     0.054 A 
BRANCH  83  84
ATOM     84  S   UNL A   1      51.961  25.327  32.178  1.00  0.00     0.124 S 
ATOM     85  O   UNL A   1      51.715  23.892  32.289  1.00  0.00    -0.237 OA
ATOM     86  O   UNL A   1      52.729  25.745  31.008  1.00  0.00    -0.237 OA
ATOM     87  O   UNL A   1      52.327  25.995  33.426  1.00  0.00    -0.744 OA
ENDBRANCH  83  84
ENDBRANCH  57  78
ENDBRANCH  31  32
ENDBRANCH  24  26
ENDBRANCH  23  24
ENDBRANCH  22  23
ENDBRANCH   1  22
TORSDOF 17
ENDMDL
MODEL 2
REMARK VINA RESULT:      -8.7      5.055     12.013
REMARK SMILES O=C(Cc1cccc(-c2ccn(C(F)F)c(=O)c2)c1)OCCOC(=O)c1ccc(-c2c3nc(c(-c4ccc(S(=O)(=O)[O-])cc4)c4ccc([nH]4)c(-c4ccc(S(=O)(=O)[O-])cc4)c4nc(c(-c5ccc(S(=O)(=O)[O-])cc5)c5ccc2[nH]5)C=C4)C=C3)cc1
REMARK SMILES IDX 21 1 20 2 2 3 1 4 3 5 4 6 5 7 19 8 6 9 8 10 7 11 9 12 10 13
REMARK SMILES IDX 18 14 11 15 16 16 12 17 17 18 13 19 14 20 15 21 22 22 23 23
REMARK SMILES IDX 24 24 25 25 26 26 27 27 85 28 28 29 84 30 29 31 30 32 31 33
REMARK SMILES IDX 78 34 32 35 83 36 77 37 79 38 33 39 82 40 76 41 75 42 34 44
REMARK SMILES IDX 64 45 45 46 63 47 46 48 49 49 62 50 80 51 47 52 48 53 61 55
REMARK SMILES IDX 81 56 50 57 35 58 36 59 44 60 37 61 43 62 38 63 39 64 40 65
REMARK SMILES IDX 41 66 42 67 65 68 66 69 74 70 67 71 73 72 68 73 69 74 70 75
REMARK SMILES IDX 71 76 72 77 51 78 52 79 60 80 53 81 59 82 54 83 55 84 56 85
REMARK SMILES IDX 57 86 58 87
REMARK H PARENT 79 43 49 54
REMARK Flexibility Score: inf
ROOT
ATOM      1  C   UNL A   1      43.427  22.006  26.051  1.00  0.00     0.274 C 
ENDROOT
BRANCH   1   2
ATOM      2  O   UNL A   1      42.501  20.958  25.703  1.00  0.00    -0.462 OA
BRANCH   2   3
ATOM      3  C   UNL A   1      41.587  20.413  26.541  1.00  0.00     0.310 C 
ATOM      4  O   UNL A   1      41.900  20.162  27.705  1.00  0.00    -0.252 OA
BRANCH   3   5
ATOM      5  C   UNL A   1      40.186  20.137  26.033  1.00  0.00     0.158 C 
BRANCH   5   6
ATOM      6  C   UNL A   1      39.300  21.349  26.000  1.00  0.00    -0.036 A 
ATOM      7  C   UNL A   1      39.690  22.560  26.579  1.00  0.00     0.004 A 
ATOM      8  C   UNL A   1      38.072  21.276  25.339  1.00  0.00     0.013 A 
ATOM      9  C   UNL A   1      38.845  23.669  26.529  1.00  0.00     0.001 A 
ATOM     10  C   UNL A   1      37.222  22.385  25.275  1.00  0.00    -0.018 A 
ATOM     11  C   UNL A   1      37.611  23.582  25.881  1.00  0.00     0.009 A 
BRANCH  10  12
ATOM     12  C   UNL A   1      35.962  22.228  24.531  1.00  0.00    -0.011 A 
ATOM     13  C   UNL A   1      35.587  23.130  23.457  1.00  0.00     0.027 A 
ATOM     14  C   UNL A   1      35.072  21.323  24.969  1.00  0.00     0.080 A 
ATOM     15  C   UNL A   1      34.336  23.136  22.984  1.00  0.00     0.095 A 
ATOM     16  C   UNL A   1      33.704  21.258  24.384  1.00  0.00     0.255 A 
ATOM     17  N   UNL A   1      33.397  22.241  23.457  1.00  0.00    -0.258 N 
ATOM     18  O   UNL A   1      32.944  20.374  24.760  1.00  0.00    -0.269 OA
BRANCH  17  19
ATOM     19  C   UNL A   1      32.036  22.299  22.996  1.00  0.00     0.451 C 
ATOM     20  F   UNL A   1      31.579  23.574  22.968  1.00  0.00    -0.185 F 
ATOM     21  F   UNL A   1      31.913  21.774  21.754  1.00  0.00    -0.185 F 
ENDBRANCH  17  19
ENDBRANCH  10  12
ENDBRANCH   5   6
ENDBRANCH   3   5
ENDBRANCH   2   3
ENDBRANCH   1   2
BRANCH   1  22
ATOM     22  C   UNL A   1      43.128  23.301  25.294  1.00  0.00     0.275 C 
BRANCH  22  23
ATOM     23  O   UNL A   1      43.213  24.430  26.181  1.00  0.00    -0.458 OA
BRANCH  23  24
ATOM     24  C   UNL A   1      42.371  25.458  25.904  1.00  0.00     0.338 C 
ATOM     25  O   UNL A   1      41.715  25.601  24.886  1.00  0.00    -0.246 OA
BRANCH  24  26
ATOM     26  C   UNL A   1      42.195  26.287  27.122  1.00  0.00     0.060 A 
ATOM     27  C   UNL A   1      41.239  25.877  28.061  1.00  0.00     0.016 A 
ATOM     28  C   UNL A   1      42.983  27.415  27.376  1.00  0.00     0.016 A 
ATOM     29  C   UNL A   1      41.047  26.610  29.235  1.00  0.00     0.010 A 
ATOM     30  C   UNL A   1      42.788  28.150  28.550  1.00  0.00     0.010 A 
ATOM     31  C   UNL A   1      41.799  27.767  29.473  1.00  0.00    -0.014 A 
BRANCH  31  32
ATOM     32  C   UNL A   1      41.436  28.672  30.592  1.00  0.00     0.031 A 
ATOM     33  C   UNL A   1      42.233  28.590  31.867  1.00  0.00     0.074 A 
ATOM     34  C   UNL A   1      40.427  29.555  30.489  1.00  0.00     0.049 A 
ATOM     35  N   UNL A   1      42.107  29.284  32.968  1.00  0.00    -0.248 NA
ATOM     36  C   UNL A   1      43.315  27.592  31.900  1.00  0.00     0.031 C 
ATOM     37  C   UNL A   1      39.589  29.756  29.307  1.00  0.00     0.029 A 
ATOM     38  N   UNL A   1      39.935  30.451  31.406  1.00  0.00    -0.354 N 
ATOM     39  C   UNL A   1      43.098  28.816  33.822  1.00  0.00     0.074 A 
ATOM     40  C   UNL A   1      43.792  27.753  33.126  1.00  0.00     0.031 C 
ATOM     41  C   UNL A   1      38.681  30.713  29.575  1.00  0.00     0.029 A 
ATOM     42  C   UNL A   1      38.862  31.179  30.950  1.00  0.00     0.049 A 
ATOM     43  H   UNL A   1      40.316  30.562  32.307  1.00  0.00     0.167 HD
ATOM     44  C   UNL A   1      43.415  29.236  35.069  1.00  0.00     0.031 A 
ATOM     45  C   UNL A   1      38.109  32.108  31.573  1.00  0.00     0.031 A 
ATOM     46  C   UNL A   1      42.716  30.270  35.780  1.00  0.00     0.049 A 
ATOM     47  C   UNL A   1      38.429  32.502  32.994  1.00  0.00     0.074 A 
ATOM     48  C   UNL A   1      42.974  30.768  37.046  1.00  0.00     0.029 A 
ATOM     49  N   UNL A   1      41.614  30.956  35.297  1.00  0.00    -0.354 N 
ATOM     50  N   UNL A   1      39.400  32.083  33.769  1.00  0.00    -0.248 NA
ATOM     51  C   UNL A   1      37.553  33.506  33.618  1.00  0.00     0.031 C 
ATOM     52  C   UNL A   1      41.997  31.723  37.346  1.00  0.00     0.029 A 
ATOM     53  C   UNL A   1      41.163  31.854  36.248  1.00  0.00     0.049 A 
ATOM     54  H   UNL A   1      41.211  30.823  34.408  1.00  0.00     0.167 HD
ATOM     55  C   UNL A   1      39.270  32.795  34.958  1.00  0.00     0.074 A 
ATOM     56  C   UNL A   1      38.131  33.674  34.800  1.00  0.00     0.031 C 
ATOM     57  C   UNL A   1      40.031  32.729  36.080  1.00  0.00     0.031 A 
BRANCH  44  58
ATOM     58  C   UNL A   1      44.565  28.548  35.749  1.00  0.00    -0.014 A 
ATOM     59  C   UNL A   1      44.353  27.405  36.543  1.00  0.00     0.010 A 
ATOM     60  C   UNL A   1      45.872  29.039  35.583  1.00  0.00     0.010 A 
ATOM     61  C   UNL A   1      45.426  26.791  37.193  1.00  0.00     0.020 A 
ATOM     62  C   UNL A   1      46.950  28.414  36.214  1.00  0.00     0.020 A 
ATOM     63  C   UNL A   1      46.716  27.304  37.031  1.00  0.00     0.054 A 
BRANCH  63  64
ATOM     64  S   UNL A   1      48.093  26.487  37.883  1.00  0.00     0.124 S 
ATOM     65  O   UNL A   1      47.482  26.127  39.161  1.00  0.00    -0.237 OA
ATOM     66  O   UNL A   1      48.401  25.367  36.997  1.00  0.00    -0.237 OA
ATOM     67  O   UNL A   1      49.121  27.522  37.953  1.00  0.00    -0.744 OA
ENDBRANCH  63  64
ENDBRANCH  44  58
BRANCH  45  68
ATOM     68  C   UNL A   1      36.962  32.738  30.865  1.00  0.00    -0.014 A 
ATOM     69  C   UNL A   1      37.168  33.813  29.983  1.00  0.00     0.010 A 
ATOM     70  C   UNL A   1      35.649  32.288  31.102  1.00  0.00     0.010 A 
ATOM     71  C   UNL A   1      36.081  34.447  29.373  1.00  0.00     0.020 A 
ATOM     72  C   UNL A   1      34.562  32.904  30.475  1.00  0.00     0.020 A 
ATOM     73  C   UNL A   1      34.784  33.992  29.629  1.00  0.00     0.054 A 
BRANCH  73  74
ATOM     74  S   UNL A   1      33.387  34.822  28.821  1.00  0.00     0.124 S 
ATOM     75  O   UNL A   1      32.953  33.812  27.860  1.00  0.00    -0.237 OA
ATOM     76  O   UNL A   1      32.475  35.068  29.935  1.00  0.00    -0.237 OA
ATOM     77  O   UNL A   1      33.993  36.018  28.240  1.00  0.00    -0.744 OA
ENDBRANCH  73  74
ENDBRANCH  45  68
BRANCH  57  78
ATOM     78  C   UNL A   1      39.689  33.656  37.216  1.00  0.00    -0.014 A 
ATOM     79  C   UNL A   1      39.007  33.193  38.355  1.00  0.00     0.010 A 
ATOM     80  C   UNL A   1      40.120  34.995  37.173  1.00  0.00     0.010 A 
ATOM     81  C   UNL A   1      38.744  34.058  39.421  1.00  0.00     0.020 A 
ATOM     82  C   UNL A   1      39.881  35.856  38.247  1.00  0.00     0.020 A 
ATOM     83  C   UNL A   1      39.184  35.385  39.361  1.00  0.00     0.054 A 
BRANCH  83  84
ATOM     84  S   UNL A   1      38.883  36.475  40.781  1.00  0.00     0.124 S 
ATOM     85  O   UNL A   1      37.829  35.759  41.495  1.00  0.00    -0.237 OA
ATOM     86  O   UNL A   1      40.184  36.505  41.446  1.00  0.00    -0.237 OA
ATOM     87  O   UNL A   1      38.475  37.737  40.168  1.00  0.00    -0.744 OA
ENDBRANCH  83  84
ENDBRANCH  57  78
ENDBRANCH  31  32
ENDBRANCH  24  26
ENDBRANCH  23  24
ENDBRANCH  22  23
ENDBRANCH   1  22
TORSDOF 17
ENDMDL
MODEL 3
REMARK VINA RESULT:      -8.5      4.824      7.303
REMARK SMILES O=C(Cc1cccc(-c2ccn(C(F)F)c(=O)c2)c1)OCCOC(=O)c1ccc(-c2c3nc(c(-c4ccc(S(=O)(=O)[O-])cc4)c4ccc([nH]4)c(-c4ccc(S(=O)(=O)[O-])cc4)c4nc(c(-c5ccc(S(=O)(=O)[O-])cc5)c5ccc2[nH]5)C=C4)C=C3)cc1
REMARK SMILES IDX 21 1 20 2 2 3 1 4 3 5 4 6 5 7 19 8 6 9 8 10 7 11 9 12 10 13
REMARK SMILES IDX 18 14 11 15 16 16 12 17 17 18 13 19 14 20 15 21 22 22 23 23
REMARK SMILES IDX 24 24 25 25 26 26 27 27 85 28 28 29 84 30 29 31 30 32 31 33
REMARK SMILES IDX 78 34 32 35 83 36 77 37 79 38 33 39 82 40 76 41 75 42 34 44
REMARK SMILES IDX 64 45 45 46 63 47 46 48 49 49 62 50 80 51 47 52 48 53 61 55
REMARK SMILES IDX 81 56 50 57 35 58 36 59 44 60 37 61 43 62 38 63 39 64 40 65
REMARK SMILES IDX 41 66 42 67 65 68 66 69 74 70 67 71 73 72 68 73 69 74 70 75
REMARK SMILES IDX 71 76 72 77 51 78 52 79 60 80 53 81 59 82 54 83 55 84 56 85
REMARK SMILES IDX 57 86 58 87
REMARK H PARENT 79 43 49 54
REMARK Flexibility Score: inf
ROOT
ATOM      1  C   UNL A   1      31.700  28.395  26.348  1.00  0.00     0.274 C 
ENDROOT
BRANCH   1   2
ATOM      2  O   UNL A   1      31.299  27.398  25.386  1.00  0.00    -0.462 OA
BRANCH   2   3
ATOM      3  C   UNL A   1      30.997  26.110  25.676  1.00  0.00     0.310 C 
ATOM      4  O   UNL A   1      31.252  25.661  26.793  1.00  0.00    -0.252 OA
BRANCH   3   5
ATOM      5  C   UNL A   1      30.332  25.249  24.622  1.00  0.00     0.158 C 
BRANCH   5   6
ATOM      6  C   UNL A   1      31.292  24.429  23.810  1.00  0.00    -0.036 A 
ATOM      7  C   UNL A   1      32.124  25.011  22.848  1.00  0.00     0.004 A 
ATOM      8  C   UNL A   1      31.387  23.056  24.049  1.00  0.00     0.013 A 
ATOM      9  C   UNL A   1      33.008  24.221  22.111  1.00  0.00     0.001 A 
ATOM     10  C   UNL A   1      32.277  22.258  23.324  1.00  0.00    -0.018 A 
ATOM     11  C   UNL A   1      33.083  22.847  22.346  1.00  0.00     0.009 A 
BRANCH  10  12
ATOM     12  C   UNL A   1      32.334  20.828  23.665  1.00  0.00    -0.011 A 
ATOM     13  C   UNL A   1      32.700  20.368  24.992  1.00  0.00     0.027 A 
ATOM     14  C   UNL A   1      32.196  19.931  22.674  1.00  0.00     0.080 A 
ATOM     15  C   UNL A   1      33.005  19.084  25.203  1.00  0.00     0.095 A 
ATOM     16  C   UNL A   1      32.443  18.483  22.921  1.00  0.00     0.255 A 
ATOM     17  N   UNL A   1      32.912  18.158  24.183  1.00  0.00    -0.258 N 
ATOM     18  O   UNL A   1      32.239  17.688  22.011  1.00  0.00    -0.269 OA
BRANCH  17  19
ATOM     19  C   UNL A   1      33.310  16.792  24.398  1.00  0.00     0.451 C 
ATOM     20  F   UNL A   1      34.509  16.532  23.825  1.00  0.00    -0.185 F 
ATOM     21  F   UNL A   1      33.396  16.506  25.719  1.00  0.00    -0.185 F 
ENDBRANCH  17  19
ENDBRANCH  10  12
ENDBRANCH   5   6
ENDBRANCH   3   5
ENDBRANCH   2   3
ENDBRANCH   1   2
BRANCH   1  22
ATOM     22  C   UNL A   1      33.153  28.827  26.145  1.00  0.00     0.275 C 
BRANCH  22  23
ATOM     23  O   UNL A   1      33.862  28.799  27.396  1.00  0.00    -0.458 OA
BRANCH  23  24
ATOM     24  C   UNL A   1      34.386  29.985  27.800  1.00  0.00     0.338 C 
ATOM     25  O   UNL A   1      33.772  31.025  27.971  1.00  0.00    -0.246 OA
BRANCH  24  26
ATOM     26  C   UNL A   1      35.795  29.779  28.217  1.00  0.00     0.060 A 
ATOM     27  C   UNL A   1      36.798  29.985  27.261  1.00  0.00     0.016 A 
ATOM     28  C   UNL A   1      36.142  29.445  29.530  1.00  0.00     0.016 A 
ATOM     29  C   UNL A   1      38.142  29.824  27.606  1.00  0.00     0.010 A 
ATOM     30  C   UNL A   1      37.488  29.281  29.874  1.00  0.00     0.010 A 
ATOM     31  C   UNL A   1      38.494  29.442  28.907  1.00  0.00    -0.014 A 
BRANCH  31  32
ATOM     32  C   UNL A   1      39.890  29.042  29.212  1.00  0.00     0.031 A 
ATOM     33  C   UNL A   1      40.789  30.040  29.892  1.00  0.00     0.074 A 
ATOM     34  C   UNL A   1      40.360  27.821  28.902  1.00  0.00     0.049 A 
ATOM     35  N   UNL A   1      42.036  29.912  30.265  1.00  0.00    -0.248 NA
ATOM     36  C   UNL A   1      40.200  31.356  30.190  1.00  0.00     0.031 C 
ATOM     37  C   UNL A   1      39.594  26.751  28.263  1.00  0.00     0.029 A 
ATOM     38  N   UNL A   1      41.608  27.277  29.084  1.00  0.00    -0.354 N 
ATOM     39  C   UNL A   1      42.379  31.124  30.851  1.00  0.00     0.074 A 
ATOM     40  C   UNL A   1      41.222  31.988  30.749  1.00  0.00     0.031 C 
ATOM     41  C   UNL A   1      40.392  25.679  28.103  1.00  0.00     0.029 A 
ATOM     42  C   UNL A   1      41.728  25.994  28.609  1.00  0.00     0.049 A 
ATOM     43  H   UNL A   1      42.347  27.763  29.516  1.00  0.00     0.167 HD
ATOM     44  C   UNL A   1      43.545  31.488  31.433  1.00  0.00     0.031 A 
ATOM     45  C   UNL A   1      42.796  25.170  28.580  1.00  0.00     0.031 A 
ATOM     46  C   UNL A   1      44.709  30.650  31.514  1.00  0.00     0.049 A 
ATOM     47  C   UNL A   1      44.111  25.627  29.160  1.00  0.00     0.074 A 
ATOM     48  C   UNL A   1      45.934  30.933  32.096  1.00  0.00     0.029 A 
ATOM     49  N   UNL A   1      44.801  29.372  30.989  1.00  0.00    -0.354 N 
ATOM     50  N   UNL A   1      44.403  26.760  29.754  1.00  0.00    -0.248 NA
ATOM     51  C   UNL A   1      45.239  24.685  29.075  1.00  0.00     0.031 C 
ATOM     52  C   UNL A   1      46.781  29.842  31.879  1.00  0.00     0.029 A 
ATOM     53  C   UNL A   1      46.069  28.861  31.208  1.00  0.00     0.049 A 
ATOM     54  H   UNL A   1      44.071  28.897  30.528  1.00  0.00     0.167 HD
ATOM     55  C   UNL A   1      45.737  26.653  30.139  1.00  0.00     0.074 A 
ATOM     56  C   UNL A   1      46.194  25.345  29.718  1.00  0.00     0.031 C 
ATOM     57  C   UNL A   1      46.513  27.556  30.790  1.00  0.00     0.031 A 
BRANCH  44  58
ATOM     58  C   UNL A   1      43.618  32.875  32.008  1.00  0.00    -0.014 A 
ATOM     59  C   UNL A   1      43.386  33.099  33.378  1.00  0.00     0.010 A 
ATOM     60  C   UNL A   1      43.935  33.963  31.176  1.00  0.00     0.010 A 
ATOM     61  C   UNL A   1      43.428  34.396  33.896  1.00  0.00     0.020 A 
ATOM     62  C   UNL A   1      44.000  35.258  31.695  1.00  0.00     0.020 A 
ATOM     63  C   UNL A   1      43.728  35.467  33.050  1.00  0.00     0.054 A 
BRANCH  63  64
ATOM     64  S   UNL A   1      43.779  37.141  33.746  1.00  0.00     0.124 S 
ATOM     65  O   UNL A   1      44.882  37.034  34.700  1.00  0.00    -0.237 OA
ATOM     66  O   UNL A   1      44.044  37.970  32.573  1.00  0.00    -0.237 OA
ATOM     67  O   UNL A   1      42.456  37.311  34.340  1.00  0.00    -0.744 OA
ENDBRANCH  63  64
ENDBRANCH  44  58
BRANCH  45  68
ATOM     68  C   UNL A   1      42.680  23.817  27.971  1.00  0.00    -0.014 A 
ATOM     69  C   UNL A   1      42.778  23.649  26.579  1.00  0.00     0.010 A 
ATOM     70  C   UNL A   1      42.432  22.693  28.781  1.00  0.00     0.010 A 
ATOM     71  C   UNL A   1      42.601  22.387  26.004  1.00  0.00     0.020 A 
ATOM     72  C   UNL A   1      42.277  21.426  28.211  1.00  0.00     0.020 A 
ATOM     73  C   UNL A   1      42.344  21.284  26.824  1.00  0.00     0.054 A 
BRANCH  73  74
ATOM     74  S   UNL A   1      42.125  19.652  26.061  1.00  0.00     0.124 S 
ATOM     75  O   UNL A   1      42.466  18.757  27.161  1.00  0.00    -0.237 OA
ATOM     76  O   UNL A   1      40.718  19.670  25.671  1.00  0.00    -0.237 OA
ATOM     77  O   UNL A   1      43.076  19.669  24.950  1.00  0.00    -0.744 OA
ENDBRANCH  73  74
ENDBRANCH  45  68
BRANCH  57  78
ATOM     78  C   UNL A   1      47.925  27.158  31.125  1.00  0.00    -0.014 A 
ATOM     79  C   UNL A   1      48.993  27.458  30.262  1.00  0.00     0.010 A 
ATOM     80  C   UNL A   1      48.196  26.536  32.359  1.00  0.00     0.010 A 
ATOM     81  C   UNL A   1      50.304  27.124  30.617  1.00  0.00     0.020 A 
ATOM     82  C   UNL A   1      49.506  26.223  32.727  1.00  0.00     0.020 A 
ATOM     83  C   UNL A   1      50.552  26.509  31.848  1.00  0.00     0.054 A 
BRANCH  83  84
ATOM     84  S   UNL A   1      52.267  26.138  32.313  1.00  0.00     0.124 S 
ATOM     85  O   UNL A   1      52.358  24.708  32.027  1.00  0.00    -0.237 OA
ATOM     86  O   UNL A   1      53.037  27.006  31.426  1.00  0.00    -0.237 OA
ATOM     87  O   UNL A   1      52.326  26.495  33.729  1.00  0.00    -0.744 OA
ENDBRANCH  83  84
ENDBRANCH  57  78
ENDBRANCH  31  32
ENDBRANCH  24  26
ENDBRANCH  23  24
ENDBRANCH  22  23
ENDBRANCH   1  22
TORSDOF 17
ENDMDL
