MODEL 1
REMARK VINA RESULT:     -10.0      0.000      0.000
REMARK SMILES O=C(OCCOC(=O)[C@H]1CCCCN1C(=O)CSCc1ccccc1)c1ccc(-c2c3nc(c(-c4ccc(S(=O)(=O)[O-])cc4)c4ccc([nH]4)c(-c4ccc(S(=O)(=O)[O-])cc4)c4nc(c(-c5ccc(S(=O)(=O)[O-])cc5)c5ccc2[nH]5)C=C4)C=C3)cc1
REMARK SMILES IDX 5 1 4 2 3 3 2 4 1 5 26 6 27 7 85 8 28 9 84 10 29 11 30 12
REMARK SMILES IDX 31 13 78 14 32 15 83 16 77 17 79 18 33 19 82 20 76 21 75 22
REMARK SMILES IDX 34 24 64 25 45 26 63 27 46 28 49 29 62 30 80 31 47 32 48 33
REMARK SMILES IDX 61 35 81 36 50 37 35 38 36 39 44 40 37 41 43 42 38 43 39 44
REMARK SMILES IDX 40 45 41 46 42 47 65 48 66 49 74 50 67 51 73 52 68 53 69 54
REMARK SMILES IDX 70 55 71 56 72 57 51 58 52 59 60 60 53 61 59 62 54 63 55 64
REMARK SMILES IDX 56 65 57 66 58 67 6 68 7 69 8 70 9 71 10 72 14 73 11 74
REMARK SMILES IDX 13 75 12 76 15 77 16 78 17 79 18 80 19 81 20 82 21 83 25 84
REMARK SMILES IDX 22 85 24 86 23 87
REMARK H PARENT 79 23 49 34
REMARK Flexibility Score: inf
ROOT
ATOM      1  C   UNL A   1      31.474  27.954  27.555  1.00  0.00     0.274 C 
ENDROOT
BRANCH   1   2
ATOM      2  C   UNL A   1      32.256  29.204  27.137  1.00  0.00     0.275 C 
BRANCH   2   3
ATOM      3  O   UNL A   1      33.676  29.124  27.367  1.00  0.00    -0.458 OA
BRANCH   3   4
ATOM      4  C   UNL A   1      34.567  30.087  27.705  1.00  0.00     0.338 C 
ATOM      5  O   UNL A   1      34.267  31.259  27.480  1.00  0.00    -0.246 OA
BRANCH   4   6
ATOM      6  C   UNL A   1      35.955  29.806  28.204  1.00  0.00     0.060 A 
ATOM      7  C   UNL A   1      36.300  29.418  29.500  1.00  0.00     0.016 A 
ATOM      8  C   UNL A   1      36.995  29.905  27.257  1.00  0.00     0.016 A 
ATOM      9  C   UNL A   1      37.611  29.064  29.825  1.00  0.00     0.010 A 
ATOM     10  C   UNL A   1      38.313  29.547  27.576  1.00  0.00     0.010 A 
ATOM     11  C   UNL A   1      38.626  29.123  28.867  1.00  0.00    -0.014 A 
BRANCH  11  12
ATOM     12  C   UNL A   1      40.013  28.877  29.316  1.00  0.00     0.031 A 
ATOM     13  C   UNL A   1      40.619  27.541  29.020  1.00  0.00     0.074 A 
ATOM     14  C   UNL A   1      40.756  29.880  29.821  1.00  0.00     0.049 A 
ATOM     15  N   UNL A   1      41.867  27.169  29.110  1.00  0.00    -0.248 NA
ATOM     16  C   UNL A   1      39.707  26.496  28.524  1.00  0.00     0.031 C 
ATOM     17  C   UNL A   1      40.263  31.228  30.094  1.00  0.00     0.029 A 
ATOM     18  N   UNL A   1      42.082  29.942  30.163  1.00  0.00    -0.354 N 
ATOM     19  C   UNL A   1      41.898  25.865  28.637  1.00  0.00     0.074 A 
ATOM     20  C   UNL A   1      40.540  25.487  28.321  1.00  0.00     0.031 C 
ATOM     21  C   UNL A   1      41.269  31.989  30.557  1.00  0.00     0.029 A 
ATOM     22  C   UNL A   1      42.481  31.181  30.617  1.00  0.00     0.049 A 
ATOM     23  H   UNL A   1      42.693  29.173  30.093  1.00  0.00     0.167 HD
ATOM     24  C   UNL A   1      42.972  25.065  28.457  1.00  0.00     0.031 A 
ATOM     25  C   UNL A   1      43.691  31.611  31.025  1.00  0.00     0.031 A 
ATOM     26  C   UNL A   1      44.308  25.432  28.835  1.00  0.00     0.049 A 
ATOM     27  C   UNL A   1      44.852  30.655  30.923  1.00  0.00     0.074 A 
ATOM     28  C   UNL A   1      45.462  24.677  28.766  1.00  0.00     0.029 A 
ATOM     29  N   UNL A   1      44.661  26.663  29.370  1.00  0.00    -0.354 N 
ATOM     30  N   UNL A   1      44.868  29.429  30.451  1.00  0.00    -0.248 NA
ATOM     31  C   UNL A   1      46.159  31.142  31.383  1.00  0.00     0.031 C 
ATOM     32  C   UNL A   1      46.506  25.434  29.309  1.00  0.00     0.029 A 
ATOM     33  C   UNL A   1      46.014  26.684  29.656  1.00  0.00     0.049 A 
ATOM     34  H   UNL A   1      44.040  27.412  29.523  1.00  0.00     0.167 HD
ATOM     35  C   UNL A   1      46.189  29.005  30.538  1.00  0.00     0.074 A 
ATOM     36  C   UNL A   1      46.945  30.118  31.079  1.00  0.00     0.031 C 
ATOM     37  C   UNL A   1      46.731  27.807  30.205  1.00  0.00     0.031 A 
BRANCH  24  38
ATOM     38  C   UNL A   1      42.714  23.714  27.852  1.00  0.00    -0.014 A 
ATOM     39  C   UNL A   1      41.870  22.787  28.495  1.00  0.00     0.010 A 
ATOM     40  C   UNL A   1      43.332  23.354  26.643  1.00  0.00     0.010 A 
ATOM     41  C   UNL A   1      41.678  21.514  27.956  1.00  0.00     0.020 A 
ATOM     42  C   UNL A   1      43.123  22.088  26.089  1.00  0.00     0.020 A 
ATOM     43  C   UNL A   1      42.309  21.171  26.757  1.00  0.00     0.054 A 
BRANCH  43  44
ATOM     44  S   UNL A   1      42.028  19.516  26.072  1.00  0.00     0.124 S 
ATOM     45  O   UNL A   1      42.806  19.565  24.836  1.00  0.00    -0.237 OA
ATOM     46  O   UNL A   1      42.562  18.644  27.116  1.00  0.00    -0.237 OA
ATOM     47  O   UNL A   1      40.579  19.455  25.894  1.00  0.00    -0.744 OA
ENDBRANCH  43  44
ENDBRANCH  24  38
BRANCH  25  48
ATOM     48  C   UNL A   1      43.866  32.986  31.579  1.00  0.00    -0.014 A 
ATOM     49  C   UNL A   1      43.715  33.255  32.951  1.00  0.00     0.010 A 
ATOM     50  C   UNL A   1      44.155  34.056  30.709  1.00  0.00     0.010 A 
ATOM     51  C   UNL A   1      43.813  34.566  33.435  1.00  0.00     0.020 A 
ATOM     52  C   UNL A   1      44.286  35.361  31.193  1.00  0.00     0.020 A 
ATOM     53  C   UNL A   1      44.095  35.612  32.551  1.00  0.00     0.054 A 
BRANCH  53  54
ATOM     54  S   UNL A   1      44.232  37.302  33.200  1.00  0.00     0.124 S 
ATOM     55  O   UNL A   1      45.487  37.243  33.942  1.00  0.00    -0.237 OA
ATOM     56  O   UNL A   1      44.254  38.106  31.980  1.00  0.00    -0.237 OA
ATOM     57  O   UNL A   1      43.028  37.454  34.015  1.00  0.00    -0.744 OA
ENDBRANCH  53  54
ENDBRANCH  25  48
BRANCH  37  58
ATOM     58  C   UNL A   1      48.214  27.654  30.403  1.00  0.00    -0.014 A 
ATOM     59  C   UNL A   1      48.740  27.175  31.616  1.00  0.00     0.010 A 
ATOM     60  C   UNL A   1      49.089  27.957  29.344  1.00  0.00     0.010 A 
ATOM     61  C   UNL A   1      50.121  27.047  31.782  1.00  0.00     0.020 A 
ATOM     62  C   UNL A   1      50.467  27.798  29.495  1.00  0.00     0.020 A 
ATOM     63  C   UNL A   1      50.975  27.363  30.721  1.00  0.00     0.054 A 
BRANCH  63  64
ATOM     64  S   UNL A   1      52.761  27.165  30.952  1.00  0.00     0.124 S 
ATOM     65  O   UNL A   1      52.880  25.727  31.178  1.00  0.00    -0.237 OA
ATOM     66  O   UNL A   1      53.305  27.652  29.687  1.00  0.00    -0.237 OA
ATOM     67  O   UNL A   1      53.056  28.003  32.112  1.00  0.00    -0.744 OA
ENDBRANCH  63  64
ENDBRANCH  37  58
ENDBRANCH  11  12
ENDBRANCH   4   6
ENDBRANCH   3   4
ENDBRANCH   2   3
ENDBRANCH   1   2
BRANCH   1  68
ATOM     68  O   UNL A   1      30.893  27.255  26.443  1.00  0.00    -0.461 OA
BRANCH  68  69
ATOM     69  C   UNL A   1      31.688  26.303  25.867  1.00  0.00     0.328 C 
ATOM     70  O   UNL A   1      32.444  25.573  26.504  1.00  0.00    -0.250 OA
BRANCH  69  71
ATOM     71  C   UNL A   1      31.467  26.249  24.339  1.00  0.00     0.195 C 
ATOM     72  C   UNL A   1      30.343  27.170  23.861  1.00  0.00     0.037 C 
ATOM     73  N   UNL A   1      32.691  26.523  23.562  1.00  0.00    -0.328 N 
ATOM     74  C   UNL A   1      30.762  28.638  23.823  1.00  0.00     0.005 C 
ATOM     75  C   UNL A   1      33.170  27.901  23.662  1.00  0.00     0.120 C 
ATOM     76  C   UNL A   1      32.095  28.831  23.096  1.00  0.00     0.022 C 
BRANCH  73  77
ATOM     77  C   UNL A   1      33.092  25.615  22.589  1.00  0.00     0.233 C 
ATOM     78  O   UNL A   1      33.732  25.969  21.594  1.00  0.00    -0.274 OA
BRANCH  77  79
ATOM     79  C   UNL A   1      32.696  24.153  22.725  1.00  0.00     0.170 C 
BRANCH  79  80
ATOM     80  S   UNL A   1      34.114  23.035  22.967  1.00  0.00    -0.147 SA
BRANCH  80  81
ATOM     81  C   UNL A   1      34.547  23.405  24.696  1.00  0.00     0.105 C 
BRANCH  81  82
ATOM     82  C   UNL A   1      35.978  23.102  25.073  1.00  0.00    -0.038 A 
ATOM     83  C   UNL A   1      36.586  21.870  24.779  1.00  0.00     0.004 A 
ATOM     84  C   UNL A   1      36.696  24.032  25.839  1.00  0.00     0.004 A 
ATOM     85  C   UNL A   1      37.887  21.595  25.203  1.00  0.00     0.000 A 
ATOM     86  C   UNL A   1      37.991  23.750  26.276  1.00  0.00     0.000 A 
ATOM     87  C   UNL A   1      38.589  22.534  25.953  1.00  0.00     0.000 A 
ENDBRANCH  81  82
ENDBRANCH  80  81
ENDBRANCH  79  80
ENDBRANCH  77  79
ENDBRANCH  73  77
ENDBRANCH  69  71
ENDBRANCH  68  69
ENDBRANCH   1  68
TORSDOF 19
ENDMDL
MODEL 2
REMARK VINA RESULT:      -9.8      2.916      7.851
REMARK SMILES O=C(OCCOC(=O)[C@H]1CCCCN1C(=O)CSCc1ccccc1)c1ccc(-c2c3nc(c(-c4ccc(S(=O)(=O)[O-])cc4)c4ccc([nH]4)c(-c4ccc(S(=O)(=O)[O-])cc4)c4nc(c(-c5ccc(S(=O)(=O)[O-])cc5)c5ccc2[nH]5)C=C4)C=C3)cc1
REMARK SMILES IDX 5 1 4 2 3 3 2 4 1 5 26 6 27 7 85 8 28 9 84 10 29 11 30 12
REMARK SMILES IDX 31 13 78 14 32 15 83 16 77 17 79 18 33 19 82 20 76 21 75 22
REMARK SMILES IDX 34 24 64 25 45 26 63 27 46 28 49 29 62 30 80 31 47 32 48 33
REMARK SMILES IDX 61 35 81 36 50 37 35 38 36 39 44 40 37 41 43 42 38 43 39 44
REMARK SMILES IDX 40 45 41 46 42 47 65 48 66 49 74 50 67 51 73 52 68 53 69 54
REMARK SMILES IDX 70 55 71 56 72 57 51 58 52 59 60 60 53 61 59 62 54 63 55 64
REMARK SMILES IDX 56 65 57 66 58 67 6 68 7 69 8 70 9 71 10 72 14 73 11 74
REMARK SMILES IDX 13 75 12 76 15 77 16 78 17 79 18 80 19 81 20 82 21 83 25 84
REMARK SMILES IDX 22 85 24 86 23 87
REMARK H PARENT 79 23 49 34
REMARK Flexibility Score: inf
ROOT
ATOM      1  C   UNL A   1      35.920  24.082  24.573  1.00  0.00     0.274 C 
ENDROOT
BRANCH   1   2
ATOM      2  C   UNL A   1      36.493  22.952  25.435  1.00  0.00     0.275 C 
BRANCH   2   3
ATOM      3  O   UNL A   1      37.901  22.710  25.243  1.00  0.00    -0.458 OA
BRANCH   3   4
ATOM      4  C   UNL A   1      38.935  22.797  26.115  1.00  0.00     0.338 C 
ATOM      5  O   UNL A   1      39.477  21.753  26.476  1.00  0.00    -0.246 OA
BRANCH   4   6
ATOM      6  C   UNL A   1      39.367  24.073  26.777  1.00  0.00     0.060 A 
ATOM      7  C   UNL A   1      40.118  25.092  26.187  1.00  0.00     0.016 A 
ATOM      8  C   UNL A   1      38.934  24.271  28.104  1.00  0.00     0.016 A 
ATOM      9  C   UNL A   1      40.361  26.292  26.858  1.00  0.00     0.010 A 
ATOM     10  C   UNL A   1      39.171  25.475  28.782  1.00  0.00     0.010 A 
ATOM     11  C   UNL A   1      39.889  26.495  28.157  1.00  0.00    -0.014 A 
BRANCH  11  12
ATOM     12  C   UNL A   1      40.308  27.727  28.859  1.00  0.00     0.031 A 
ATOM     13  C   UNL A   1      41.730  27.823  29.317  1.00  0.00     0.074 A 
ATOM     14  C   UNL A   1      39.481  28.787  28.932  1.00  0.00     0.049 A 
ATOM     15  N   UNL A   1      42.382  28.869  29.746  1.00  0.00    -0.248 NA
ATOM     16  C   UNL A   1      42.532  26.590  29.247  1.00  0.00     0.031 C 
ATOM     17  C   UNL A   1      38.096  28.799  28.465  1.00  0.00     0.029 A 
ATOM     18  N   UNL A   1      39.683  30.064  29.388  1.00  0.00    -0.354 N 
ATOM     19  C   UNL A   1      43.683  28.431  29.953  1.00  0.00     0.074 A 
ATOM     20  C   UNL A   1      43.715  27.016  29.664  1.00  0.00     0.031 C 
ATOM     21  C   UNL A   1      37.571  30.021  28.652  1.00  0.00     0.029 A 
ATOM     22  C   UNL A   1      38.581  30.881  29.256  1.00  0.00     0.049 A 
ATOM     23  H   UNL A   1      40.536  30.369  29.776  1.00  0.00     0.167 HD
ATOM     24  C   UNL A   1      44.762  29.156  30.325  1.00  0.00     0.031 A 
ATOM     25  C   UNL A   1      38.415  32.179  29.580  1.00  0.00     0.031 A 
ATOM     26  C   UNL A   1      44.701  30.548  30.670  1.00  0.00     0.049 A 
ATOM     27  C   UNL A   1      39.609  32.934  30.106  1.00  0.00     0.074 A 
ATOM     28  C   UNL A   1      45.713  31.369  31.129  1.00  0.00     0.029 A 
ATOM     29  N   UNL A   1      43.551  31.323  30.607  1.00  0.00    -0.354 N 
ATOM     30  N   UNL A   1      40.840  32.509  30.275  1.00  0.00    -0.248 NA
ATOM     31  C   UNL A   1      39.402  34.343  30.462  1.00  0.00     0.031 C 
ATOM     32  C   UNL A   1      45.163  32.628  31.393  1.00  0.00     0.029 A 
ATOM     33  C   UNL A   1      43.822  32.609  31.037  1.00  0.00     0.049 A 
ATOM     34  H   UNL A   1      42.671  31.005  30.300  1.00  0.00     0.167 HD
ATOM     35  C   UNL A   1      41.560  33.605  30.737  1.00  0.00     0.074 A 
ATOM     36  C   UNL A   1      40.631  34.716  30.791  1.00  0.00     0.031 C 
ATOM     37  C   UNL A   1      42.868  33.688  31.088  1.00  0.00     0.031 A 
BRANCH  24  38
ATOM     38  C   UNL A   1      46.073  28.427  30.398  1.00  0.00    -0.014 A 
ATOM     39  C   UNL A   1      46.892  28.303  29.259  1.00  0.00     0.010 A 
ATOM     40  C   UNL A   1      46.486  27.842  31.608  1.00  0.00     0.010 A 
ATOM     41  C   UNL A   1      48.083  27.577  29.321  1.00  0.00     0.020 A 
ATOM     42  C   UNL A   1      47.689  27.135  31.678  1.00  0.00     0.020 A 
ATOM     43  C   UNL A   1      48.473  26.995  30.531  1.00  0.00     0.054 A 
BRANCH  43  44
ATOM     44  S   UNL A   1      50.032  26.072  30.585  1.00  0.00     0.124 S 
ATOM     45  O   UNL A   1      50.955  27.069  31.124  1.00  0.00    -0.237 OA
ATOM     46  O   UNL A   1      49.715  24.961  31.479  1.00  0.00    -0.237 OA
ATOM     47  O   UNL A   1      50.264  25.700  29.191  1.00  0.00    -0.744 OA
ENDBRANCH  43  44
ENDBRANCH  24  38
BRANCH  25  48
ATOM     48  C   UNL A   1      37.083  32.836  29.440  1.00  0.00    -0.014 A 
ATOM     49  C   UNL A   1      36.626  33.327  28.203  1.00  0.00     0.010 A 
ATOM     50  C   UNL A   1      36.268  33.008  30.576  1.00  0.00     0.010 A 
ATOM     51  C   UNL A   1      35.403  34.003  28.112  1.00  0.00     0.020 A 
ATOM     52  C   UNL A   1      35.032  33.656  30.485  1.00  0.00     0.020 A 
ATOM     53  C   UNL A   1      34.614  34.167  29.256  1.00  0.00     0.054 A 
BRANCH  53  54
ATOM     54  S   UNL A   1      33.026  35.035  29.116  1.00  0.00     0.124 S 
ATOM     55  O   UNL A   1      32.334  34.244  28.105  1.00  0.00    -0.237 OA
ATOM     56  O   UNL A   1      32.493  34.936  30.473  1.00  0.00    -0.237 OA
ATOM     57  O   UNL A   1      33.410  36.384  28.703  1.00  0.00    -0.744 OA
ENDBRANCH  53  54
ENDBRANCH  25  48
BRANCH  37  58
ATOM     58  C   UNL A   1      43.366  35.033  31.542  1.00  0.00    -0.014 A 
ATOM     59  C   UNL A   1      43.299  35.414  32.894  1.00  0.00     0.010 A 
ATOM     60  C   UNL A   1      43.942  35.911  30.606  1.00  0.00     0.010 A 
ATOM     61  C   UNL A   1      43.760  36.670  33.294  1.00  0.00     0.020 A 
ATOM     62  C   UNL A   1      44.433  37.153  31.008  1.00  0.00     0.020 A 
ATOM     63  C   UNL A   1      44.321  37.532  32.348  1.00  0.00     0.054 A 
BRANCH  63  64
ATOM     64  S   UNL A   1      44.934  39.147  32.895  1.00  0.00     0.124 S 
ATOM     65  O   UNL A   1      43.750  39.988  32.744  1.00  0.00    -0.237 OA
ATOM     66  O   UNL A   1      45.348  38.884  34.271  1.00  0.00    -0.237 OA
ATOM     67  O   UNL A   1      46.026  39.436  31.968  1.00  0.00    -0.744 OA
ENDBRANCH  63  64
ENDBRANCH  37  58
ENDBRANCH  11  12
ENDBRANCH   4   6
ENDBRANCH   3   4
ENDBRANCH   2   3
ENDBRANCH   1   2
BRANCH   1  68
ATOM     68  O   UNL A   1      34.702  23.719  23.907  1.00  0.00    -0.461 OA
BRANCH  68  69
ATOM     69  C   UNL A   1      33.918  24.765  23.504  1.00  0.00     0.328 C 
ATOM     70  O   UNL A   1      33.899  25.195  22.353  1.00  0.00    -0.250 OA
BRANCH  69  71
ATOM     71  C   UNL A   1      33.046  25.283  24.668  1.00  0.00     0.195 C 
ATOM     72  C   UNL A   1      32.919  26.807  24.693  1.00  0.00     0.037 C 
ATOM     73  N   UNL A   1      31.701  24.676  24.706  1.00  0.00    -0.328 N 
ATOM     74  C   UNL A   1      31.950  27.332  23.636  1.00  0.00     0.005 C 
ATOM     75  C   UNL A   1      30.834  25.070  23.596  1.00  0.00     0.120 C 
ATOM     76  C   UNL A   1      30.615  26.582  23.663  1.00  0.00     0.022 C 
BRANCH  73  77
ATOM     77  C   UNL A   1      31.260  24.081  25.883  1.00  0.00     0.233 C 
ATOM     78  O   UNL A   1      30.924  24.753  26.863  1.00  0.00    -0.274 OA
BRANCH  77  79
ATOM     79  C   UNL A   1      31.232  22.564  25.987  1.00  0.00     0.170 C 
BRANCH  79  80
ATOM     80  S   UNL A   1      31.918  21.722  24.525  1.00  0.00    -0.147 SA
BRANCH  80  81
ATOM     81  C   UNL A   1      32.997  20.490  25.318  1.00  0.00     0.105 C 
BRANCH  81  82
ATOM     82  C   UNL A   1      33.325  19.287  24.465  1.00  0.00    -0.038 A 
ATOM     83  C   UNL A   1      32.459  18.820  23.463  1.00  0.00     0.004 A 
ATOM     84  C   UNL A   1      34.478  18.540  24.749  1.00  0.00     0.004 A 
ATOM     85  C   UNL A   1      32.758  17.664  22.739  1.00  0.00     0.000 A 
ATOM     86  C   UNL A   1      34.769  17.376  24.036  1.00  0.00     0.000 A 
ATOM     87  C   UNL A   1      33.912  16.942  23.027  1.00  0.00     0.000 A 
ENDBRANCH  81  82
ENDBRANCH  80  81
ENDBRANCH  79  80
ENDBRANCH  77  79
ENDBRANCH  73  77
ENDBRANCH  69  71
ENDBRANCH  68  69
ENDBRANCH   1  68
TORSDOF 19
ENDMDL
MODEL 3
REMARK VINA RESULT:      -9.8      2.106      9.064
REMARK SMILES O=C(OCCOC(=O)[C@H]1CCCCN1C(=O)CSCc1ccccc1)c1ccc(-c2c3nc(c(-c4ccc(S(=O)(=O)[O-])cc4)c4ccc([nH]4)c(-c4ccc(S(=O)(=O)[O-])cc4)c4nc(c(-c5ccc(S(=O)(=O)[O-])cc5)c5ccc2[nH]5)C=C4)C=C3)cc1
REMARK SMILES IDX 5 1 4 2 3 3 2 4 1 5 26 6 27 7 85 8 28 9 84 10 29 11 30 12
REMARK SMILES IDX 31 13 78 14 32 15 83 16 77 17 79 18 33 19 82 20 76 21 75 22
REMARK SMILES IDX 34 24 64 25 45 26 63 27 46 28 49 29 62 30 80 31 47 32 48 33
REMARK SMILES IDX 61 35 81 36 50 37 35 38 36 39 44 40 37 41 43 42 38 43 39 44
REMARK SMILES IDX 40 45 41 46 42 47 65 48 66 49 74 50 67 51 73 52 68 53 69 54
REMARK SMILES IDX 70 55 71 56 72 57 51 58 52 59 60 60 53 61 59 62 54 63 55 64
REMARK SMILES IDX 56 65 57 66 58 67 6 68 7 69 8 70 9 71 10 72 14 73 11 74
REMARK SMILES IDX 13 75 12 76 15 77 16 78 17 79 18 80 19 81 20 82 21 83 25 84
REMARK SMILES IDX 22 85 24 86 23 87
REMARK H PARENT 79 23 49 34
REMARK Flexibility Score: inf
ROOT
ATOM      1  C   UNL A   1      31.928  27.513  26.535  1.00  0.00     0.274 C 
ENDROOT
BRANCH   1   2
ATOM      2  C   UNL A   1      33.265  28.126  26.966  1.00  0.00     0.275 C 
BRANCH   2   3
ATOM      3  O   UNL A   1      33.281  29.566  26.989  1.00  0.00    -0.458 OA
BRANCH   3   4
ATOM      4  C   UNL A   1      34.076  30.425  27.672  1.00  0.00     0.338 C 
ATOM      5  O   UNL A   1      33.689  31.585  27.814  1.00  0.00    -0.246 OA
BRANCH   4   6
ATOM      6  C   UNL A   1      35.461  30.090  28.143  1.00  0.00     0.060 A 
ATOM      7  C   UNL A   1      35.811  29.651  29.421  1.00  0.00     0.016 A 
ATOM      8  C   UNL A   1      36.492  30.192  27.186  1.00  0.00     0.016 A 
ATOM      9  C   UNL A   1      37.116  29.251  29.716  1.00  0.00     0.010 A 
ATOM     10  C   UNL A   1      37.803  29.788  27.475  1.00  0.00     0.010 A 
ATOM     11  C   UNL A   1      38.120  29.313  28.748  1.00  0.00    -0.014 A 
BRANCH  11  12
ATOM     12  C   UNL A   1      39.506  29.015  29.170  1.00  0.00     0.031 A 
ATOM     13  C   UNL A   1      40.177  29.976  30.102  1.00  0.00     0.074 A 
ATOM     14  C   UNL A   1      40.077  27.836  28.858  1.00  0.00     0.049 A 
ATOM     15  N   UNL A   1      41.283  29.823  30.777  1.00  0.00    -0.248 NA
ATOM     16  C   UNL A   1      39.494  31.261  30.331  1.00  0.00     0.031 C 
ATOM     17  C   UNL A   1      39.474  26.819  27.999  1.00  0.00     0.029 A 
ATOM     18  N   UNL A   1      41.265  27.274  29.247  1.00  0.00    -0.354 N 
ATOM     19  C   UNL A   1      41.404  30.971  31.547  1.00  0.00     0.074 A 
ATOM     20  C   UNL A   1      40.298  31.837  31.212  1.00  0.00     0.031 C 
ATOM     21  C   UNL A   1      40.289  25.754  27.926  1.00  0.00     0.029 A 
ATOM     22  C   UNL A   1      41.477  26.013  28.732  1.00  0.00     0.049 A 
ATOM     23  H   UNL A   1      41.908  27.729  29.837  1.00  0.00     0.167 HD
ATOM     24  C   UNL A   1      42.344  31.262  32.475  1.00  0.00     0.031 A 
ATOM     25  C   UNL A   1      42.510  25.164  28.903  1.00  0.00     0.031 A 
ATOM     26  C   UNL A   1      43.473  30.420  32.752  1.00  0.00     0.049 A 
ATOM     27  C   UNL A   1      43.606  25.568  29.855  1.00  0.00     0.074 A 
ATOM     28  C   UNL A   1      44.526  30.644  33.617  1.00  0.00     0.029 A 
ATOM     29  N   UNL A   1      43.700  29.190  32.150  1.00  0.00    -0.354 N 
ATOM     30  N   UNL A   1      43.694  26.651  30.594  1.00  0.00    -0.248 NA
ATOM     31  C   UNL A   1      44.726  24.634  30.017  1.00  0.00     0.031 C 
ATOM     32  C   UNL A   1      45.417  29.572  33.500  1.00  0.00     0.029 A 
ATOM     33  C   UNL A   1      44.888  28.650  32.610  1.00  0.00     0.049 A 
ATOM     34  H   UNL A   1      43.103  28.763  31.493  1.00  0.00     0.167 HD
ATOM     35  C   UNL A   1      44.869  26.518  31.325  1.00  0.00     0.074 A 
ATOM     36  C   UNL A   1      45.439  25.236  30.960  1.00  0.00     0.031 C 
ATOM     37  C   UNL A   1      45.430  27.374  32.215  1.00  0.00     0.031 A 
BRANCH  24  38
ATOM     38  C   UNL A   1      42.183  32.559  33.215  1.00  0.00    -0.014 A 
ATOM     39  C   UNL A   1      41.612  32.587  34.502  1.00  0.00     0.010 A 
ATOM     40  C   UNL A   1      42.586  33.766  32.617  1.00  0.00     0.010 A 
ATOM     41  C   UNL A   1      41.415  33.802  35.162  1.00  0.00     0.020 A 
ATOM     42  C   UNL A   1      42.411  34.980  33.285  1.00  0.00     0.020 A 
ATOM     43  C   UNL A   1      41.814  34.992  34.547  1.00  0.00     0.054 A 
BRANCH  43  44
ATOM     44  S   UNL A   1      41.560  36.552  35.435  1.00  0.00     0.124 S 
ATOM     45  O   UNL A   1      42.241  36.293  36.702  1.00  0.00    -0.237 OA
ATOM     46  O   UNL A   1      42.211  37.526  34.562  1.00  0.00    -0.237 OA
ATOM     47  O   UNL A   1      40.106  36.670  35.522  1.00  0.00    -0.744 OA
ENDBRANCH  43  44
ENDBRANCH  24  38
BRANCH  25  48
ATOM     48  C   UNL A   1      42.571  23.875  28.153  1.00  0.00    -0.014 A 
ATOM     49  C   UNL A   1      43.109  23.799  26.856  1.00  0.00     0.010 A 
ATOM     50  C   UNL A   1      42.047  22.705  28.735  1.00  0.00     0.010 A 
ATOM     51  C   UNL A   1      43.090  22.592  26.146  1.00  0.00     0.020 A 
ATOM     52  C   UNL A   1      42.054  21.490  28.043  1.00  0.00     0.020 A 
ATOM     53  C   UNL A   1      42.559  21.445  26.743  1.00  0.00     0.054 A 
BRANCH  53  54
ATOM     54  S   UNL A   1      42.555  19.886  25.812  1.00  0.00     0.124 S 
ATOM     55  O   UNL A   1      41.161  19.785  25.393  1.00  0.00    -0.237 OA
ATOM     56  O   UNL A   1      43.520  20.153  24.749  1.00  0.00    -0.237 OA
ATOM     57  O   UNL A   1      42.986  18.898  26.800  1.00  0.00    -0.744 OA
ENDBRANCH  53  54
ENDBRANCH  25  48
BRANCH  37  58
ATOM     58  C   UNL A   1      46.715  26.936  32.863  1.00  0.00    -0.014 A 
ATOM     59  C   UNL A   1      46.711  26.150  34.028  1.00  0.00     0.010 A 
ATOM     60  C   UNL A   1      47.943  27.288  32.273  1.00  0.00     0.010 A 
ATOM     61  C   UNL A   1      47.914  25.760  34.618  1.00  0.00     0.020 A 
ATOM     62  C   UNL A   1      49.147  26.872  32.841  1.00  0.00     0.020 A 
ATOM     63  C   UNL A   1      49.125  26.127  34.022  1.00  0.00     0.054 A 
BRANCH  63  64
ATOM     64  S   UNL A   1      50.674  25.588  34.793  1.00  0.00     0.124 S 
ATOM     65  O   UNL A   1      50.935  26.671  35.737  1.00  0.00    -0.237 OA
ATOM     66  O   UNL A   1      50.307  24.306  35.390  1.00  0.00    -0.237 OA
ATOM     67  O   UNL A   1      51.607  25.501  33.672  1.00  0.00    -0.744 OA
ENDBRANCH  63  64
ENDBRANCH  37  58
ENDBRANCH  11  12
ENDBRANCH   4   6
ENDBRANCH   3   4
ENDBRANCH   2   3
ENDBRANCH   1   2
BRANCH   1  68
ATOM     68  O   UNL A   1      31.798  26.131  26.900  1.00  0.00    -0.461 OA
BRANCH  68  69
ATOM     69  C   UNL A   1      31.556  25.270  25.866  1.00  0.00     0.328 C 
ATOM     70  O   UNL A   1      30.439  25.076  25.391  1.00  0.00    -0.250 OA
BRANCH  69  71
ATOM     71  C   UNL A   1      32.867  24.627  25.363  1.00  0.00     0.195 C 
ATOM     72  C   UNL A   1      33.412  23.554  26.307  1.00  0.00     0.037 C 
ATOM     73  N   UNL A   1      32.761  24.074  23.999  1.00  0.00    -0.328 N 
ATOM     74  C   UNL A   1      32.643  22.239  26.208  1.00  0.00     0.005 C 
ATOM     75  C   UNL A   1      31.893  22.902  23.893  1.00  0.00     0.120 C 
ATOM     76  C   UNL A   1      32.478  21.784  24.756  1.00  0.00     0.022 C 
BRANCH  73  77
ATOM     77  C   UNL A   1      33.687  24.464  23.037  1.00  0.00     0.233 C 
ATOM     78  O   UNL A   1      34.756  23.865  22.886  1.00  0.00    -0.274 OA
BRANCH  77  79
ATOM     79  C   UNL A   1      33.401  25.686  22.179  1.00  0.00     0.170 C 
BRANCH  79  80
ATOM     80  S   UNL A   1      31.628  26.078  22.039  1.00  0.00    -0.147 SA
BRANCH  80  81
ATOM     81  C   UNL A   1      31.571  27.695  22.872  1.00  0.00     0.105 C 
BRANCH  81  82
ATOM     82  C   UNL A   1      30.252  28.423  22.760  1.00  0.00    -0.038 A 
ATOM     83  C   UNL A   1      29.058  27.897  23.280  1.00  0.00     0.004 A 
ATOM     84  C   UNL A   1      30.188  29.612  22.019  1.00  0.00     0.004 A 
ATOM     85  C   UNL A   1      27.844  28.562  23.098  1.00  0.00     0.000 A 
ATOM     86  C   UNL A   1      28.971  30.269  21.825  1.00  0.00     0.000 A 
ATOM     87  C   UNL A   1      27.801  29.746  22.370  1.00  0.00     0.000 A 
ENDBRANCH  81  82
ENDBRANCH  80  81
ENDBRANCH  79  80
ENDBRANCH  77  79
ENDBRANCH  73  77
ENDBRANCH  69  71
ENDBRANCH  68  69
ENDBRANCH   1  68
TORSDOF 19
ENDMDL
