MODEL 1
REMARK VINA RESULT:     -12.1      0.000      0.000
REMARK SMILES Cn1cc(C(=O)OCCOC(=O)c2ccc(-c3c4nc(c(-c5ccc(S(=O)(=O)[O-])cc5)c5ccc([nH]5)c(-c5ccc(S(=O)(=O)[O-])cc5)c5nc(c(-c6ccc(S(=O)(=O)[O-])cc6)c6ccc3[nH]6)C=C5)C=C4)cc2)c(C(=O)Nc2ccc(-c3nc4cc(Cl)ccc4o3)cc2)n1
REMARK SMILES IDX 8 1 7 2 5 3 6 4 4 5 1 6 2 7 3 8 93 9 73 10 74 11 75 12 76 13
REMARK SMILES IDX 77 15 78 16 92 17 79 18 91 19 80 20 81 21 82 22 90 23 83 24
REMARK SMILES IDX 89 25 84 26 88 27 85 28 87 29 86 30 9 31 10 32 11 33 12 34
REMARK SMILES IDX 13 35 14 36 72 37 15 38 71 39 16 40 17 41 18 42 65 43 19 44
REMARK SMILES IDX 70 45 64 46 66 47 20 48 69 49 63 50 62 51 21 53 51 54 32 55
REMARK SMILES IDX 50 56 33 57 36 58 49 59 67 60 34 61 35 62 48 64 68 65 37 66
REMARK SMILES IDX 22 67 23 68 31 69 24 70 30 71 25 72 26 73 27 74 28 75 29 76
REMARK SMILES IDX 52 77 53 78 61 79 54 80 60 81 55 82 56 83 57 84 58 85 59 86
REMARK SMILES IDX 38 87 39 88 47 89 40 90 46 91 41 92 42 93 43 94 44 95 45 96
REMARK H PARENT 76 14 66 52 36 63
REMARK Flexibility Score: inf
ROOT
ATOM      1  C   UNL A   1      35.709  23.751  23.439  1.00  0.00     0.275 C 
ENDROOT
BRANCH   1   2
ATOM      2  O   UNL A   1      34.803  22.861  22.778  1.00  0.00    -0.458 OA
BRANCH   2   3
ATOM      3  C   UNL A   1      33.517  22.773  23.222  1.00  0.00     0.342 C 
ATOM      4  O   UNL A   1      32.620  23.558  22.951  1.00  0.00    -0.246 OA
BRANCH   3   5
ATOM      5  C   UNL A   1      33.405  21.665  24.140  1.00  0.00     0.111 A 
ATOM      6  C   UNL A   1      32.503  18.234  24.754  1.00  0.00     0.173 C 
ATOM      7  N   UNL A   1      32.911  19.618  24.745  1.00  0.00    -0.274 N 
ATOM      8  C   UNL A   1      33.013  20.420  23.668  1.00  0.00     0.125 A 
ATOM      9  N   UNL A   1      33.205  20.232  25.887  1.00  0.00    -0.167 NA
ATOM     10  C   UNL A   1      33.540  21.510  25.564  1.00  0.00     0.165 A 
BRANCH  10  11
ATOM     11  C   UNL A   1      33.951  22.367  26.721  1.00  0.00     0.277 C 
ATOM     12  O   UNL A   1      34.333  21.855  27.781  1.00  0.00    -0.267 OA
ATOM     13  N   UNL A   1      34.167  23.721  26.626  1.00  0.00    -0.321 N 
ATOM     14  H   UNL A   1      35.046  24.012  26.960  1.00  0.00     0.170 HD
BRANCH  13  15
ATOM     15  C   UNL A   1      33.374  24.758  26.145  1.00  0.00     0.041 A 
ATOM     16  C   UNL A   1      34.007  25.823  25.504  1.00  0.00     0.027 A 
ATOM     17  C   UNL A   1      31.997  24.784  26.314  1.00  0.00     0.027 A 
ATOM     18  C   UNL A   1      33.247  26.764  24.806  1.00  0.00     0.016 A 
ATOM     19  C   UNL A   1      31.237  25.762  25.669  1.00  0.00     0.016 A 
ATOM     20  C   UNL A   1      31.850  26.671  24.798  1.00  0.00     0.037 A 
BRANCH  20  21
ATOM     21  C   UNL A   1      31.049  27.275  23.732  1.00  0.00     0.227 A 
ATOM     22  N   UNL A   1      31.404  28.221  22.873  1.00  0.00    -0.209 NA
ATOM     23  O   UNL A   1      29.688  27.129  23.876  1.00  0.00    -0.436 OA
ATOM     24  C   UNL A   1      30.214  28.818  22.536  1.00  0.00     0.111 A 
ATOM     25  C   UNL A   1      29.167  28.156  23.154  1.00  0.00     0.155 A 
ATOM     26  C   UNL A   1      29.944  29.959  21.772  1.00  0.00     0.053 A 
ATOM     27  C   UNL A   1      27.834  28.541  23.089  1.00  0.00     0.051 A 
ATOM     28  C   UNL A   1      28.613  30.393  21.707  1.00  0.00     0.043 A 
ATOM     29  C   UNL A   1      27.578  29.703  22.351  1.00  0.00     0.024 A 
ATOM     30  Cl  UNL A   1      28.243  31.836  20.838  1.00  0.00    -0.084 Cl
ENDBRANCH  20  21
ENDBRANCH  13  15
ENDBRANCH  10  11
ENDBRANCH   3   5
ENDBRANCH   2   3
ENDBRANCH   1   2
BRANCH   1  31
ATOM     31  C   UNL A   1      36.760  22.915  24.180  1.00  0.00     0.275 C 
BRANCH  31  32
ATOM     32  O   UNL A   1      37.160  23.556  25.412  1.00  0.00    -0.458 OA
BRANCH  32  33
ATOM     33  C   UNL A   1      38.371  23.173  25.901  1.00  0.00     0.338 C 
ATOM     34  O   UNL A   1      38.926  22.106  25.693  1.00  0.00    -0.246 OA
BRANCH  33  35
ATOM     35  C   UNL A   1      39.015  24.292  26.637  1.00  0.00     0.060 A 
ATOM     36  C   UNL A   1      38.733  24.419  28.003  1.00  0.00     0.016 A 
ATOM     37  C   UNL A   1      39.890  25.199  26.025  1.00  0.00     0.016 A 
ATOM     38  C   UNL A   1      39.286  25.466  28.744  1.00  0.00     0.010 A 
ATOM     39  C   UNL A   1      40.443  26.253  26.769  1.00  0.00     0.010 A 
ATOM     40  C   UNL A   1      40.113  26.414  28.126  1.00  0.00    -0.014 A 
BRANCH  40  41
ATOM     41  C   UNL A   1      40.443  27.665  28.856  1.00  0.00     0.031 A 
ATOM     42  C   UNL A   1      41.822  27.802  29.447  1.00  0.00     0.074 A 
ATOM     43  C   UNL A   1      39.582  28.696  28.949  1.00  0.00     0.049 A 
ATOM     44  N   UNL A   1      42.400  28.853  29.971  1.00  0.00    -0.248 NA
ATOM     45  C   UNL A   1      42.665  26.595  29.432  1.00  0.00     0.031 C 
ATOM     46  C   UNL A   1      38.224  28.726  28.412  1.00  0.00     0.029 A 
ATOM     47  N   UNL A   1      39.744  29.933  29.527  1.00  0.00    -0.354 N 
ATOM     48  C   UNL A   1      43.688  28.449  30.296  1.00  0.00     0.074 A 
ATOM     49  C   UNL A   1      43.789  27.042  29.969  1.00  0.00     0.031 C 
ATOM     50  C   UNL A   1      37.674  29.924  28.688  1.00  0.00     0.029 A 
ATOM     51  C   UNL A   1      38.643  30.747  29.411  1.00  0.00     0.049 A 
ATOM     52  H   UNL A   1      40.572  30.210  29.981  1.00  0.00     0.167 HD
ATOM     53  C   UNL A   1      44.710  29.181  30.798  1.00  0.00     0.031 A 
ATOM     54  C   UNL A   1      38.447  32.016  29.824  1.00  0.00     0.031 A 
ATOM     55  C   UNL A   1      44.620  30.562  31.177  1.00  0.00     0.049 A 
ATOM     56  C   UNL A   1      39.563  32.777  30.496  1.00  0.00     0.074 A 
ATOM     57  C   UNL A   1      45.612  31.383  31.684  1.00  0.00     0.029 A 
ATOM     58  N   UNL A   1      43.463  31.320  31.116  1.00  0.00    -0.354 N 
ATOM     59  N   UNL A   1      40.802  32.406  30.714  1.00  0.00    -0.248 NA
ATOM     60  C   UNL A   1      39.253  34.138  30.962  1.00  0.00     0.031 C 
ATOM     61  C   UNL A   1      45.041  32.628  31.975  1.00  0.00     0.029 A 
ATOM     62  C   UNL A   1      43.704  32.588  31.614  1.00  0.00     0.049 A 
ATOM     63  H   UNL A   1      42.598  31.004  30.770  1.00  0.00     0.167 HD
ATOM     64  C   UNL A   1      41.423  33.497  31.315  1.00  0.00     0.074 A 
ATOM     65  C   UNL A   1      40.428  34.541  31.428  1.00  0.00     0.031 C 
ATOM     66  C   UNL A   1      42.709  33.623  31.727  1.00  0.00     0.031 A 
BRANCH  53  67
ATOM     67  C   UNL A   1      46.023  28.474  30.966  1.00  0.00    -0.014 A 
ATOM     68  C   UNL A   1      46.386  27.943  32.218  1.00  0.00     0.010 A 
ATOM     69  C   UNL A   1      46.900  28.343  29.878  1.00  0.00     0.010 A 
ATOM     70  C   UNL A   1      47.628  27.331  32.389  1.00  0.00     0.020 A 
ATOM     71  C   UNL A   1      48.138  27.718  30.042  1.00  0.00     0.020 A 
ATOM     72  C   UNL A   1      48.502  27.233  31.302  1.00  0.00     0.054 A 
BRANCH  72  73
ATOM     73  S   UNL A   1      50.117  26.446  31.548  1.00  0.00     0.124 S 
ATOM     74  O   UNL A   1      49.754  25.033  31.619  1.00  0.00    -0.237 OA
ATOM     75  O   UNL A   1      50.859  26.844  30.354  1.00  0.00    -0.237 OA
ATOM     76  O   UNL A   1      50.598  27.030  32.798  1.00  0.00    -0.744 OA
ENDBRANCH  72  73
ENDBRANCH  53  67
BRANCH  54  77
ATOM     77  C   UNL A   1      37.129  32.674  29.620  1.00  0.00    -0.014 A 
ATOM     78  C   UNL A   1      36.856  33.376  28.434  1.00  0.00     0.010 A 
ATOM     79  C   UNL A   1      36.160  32.642  30.639  1.00  0.00     0.010 A 
ATOM     80  C   UNL A   1      35.645  34.059  28.279  1.00  0.00     0.020 A 
ATOM     81  C   UNL A   1      34.944  33.311  30.482  1.00  0.00     0.020 A 
ATOM     82  C   UNL A   1      34.699  34.029  29.309  1.00  0.00     0.054 A 
BRANCH  82  83
ATOM     83  S   UNL A   1      33.124  34.903  29.093  1.00  0.00     0.124 S 
ATOM     84  O   UNL A   1      33.567  36.217  28.638  1.00  0.00    -0.237 OA
ATOM     85  O   UNL A   1      32.434  34.087  28.096  1.00  0.00    -0.237 OA
ATOM     86  O   UNL A   1      32.532  34.868  30.429  1.00  0.00    -0.744 OA
ENDBRANCH  82  83
ENDBRANCH  54  77
BRANCH  66  87
ATOM     87  C   UNL A   1      43.129  34.935  32.330  1.00  0.00    -0.014 A 
ATOM     88  C   UNL A   1      43.513  36.014  31.514  1.00  0.00     0.010 A 
ATOM     89  C   UNL A   1      43.065  35.117  33.723  1.00  0.00     0.010 A 
ATOM     90  C   UNL A   1      43.839  37.249  32.083  1.00  0.00     0.020 A 
ATOM     91  C   UNL A   1      43.374  36.356  34.294  1.00  0.00     0.020 A 
ATOM     92  C   UNL A   1      43.767  37.413  33.470  1.00  0.00     0.054 A 
BRANCH  92  93
ATOM     93  S   UNL A   1      44.124  39.042  34.185  1.00  0.00     0.124 S 
ATOM     94  O   UNL A   1      44.089  38.760  35.617  1.00  0.00    -0.237 OA
ATOM     95  O   UNL A   1      45.441  39.359  33.639  1.00  0.00    -0.237 OA
ATOM     96  O   UNL A   1      43.035  39.881  33.688  1.00  0.00    -0.744 OA
ENDBRANCH  92  93
ENDBRANCH  66  87
ENDBRANCH  40  41
ENDBRANCH  33  35
ENDBRANCH  32  33
ENDBRANCH  31  32
ENDBRANCH   1  31
TORSDOF 17
ENDMDL
MODEL 2
REMARK VINA RESULT:     -11.7      3.305      4.238
REMARK SMILES Cn1cc(C(=O)OCCOC(=O)c2ccc(-c3c4nc(c(-c5ccc(S(=O)(=O)[O-])cc5)c5ccc([nH]5)c(-c5ccc(S(=O)(=O)[O-])cc5)c5nc(c(-c6ccc(S(=O)(=O)[O-])cc6)c6ccc3[nH]6)C=C5)C=C4)cc2)c(C(=O)Nc2ccc(-c3nc4cc(Cl)ccc4o3)cc2)n1
REMARK SMILES IDX 8 1 7 2 5 3 6 4 4 5 1 6 2 7 3 8 93 9 73 10 74 11 75 12 76 13
REMARK SMILES IDX 77 15 78 16 92 17 79 18 91 19 80 20 81 21 82 22 90 23 83 24
REMARK SMILES IDX 89 25 84 26 88 27 85 28 87 29 86 30 9 31 10 32 11 33 12 34
REMARK SMILES IDX 13 35 14 36 72 37 15 38 71 39 16 40 17 41 18 42 65 43 19 44
REMARK SMILES IDX 70 45 64 46 66 47 20 48 69 49 63 50 62 51 21 53 51 54 32 55
REMARK SMILES IDX 50 56 33 57 36 58 49 59 67 60 34 61 35 62 48 64 68 65 37 66
REMARK SMILES IDX 22 67 23 68 31 69 24 70 30 71 25 72 26 73 27 74 28 75 29 76
REMARK SMILES IDX 52 77 53 78 61 79 54 80 60 81 55 82 56 83 57 84 58 85 59 86
REMARK SMILES IDX 38 87 39 88 47 89 40 90 46 91 41 92 42 93 43 94 44 95 45 96
REMARK H PARENT 76 14 66 52 36 63
REMARK Flexibility Score: inf
ROOT
ATOM      1  C   UNL A   1      36.809  23.258  24.039  1.00  0.00     0.275 C 
ENDROOT
BRANCH   1   2
ATOM      2  O   UNL A   1      35.405  23.038  23.859  1.00  0.00    -0.458 OA
BRANCH   2   3
ATOM      3  C   UNL A   1      34.598  22.963  24.955  1.00  0.00     0.342 C 
ATOM      4  O   UNL A   1      34.651  23.707  25.924  1.00  0.00    -0.246 OA
BRANCH   3   5
ATOM      5  C   UNL A   1      33.741  21.809  24.837  1.00  0.00     0.111 A 
ATOM      6  C   UNL A   1      32.828  18.506  25.942  1.00  0.00     0.173 C 
ATOM      7  N   UNL A   1      33.020  19.800  25.333  1.00  0.00    -0.274 N 
ATOM      8  C   UNL A   1      33.875  20.760  25.735  1.00  0.00     0.125 A 
ATOM      9  N   UNL A   1      32.333  20.131  24.244  1.00  0.00    -0.167 NA
ATOM     10  C   UNL A   1      32.732  21.386  23.902  1.00  0.00     0.165 A 
BRANCH  10  11
ATOM     11  C   UNL A   1      32.036  21.966  22.710  1.00  0.00     0.277 C 
ATOM     12  O   UNL A   1      32.008  21.354  21.635  1.00  0.00    -0.267 OA
ATOM     13  N   UNL A   1      31.197  23.054  22.774  1.00  0.00    -0.321 N 
ATOM     14  H   UNL A   1      30.308  22.900  22.381  1.00  0.00     0.170 HD
BRANCH  13  15
ATOM     15  C   UNL A   1      31.373  24.335  23.290  1.00  0.00     0.041 A 
ATOM     16  C   UNL A   1      30.313  24.908  23.992  1.00  0.00     0.027 A 
ATOM     17  C   UNL A   1      32.537  25.063  23.097  1.00  0.00     0.027 A 
ATOM     18  C   UNL A   1      30.518  26.082  24.721  1.00  0.00     0.016 A 
ATOM     19  C   UNL A   1      32.721  26.271  23.774  1.00  0.00     0.016 A 
ATOM     20  C   UNL A   1      31.767  26.713  24.699  1.00  0.00     0.037 A 
BRANCH  20  21
ATOM     21  C   UNL A   1      32.193  27.605  25.778  1.00  0.00     0.227 A 
ATOM     22  N   UNL A   1      31.675  28.774  26.130  1.00  0.00    -0.209 NA
ATOM     23  O   UNL A   1      33.480  27.404  26.223  1.00  0.00    -0.436 OA
ATOM     24  C   UNL A   1      32.725  29.430  26.723  1.00  0.00     0.111 A 
ATOM     25  C   UNL A   1      33.830  28.597  26.773  1.00  0.00     0.155 A 
ATOM     26  C   UNL A   1      32.844  30.748  27.181  1.00  0.00     0.053 A 
ATOM     27  C   UNL A   1      35.084  28.966  27.242  1.00  0.00     0.051 A 
ATOM     28  C   UNL A   1      34.102  31.164  27.635  1.00  0.00     0.043 A 
ATOM     29  C   UNL A   1      35.201  30.295  27.665  1.00  0.00     0.024 A 
ATOM     30  Cl  UNL A   1      34.314  32.799  28.139  1.00  0.00    -0.084 Cl
ENDBRANCH  20  21
ENDBRANCH  13  15
ENDBRANCH  10  11
ENDBRANCH   3   5
ENDBRANCH   2   3
ENDBRANCH   1   2
BRANCH   1  31
ATOM     31  C   UNL A   1      37.403  22.043  24.763  1.00  0.00     0.275 C 
BRANCH  31  32
ATOM     32  O   UNL A   1      37.803  22.386  26.109  1.00  0.00    -0.458 OA
BRANCH  32  33
ATOM     33  C   UNL A   1      39.141  22.325  26.352  1.00  0.00     0.338 C 
ATOM     34  O   UNL A   1      39.894  21.426  26.013  1.00  0.00    -0.246 OA
BRANCH  33  35
ATOM     35  C   UNL A   1      39.615  23.583  26.986  1.00  0.00     0.060 A 
ATOM     36  C   UNL A   1      38.927  24.764  26.682  1.00  0.00     0.016 A 
ATOM     37  C   UNL A   1      40.699  23.624  27.872  1.00  0.00     0.016 A 
ATOM     38  C   UNL A   1      39.341  25.983  27.224  1.00  0.00     0.010 A 
ATOM     39  C   UNL A   1      41.117  24.850  28.415  1.00  0.00     0.010 A 
ATOM     40  C   UNL A   1      40.462  26.043  28.063  1.00  0.00    -0.014 A 
BRANCH  40  41
ATOM     41  C   UNL A   1      41.050  27.369  28.383  1.00  0.00     0.031 A 
ATOM     42  C   UNL A   1      42.454  27.656  27.914  1.00  0.00     0.074 A 
ATOM     43  C   UNL A   1      40.356  28.335  29.012  1.00  0.00     0.049 A 
ATOM     44  N   UNL A   1      43.114  28.785  27.916  1.00  0.00    -0.248 NA
ATOM     45  C   UNL A   1      43.204  26.519  27.356  1.00  0.00     0.031 C 
ATOM     46  C   UNL A   1      38.987  28.220  29.507  1.00  0.00     0.029 A 
ATOM     47  N   UNL A   1      40.722  29.622  29.329  1.00  0.00    -0.354 N 
ATOM     48  C   UNL A   1      44.334  28.507  27.312  1.00  0.00     0.074 A 
ATOM     49  C   UNL A   1      44.347  27.091  27.012  1.00  0.00     0.031 C 
ATOM     50  C   UNL A   1      38.627  29.391  30.067  1.00  0.00     0.029 A 
ATOM     51  C   UNL A   1      39.736  30.339  29.962  1.00  0.00     0.049 A 
ATOM     52  H   UNL A   1      41.609  29.996  29.120  1.00  0.00     0.167 HD
ATOM     53  C   UNL A   1      45.347  29.351  27.008  1.00  0.00     0.031 A 
ATOM     54  C   UNL A   1      39.722  31.618  30.391  1.00  0.00     0.031 A 
ATOM     55  C   UNL A   1      45.378  30.747  27.339  1.00  0.00     0.049 A 
ATOM     56  C   UNL A   1      40.913  32.511  30.151  1.00  0.00     0.074 A 
ATOM     57  C   UNL A   1      46.362  31.679  27.058  1.00  0.00     0.029 A 
ATOM     58  N   UNL A   1      44.391  31.408  28.052  1.00  0.00    -0.354 N 
ATOM     59  N   UNL A   1      42.023  32.254  29.499  1.00  0.00    -0.248 NA
ATOM     60  C   UNL A   1      40.840  33.878  30.694  1.00  0.00     0.031 C 
ATOM     61  C   UNL A   1      45.991  32.895  27.643  1.00  0.00     0.029 A 
ATOM     62  C   UNL A   1      44.760  32.726  28.255  1.00  0.00     0.049 A 
ATOM     63  H   UNL A   1      43.552  31.001  28.367  1.00  0.00     0.167 HD
ATOM     64  C   UNL A   1      42.762  33.433  29.530  1.00  0.00     0.074 A 
ATOM     65  C   UNL A   1      41.979  34.404  30.263  1.00  0.00     0.031 C 
ATOM     66  C   UNL A   1      43.979  33.688  28.989  1.00  0.00     0.031 A 
BRANCH  53  67
ATOM     67  C   UNL A   1      46.514  28.761  26.273  1.00  0.00    -0.014 A 
ATOM     68  C   UNL A   1      47.761  28.634  26.911  1.00  0.00     0.010 A 
ATOM     69  C   UNL A   1      46.371  28.340  24.941  1.00  0.00     0.010 A 
ATOM     70  C   UNL A   1      48.861  28.133  26.214  1.00  0.00     0.020 A 
ATOM     71  C   UNL A   1      47.467  27.826  24.244  1.00  0.00     0.020 A 
ATOM     72  C   UNL A   1      48.710  27.743  24.879  1.00  0.00     0.054 A 
BRANCH  72  73
ATOM     73  S   UNL A   1      50.154  27.108  23.985  1.00  0.00     0.124 S 
ATOM     74  O   UNL A   1      50.654  26.092  24.908  1.00  0.00    -0.237 OA
ATOM     75  O   UNL A   1      49.572  26.599  22.746  1.00  0.00    -0.237 OA
ATOM     76  O   UNL A   1      51.007  28.284  23.830  1.00  0.00    -0.744 OA
ENDBRANCH  72  73
ENDBRANCH  53  67
BRANCH  54  77
ATOM     77  C   UNL A   1      38.532  32.155  31.102  1.00  0.00    -0.014 A 
ATOM     78  C   UNL A   1      38.384  31.973  32.488  1.00  0.00     0.010 A 
ATOM     79  C   UNL A   1      37.516  32.807  30.382  1.00  0.00     0.010 A 
ATOM     80  C   UNL A   1      37.226  32.410  33.139  1.00  0.00     0.020 A 
ATOM     81  C   UNL A   1      36.364  33.259  31.032  1.00  0.00     0.020 A 
ATOM     82  C   UNL A   1      36.218  33.044  32.404  1.00  0.00     0.054 A 
BRANCH  82  83
ATOM     83  S   UNL A   1      34.728  33.624  33.260  1.00  0.00     0.124 S 
ATOM     84  O   UNL A   1      34.684  35.030  32.872  1.00  0.00    -0.237 OA
ATOM     85  O   UNL A   1      33.678  32.780  32.694  1.00  0.00    -0.237 OA
ATOM     86  O   UNL A   1      35.026  33.370  34.668  1.00  0.00    -0.744 OA
ENDBRANCH  82  83
ENDBRANCH  54  77
BRANCH  66  87
ATOM     87  C   UNL A   1      44.545  35.071  29.152  1.00  0.00    -0.014 A 
ATOM     88  C   UNL A   1      45.488  35.352  30.157  1.00  0.00     0.010 A 
ATOM     89  C   UNL A   1      44.190  36.084  28.243  1.00  0.00     0.010 A 
ATOM     90  C   UNL A   1      46.056  36.625  30.256  1.00  0.00     0.020 A 
ATOM     91  C   UNL A   1      44.769  37.354  28.329  1.00  0.00     0.020 A 
ATOM     92  C   UNL A   1      45.693  37.619  29.342  1.00  0.00     0.054 A 
BRANCH  92  93
ATOM     93  S   UNL A   1      46.494  39.245  29.442  1.00  0.00     0.124 S 
ATOM     94  O   UNL A   1      47.493  39.158  28.381  1.00  0.00    -0.237 OA
ATOM     95  O   UNL A   1      45.391  40.169  29.191  1.00  0.00    -0.237 OA
ATOM     96  O   UNL A   1      47.029  39.282  30.801  1.00  0.00    -0.744 OA
ENDBRANCH  92  93
ENDBRANCH  66  87
ENDBRANCH  40  41
ENDBRANCH  33  35
ENDBRANCH  32  33
ENDBRANCH  31  32
ENDBRANCH   1  31
TORSDOF 17
ENDMDL
MODEL 3
REMARK VINA RESULT:     -11.5      0.765      7.902
REMARK SMILES Cn1cc(C(=O)OCCOC(=O)c2ccc(-c3c4nc(c(-c5ccc(S(=O)(=O)[O-])cc5)c5ccc([nH]5)c(-c5ccc(S(=O)(=O)[O-])cc5)c5nc(c(-c6ccc(S(=O)(=O)[O-])cc6)c6ccc3[nH]6)C=C5)C=C4)cc2)c(C(=O)Nc2ccc(-c3nc4cc(Cl)ccc4o3)cc2)n1
REMARK SMILES IDX 8 1 7 2 5 3 6 4 4 5 1 6 2 7 3 8 93 9 73 10 74 11 75 12 76 13
REMARK SMILES IDX 77 15 78 16 92 17 79 18 91 19 80 20 81 21 82 22 90 23 83 24
REMARK SMILES IDX 89 25 84 26 88 27 85 28 87 29 86 30 9 31 10 32 11 33 12 34
REMARK SMILES IDX 13 35 14 36 72 37 15 38 71 39 16 40 17 41 18 42 65 43 19 44
REMARK SMILES IDX 70 45 64 46 66 47 20 48 69 49 63 50 62 51 21 53 51 54 32 55
REMARK SMILES IDX 50 56 33 57 36 58 49 59 67 60 34 61 35 62 48 64 68 65 37 66
REMARK SMILES IDX 22 67 23 68 31 69 24 70 30 71 25 72 26 73 27 74 28 75 29 76
REMARK SMILES IDX 52 77 53 78 61 79 54 80 60 81 55 82 56 83 57 84 58 85 59 86
REMARK SMILES IDX 38 87 39 88 47 89 40 90 46 91 41 92 42 93 43 94 44 95 45 96
REMARK H PARENT 76 14 66 52 36 63
REMARK Flexibility Score: inf
ROOT
ATOM      1  C   UNL A   1      36.224  23.533  23.897  1.00  0.00     0.275 C 
ENDROOT
BRANCH   1   2
ATOM      2  O   UNL A   1      35.347  22.861  22.984  1.00  0.00    -0.458 OA
BRANCH   2   3
ATOM      3  C   UNL A   1      34.005  22.877  23.220  1.00  0.00     0.342 C 
ATOM      4  O   UNL A   1      33.228  23.735  22.826  1.00  0.00    -0.246 OA
BRANCH   3   5
ATOM      5  C   UNL A   1      33.661  21.777  24.088  1.00  0.00     0.111 A 
ATOM      6  C   UNL A   1      32.395  18.431  24.491  1.00  0.00     0.173 C 
ATOM      7  N   UNL A   1      32.912  19.775  24.572  1.00  0.00    -0.274 N 
ATOM      8  C   UNL A   1      33.245  20.572  23.538  1.00  0.00     0.125 A 
ATOM      9  N   UNL A   1      33.076  20.356  25.756  1.00  0.00    -0.167 NA
ATOM     10  C   UNL A   1      33.561  21.603  25.513  1.00  0.00     0.165 A 
BRANCH  10  11
ATOM     11  C   UNL A   1      33.856  22.415  26.736  1.00  0.00     0.277 C 
ATOM     12  O   UNL A   1      34.164  21.864  27.801  1.00  0.00    -0.267 OA
ATOM     13  N   UNL A   1      34.048  23.776  26.717  1.00  0.00    -0.321 N 
ATOM     14  H   UNL A   1      34.890  24.070  27.134  1.00  0.00     0.170 HD
BRANCH  13  15
ATOM     15  C   UNL A   1      33.271  24.818  26.218  1.00  0.00     0.041 A 
ATOM     16  C   UNL A   1      33.921  25.861  25.558  1.00  0.00     0.027 A 
ATOM     17  C   UNL A   1      31.895  24.870  26.387  1.00  0.00     0.027 A 
ATOM     18  C   UNL A   1      33.176  26.801  24.844  1.00  0.00     0.016 A 
ATOM     19  C   UNL A   1      31.150  25.848  25.726  1.00  0.00     0.016 A 
ATOM     20  C   UNL A   1      31.777  26.732  24.838  1.00  0.00     0.037 A 
BRANCH  20  21
ATOM     21  C   UNL A   1      30.986  27.329  23.762  1.00  0.00     0.227 A 
ATOM     22  N   UNL A   1      31.351  28.263  22.894  1.00  0.00    -0.209 NA
ATOM     23  O   UNL A   1      29.624  27.194  23.901  1.00  0.00    -0.436 OA
ATOM     24  C   UNL A   1      30.168  28.864  22.545  1.00  0.00     0.111 A 
ATOM     25  C   UNL A   1      29.113  28.218  23.166  1.00  0.00     0.155 A 
ATOM     26  C   UNL A   1      29.909  29.999  21.767  1.00  0.00     0.053 A 
ATOM     27  C   UNL A   1      27.783  28.611  23.090  1.00  0.00     0.051 A 
ATOM     28  C   UNL A   1      28.581  30.442  21.691  1.00  0.00     0.043 A 
ATOM     29  C   UNL A   1      27.539  29.767  22.339  1.00  0.00     0.024 A 
ATOM     30  Cl  UNL A   1      28.226  31.878  20.805  1.00  0.00    -0.084 Cl
ENDBRANCH  20  21
ENDBRANCH  13  15
ENDBRANCH  10  11
ENDBRANCH   3   5
ENDBRANCH   2   3
ENDBRANCH   1   2
BRANCH   1  31
ATOM     31  C   UNL A   1      37.166  22.495  24.520  1.00  0.00     0.275 C 
BRANCH  31  32
ATOM     32  O   UNL A   1      37.481  22.835  25.889  1.00  0.00    -0.458 OA
BRANCH  32  33
ATOM     33  C   UNL A   1      38.807  22.874  26.189  1.00  0.00     0.338 C 
ATOM     34  O   UNL A   1      39.641  22.038  25.875  1.00  0.00    -0.246 OA
BRANCH  33  35
ATOM     35  C   UNL A   1      39.157  24.157  26.852  1.00  0.00     0.060 A 
ATOM     36  C   UNL A   1      39.988  25.043  26.157  1.00  0.00     0.016 A 
ATOM     37  C   UNL A   1      38.680  24.509  28.122  1.00  0.00     0.016 A 
ATOM     38  C   UNL A   1      40.375  26.253  26.738  1.00  0.00     0.010 A 
ATOM     39  C   UNL A   1      39.072  25.723  28.707  1.00  0.00     0.010 A 
ATOM     40  C   UNL A   1      39.953  26.585  28.033  1.00  0.00    -0.014 A 
BRANCH  40  41
ATOM     41  C   UNL A   1      40.608  27.720  28.733  1.00  0.00     0.031 A 
ATOM     42  C   UNL A   1      39.815  28.986  28.934  1.00  0.00     0.074 A 
ATOM     43  C   UNL A   1      41.849  27.633  29.247  1.00  0.00     0.049 A 
ATOM     44  N   UNL A   1      40.101  30.037  29.659  1.00  0.00    -0.248 NA
ATOM     45  C   UNL A   1      38.523  29.068  28.233  1.00  0.00     0.031 C 
ATOM     46  C   UNL A   1      42.733  26.473  29.156  1.00  0.00     0.029 A 
ATOM     47  N   UNL A   1      42.574  28.553  29.967  1.00  0.00    -0.354 N 
ATOM     48  C   UNL A   1      39.002  30.880  29.545  1.00  0.00     0.074 A 
ATOM     49  C   UNL A   1      38.072  30.246  28.634  1.00  0.00     0.031 C 
ATOM     50  C   UNL A   1      43.884  26.752  29.796  1.00  0.00     0.029 A 
ATOM     51  C   UNL A   1      43.815  28.104  30.350  1.00  0.00     0.049 A 
ATOM     52  H   UNL A   1      42.235  29.450  30.189  1.00  0.00     0.167 HD
ATOM     53  C   UNL A   1      38.767  32.063  30.160  1.00  0.00     0.031 A 
ATOM     54  C   UNL A   1      44.777  28.707  31.078  1.00  0.00     0.031 A 
ATOM     55  C   UNL A   1      39.693  32.733  31.027  1.00  0.00     0.049 A 
ATOM     56  C   UNL A   1      44.544  30.082  31.653  1.00  0.00     0.074 A 
ATOM     57  C   UNL A   1      39.532  33.931  31.700  1.00  0.00     0.029 A 
ATOM     58  N   UNL A   1      40.968  32.278  31.318  1.00  0.00    -0.354 N 
ATOM     59  N   UNL A   1      43.464  30.825  31.608  1.00  0.00    -0.248 NA
ATOM     60  C   UNL A   1      45.661  30.692  32.392  1.00  0.00     0.031 C 
ATOM     61  C   UNL A   1      40.729  34.224  32.363  1.00  0.00     0.029 A 
ATOM     62  C   UNL A   1      41.620  33.190  32.130  1.00  0.00     0.049 A 
ATOM     63  H   UNL A   1      41.354  31.431  30.996  1.00  0.00     0.167 HD
ATOM     64  C   UNL A   1      43.763  31.972  32.336  1.00  0.00     0.074 A 
ATOM     65  C   UNL A   1      45.123  31.830  32.810  1.00  0.00     0.031 C 
ATOM     66  C   UNL A   1      42.975  33.045  32.596  1.00  0.00     0.031 A 
BRANCH  53  67
ATOM     67  C   UNL A   1      37.436  32.703  29.897  1.00  0.00    -0.014 A 
ATOM     68  C   UNL A   1      37.286  33.613  28.835  1.00  0.00     0.010 A 
ATOM     69  C   UNL A   1      36.334  32.403  30.714  1.00  0.00     0.010 A 
ATOM     70  C   UNL A   1      36.062  34.249  28.620  1.00  0.00     0.020 A 
ATOM     71  C   UNL A   1      35.104  33.027  30.494  1.00  0.00     0.020 A 
ATOM     72  C   UNL A   1      34.981  33.961  29.460  1.00  0.00     0.054 A 
BRANCH  72  73
ATOM     73  S   UNL A   1      33.404  34.807  29.174  1.00  0.00     0.124 S 
ATOM     74  O   UNL A   1      32.815  34.803  30.511  1.00  0.00    -0.237 OA
ATOM     75  O   UNL A   1      33.821  36.115  28.676  1.00  0.00    -0.237 OA
ATOM     76  O   UNL A   1      32.731  33.958  28.194  1.00  0.00    -0.744 OA
ENDBRANCH  72  73
ENDBRANCH  53  67
BRANCH  54  77
ATOM     77  C   UNL A   1      46.074  28.020  31.319  1.00  0.00    -0.014 A 
ATOM     78  C   UNL A   1      46.270  27.246  32.475  1.00  0.00     0.010 A 
ATOM     79  C   UNL A   1      47.137  28.184  30.413  1.00  0.00     0.010 A 
ATOM     80  C   UNL A   1      47.516  26.667  32.736  1.00  0.00     0.020 A 
ATOM     81  C   UNL A   1      48.379  27.595  30.663  1.00  0.00     0.020 A 
ATOM     82  C   UNL A   1      48.566  26.854  31.831  1.00  0.00     0.054 A 
BRANCH  82  83
ATOM     83  S   UNL A   1      50.174  26.085  32.169  1.00  0.00     0.124 S 
ATOM     84  O   UNL A   1      50.591  26.775  33.385  1.00  0.00    -0.237 OA
ATOM     85  O   UNL A   1      49.832  24.673  32.328  1.00  0.00    -0.237 OA
ATOM     86  O   UNL A   1      50.955  26.395  30.972  1.00  0.00    -0.744 OA
ENDBRANCH  82  83
ENDBRANCH  54  77
BRANCH  66  87
ATOM     87  C   UNL A   1      43.547  34.151  33.439  1.00  0.00    -0.014 A 
ATOM     88  C   UNL A   1      44.069  35.314  32.847  1.00  0.00     0.010 A 
ATOM     89  C   UNL A   1      43.491  34.060  34.842  1.00  0.00     0.010 A 
ATOM     90  C   UNL A   1      44.538  36.363  33.644  1.00  0.00     0.020 A 
ATOM     91  C   UNL A   1      43.943  35.114  35.642  1.00  0.00     0.020 A 
ATOM     92  C   UNL A   1      44.472  36.257  35.037  1.00  0.00     0.054 A 
BRANCH  92  93
ATOM     93  S   UNL A   1      45.018  37.657  36.055  1.00  0.00     0.124 S 
ATOM     94  O   UNL A   1      43.792  38.015  36.763  1.00  0.00    -0.237 OA
ATOM     95  O   UNL A   1      46.071  37.070  36.881  1.00  0.00    -0.237 OA
ATOM     96  O   UNL A   1      45.480  38.636  35.074  1.00  0.00    -0.744 OA
ENDBRANCH  92  93
ENDBRANCH  66  87
ENDBRANCH  40  41
ENDBRANCH  33  35
ENDBRANCH  32  33
ENDBRANCH  31  32
ENDBRANCH   1  31
TORSDOF 17
ENDMDL
