MODEL 1
REMARK VINA RESULT:     -12.4      0.000      0.000
REMARK SMILES CS(=O)(=O)c1ccc(C2=NN(c3ccc(C(=O)OCCOC(=O)c4ccc(-c5c6nc(c(-c7ccc(S(=O)(=O)[O-])cc7)c7ccc([nH]7)c(-c7ccc(S(=O)(=O)[O-])cc7)c7nc(c(-c8ccc(S(=O)(=O)[O-])cc8)c8ccc5[nH]8)C=C7)C=C6)cc4)cc3)[C@H](c3cccs3)C2)cc1
REMARK SMILES IDX 19 1 18 2 16 3 17 4 15 5 12 6 13 7 85 8 14 9 84 10 11 11
REMARK SMILES IDX 9 12 10 13 92 14 86 15 8 16 5 17 6 18 94 19 7 20 93 21 2 22
REMARK SMILES IDX 1 23 3 24 4 25 87 26 88 27 91 28 89 29 90 30 20 31 21 32
REMARK SMILES IDX 22 33 23 34 24 35 25 36 83 37 26 38 82 39 27 40 28 41 29 42
REMARK SMILES IDX 76 43 30 44 81 45 75 46 77 47 31 48 80 49 74 50 73 51 32 53
REMARK SMILES IDX 62 54 43 55 61 56 44 57 47 58 60 59 78 60 45 61 46 62 59 64
REMARK SMILES IDX 79 65 48 66 33 67 34 68 42 69 35 70 41 71 36 72 37 73 38 74
REMARK SMILES IDX 39 75 40 76 63 77 64 78 72 79 65 80 71 81 66 82 67 83 68 84
REMARK SMILES IDX 69 85 70 86 49 87 50 88 58 89 51 90 57 91 52 92 53 93 54 94
REMARK SMILES IDX 55 95 56 96
REMARK H PARENT 77 52 47 63
REMARK Flexibility Score: inf
ROOT
ATOM      1  C   UNL A   1      40.593  22.936  27.055  1.00  0.00     0.275 C 
ENDROOT
BRANCH   1   2
ATOM      2  O   UNL A   1      39.282  23.258  26.550  1.00  0.00    -0.458 OA
BRANCH   2   3
ATOM      3  C   UNL A   1      38.652  22.257  25.885  1.00  0.00     0.338 C 
ATOM      4  O   UNL A   1      39.043  21.107  25.767  1.00  0.00    -0.246 OA
BRANCH   3   5
ATOM      5  C   UNL A   1      37.350  22.716  25.342  1.00  0.00     0.060 A 
ATOM      6  C   UNL A   1      34.805  23.525  24.474  1.00  0.00     0.060 A 
ATOM      7  C   UNL A   1      35.314  23.991  25.688  1.00  0.00     0.029 A 
ATOM      8  C   UNL A   1      35.604  22.695  23.676  1.00  0.00     0.029 A 
ATOM      9  C   UNL A   1      36.565  23.564  26.134  1.00  0.00     0.018 A 
ATOM     10  C   UNL A   1      36.875  22.296  24.097  1.00  0.00     0.018 A 
BRANCH   6  11
ATOM     11  N   UNL A   1      33.473  23.743  24.126  1.00  0.00    -0.257 N 
ATOM     12  C   UNL A   1      31.780  25.022  24.000  1.00  0.00     0.071 C 
ATOM     13  N   UNL A   1      33.048  24.966  23.730  1.00  0.00    -0.176 NA
ATOM     14  C   UNL A   1      31.221  23.850  24.763  1.00  0.00     0.091 C 
ATOM     15  C   UNL A   1      32.447  22.937  24.796  1.00  0.00     0.154 C 
BRANCH  12  16
ATOM     16  C   UNL A   1      30.920  26.140  23.573  1.00  0.00    -0.002 A 
ATOM     17  C   UNL A   1      29.249  28.271  22.902  1.00  0.00     0.067 A 
ATOM     18  C   UNL A   1      28.757  27.219  23.683  1.00  0.00     0.021 A 
ATOM     19  C   UNL A   1      30.568  28.254  22.439  1.00  0.00     0.021 A 
ATOM     20  C   UNL A   1      29.590  26.149  24.009  1.00  0.00     0.011 A 
ATOM     21  C   UNL A   1      31.408  27.188  22.786  1.00  0.00     0.011 A 
BRANCH  17  22
ATOM     22  S   UNL A   1      28.132  29.614  22.571  1.00  0.00     0.175 S 
ATOM     23  C   UNL A   1      28.689  31.015  23.493  1.00  0.00     0.163 C 
ATOM     24  O   UNL A   1      26.852  29.220  23.132  1.00  0.00    -0.224 OA
ATOM     25  O   UNL A   1      28.269  29.933  21.164  1.00  0.00    -0.224 OA
ENDBRANCH  17  22
ENDBRANCH  12  16
BRANCH  15  26
ATOM     26  C   UNL A   1      32.296  21.559  24.184  1.00  0.00     0.030 A 
ATOM     27  C   UNL A   1      32.458  20.354  24.848  1.00  0.00     0.017 A 
ATOM     28  S   UNL A   1      32.072  21.308  22.503  1.00  0.00    -0.147 S 
ATOM     29  C   UNL A   1      32.424  19.234  23.972  1.00  0.00     0.012 A 
ATOM     30  C   UNL A   1      32.209  19.612  22.667  1.00  0.00     0.065 A 
ENDBRANCH  15  26
ENDBRANCH   6  11
ENDBRANCH   3   5
ENDBRANCH   2   3
ENDBRANCH   1   2
BRANCH   1  31
ATOM     31  C   UNL A   1      41.669  23.361  26.057  1.00  0.00     0.275 C 
BRANCH  31  32
ATOM     32  O   UNL A   1      42.320  24.554  26.530  1.00  0.00    -0.458 OA
BRANCH  32  33
ATOM     33  C   UNL A   1      41.646  25.711  26.337  1.00  0.00     0.338 C 
ATOM     34  O   UNL A   1      41.182  26.135  25.294  1.00  0.00    -0.246 OA
BRANCH  33  35
ATOM     35  C   UNL A   1      41.550  26.434  27.618  1.00  0.00     0.060 A 
ATOM     36  C   UNL A   1      40.532  26.113  28.514  1.00  0.00     0.016 A 
ATOM     37  C   UNL A   1      42.405  27.500  27.884  1.00  0.00     0.016 A 
ATOM     38  C   UNL A   1      40.324  26.893  29.651  1.00  0.00     0.010 A 
ATOM     39  C   UNL A   1      42.246  28.233  29.066  1.00  0.00     0.010 A 
ATOM     40  C   UNL A   1      41.183  27.959  29.948  1.00  0.00    -0.014 A 
BRANCH  40  41
ATOM     41  C   UNL A   1      40.944  28.813  31.147  1.00  0.00     0.031 A 
ATOM     42  C   UNL A   1      39.811  29.809  31.155  1.00  0.00     0.074 A 
ATOM     43  C   UNL A   1      41.729  28.701  32.238  1.00  0.00     0.049 A 
ATOM     44  N   UNL A   1      39.535  30.740  32.032  1.00  0.00    -0.248 NA
ATOM     45  C   UNL A   1      38.878  29.760  30.019  1.00  0.00     0.031 C 
ATOM     46  C   UNL A   1      42.840  27.759  32.393  1.00  0.00     0.029 A 
ATOM     47  N   UNL A   1      41.709  29.385  33.430  1.00  0.00    -0.354 N 
ATOM     48  C   UNL A   1      38.442  31.431  31.521  1.00  0.00     0.074 A 
ATOM     49  C   UNL A   1      38.103  30.808  30.260  1.00  0.00     0.031 C 
ATOM     50  C   UNL A   1      43.367  27.898  33.619  1.00  0.00     0.029 A 
ATOM     51  C   UNL A   1      42.689  28.990  34.309  1.00  0.00     0.049 A 
ATOM     52  H   UNL A   1      41.054  30.092  33.634  1.00  0.00     0.167 HD
ATOM     53  C   UNL A   1      37.785  32.493  32.048  1.00  0.00     0.031 A 
ATOM     54  C   UNL A   1      43.033  29.469  35.521  1.00  0.00     0.031 A 
ATOM     55  C   UNL A   1      38.088  33.083  33.325  1.00  0.00     0.049 A 
ATOM     56  C   UNL A   1      42.290  30.642  36.091  1.00  0.00     0.074 A 
ATOM     57  C   UNL A   1      37.457  34.142  33.957  1.00  0.00     0.029 A 
ATOM     58  N   UNL A   1      39.099  32.659  34.175  1.00  0.00    -0.354 N 
ATOM     59  N   UNL A   1      41.285  31.308  35.574  1.00  0.00    -0.248 NA
ATOM     60  C   UNL A   1      42.737  31.139  37.399  1.00  0.00     0.031 C 
ATOM     61  C   UNL A   1      38.111  34.382  35.171  1.00  0.00     0.029 A 
ATOM     62  C   UNL A   1      39.120  33.444  35.316  1.00  0.00     0.049 A 
ATOM     63  H   UNL A   1      39.712  31.910  33.992  1.00  0.00     0.167 HD
ATOM     64  C   UNL A   1      40.981  32.305  36.492  1.00  0.00     0.074 A 
ATOM     65  C   UNL A   1      41.890  32.139  37.609  1.00  0.00     0.031 C 
ATOM     66  C   UNL A   1      40.040  33.277  36.413  1.00  0.00     0.031 A 
BRANCH  53  67
ATOM     67  C   UNL A   1      36.703  33.121  31.210  1.00  0.00    -0.014 A 
ATOM     68  C   UNL A   1      36.990  33.788  30.006  1.00  0.00     0.010 A 
ATOM     69  C   UNL A   1      35.365  33.026  31.638  1.00  0.00     0.010 A 
ATOM     70  C   UNL A   1      35.964  34.393  29.272  1.00  0.00     0.020 A 
ATOM     71  C   UNL A   1      34.334  33.606  30.894  1.00  0.00     0.020 A 
ATOM     72  C   UNL A   1      34.643  34.306  29.726  1.00  0.00     0.054 A 
BRANCH  72  73
ATOM     73  S   UNL A   1      33.327  35.098  28.761  1.00  0.00     0.124 S 
ATOM     74  O   UNL A   1      32.454  35.615  29.812  1.00  0.00    -0.237 OA
ATOM     75  O   UNL A   1      34.051  36.108  27.992  1.00  0.00    -0.237 OA
ATOM     76  O   UNL A   1      32.770  34.003  27.971  1.00  0.00    -0.744 OA
ENDBRANCH  72  73
ENDBRANCH  53  67
BRANCH  54  77
ATOM     77  C   UNL A   1      44.172  28.850  36.253  1.00  0.00    -0.014 A 
ATOM     78  C   UNL A   1      43.993  27.663  36.983  1.00  0.00     0.010 A 
ATOM     79  C   UNL A   1      45.457  29.417  36.170  1.00  0.00     0.010 A 
ATOM     80  C   UNL A   1      45.081  27.047  37.607  1.00  0.00     0.020 A 
ATOM     81  C   UNL A   1      46.551  28.790  36.772  1.00  0.00     0.020 A 
ATOM     82  C   UNL A   1      46.355  27.609  37.489  1.00  0.00     0.054 A 
BRANCH  82  83
ATOM     83  S   UNL A   1      47.773  26.737  38.212  1.00  0.00     0.124 S 
ATOM     84  O   UNL A   1      47.249  25.383  38.369  1.00  0.00    -0.237 OA
ATOM     85  O   UNL A   1      48.804  26.902  37.190  1.00  0.00    -0.237 OA
ATOM     86  O   UNL A   1      48.021  27.464  39.455  1.00  0.00    -0.744 OA
ENDBRANCH  82  83
ENDBRANCH  54  77
BRANCH  66  87
ATOM     87  C   UNL A   1      39.938  34.232  37.571  1.00  0.00    -0.014 A 
ATOM     88  C   UNL A   1      39.108  33.948  38.670  1.00  0.00     0.010 A 
ATOM     89  C   UNL A   1      40.709  35.407  37.576  1.00  0.00     0.010 A 
ATOM     90  C   UNL A   1      39.026  34.840  39.742  1.00  0.00     0.020 A 
ATOM     91  C   UNL A   1      40.646  36.292  38.657  1.00  0.00     0.020 A 
ATOM     92  C   UNL A   1      39.793  36.010  39.726  1.00  0.00     0.054 A 
BRANCH  92  93
ATOM     93  S   UNL A   1      39.696  37.142  41.141  1.00  0.00     0.124 S 
ATOM     94  O   UNL A   1      41.104  37.436  41.390  1.00  0.00    -0.237 OA
ATOM     95  O   UNL A   1      38.905  38.252  40.614  1.00  0.00    -0.237 OA
ATOM     96  O   UNL A   1      39.031  36.349  42.173  1.00  0.00    -0.744 OA
ENDBRANCH  92  93
ENDBRANCH  66  87
ENDBRANCH  40  41
ENDBRANCH  33  35
ENDBRANCH  32  33
ENDBRANCH  31  32
ENDBRANCH   1  31
TORSDOF 18
ENDMDL
MODEL 2
REMARK VINA RESULT:     -12.1      6.108     12.141
REMARK SMILES CS(=O)(=O)c1ccc(C2=NN(c3ccc(C(=O)OCCOC(=O)c4ccc(-c5c6nc(c(-c7ccc(S(=O)(=O)[O-])cc7)c7ccc([nH]7)c(-c7ccc(S(=O)(=O)[O-])cc7)c7nc(c(-c8ccc(S(=O)(=O)[O-])cc8)c8ccc5[nH]8)C=C7)C=C6)cc4)cc3)[C@H](c3cccs3)C2)cc1
REMARK SMILES IDX 19 1 18 2 16 3 17 4 15 5 12 6 13 7 85 8 14 9 84 10 11 11
REMARK SMILES IDX 9 12 10 13 92 14 86 15 8 16 5 17 6 18 94 19 7 20 93 21 2 22
REMARK SMILES IDX 1 23 3 24 4 25 87 26 88 27 91 28 89 29 90 30 20 31 21 32
REMARK SMILES IDX 22 33 23 34 24 35 25 36 83 37 26 38 82 39 27 40 28 41 29 42
REMARK SMILES IDX 76 43 30 44 81 45 75 46 77 47 31 48 80 49 74 50 73 51 32 53
REMARK SMILES IDX 62 54 43 55 61 56 44 57 47 58 60 59 78 60 45 61 46 62 59 64
REMARK SMILES IDX 79 65 48 66 33 67 34 68 42 69 35 70 41 71 36 72 37 73 38 74
REMARK SMILES IDX 39 75 40 76 63 77 64 78 72 79 65 80 71 81 66 82 67 83 68 84
REMARK SMILES IDX 69 85 70 86 49 87 50 88 58 89 51 90 57 91 52 92 53 93 54 94
REMARK SMILES IDX 55 95 56 96
REMARK H PARENT 77 52 47 63
REMARK Flexibility Score: inf
ROOT
ATOM      1  C   UNL A   1      35.012  32.273  29.965  1.00  0.00     0.275 C 
ENDROOT
BRANCH   1   2
ATOM      2  O   UNL A   1      34.966  31.454  28.780  1.00  0.00    -0.458 OA
BRANCH   2   3
ATOM      3  C   UNL A   1      33.919  31.689  27.950  1.00  0.00     0.338 C 
ATOM      4  O   UNL A   1      33.438  32.777  27.681  1.00  0.00    -0.246 OA
BRANCH   3   5
ATOM      5  C   UNL A   1      33.438  30.429  27.332  1.00  0.00     0.060 A 
ATOM      6  C   UNL A   1      32.659  28.067  26.028  1.00  0.00     0.060 A 
ATOM      7  C   UNL A   1      33.985  28.243  26.431  1.00  0.00     0.029 A 
ATOM      8  C   UNL A   1      31.719  29.061  26.333  1.00  0.00     0.029 A 
ATOM      9  C   UNL A   1      34.378  29.429  27.049  1.00  0.00     0.018 A 
ATOM     10  C   UNL A   1      32.098  30.235  26.990  1.00  0.00     0.018 A 
BRANCH   6  11
ATOM     11  N   UNL A   1      32.296  27.006  25.201  1.00  0.00    -0.257 N 
ATOM     12  C   UNL A   1      32.582  25.013  24.518  1.00  0.00     0.071 C 
ATOM     13  N   UNL A   1      32.470  25.723  25.599  1.00  0.00    -0.176 NA
ATOM     14  C   UNL A   1      32.637  25.788  23.228  1.00  0.00     0.091 C 
ATOM     15  C   UNL A   1      32.386  27.203  23.751  1.00  0.00     0.154 C 
BRANCH  12  16
ATOM     16  C   UNL A   1      32.627  23.540  24.530  1.00  0.00    -0.002 A 
ATOM     17  C   UNL A   1      32.853  20.760  24.582  1.00  0.00     0.067 A 
ATOM     18  C   UNL A   1      33.769  21.520  23.846  1.00  0.00     0.021 A 
ATOM     19  C   UNL A   1      31.813  21.382  25.278  1.00  0.00     0.021 A 
ATOM     20  C   UNL A   1      33.648  22.908  23.811  1.00  0.00     0.011 A 
ATOM     21  C   UNL A   1      31.707  22.779  25.259  1.00  0.00     0.011 A 
BRANCH  17  22
ATOM     22  S   UNL A   1      33.107  19.000  24.606  1.00  0.00     0.175 S 
ATOM     23  C   UNL A   1      32.487  18.347  23.085  1.00  0.00     0.163 C 
ATOM     24  O   UNL A   1      32.257  18.485  25.665  1.00  0.00    -0.224 OA
ATOM     25  O   UNL A   1      34.540  18.786  24.623  1.00  0.00    -0.224 OA
ENDBRANCH  17  22
ENDBRANCH  12  16
BRANCH  15  26
ATOM     26  C   UNL A   1      31.189  27.942  23.188  1.00  0.00     0.030 A 
ATOM     27  C   UNL A   1      31.226  29.146  22.504  1.00  0.00     0.017 A 
ATOM     28  S   UNL A   1      29.572  27.457  23.488  1.00  0.00    -0.147 S 
ATOM     29  C   UNL A   1      29.930  29.677  22.253  1.00  0.00     0.012 A 
ATOM     30  C   UNL A   1      28.939  28.851  22.727  1.00  0.00     0.065 A 
ENDBRANCH  15  26
ENDBRANCH   6  11
ENDBRANCH   3   5
ENDBRANCH   2   3
ENDBRANCH   1   2
BRANCH   1  31
ATOM     31  C   UNL A   1      36.459  32.526  30.384  1.00  0.00     0.275 C 
BRANCH  31  32
ATOM     32  O   UNL A   1      36.819  31.621  31.443  1.00  0.00    -0.458 OA
BRANCH  32  33
ATOM     33  C   UNL A   1      37.019  30.333  31.078  1.00  0.00     0.338 C 
ATOM     34  O   UNL A   1      36.244  29.401  31.194  1.00  0.00    -0.246 OA
BRANCH  33  35
ATOM     35  C   UNL A   1      38.368  30.198  30.500  1.00  0.00     0.060 A 
ATOM     36  C   UNL A   1      38.521  30.139  29.117  1.00  0.00     0.016 A 
ATOM     37  C   UNL A   1      39.470  30.027  31.334  1.00  0.00     0.016 A 
ATOM     38  C   UNL A   1      39.764  29.846  28.558  1.00  0.00     0.010 A 
ATOM     39  C   UNL A   1      40.733  29.812  30.770  1.00  0.00     0.010 A 
ATOM     40  C   UNL A   1      40.891  29.686  29.377  1.00  0.00    -0.014 A 
BRANCH  40  41
ATOM     41  C   UNL A   1      42.215  29.343  28.784  1.00  0.00     0.031 A 
ATOM     42  C   UNL A   1      42.465  27.960  28.235  1.00  0.00     0.074 A 
ATOM     43  C   UNL A   1      43.200  30.261  28.724  1.00  0.00     0.049 A 
ATOM     44  N   UNL A   1      43.585  27.424  27.822  1.00  0.00    -0.248 NA
ATOM     45  C   UNL A   1      41.305  27.058  28.158  1.00  0.00     0.031 C 
ATOM     46  C   UNL A   1      43.097  31.650  29.180  1.00  0.00     0.029 A 
ATOM     47  N   UNL A   1      44.486  30.166  28.246  1.00  0.00    -0.354 N 
ATOM     48  C   UNL A   1      43.280  26.105  27.502  1.00  0.00     0.074 A 
ATOM     49  C   UNL A   1      41.868  25.925  27.765  1.00  0.00     0.031 C 
ATOM     50  C   UNL A   1      44.252  32.283  28.926  1.00  0.00     0.029 A 
ATOM     51  C   UNL A   1      45.205  31.332  28.364  1.00  0.00     0.049 A 
ATOM     52  H   UNL A   1      44.856  29.341  27.857  1.00  0.00     0.167 HD
ATOM     53  C   UNL A   1      44.101  25.130  27.041  1.00  0.00     0.031 A 
ATOM     54  C   UNL A   1      46.496  31.604  28.088  1.00  0.00     0.031 A 
ATOM     55  C   UNL A   1      45.493  25.320  26.731  1.00  0.00     0.049 A 
ATOM     56  C   UNL A   1      47.388  30.513  27.572  1.00  0.00     0.074 A 
ATOM     57  C   UNL A   1      46.397  24.399  26.228  1.00  0.00     0.029 A 
ATOM     58  N   UNL A   1      46.183  26.514  26.880  1.00  0.00    -0.354 N 
ATOM     59  N   UNL A   1      47.091  29.262  27.315  1.00  0.00    -0.248 NA
ATOM     60  C   UNL A   1      48.793  30.865  27.325  1.00  0.00     0.031 C 
ATOM     61  C   UNL A   1      47.643  25.027  26.110  1.00  0.00     0.029 A 
ATOM     62  C   UNL A   1      47.504  26.351  26.496  1.00  0.00     0.049 A 
ATOM     63  H   UNL A   1      45.790  27.354  27.212  1.00  0.00     0.167 HD
ATOM     64  C   UNL A   1      48.273  28.676  26.878  1.00  0.00     0.074 A 
ATOM     65  C   UNL A   1      49.283  29.715  26.879  1.00  0.00     0.031 C 
ATOM     66  C   UNL A   1      48.502  27.389  26.517  1.00  0.00     0.031 A 
BRANCH  53  67
ATOM     67  C   UNL A   1      43.519  23.749  26.896  1.00  0.00    -0.014 A 
ATOM     68  C   UNL A   1      43.315  22.909  28.005  1.00  0.00     0.010 A 
ATOM     69  C   UNL A   1      43.157  23.290  25.614  1.00  0.00     0.010 A 
ATOM     70  C   UNL A   1      42.807  21.618  27.829  1.00  0.00     0.020 A 
ATOM     71  C   UNL A   1      42.625  22.010  25.438  1.00  0.00     0.020 A 
ATOM     72  C   UNL A   1      42.475  21.173  26.545  1.00  0.00     0.054 A 
BRANCH  72  73
ATOM     73  S   UNL A   1      41.820  19.494  26.336  1.00  0.00     0.124 S 
ATOM     74  O   UNL A   1      42.501  19.054  25.122  1.00  0.00    -0.237 OA
ATOM     75  O   UNL A   1      42.236  18.828  27.568  1.00  0.00    -0.237 OA
ATOM     76  O   UNL A   1      40.379  19.699  26.202  1.00  0.00    -0.744 OA
ENDBRANCH  72  73
ENDBRANCH  53  67
BRANCH  54  77
ATOM     77  C   UNL A   1      47.022  32.974  28.339  1.00  0.00    -0.014 A 
ATOM     78  C   UNL A   1      47.622  33.295  29.568  1.00  0.00     0.010 A 
ATOM     79  C   UNL A   1      46.979  33.945  27.321  1.00  0.00     0.010 A 
ATOM     80  C   UNL A   1      48.181  34.560  29.771  1.00  0.00     0.020 A 
ATOM     81  C   UNL A   1      47.559  35.202  27.513  1.00  0.00     0.020 A 
ATOM     82  C   UNL A   1      48.155  35.503  28.739  1.00  0.00     0.054 A 
BRANCH  82  83
ATOM     83  S   UNL A   1      48.982  37.099  28.982  1.00  0.00     0.124 S 
ATOM     84  O   UNL A   1      49.947  37.111  27.886  1.00  0.00    -0.237 OA
ATOM     85  O   UNL A   1      47.879  38.051  28.864  1.00  0.00    -0.237 OA
ATOM     86  O   UNL A   1      49.553  36.986  30.322  1.00  0.00    -0.744 OA
ENDBRANCH  82  83
ENDBRANCH  54  77
BRANCH  66  87
ATOM     87  C   UNL A   1      49.898  27.036  26.083  1.00  0.00    -0.014 A 
ATOM     88  C   UNL A   1      50.810  26.458  26.984  1.00  0.00     0.010 A 
ATOM     89  C   UNL A   1      50.290  27.249  24.750  1.00  0.00     0.010 A 
ATOM     90  C   UNL A   1      52.102  26.129  26.566  1.00  0.00     0.020 A 
ATOM     91  C   UNL A   1      51.575  26.902  24.323  1.00  0.00     0.020 A 
ATOM     92  C   UNL A   1      52.478  26.358  25.239  1.00  0.00     0.054 A 
BRANCH  92  93
ATOM     93  S   UNL A   1      54.151  25.897  24.709  1.00  0.00     0.124 S 
ATOM     94  O   UNL A   1      54.111  26.203  23.282  1.00  0.00    -0.237 OA
ATOM     95  O   UNL A   1      54.999  26.773  25.515  1.00  0.00    -0.237 OA
ATOM     96  O   UNL A   1      54.240  24.477  25.041  1.00  0.00    -0.744 OA
ENDBRANCH  92  93
ENDBRANCH  66  87
ENDBRANCH  40  41
ENDBRANCH  33  35
ENDBRANCH  32  33
ENDBRANCH  31  32
ENDBRANCH   1  31
TORSDOF 18
ENDMDL
MODEL 3
REMARK VINA RESULT:     -12.0      1.358      7.878
REMARK SMILES CS(=O)(=O)c1ccc(C2=NN(c3ccc(C(=O)OCCOC(=O)c4ccc(-c5c6nc(c(-c7ccc(S(=O)(=O)[O-])cc7)c7ccc([nH]7)c(-c7ccc(S(=O)(=O)[O-])cc7)c7nc(c(-c8ccc(S(=O)(=O)[O-])cc8)c8ccc5[nH]8)C=C7)C=C6)cc4)cc3)[C@H](c3cccs3)C2)cc1
REMARK SMILES IDX 19 1 18 2 16 3 17 4 15 5 12 6 13 7 85 8 14 9 84 10 11 11
REMARK SMILES IDX 9 12 10 13 92 14 86 15 8 16 5 17 6 18 94 19 7 20 93 21 2 22
REMARK SMILES IDX 1 23 3 24 4 25 87 26 88 27 91 28 89 29 90 30 20 31 21 32
REMARK SMILES IDX 22 33 23 34 24 35 25 36 83 37 26 38 82 39 27 40 28 41 29 42
REMARK SMILES IDX 76 43 30 44 81 45 75 46 77 47 31 48 80 49 74 50 73 51 32 53
REMARK SMILES IDX 62 54 43 55 61 56 44 57 47 58 60 59 78 60 45 61 46 62 59 64
REMARK SMILES IDX 79 65 48 66 33 67 34 68 42 69 35 70 41 71 36 72 37 73 38 74
REMARK SMILES IDX 39 75 40 76 63 77 64 78 72 79 65 80 71 81 66 82 67 83 68 84
REMARK SMILES IDX 69 85 70 86 49 87 50 88 58 89 51 90 57 91 52 92 53 93 54 94
REMARK SMILES IDX 55 95 56 96
REMARK H PARENT 77 52 47 63
REMARK Flexibility Score: inf
ROOT
ATOM      1  C   UNL A   1      40.442  23.695  27.115  1.00  0.00     0.275 C 
ENDROOT
BRANCH   1   2
ATOM      2  O   UNL A   1      39.040  23.372  27.044  1.00  0.00    -0.458 OA
BRANCH   2   3
ATOM      3  C   UNL A   1      38.685  22.534  26.037  1.00  0.00     0.338 C 
ATOM      4  O   UNL A   1      39.284  21.532  25.685  1.00  0.00    -0.246 OA
BRANCH   3   5
ATOM      5  C   UNL A   1      37.401  22.955  25.424  1.00  0.00     0.060 A 
ATOM      6  C   UNL A   1      34.885  23.698  24.423  1.00  0.00     0.060 A 
ATOM      7  C   UNL A   1      35.352  24.240  25.624  1.00  0.00     0.029 A 
ATOM      8  C   UNL A   1      35.712  22.824  23.705  1.00  0.00     0.029 A 
ATOM      9  C   UNL A   1      36.587  23.846  26.137  1.00  0.00     0.018 A 
ATOM     10  C   UNL A   1      36.969  22.457  24.192  1.00  0.00     0.018 A 
BRANCH   6  11
ATOM     11  N   UNL A   1      33.565  23.888  24.018  1.00  0.00    -0.257 N 
ATOM     12  C   UNL A   1      31.827  25.104  23.892  1.00  0.00     0.071 C 
ATOM     13  N   UNL A   1      33.108  25.120  23.690  1.00  0.00    -0.176 NA
ATOM     14  C   UNL A   1      31.279  23.857  24.534  1.00  0.00     0.091 C 
ATOM     15  C   UNL A   1      32.541  22.994  24.568  1.00  0.00     0.154 C 
BRANCH  12  16
ATOM     16  C   UNL A   1      30.942  26.217  23.501  1.00  0.00    -0.002 A 
ATOM     17  C   UNL A   1      29.222  28.329  22.897  1.00  0.00     0.067 A 
ATOM     18  C   UNL A   1      28.748  27.229  23.621  1.00  0.00     0.021 A 
ATOM     19  C   UNL A   1      30.548  28.370  22.457  1.00  0.00     0.021 A 
ATOM     20  C   UNL A   1      29.606  26.169  23.913  1.00  0.00     0.011 A 
ATOM     21  C   UNL A   1      31.413  27.313  22.770  1.00  0.00     0.011 A 
BRANCH  17  22
ATOM     22  S   UNL A   1      28.073  29.654  22.608  1.00  0.00     0.175 S 
ATOM     23  C   UNL A   1      28.668  31.079  23.467  1.00  0.00     0.163 C 
ATOM     24  O   UNL A   1      26.832  29.259  23.252  1.00  0.00    -0.224 OA
ATOM     25  O   UNL A   1      28.121  29.946  21.189  1.00  0.00    -0.224 OA
ENDBRANCH  17  22
ENDBRANCH  12  16
BRANCH  15  26
ATOM     26  C   UNL A   1      32.484  21.661  23.849  1.00  0.00     0.030 A 
ATOM     27  C   UNL A   1      32.178  21.472  22.511  1.00  0.00     0.017 A 
ATOM     28  S   UNL A   1      32.624  20.160  24.664  1.00  0.00    -0.147 S 
ATOM     29  C   UNL A   1      32.033  20.100  22.168  1.00  0.00     0.012 A 
ATOM     30  C   UNL A   1      32.261  19.277  23.246  1.00  0.00     0.065 A 
ENDBRANCH  15  26
ENDBRANCH   6  11
ENDBRANCH   3   5
ENDBRANCH   2   3
ENDBRANCH   1   2
BRANCH   1  31
ATOM     31  C   UNL A   1      40.770  24.865  26.189  1.00  0.00     0.275 C 
BRANCH  31  32
ATOM     32  O   UNL A   1      40.179  26.069  26.708  1.00  0.00    -0.458 OA
BRANCH  32  33
ATOM     33  C   UNL A   1      40.911  27.198  26.563  1.00  0.00     0.338 C 
ATOM     34  O   UNL A   1      41.425  27.622  25.543  1.00  0.00    -0.246 OA
BRANCH  33  35
ATOM     35  C   UNL A   1      41.017  27.878  27.866  1.00  0.00     0.060 A 
ATOM     36  C   UNL A   1      40.446  27.293  28.995  1.00  0.00     0.016 A 
ATOM     37  C   UNL A   1      41.592  29.143  27.949  1.00  0.00     0.016 A 
ATOM     38  C   UNL A   1      40.391  27.995  30.198  1.00  0.00     0.010 A 
ATOM     39  C   UNL A   1      41.607  29.814  29.177  1.00  0.00     0.010 A 
ATOM     40  C   UNL A   1      40.978  29.263  30.309  1.00  0.00    -0.014 A 
BRANCH  40  41
ATOM     41  C   UNL A   1      40.894  30.027  31.587  1.00  0.00     0.031 A 
ATOM     42  C   UNL A   1      41.984  29.897  32.621  1.00  0.00     0.074 A 
ATOM     43  C   UNL A   1      39.851  30.846  31.830  1.00  0.00     0.049 A 
ATOM     44  N   UNL A   1      42.020  30.355  33.847  1.00  0.00    -0.248 NA
ATOM     45  C   UNL A   1      43.183  29.139  32.229  1.00  0.00     0.031 C 
ATOM     46  C   UNL A   1      38.739  31.103  30.912  1.00  0.00     0.029 A 
ATOM     47  N   UNL A   1      39.558  31.622  32.927  1.00  0.00    -0.354 N 
ATOM     48  C   UNL A   1      43.208  29.883  34.394  1.00  0.00     0.074 A 
ATOM     49  C   UNL A   1      43.867  29.108  33.365  1.00  0.00     0.031 C 
ATOM     50  C   UNL A   1      37.909  32.000  31.465  1.00  0.00     0.029 A 
ATOM     51  C   UNL A   1      38.382  32.324  32.806  1.00  0.00     0.049 A 
ATOM     52  H   UNL A   1      40.136  31.669  33.723  1.00  0.00     0.167 HD
ATOM     53  C   UNL A   1      43.703  30.070  35.642  1.00  0.00     0.031 A 
ATOM     54  C   UNL A   1      37.732  33.113  33.684  1.00  0.00     0.031 A 
ATOM     55  C   UNL A   1      43.076  30.882  36.651  1.00  0.00     0.049 A 
ATOM     56  C   UNL A   1      38.299  33.313  35.060  1.00  0.00     0.074 A 
ATOM     57  C   UNL A   1      43.518  31.156  37.935  1.00  0.00     0.029 A 
ATOM     58  N   UNL A   1      41.878  31.562  36.490  1.00  0.00    -0.354 N 
ATOM     59  N   UNL A   1      39.403  32.825  35.573  1.00  0.00    -0.248 NA
ATOM     60  C   UNL A   1      37.524  34.156  35.981  1.00  0.00     0.031 C 
ATOM     61  C   UNL A   1      42.569  31.972  38.562  1.00  0.00     0.029 A 
ATOM     62  C   UNL A   1      41.557  32.242  37.654  1.00  0.00     0.049 A 
ATOM     63  H   UNL A   1      41.335  31.561  35.668  1.00  0.00     0.167 HD
ATOM     64  C   UNL A   1      39.455  33.299  36.878  1.00  0.00     0.074 A 
ATOM     65  C   UNL A   1      38.285  34.134  37.068  1.00  0.00     0.031 C 
ATOM     66  C   UNL A   1      40.383  33.057  37.835  1.00  0.00     0.031 A 
BRANCH  53  67
ATOM     67  C   UNL A   1      44.966  29.333  36.002  1.00  0.00    -0.014 A 
ATOM     68  C   UNL A   1      46.237  29.901  35.807  1.00  0.00     0.010 A 
ATOM     69  C   UNL A   1      44.870  28.045  36.561  1.00  0.00     0.010 A 
ATOM     70  C   UNL A   1      47.391  29.173  36.118  1.00  0.00     0.020 A 
ATOM     71  C   UNL A   1      46.020  27.324  36.896  1.00  0.00     0.020 A 
ATOM     72  C   UNL A   1      47.275  27.885  36.651  1.00  0.00     0.054 A 
BRANCH  72  73
ATOM     73  S   UNL A   1      48.782  26.956  37.045  1.00  0.00     0.124 S 
ATOM     74  O   UNL A   1      48.358  25.580  36.807  1.00  0.00    -0.237 OA
ATOM     75  O   UNL A   1      49.752  27.490  36.091  1.00  0.00    -0.237 OA
ATOM     76  O   UNL A   1      49.042  27.295  38.443  1.00  0.00    -0.744 OA
ENDBRANCH  72  73
ENDBRANCH  53  67
BRANCH  54  77
ATOM     77  C   UNL A   1      36.442  33.740  33.285  1.00  0.00    -0.014 A 
ATOM     78  C   UNL A   1      36.408  35.055  32.792  1.00  0.00     0.010 A 
ATOM     79  C   UNL A   1      35.248  32.996  33.341  1.00  0.00     0.010 A 
ATOM     80  C   UNL A   1      35.204  35.611  32.350  1.00  0.00     0.020 A 
ATOM     81  C   UNL A   1      34.049  33.541  32.876  1.00  0.00     0.020 A 
ATOM     82  C   UNL A   1      34.034  34.848  32.385  1.00  0.00     0.054 A 
BRANCH  82  83
ATOM     83  S   UNL A   1      32.504  35.548  31.705  1.00  0.00     0.124 S 
ATOM     84  O   UNL A   1      32.516  35.033  30.339  1.00  0.00    -0.237 OA
ATOM     85  O   UNL A   1      31.479  34.987  32.583  1.00  0.00    -0.237 OA
ATOM     86  O   UNL A   1      32.702  36.989  31.836  1.00  0.00    -0.744 OA
ENDBRANCH  82  83
ENDBRANCH  54  77
BRANCH  66  87
ATOM     87  C   UNL A   1      40.177  33.711  39.174  1.00  0.00    -0.014 A 
ATOM     88  C   UNL A   1      40.685  34.996  39.436  1.00  0.00     0.010 A 
ATOM     89  C   UNL A   1      39.435  33.049  40.167  1.00  0.00     0.010 A 
ATOM     90  C   UNL A   1      40.483  35.594  40.681  1.00  0.00     0.020 A 
ATOM     91  C   UNL A   1      39.212  33.653  41.408  1.00  0.00     0.020 A 
ATOM     92  C   UNL A   1      39.751  34.917  41.662  1.00  0.00     0.054 A 
BRANCH  92  93
ATOM     93  S   UNL A   1      39.473  35.723  43.263  1.00  0.00     0.124 S 
ATOM     94  O   UNL A   1      39.813  37.112  42.966  1.00  0.00    -0.237 OA
ATOM     95  O   UNL A   1      38.057  35.463  43.515  1.00  0.00    -0.237 OA
ATOM     96  O   UNL A   1      40.395  35.033  44.162  1.00  0.00    -0.744 OA
ENDBRANCH  92  93
ENDBRANCH  66  87
ENDBRANCH  40  41
ENDBRANCH  33  35
ENDBRANCH  32  33
ENDBRANCH  31  32
ENDBRANCH   1  31
TORSDOF 18
ENDMDL
