MODEL 1
REMARK VINA RESULT:     -12.2      0.000      0.000
REMARK SMILES Cc1ccnc(-n2c(C)nc3c(C(=O)OCCOC(=O)c4ccc(-c5c6nc(c(-c7ccc(S(=O)(=O)[O-])cc7)c7ccc([nH]7)c(-c7ccc(S(=O)(=O)[O-])cc7)c7nc(c(-c8ccc(S(=O)(=O)[O-])cc8)c8ccc5[nH]8)C=C7)C=C6)cc4)cccc32)c1
REMARK SMILES IDX 17 1 16 2 15 3 13 4 14 5 12 6 7 7 8 8 84 9 9 10 10 11 11 12
REMARK SMILES IDX 83 13 82 14 81 15 6 16 1 17 2 18 3 19 85 20 4 21 5 22 18 23
REMARK SMILES IDX 19 24 20 25 21 26 22 27 80 28 23 29 79 30 24 31 25 32 26 33
REMARK SMILES IDX 73 34 27 35 78 36 72 37 74 38 28 39 77 40 71 41 70 42 29 44
REMARK SMILES IDX 59 45 40 46 58 47 41 48 44 49 57 50 75 51 42 52 43 53 56 55
REMARK SMILES IDX 76 56 45 57 30 58 31 59 39 60 32 61 38 62 33 63 34 64 35 65
REMARK SMILES IDX 36 66 37 67 60 68 61 69 69 70 62 71 68 72 63 73 64 74 65 75
REMARK SMILES IDX 66 76 67 77 46 78 47 79 55 80 48 81 54 82 49 83 50 84 51 85
REMARK SMILES IDX 52 86 53 87
REMARK H PARENT 74 43 44 54
REMARK Flexibility Score: inf
ROOT
ATOM      1  C   UNL A   1      34.637  33.467  33.036  1.00  0.00     0.275 C 
ENDROOT
BRANCH   1   2
ATOM      2  C   UNL A   1      34.404  34.002  31.616  1.00  0.00     0.275 C 
BRANCH   2   3
ATOM      3  O   UNL A   1      34.407  32.954  30.605  1.00  0.00    -0.458 OA
BRANCH   3   4
ATOM      4  C   UNL A   1      35.497  32.959  29.794  1.00  0.00     0.340 C 
ATOM      5  O   UNL A   1      36.291  33.882  29.716  1.00  0.00    -0.246 OA
BRANCH   4   6
ATOM      6  C   UNL A   1      35.533  31.866  28.802  1.00  0.00     0.087 A 
ATOM      7  N   UNL A   1      32.995  30.301  26.857  1.00  0.00    -0.281 N 
ATOM      8  C   UNL A   1      32.543  31.615  26.923  1.00  0.00     0.112 A 
ATOM      9  C   UNL A   1      34.264  30.296  27.435  1.00  0.00     0.075 A 
ATOM     10  C   UNL A   1      31.166  32.043  26.532  1.00  0.00     0.088 C 
ATOM     11  N   UNL A   1      33.397  32.386  27.566  1.00  0.00    -0.232 NA
ATOM     12  C   UNL A   1      34.421  31.579  27.981  1.00  0.00     0.104 A 
ATOM     13  C   UNL A   1      35.288  29.341  27.520  1.00  0.00     0.029 A 
ATOM     14  C   UNL A   1      36.448  29.691  28.230  1.00  0.00     0.003 A 
ATOM     15  C   UNL A   1      36.553  30.910  28.904  1.00  0.00     0.018 A 
BRANCH   7  16
ATOM     16  C   UNL A   1      32.193  29.225  26.362  1.00  0.00     0.138 A 
ATOM     17  C   UNL A   1      31.304  27.529  23.078  1.00  0.00     0.044 C 
ATOM     18  C   UNL A   1      31.472  27.838  24.540  1.00  0.00    -0.046 A 
ATOM     19  C   UNL A   1      31.126  26.855  25.471  1.00  0.00     0.023 A 
ATOM     20  C   UNL A   1      31.981  29.069  24.994  1.00  0.00     0.051 A 
ATOM     21  C   UNL A   1      31.321  27.118  26.809  1.00  0.00     0.114 A 
ATOM     22  N   UNL A   1      31.853  28.268  27.269  1.00  0.00    -0.239 NA
ENDBRANCH   7  16
ENDBRANCH   4   6
ENDBRANCH   3   4
ENDBRANCH   2   3
ENDBRANCH   1   2
BRANCH   1  23
ATOM     23  O   UNL A   1      35.387  32.243  32.956  1.00  0.00    -0.458 OA
BRANCH  23  24
ATOM     24  C   UNL A   1      36.667  32.316  33.383  1.00  0.00     0.338 C 
ATOM     25  O   UNL A   1      37.062  32.808  34.433  1.00  0.00    -0.246 OA
BRANCH  24  26
ATOM     26  C   UNL A   1      37.415  31.354  32.555  1.00  0.00     0.060 A 
ATOM     27  C   UNL A   1      37.076  29.995  32.457  1.00  0.00     0.016 A 
ATOM     28  C   UNL A   1      38.646  31.802  32.102  1.00  0.00     0.016 A 
ATOM     29  C   UNL A   1      38.024  29.071  31.994  1.00  0.00     0.010 A 
ATOM     30  C   UNL A   1      39.585  30.868  31.699  1.00  0.00     0.010 A 
ATOM     31  C   UNL A   1      39.311  29.505  31.668  1.00  0.00    -0.014 A 
BRANCH  31  32
ATOM     32  C   UNL A   1      40.386  28.614  31.210  1.00  0.00     0.031 A 
ATOM     33  C   UNL A   1      41.401  28.208  32.234  1.00  0.00     0.074 A 
ATOM     34  C   UNL A   1      40.387  27.908  30.052  1.00  0.00     0.049 A 
ATOM     35  N   UNL A   1      42.688  28.293  32.131  1.00  0.00    -0.248 NA
ATOM     36  C   UNL A   1      40.960  27.620  33.510  1.00  0.00     0.031 C 
ATOM     37  C   UNL A   1      39.349  27.793  29.029  1.00  0.00     0.029 A 
ATOM     38  N   UNL A   1      41.343  27.044  29.591  1.00  0.00    -0.354 N 
ATOM     39  C   UNL A   1      43.221  27.676  33.258  1.00  0.00     0.074 A 
ATOM     40  C   UNL A   1      42.113  27.289  34.087  1.00  0.00     0.031 C 
ATOM     41  C   UNL A   1      39.642  26.782  28.174  1.00  0.00     0.029 A 
ATOM     42  C   UNL A   1      40.975  26.296  28.475  1.00  0.00     0.049 A 
ATOM     43  H   UNL A   1      42.227  26.957  30.017  1.00  0.00     0.167 HD
ATOM     44  C   UNL A   1      44.550  27.447  33.416  1.00  0.00     0.031 A 
ATOM     45  C   UNL A   1      41.728  25.371  27.828  1.00  0.00     0.031 A 
ATOM     46  C   UNL A   1      45.343  28.299  32.576  1.00  0.00     0.049 A 
ATOM     47  C   UNL A   1      43.137  25.650  28.180  1.00  0.00     0.074 A 
ATOM     48  C   UNL A   1      45.422  29.673  32.441  1.00  0.00     0.029 A 
ATOM     49  N   UNL A   1      45.889  27.782  31.429  1.00  0.00    -0.354 N 
ATOM     50  N   UNL A   1      43.798  26.701  27.789  1.00  0.00    -0.248 NA
ATOM     51  C   UNL A   1      43.750  24.875  29.242  1.00  0.00     0.031 C 
ATOM     52  C   UNL A   1      45.500  29.892  31.038  1.00  0.00     0.029 A 
ATOM     53  C   UNL A   1      45.539  28.641  30.415  1.00  0.00     0.049 A 
ATOM     54  H   UNL A   1      46.426  26.959  31.349  1.00  0.00     0.167 HD
ATOM     55  C   UNL A   1      44.684  26.958  28.820  1.00  0.00     0.074 A 
ATOM     56  C   UNL A   1      44.700  25.732  29.615  1.00  0.00     0.031 C 
ATOM     57  C   UNL A   1      45.116  28.225  29.091  1.00  0.00     0.031 A 
BRANCH  44  58
ATOM     58  C   UNL A   1      45.112  26.313  34.218  1.00  0.00    -0.014 A 
ATOM     59  C   UNL A   1      44.984  26.250  35.623  1.00  0.00     0.010 A 
ATOM     60  C   UNL A   1      45.584  25.162  33.560  1.00  0.00     0.010 A 
ATOM     61  C   UNL A   1      45.328  25.103  36.342  1.00  0.00     0.020 A 
ATOM     62  C   UNL A   1      45.896  23.994  34.269  1.00  0.00     0.020 A 
ATOM     63  C   UNL A   1      45.768  23.975  35.657  1.00  0.00     0.054 A 
BRANCH  63  64
ATOM     64  S   UNL A   1      46.077  22.462  36.605  1.00  0.00     0.124 S 
ATOM     65  O   UNL A   1      45.229  21.494  35.913  1.00  0.00    -0.237 OA
ATOM     66  O   UNL A   1      47.515  22.275  36.435  1.00  0.00    -0.237 OA
ATOM     67  O   UNL A   1      45.651  22.812  37.958  1.00  0.00    -0.744 OA
ENDBRANCH  63  64
ENDBRANCH  44  58
BRANCH  45  68
ATOM     68  C   UNL A   1      41.388  24.139  27.072  1.00  0.00    -0.014 A 
ATOM     69  C   UNL A   1      40.436  23.238  27.579  1.00  0.00     0.010 A 
ATOM     70  C   UNL A   1      42.280  23.672  26.081  1.00  0.00     0.010 A 
ATOM     71  C   UNL A   1      40.473  21.882  27.220  1.00  0.00     0.020 A 
ATOM     72  C   UNL A   1      42.328  22.316  25.726  1.00  0.00     0.020 A 
ATOM     73  C   UNL A   1      41.458  21.421  26.344  1.00  0.00     0.054 A 
BRANCH  73  74
ATOM     74  S   UNL A   1      41.682  19.627  26.158  1.00  0.00     0.124 S 
ATOM     75  O   UNL A   1      40.335  19.197  25.791  1.00  0.00    -0.237 OA
ATOM     76  O   UNL A   1      42.677  19.543  25.093  1.00  0.00    -0.237 OA
ATOM     77  O   UNL A   1      42.141  19.193  27.475  1.00  0.00    -0.744 OA
ENDBRANCH  73  74
ENDBRANCH  45  68
BRANCH  57  78
ATOM     78  C   UNL A   1      44.859  29.344  28.092  1.00  0.00    -0.014 A 
ATOM     79  C   UNL A   1      45.962  29.822  27.357  1.00  0.00     0.010 A 
ATOM     80  C   UNL A   1      43.651  30.066  28.010  1.00  0.00     0.010 A 
ATOM     81  C   UNL A   1      45.886  31.005  26.618  1.00  0.00     0.020 A 
ATOM     82  C   UNL A   1      43.555  31.237  27.238  1.00  0.00     0.020 A 
ATOM     83  C   UNL A   1      44.687  31.716  26.575  1.00  0.00     0.054 A 
BRANCH  83  84
ATOM     84  S   UNL A   1      44.649  33.287  25.668  1.00  0.00     0.124 S 
ATOM     85  O   UNL A   1      43.812  34.121  26.527  1.00  0.00    -0.237 OA
ATOM     86  O   UNL A   1      46.060  33.668  25.617  1.00  0.00    -0.237 OA
ATOM     87  O   UNL A   1      44.060  32.938  24.377  1.00  0.00    -0.744 OA
ENDBRANCH  83  84
ENDBRANCH  57  78
ENDBRANCH  31  32
ENDBRANCH  24  26
ENDBRANCH  23  24
ENDBRANCH   1  23
TORSDOF 15
ENDMDL
MODEL 2
REMARK VINA RESULT:     -12.0      1.150      1.944
REMARK SMILES Cc1ccnc(-n2c(C)nc3c(C(=O)OCCOC(=O)c4ccc(-c5c6nc(c(-c7ccc(S(=O)(=O)[O-])cc7)c7ccc([nH]7)c(-c7ccc(S(=O)(=O)[O-])cc7)c7nc(c(-c8ccc(S(=O)(=O)[O-])cc8)c8ccc5[nH]8)C=C7)C=C6)cc4)cccc32)c1
REMARK SMILES IDX 17 1 16 2 15 3 13 4 14 5 12 6 7 7 8 8 84 9 9 10 10 11 11 12
REMARK SMILES IDX 83 13 82 14 81 15 6 16 1 17 2 18 3 19 85 20 4 21 5 22 18 23
REMARK SMILES IDX 19 24 20 25 21 26 22 27 80 28 23 29 79 30 24 31 25 32 26 33
REMARK SMILES IDX 73 34 27 35 78 36 72 37 74 38 28 39 77 40 71 41 70 42 29 44
REMARK SMILES IDX 59 45 40 46 58 47 41 48 44 49 57 50 75 51 42 52 43 53 56 55
REMARK SMILES IDX 76 56 45 57 30 58 31 59 39 60 32 61 38 62 33 63 34 64 35 65
REMARK SMILES IDX 36 66 37 67 60 68 61 69 69 70 62 71 68 72 63 73 64 74 65 75
REMARK SMILES IDX 66 76 67 77 46 78 47 79 55 80 48 81 54 82 49 83 50 84 51 85
REMARK SMILES IDX 52 86 53 87
REMARK H PARENT 74 43 44 54
REMARK Flexibility Score: inf
ROOT
ATOM      1  C   UNL A   1      34.976  34.269  30.723  1.00  0.00     0.275 C 
ENDROOT
BRANCH   1   2
ATOM      2  C   UNL A   1      33.545  34.618  30.290  1.00  0.00     0.275 C 
BRANCH   2   3
ATOM      3  O   UNL A   1      33.470  35.133  28.931  1.00  0.00    -0.458 OA
BRANCH   3   4
ATOM      4  C   UNL A   1      33.972  34.297  27.984  1.00  0.00     0.340 C 
ATOM      5  O   UNL A   1      34.930  34.558  27.277  1.00  0.00    -0.246 OA
BRANCH   4   6
ATOM      6  C   UNL A   1      33.121  33.130  27.679  1.00  0.00     0.087 A 
ATOM      7  N   UNL A   1      33.881  29.746  26.874  1.00  0.00    -0.281 N 
ATOM      8  C   UNL A   1      34.902  30.071  27.761  1.00  0.00     0.112 A 
ATOM      9  C   UNL A   1      33.006  30.832  26.874  1.00  0.00     0.075 A 
ATOM     10  C   UNL A   1      36.125  29.238  27.964  1.00  0.00     0.088 C 
ATOM     11  N   UNL A   1      34.759  31.294  28.231  1.00  0.00    -0.232 NA
ATOM     12  C   UNL A   1      33.654  31.824  27.625  1.00  0.00     0.104 A 
ATOM     13  C   UNL A   1      31.729  31.049  26.332  1.00  0.00     0.029 A 
ATOM     14  C   UNL A   1      31.153  32.317  26.511  1.00  0.00     0.003 A 
ATOM     15  C   UNL A   1      31.853  33.358  27.128  1.00  0.00     0.018 A 
BRANCH   7  16
ATOM     16  C   UNL A   1      33.880  28.549  26.092  1.00  0.00     0.138 A 
ATOM     17  C   UNL A   1      32.482  25.014  26.187  1.00  0.00     0.044 C 
ATOM     18  C   UNL A   1      33.109  26.303  25.732  1.00  0.00    -0.046 A 
ATOM     19  C   UNL A   1      33.399  26.458  24.375  1.00  0.00     0.023 A 
ATOM     20  C   UNL A   1      33.391  27.356  26.623  1.00  0.00     0.051 A 
ATOM     21  C   UNL A   1      33.930  27.655  23.947  1.00  0.00     0.114 A 
ATOM     22  N   UNL A   1      34.165  28.698  24.770  1.00  0.00    -0.239 NA
ENDBRANCH   7  16
ENDBRANCH   4   6
ENDBRANCH   3   4
ENDBRANCH   2   3
ENDBRANCH   1   2
BRANCH   1  23
ATOM     23  O   UNL A   1      35.018  32.891  31.126  1.00  0.00    -0.458 OA
BRANCH  23  24
ATOM     24  C   UNL A   1      35.950  32.585  32.055  1.00  0.00     0.338 C 
ATOM     25  O   UNL A   1      35.945  32.915  33.235  1.00  0.00    -0.246 OA
BRANCH  24  26
ATOM     26  C   UNL A   1      36.728  31.472  31.483  1.00  0.00     0.060 A 
ATOM     27  C   UNL A   1      36.506  30.126  31.815  1.00  0.00     0.016 A 
ATOM     28  C   UNL A   1      37.884  31.846  30.816  1.00  0.00     0.016 A 
ATOM     29  C   UNL A   1      37.502  29.171  31.563  1.00  0.00     0.010 A 
ATOM     30  C   UNL A   1      38.876  30.898  30.623  1.00  0.00     0.010 A 
ATOM     31  C   UNL A   1      38.722  29.572  31.015  1.00  0.00    -0.014 A 
BRANCH  31  32
ATOM     32  C   UNL A   1      39.842  28.660  30.747  1.00  0.00     0.031 A 
ATOM     33  C   UNL A   1      40.677  28.260  31.924  1.00  0.00     0.074 A 
ATOM     34  C   UNL A   1      40.013  27.932  29.616  1.00  0.00     0.049 A 
ATOM     35  N   UNL A   1      41.966  28.327  32.024  1.00  0.00    -0.248 NA
ATOM     36  C   UNL A   1      40.032  27.702  33.125  1.00  0.00     0.031 C 
ATOM     37  C   UNL A   1      39.147  27.812  28.444  1.00  0.00     0.029 A 
ATOM     38  N   UNL A   1      41.016  27.047  29.324  1.00  0.00    -0.354 N 
ATOM     39  C   UNL A   1      42.305  27.724  33.230  1.00  0.00     0.074 A 
ATOM     40  C   UNL A   1      41.075  27.367  33.881  1.00  0.00     0.031 C 
ATOM     41  C   UNL A   1      39.554  26.780  27.663  1.00  0.00     0.029 A 
ATOM     42  C   UNL A   1      40.815  26.283  28.177  1.00  0.00     0.049 A 
ATOM     43  H   UNL A   1      41.821  26.957  29.885  1.00  0.00     0.167 HD
ATOM     44  C   UNL A   1      43.590  27.480  33.599  1.00  0.00     0.031 A 
ATOM     45  C   UNL A   1      41.647  25.337  27.672  1.00  0.00     0.031 A 
ATOM     46  C   UNL A   1      44.517  28.307  32.880  1.00  0.00     0.049 A 
ATOM     47  C   UNL A   1      42.987  25.604  28.236  1.00  0.00     0.074 A 
ATOM     48  C   UNL A   1      44.638  29.676  32.736  1.00  0.00     0.029 A 
ATOM     49  N   UNL A   1      45.229  27.761  31.842  1.00  0.00    -0.354 N 
ATOM     50  N   UNL A   1      43.717  26.639  27.936  1.00  0.00    -0.248 NA
ATOM     51  C   UNL A   1      43.414  24.841  29.394  1.00  0.00     0.031 C 
ATOM     52  C   UNL A   1      44.938  29.868  31.359  1.00  0.00     0.029 A 
ATOM     53  C   UNL A   1      45.056  28.605  30.771  1.00  0.00     0.049 A 
ATOM     54  H   UNL A   1      45.758  26.930  31.860  1.00  0.00     0.167 HD
ATOM     55  C   UNL A   1      44.434  26.904  29.089  1.00  0.00     0.074 A 
ATOM     56  C   UNL A   1      44.307  25.693  29.897  1.00  0.00     0.031 C 
ATOM     57  C   UNL A   1      44.839  28.169  29.404  1.00  0.00     0.031 A 
BRANCH  44  58
ATOM     58  C   UNL A   1      44.000  26.355  34.498  1.00  0.00    -0.014 A 
ATOM     59  C   UNL A   1      43.834  25.002  34.132  1.00  0.00     0.010 A 
ATOM     60  C   UNL A   1      44.778  26.625  35.640  1.00  0.00     0.010 A 
ATOM     61  C   UNL A   1      44.398  23.963  34.878  1.00  0.00     0.020 A 
ATOM     62  C   UNL A   1      45.377  25.593  36.374  1.00  0.00     0.020 A 
ATOM     63  C   UNL A   1      45.180  24.267  35.988  1.00  0.00     0.054 A 
BRANCH  63  64
ATOM     64  S   UNL A   1      46.006  22.907  36.853  1.00  0.00     0.124 S 
ATOM     65  O   UNL A   1      45.413  21.737  36.212  1.00  0.00    -0.237 OA
ATOM     66  O   UNL A   1      47.413  23.149  36.543  1.00  0.00    -0.237 OA
ATOM     67  O   UNL A   1      45.633  23.112  38.250  1.00  0.00    -0.744 OA
ENDBRANCH  63  64
ENDBRANCH  44  58
BRANCH  45  68
ATOM     68  C   UNL A   1      41.410  24.095  26.893  1.00  0.00    -0.014 A 
ATOM     69  C   UNL A   1      40.376  23.216  27.258  1.00  0.00     0.010 A 
ATOM     70  C   UNL A   1      42.438  23.598  26.061  1.00  0.00     0.010 A 
ATOM     71  C   UNL A   1      40.448  21.853  26.932  1.00  0.00     0.020 A 
ATOM     72  C   UNL A   1      42.521  22.236  25.741  1.00  0.00     0.020 A 
ATOM     73  C   UNL A   1      41.551  21.364  26.229  1.00  0.00     0.054 A 
BRANCH  73  74
ATOM     74  S   UNL A   1      41.773  19.563  26.111  1.00  0.00     0.124 S 
ATOM     75  O   UNL A   1      42.794  19.459  25.071  1.00  0.00    -0.237 OA
ATOM     76  O   UNL A   1      42.215  19.212  27.457  1.00  0.00    -0.237 OA
ATOM     77  O   UNL A   1      40.449  19.070  25.741  1.00  0.00    -0.744 OA
ENDBRANCH  73  74
ENDBRANCH  45  68
BRANCH  57  78
ATOM     78  C   UNL A   1      44.759  29.273  28.359  1.00  0.00    -0.014 A 
ATOM     79  C   UNL A   1      45.960  29.659  27.732  1.00  0.00     0.010 A 
ATOM     80  C   UNL A   1      43.616  30.067  28.135  1.00  0.00     0.010 A 
ATOM     81  C   UNL A   1      46.038  30.823  26.962  1.00  0.00     0.020 A 
ATOM     82  C   UNL A   1      43.676  31.218  27.331  1.00  0.00     0.020 A 
ATOM     83  C   UNL A   1      44.899  31.606  26.779  1.00  0.00     0.054 A 
BRANCH  83  84
ATOM     84  S   UNL A   1      45.057  33.149  25.837  1.00  0.00     0.124 S 
ATOM     85  O   UNL A   1      44.275  34.085  26.642  1.00  0.00    -0.237 OA
ATOM     86  O   UNL A   1      46.500  33.385  25.838  1.00  0.00    -0.237 OA
ATOM     87  O   UNL A   1      44.488  32.828  24.530  1.00  0.00    -0.744 OA
ENDBRANCH  83  84
ENDBRANCH  57  78
ENDBRANCH  31  32
ENDBRANCH  24  26
ENDBRANCH  23  24
ENDBRANCH   1  23
TORSDOF 15
ENDMDL
MODEL 3
REMARK VINA RESULT:     -11.9      3.526     10.649
REMARK SMILES Cc1ccnc(-n2c(C)nc3c(C(=O)OCCOC(=O)c4ccc(-c5c6nc(c(-c7ccc(S(=O)(=O)[O-])cc7)c7ccc([nH]7)c(-c7ccc(S(=O)(=O)[O-])cc7)c7nc(c(-c8ccc(S(=O)(=O)[O-])cc8)c8ccc5[nH]8)C=C7)C=C6)cc4)cccc32)c1
REMARK SMILES IDX 17 1 16 2 15 3 13 4 14 5 12 6 7 7 8 8 84 9 9 10 10 11 11 12
REMARK SMILES IDX 83 13 82 14 81 15 6 16 1 17 2 18 3 19 85 20 4 21 5 22 18 23
REMARK SMILES IDX 19 24 20 25 21 26 22 27 80 28 23 29 79 30 24 31 25 32 26 33
REMARK SMILES IDX 73 34 27 35 78 36 72 37 74 38 28 39 77 40 71 41 70 42 29 44
REMARK SMILES IDX 59 45 40 46 58 47 41 48 44 49 57 50 75 51 42 52 43 53 56 55
REMARK SMILES IDX 76 56 45 57 30 58 31 59 39 60 32 61 38 62 33 63 34 64 35 65
REMARK SMILES IDX 36 66 37 67 60 68 61 69 69 70 62 71 68 72 63 73 64 74 65 75
REMARK SMILES IDX 66 76 67 77 46 78 47 79 55 80 48 81 54 82 49 83 50 84 51 85
REMARK SMILES IDX 52 86 53 87
REMARK H PARENT 74 43 44 54
REMARK Flexibility Score: inf
ROOT
ATOM      1  C   UNL A   1      43.971  21.505  25.743  1.00  0.00     0.275 C 
ENDROOT
BRANCH   1   2
ATOM      2  C   UNL A   1      42.654  20.837  26.160  1.00  0.00     0.275 C 
BRANCH   2   3
ATOM      3  O   UNL A   1      41.497  21.367  25.452  1.00  0.00    -0.458 OA
BRANCH   3   4
ATOM      4  C   UNL A   1      40.299  20.977  25.962  1.00  0.00     0.340 C 
ATOM      5  O   UNL A   1      39.843  19.851  25.856  1.00  0.00    -0.246 OA
BRANCH   4   6
ATOM      6  C   UNL A   1      39.446  22.080  26.446  1.00  0.00     0.087 A 
ATOM      7  N   UNL A   1      36.153  23.125  25.589  1.00  0.00    -0.281 N 
ATOM      8  C   UNL A   1      36.066  21.744  25.448  1.00  0.00     0.112 A 
ATOM      9  C   UNL A   1      37.409  23.383  26.138  1.00  0.00     0.075 A 
ATOM     10  C   UNL A   1      34.932  21.046  24.772  1.00  0.00     0.088 C 
ATOM     11  N   UNL A   1      37.195  21.154  25.787  1.00  0.00    -0.232 NA
ATOM     12  C   UNL A   1      38.074  22.147  26.121  1.00  0.00     0.104 A 
ATOM     13  C   UNL A   1      38.022  24.530  26.663  1.00  0.00     0.029 A 
ATOM     14  C   UNL A   1      39.349  24.415  27.107  1.00  0.00     0.003 A 
ATOM     15  C   UNL A   1      40.070  23.227  26.957  1.00  0.00     0.018 A 
BRANCH   7  16
ATOM     16  C   UNL A   1      35.133  24.020  25.136  1.00  0.00     0.138 A 
ATOM     17  C   UNL A   1      33.375  25.043  21.925  1.00  0.00     0.044 C 
ATOM     18  C   UNL A   1      33.734  24.856  23.373  1.00  0.00    -0.046 A 
ATOM     19  C   UNL A   1      32.833  25.297  24.344  1.00  0.00     0.023 A 
ATOM     20  C   UNL A   1      34.933  24.238  23.774  1.00  0.00     0.051 A 
ATOM     21  C   UNL A   1      33.138  25.086  25.671  1.00  0.00     0.114 A 
ATOM     22  N   UNL A   1      34.255  24.453  26.083  1.00  0.00    -0.239 NA
ENDBRANCH   7  16
ENDBRANCH   4   6
ENDBRANCH   3   4
ENDBRANCH   2   3
ENDBRANCH   1   2
BRANCH   1  23
ATOM     23  O   UNL A   1      44.068  22.787  26.385  1.00  0.00    -0.458 OA
BRANCH  23  24
ATOM     24  C   UNL A   1      44.112  23.852  25.554  1.00  0.00     0.338 C 
ATOM     25  O   UNL A   1      44.524  23.865  24.400  1.00  0.00    -0.246 OA
BRANCH  24  26
ATOM     26  C   UNL A   1      43.217  24.858  26.153  1.00  0.00     0.060 A 
ATOM     27  C   UNL A   1      42.369  25.682  25.396  1.00  0.00     0.016 A 
ATOM     28  C   UNL A   1      43.466  25.146  27.485  1.00  0.00     0.016 A 
ATOM     29  C   UNL A   1      41.854  26.859  25.960  1.00  0.00     0.010 A 
ATOM     30  C   UNL A   1      42.991  26.338  28.006  1.00  0.00     0.010 A 
ATOM     31  C   UNL A   1      42.216  27.220  27.259  1.00  0.00    -0.014 A 
BRANCH  31  32
ATOM     32  C   UNL A   1      41.763  28.447  27.927  1.00  0.00     0.031 A 
ATOM     33  C   UNL A   1      42.669  29.635  27.832  1.00  0.00     0.074 A 
ATOM     34  C   UNL A   1      40.502  28.687  28.364  1.00  0.00     0.049 A 
ATOM     35  N   UNL A   1      43.100  30.367  28.809  1.00  0.00    -0.248 NA
ATOM     36  C   UNL A   1      43.142  30.093  26.514  1.00  0.00     0.031 C 
ATOM     37  C   UNL A   1      39.299  27.866  28.241  1.00  0.00     0.029 A 
ATOM     38  N   UNL A   1      40.018  29.819  28.964  1.00  0.00    -0.354 N 
ATOM     39  C   UNL A   1      43.793  31.429  28.237  1.00  0.00     0.074 A 
ATOM     40  C   UNL A   1      43.803  31.207  26.818  1.00  0.00     0.031 C 
ATOM     41  C   UNL A   1      38.200  28.589  28.571  1.00  0.00     0.029 A 
ATOM     42  C   UNL A   1      38.632  29.865  29.107  1.00  0.00     0.049 A 
ATOM     43  H   UNL A   1      40.605  30.547  29.272  1.00  0.00     0.167 HD
ATOM     44  C   UNL A   1      44.260  32.481  28.959  1.00  0.00     0.031 A 
ATOM     45  C   UNL A   1      37.903  30.868  29.658  1.00  0.00     0.031 A 
ATOM     46  C   UNL A   1      44.387  32.158  30.352  1.00  0.00     0.049 A 
ATOM     47  C   UNL A   1      38.826  31.644  30.514  1.00  0.00     0.074 A 
ATOM     48  C   UNL A   1      45.077  31.168  31.027  1.00  0.00     0.029 A 
ATOM     49  N   UNL A   1      43.434  32.610  31.229  1.00  0.00    -0.354 N 
ATOM     50  N   UNL A   1      39.353  31.200  31.618  1.00  0.00    -0.248 NA
ATOM     51  C   UNL A   1      39.412  32.857  29.975  1.00  0.00     0.031 C 
ATOM     52  C   UNL A   1      44.173  30.720  32.030  1.00  0.00     0.029 A 
ATOM     53  C   UNL A   1      43.025  31.514  31.951  1.00  0.00     0.049 A 
ATOM     54  H   UNL A   1      43.109  33.535  31.323  1.00  0.00     0.167 HD
ATOM     55  C   UNL A   1      40.586  31.822  31.689  1.00  0.00     0.074 A 
ATOM     56  C   UNL A   1      40.508  32.921  30.731  1.00  0.00     0.031 C 
ATOM     57  C   UNL A   1      41.648  31.233  32.314  1.00  0.00     0.031 A 
BRANCH  44  58
ATOM     58  C   UNL A   1      44.433  33.862  28.405  1.00  0.00    -0.014 A 
ATOM     59  C   UNL A   1      43.333  34.689  28.092  1.00  0.00     0.010 A 
ATOM     60  C   UNL A   1      45.710  34.454  28.399  1.00  0.00     0.010 A 
ATOM     61  C   UNL A   1      43.496  36.039  27.769  1.00  0.00     0.020 A 
ATOM     62  C   UNL A   1      45.880  35.815  28.112  1.00  0.00     0.020 A 
ATOM     63  C   UNL A   1      44.770  36.598  27.796  1.00  0.00     0.054 A 
BRANCH  63  64
ATOM     64  S   UNL A   1      44.932  38.378  27.505  1.00  0.00     0.124 S 
ATOM     65  O   UNL A   1      43.663  38.694  26.855  1.00  0.00    -0.237 OA
ATOM     66  O   UNL A   1      45.095  38.902  28.858  1.00  0.00    -0.237 OA
ATOM     67  O   UNL A   1      46.113  38.481  26.652  1.00  0.00    -0.744 OA
ENDBRANCH  63  64
ENDBRANCH  44  58
BRANCH  45  68
ATOM     68  C   UNL A   1      36.530  31.374  29.409  1.00  0.00    -0.014 A 
ATOM     69  C   UNL A   1      36.165  31.831  28.131  1.00  0.00     0.010 A 
ATOM     70  C   UNL A   1      35.733  31.771  30.505  1.00  0.00     0.010 A 
ATOM     71  C   UNL A   1      35.134  32.770  27.974  1.00  0.00     0.020 A 
ATOM     72  C   UNL A   1      34.710  32.718  30.357  1.00  0.00     0.020 A 
ATOM     73  C   UNL A   1      34.457  33.253  29.096  1.00  0.00     0.054 A 
BRANCH  73  74
ATOM     74  S   UNL A   1      33.368  34.695  28.897  1.00  0.00     0.124 S 
ATOM     75  O   UNL A   1      32.370  34.185  27.960  1.00  0.00    -0.237 OA
ATOM     76  O   UNL A   1      32.891  34.918  30.258  1.00  0.00    -0.237 OA
ATOM     77  O   UNL A   1      34.252  35.731  28.369  1.00  0.00    -0.744 OA
ENDBRANCH  73  74
ENDBRANCH  45  68
BRANCH  57  78
ATOM     78  C   UNL A   1      41.429  30.008  33.192  1.00  0.00    -0.014 A 
ATOM     79  C   UNL A   1      41.381  30.211  34.585  1.00  0.00     0.010 A 
ATOM     80  C   UNL A   1      41.482  28.680  32.721  1.00  0.00     0.010 A 
ATOM     81  C   UNL A   1      41.446  29.139  35.478  1.00  0.00     0.020 A 
ATOM     82  C   UNL A   1      41.510  27.595  33.613  1.00  0.00     0.020 A 
ATOM     83  C   UNL A   1      41.527  27.836  34.988  1.00  0.00     0.054 A 
BRANCH  83  84
ATOM     84  S   UNL A   1      41.686  26.475  36.179  1.00  0.00     0.124 S 
ATOM     85  O   UNL A   1      40.936  25.404  35.527  1.00  0.00    -0.237 OA
ATOM     86  O   UNL A   1      43.132  26.269  36.245  1.00  0.00    -0.237 OA
ATOM     87  O   UNL A   1      41.084  27.001  37.402  1.00  0.00    -0.744 OA
ENDBRANCH  83  84
ENDBRANCH  57  78
ENDBRANCH  31  32
ENDBRANCH  24  26
ENDBRANCH  23  24
ENDBRANCH   1  23
TORSDOF 15
ENDMDL
