MODEL 1
REMARK VINA RESULT:      -9.5      0.000      0.000
REMARK SMILES CN(C)c1cccc(C(=O)CCCC(=O)OCCOC(=O)c2ccc(-c3c4nc(c(-c5ccc(S(=O)(=O)[O-])cc5)c5ccc([nH]5)c(-c5ccc(S(=O)(=O)[O-])cc5)c5nc(c(-c6ccc(S(=O)(=O)[O-])cc6)c6ccc3[nH]6)C=C5)C=C4)cc2)c1
REMARK SMILES IDX 17 1 16 2 14 3 15 4 13 5 12 6 11 7 9 8 10 9 8 10 4 11 5 12
REMARK SMILES IDX 82 13 6 14 7 15 2 16 1 17 3 18 18 19 19 20 20 21 21 22 22 23
REMARK SMILES IDX 23 24 81 25 24 26 80 27 25 28 26 29 27 30 74 31 28 32 79 33
REMARK SMILES IDX 73 34 75 35 29 36 78 37 72 38 71 39 30 41 60 42 41 43 59 44
REMARK SMILES IDX 42 45 45 46 58 47 76 48 43 49 44 50 57 52 77 53 46 54 31 55
REMARK SMILES IDX 32 56 40 57 33 58 39 59 34 60 35 61 36 62 37 63 38 64 61 65
REMARK SMILES IDX 62 66 70 67 63 68 69 69 64 70 65 71 66 72 67 73 68 74 47 75
REMARK SMILES IDX 48 76 56 77 49 78 55 79 50 80 51 81 52 82 53 83 54 84
REMARK H PARENT 75 40 45 51
REMARK Flexibility Score: inf
ROOT
ATOM      1  C   UNL A   1      37.179  21.357  24.317  1.00  0.00     0.274 C 
ENDROOT
BRANCH   1   2
ATOM      2  O   UNL A   1      36.987  22.607  23.623  1.00  0.00    -0.462 OA
BRANCH   2   3
ATOM      3  C   UNL A   1      35.747  23.150  23.688  1.00  0.00     0.305 C 
ATOM      4  O   UNL A   1      35.063  23.414  22.708  1.00  0.00    -0.252 OA
BRANCH   3   5
ATOM      5  C   UNL A   1      35.287  23.473  25.097  1.00  0.00     0.123 C 
BRANCH   5   6
ATOM      6  C   UNL A   1      34.186  24.515  25.259  1.00  0.00     0.020 C 
BRANCH   6   7
ATOM      7  C   UNL A   1      32.747  24.044  25.030  1.00  0.00     0.081 C 
BRANCH   7   8
ATOM      8  C   UNL A   1      32.458  22.610  25.437  1.00  0.00     0.162 C 
ATOM      9  O   UNL A   1      32.242  22.337  26.620  1.00  0.00    -0.294 OA
BRANCH   8  10
ATOM     10  C   UNL A   1      32.436  21.505  24.426  1.00  0.00     0.020 A 
ATOM     11  C   UNL A   1      32.538  19.136  23.798  1.00  0.00     0.037 A 
ATOM     12  C   UNL A   1      32.171  19.489  22.497  1.00  0.00     0.026 A 
ATOM     13  C   UNL A   1      32.711  20.167  24.736  1.00  0.00     0.037 A 
ATOM     14  C   UNL A   1      31.969  20.826  22.148  1.00  0.00     0.003 A 
ATOM     15  C   UNL A   1      32.088  21.828  23.111  1.00  0.00     0.012 A 
BRANCH  11  16
ATOM     16  N   UNL A   1      32.688  17.815  24.206  1.00  0.00    -0.378 N 
ATOM     17  C   UNL A   1      33.568  16.977  23.388  1.00  0.00     0.143 C 
ATOM     18  C   UNL A   1      32.664  17.520  25.629  1.00  0.00     0.143 C 
ENDBRANCH  11  16
ENDBRANCH   8  10
ENDBRANCH   7   8
ENDBRANCH   6   7
ENDBRANCH   5   6
ENDBRANCH   3   5
ENDBRANCH   2   3
ENDBRANCH   1   2
BRANCH   1  19
ATOM     19  C   UNL A   1      38.290  21.430  25.366  1.00  0.00     0.275 C 
BRANCH  19  20
ATOM     20  O   UNL A   1      38.478  22.772  25.843  1.00  0.00    -0.458 OA
BRANCH  20  21
ATOM     21  C   UNL A   1      39.702  23.014  26.365  1.00  0.00     0.338 C 
ATOM     22  O   UNL A   1      40.724  22.362  26.178  1.00  0.00    -0.246 OA
BRANCH  21  23
ATOM     23  C   UNL A   1      39.703  24.320  27.036  1.00  0.00     0.060 A 
ATOM     24  C   UNL A   1      40.420  25.350  26.418  1.00  0.00     0.016 A 
ATOM     25  C   UNL A   1      39.077  24.528  28.264  1.00  0.00     0.016 A 
ATOM     26  C   UNL A   1      40.519  26.594  27.008  1.00  0.00     0.010 A 
ATOM     27  C   UNL A   1      39.218  25.770  28.890  1.00  0.00     0.010 A 
ATOM     28  C   UNL A   1      39.963  26.792  28.272  1.00  0.00    -0.014 A 
BRANCH  28  29
ATOM     29  C   UNL A   1      40.399  27.987  29.019  1.00  0.00     0.031 A 
ATOM     30  C   UNL A   1      41.820  28.025  29.504  1.00  0.00     0.074 A 
ATOM     31  C   UNL A   1      39.592  29.054  29.134  1.00  0.00     0.049 A 
ATOM     32  N   UNL A   1      42.436  28.946  30.193  1.00  0.00    -0.248 NA
ATOM     33  C   UNL A   1      42.665  26.868  29.151  1.00  0.00     0.031 C 
ATOM     34  C   UNL A   1      38.239  29.155  28.583  1.00  0.00     0.029 A 
ATOM     35  N   UNL A   1      39.803  30.264  29.735  1.00  0.00    -0.354 N 
ATOM     36  C   UNL A   1      43.728  28.470  30.381  1.00  0.00     0.074 A 
ATOM     37  C   UNL A   1      43.808  27.175  29.744  1.00  0.00     0.031 C 
ATOM     38  C   UNL A   1      37.741  30.368  28.876  1.00  0.00     0.029 A 
ATOM     39  C   UNL A   1      38.720  31.106  29.670  1.00  0.00     0.049 A 
ATOM     40  H   UNL A   1      40.651  30.509  30.172  1.00  0.00     0.167 HD
ATOM     41  C   UNL A   1      44.755  29.062  31.033  1.00  0.00     0.031 A 
ATOM     42  C   UNL A   1      38.539  32.321  30.219  1.00  0.00     0.031 A 
ATOM     43  C   UNL A   1      44.651  30.350  31.662  1.00  0.00     0.049 A 
ATOM     44  C   UNL A   1      39.667  32.924  31.015  1.00  0.00     0.074 A 
ATOM     45  C   UNL A   1      45.609  31.038  32.384  1.00  0.00     0.029 A 
ATOM     46  N   UNL A   1      43.514  31.146  31.639  1.00  0.00    -0.354 N 
ATOM     47  N   UNL A   1      40.868  32.442  31.238  1.00  0.00    -0.248 NA
ATOM     48  C   UNL A   1      39.417  34.233  31.629  1.00  0.00     0.031 C 
ATOM     49  C   UNL A   1      45.033  32.231  32.840  1.00  0.00     0.029 A 
ATOM     50  C   UNL A   1      43.738  32.312  32.349  1.00  0.00     0.049 A 
ATOM     51  H   UNL A   1      42.672  30.914  31.186  1.00  0.00     0.167 HD
ATOM     52  C   UNL A   1      41.525  33.399  32.003  1.00  0.00     0.074 A 
ATOM     53  C   UNL A   1      40.594  34.495  32.181  1.00  0.00     0.031 C 
ATOM     54  C   UNL A   1      42.782  33.379  32.515  1.00  0.00     0.031 A 
BRANCH  41  55
ATOM     55  C   UNL A   1      46.038  28.285  31.149  1.00  0.00    -0.014 A 
ATOM     56  C   UNL A   1      47.114  28.499  30.270  1.00  0.00     0.010 A 
ATOM     57  C   UNL A   1      46.163  27.313  32.159  1.00  0.00     0.010 A 
ATOM     58  C   UNL A   1      48.276  27.728  30.371  1.00  0.00     0.020 A 
ATOM     59  C   UNL A   1      47.334  26.558  32.282  1.00  0.00     0.020 A 
ATOM     60  C   UNL A   1      48.376  26.758  31.375  1.00  0.00     0.054 A 
BRANCH  60  61
ATOM     61  S   UNL A   1      49.898  25.778  31.494  1.00  0.00     0.124 S 
ATOM     62  O   UNL A   1      49.955  25.149  30.178  1.00  0.00    -0.237 OA
ATOM     63  O   UNL A   1      50.914  26.795  31.749  1.00  0.00    -0.237 OA
ATOM     64  O   UNL A   1      49.638  24.869  32.608  1.00  0.00    -0.744 OA
ENDBRANCH  60  61
ENDBRANCH  41  55
BRANCH  42  65
ATOM     65  C   UNL A   1      37.232  33.022  30.075  1.00  0.00    -0.014 A 
ATOM     66  C   UNL A   1      36.224  32.883  31.044  1.00  0.00     0.010 A 
ATOM     67  C   UNL A   1      36.991  33.838  28.954  1.00  0.00     0.010 A 
ATOM     68  C   UNL A   1      34.994  33.532  30.885  1.00  0.00     0.020 A 
ATOM     69  C   UNL A   1      35.776  34.511  28.806  1.00  0.00     0.020 A 
ATOM     70  C   UNL A   1      34.779  34.343  29.768  1.00  0.00     0.054 A 
BRANCH  70  71
ATOM     71  S   UNL A   1      33.194  35.212  29.605  1.00  0.00     0.124 S 
ATOM     72  O   UNL A   1      33.621  36.556  29.227  1.00  0.00    -0.237 OA
ATOM     73  O   UNL A   1      32.519  34.445  28.560  1.00  0.00    -0.237 OA
ATOM     74  O   UNL A   1      32.601  35.093  30.935  1.00  0.00    -0.744 OA
ENDBRANCH  70  71
ENDBRANCH  42  65
BRANCH  54  75
ATOM     75  C   UNL A   1      43.223  34.595  33.284  1.00  0.00    -0.014 A 
ATOM     76  C   UNL A   1      43.155  34.635  34.687  1.00  0.00     0.010 A 
ATOM     77  C   UNL A   1      43.730  35.706  32.586  1.00  0.00     0.010 A 
ATOM     78  C   UNL A   1      43.538  35.788  35.377  1.00  0.00     0.020 A 
ATOM     79  C   UNL A   1      44.144  36.848  33.274  1.00  0.00     0.020 A 
ATOM     80  C   UNL A   1      44.023  36.890  34.665  1.00  0.00     0.054 A 
BRANCH  80  81
ATOM     81  S   UNL A   1      44.519  38.374  35.581  1.00  0.00     0.124 S 
ATOM     82  O   UNL A   1      43.779  38.218  36.830  1.00  0.00    -0.237 OA
ATOM     83  O   UNL A   1      45.968  38.219  35.683  1.00  0.00    -0.237 OA
ATOM     84  O   UNL A   1      44.074  39.472  34.726  1.00  0.00    -0.744 OA
ENDBRANCH  80  81
ENDBRANCH  54  75
ENDBRANCH  28  29
ENDBRANCH  21  23
ENDBRANCH  20  21
ENDBRANCH  19  20
ENDBRANCH   1  19
TORSDOF 19
ENDMDL
MODEL 2
REMARK VINA RESULT:      -9.3      2.339      2.983
REMARK SMILES CN(C)c1cccc(C(=O)CCCC(=O)OCCOC(=O)c2ccc(-c3c4nc(c(-c5ccc(S(=O)(=O)[O-])cc5)c5ccc([nH]5)c(-c5ccc(S(=O)(=O)[O-])cc5)c5nc(c(-c6ccc(S(=O)(=O)[O-])cc6)c6ccc3[nH]6)C=C5)C=C4)cc2)c1
REMARK SMILES IDX 17 1 16 2 14 3 15 4 13 5 12 6 11 7 9 8 10 9 8 10 4 11 5 12
REMARK SMILES IDX 82 13 6 14 7 15 2 16 1 17 3 18 18 19 19 20 20 21 21 22 22 23
REMARK SMILES IDX 23 24 81 25 24 26 80 27 25 28 26 29 27 30 74 31 28 32 79 33
REMARK SMILES IDX 73 34 75 35 29 36 78 37 72 38 71 39 30 41 60 42 41 43 59 44
REMARK SMILES IDX 42 45 45 46 58 47 76 48 43 49 44 50 57 52 77 53 46 54 31 55
REMARK SMILES IDX 32 56 40 57 33 58 39 59 34 60 35 61 36 62 37 63 38 64 61 65
REMARK SMILES IDX 62 66 70 67 63 68 69 69 64 70 65 71 66 72 67 73 68 74 47 75
REMARK SMILES IDX 48 76 56 77 49 78 55 79 50 80 51 81 52 82 53 83 54 84
REMARK H PARENT 75 40 45 51
REMARK Flexibility Score: inf
ROOT
ATOM      1  C   UNL A   1      37.082  21.108  24.286  1.00  0.00     0.274 C 
ENDROOT
BRANCH   1   2
ATOM      2  O   UNL A   1      37.092  22.440  23.733  1.00  0.00    -0.462 OA
BRANCH   2   3
ATOM      3  C   UNL A   1      35.926  23.127  23.787  1.00  0.00     0.305 C 
ATOM      4  O   UNL A   1      35.307  23.506  22.801  1.00  0.00    -0.252 OA
BRANCH   3   5
ATOM      5  C   UNL A   1      35.466  23.453  25.195  1.00  0.00     0.123 C 
BRANCH   5   6
ATOM      6  C   UNL A   1      34.466  24.590  25.367  1.00  0.00     0.020 C 
BRANCH   6   7
ATOM      7  C   UNL A   1      32.990  24.257  25.129  1.00  0.00     0.081 C 
BRANCH   7   8
ATOM      8  C   UNL A   1      32.569  22.850  25.513  1.00  0.00     0.162 C 
ATOM      9  O   UNL A   1      32.280  22.592  26.684  1.00  0.00    -0.294 OA
BRANCH   8  10
ATOM     10  C   UNL A   1      32.502  21.754  24.495  1.00  0.00     0.020 A 
ATOM     11  C   UNL A   1      32.545  19.389  23.846  1.00  0.00     0.037 A 
ATOM     12  C   UNL A   1      32.153  19.759  22.558  1.00  0.00     0.026 A 
ATOM     13  C   UNL A   1      32.760  20.409  24.788  1.00  0.00     0.037 A 
ATOM     14  C   UNL A   1      31.968  21.102  22.224  1.00  0.00     0.003 A 
ATOM     15  C   UNL A   1      32.128  22.094  23.192  1.00  0.00     0.012 A 
BRANCH  11  16
ATOM     16  N   UNL A   1      32.680  18.063  24.241  1.00  0.00    -0.378 N 
ATOM     17  C   UNL A   1      33.494  17.205  23.375  1.00  0.00     0.143 C 
ATOM     18  C   UNL A   1      32.723  17.760  25.662  1.00  0.00     0.143 C 
ENDBRANCH  11  16
ENDBRANCH   8  10
ENDBRANCH   7   8
ENDBRANCH   6   7
ENDBRANCH   5   6
ENDBRANCH   3   5
ENDBRANCH   2   3
ENDBRANCH   1   2
BRANCH   1  19
ATOM     19  C   UNL A   1      38.162  20.904  25.350  1.00  0.00     0.275 C 
BRANCH  19  20
ATOM     20  O   UNL A   1      38.582  22.153  25.922  1.00  0.00    -0.458 OA
BRANCH  20  21
ATOM     21  C   UNL A   1      39.887  22.195  26.278  1.00  0.00     0.338 C 
ATOM     22  O   UNL A   1      40.769  21.414  25.935  1.00  0.00    -0.246 OA
BRANCH  21  23
ATOM     23  C   UNL A   1      40.168  23.454  26.978  1.00  0.00     0.060 A 
ATOM     24  C   UNL A   1      39.778  24.636  26.339  1.00  0.00     0.016 A 
ATOM     25  C   UNL A   1      40.847  23.495  28.195  1.00  0.00     0.016 A 
ATOM     26  C   UNL A   1      40.052  25.867  26.902  1.00  0.00     0.010 A 
ATOM     27  C   UNL A   1      41.173  24.740  28.742  1.00  0.00     0.010 A 
ATOM     28  C   UNL A   1      40.798  25.924  28.078  1.00  0.00    -0.014 A 
BRANCH  28  29
ATOM     29  C   UNL A   1      41.382  27.228  28.442  1.00  0.00     0.031 A 
ATOM     30  C   UNL A   1      42.851  27.426  28.197  1.00  0.00     0.074 A 
ATOM     31  C   UNL A   1      40.596  28.241  28.844  1.00  0.00     0.049 A 
ATOM     32  N   UNL A   1      43.599  28.466  28.447  1.00  0.00    -0.248 NA
ATOM     33  C   UNL A   1      43.570  26.298  27.576  1.00  0.00     0.031 C 
ATOM     34  C   UNL A   1      39.141  28.177  28.988  1.00  0.00     0.029 A 
ATOM     35  N   UNL A   1      40.914  29.528  29.184  1.00  0.00    -0.354 N 
ATOM     36  C   UNL A   1      44.879  28.110  28.039  1.00  0.00     0.074 A 
ATOM     37  C   UNL A   1      44.811  26.757  27.537  1.00  0.00     0.031 C 
ATOM     38  C   UNL A   1      38.692  29.379  29.390  1.00  0.00     0.029 A 
ATOM     39  C   UNL A   1      39.830  30.275  29.574  1.00  0.00     0.049 A 
ATOM     40  H   UNL A   1      41.831  29.883  29.152  1.00  0.00     0.167 HD
ATOM     41  C   UNL A   1      46.011  28.849  28.086  1.00  0.00     0.031 A 
ATOM     42  C   UNL A   1      39.777  31.532  30.052  1.00  0.00     0.031 A 
ATOM     43  C   UNL A   1      46.055  30.193  28.593  1.00  0.00     0.049 A 
ATOM     44  C   UNL A   1      41.064  32.306  30.176  1.00  0.00     0.074 A 
ATOM     45  C   UNL A   1      47.147  31.031  28.726  1.00  0.00     0.029 A 
ATOM     46  N   UNL A   1      44.949  30.897  29.048  1.00  0.00    -0.354 N 
ATOM     47  N   UNL A   1      42.282  31.942  29.844  1.00  0.00    -0.248 NA
ATOM     48  C   UNL A   1      40.970  33.659  30.737  1.00  0.00     0.031 C 
ATOM     49  C   UNL A   1      46.707  32.225  29.310  1.00  0.00     0.029 A 
ATOM     50  C   UNL A   1      45.332  32.153  29.481  1.00  0.00     0.049 A 
ATOM     51  H   UNL A   1      44.027  30.552  29.062  1.00  0.00     0.167 HD
ATOM     52  C   UNL A   1      43.096  33.029  30.137  1.00  0.00     0.074 A 
ATOM     53  C   UNL A   1      42.227  34.070  30.650  1.00  0.00     0.031 C 
ATOM     54  C   UNL A   1      44.440  33.162  29.997  1.00  0.00     0.031 A 
BRANCH  41  55
ATOM     55  C   UNL A   1      47.287  28.186  27.642  1.00  0.00    -0.014 A 
ATOM     56  C   UNL A   1      48.103  27.477  28.543  1.00  0.00     0.010 A 
ATOM     57  C   UNL A   1      47.680  28.283  26.295  1.00  0.00     0.010 A 
ATOM     58  C   UNL A   1      49.308  26.914  28.113  1.00  0.00     0.020 A 
ATOM     59  C   UNL A   1      48.870  27.697  25.854  1.00  0.00     0.020 A 
ATOM     60  C   UNL A   1      49.686  27.031  26.771  1.00  0.00     0.054 A 
BRANCH  60  61
ATOM     61  S   UNL A   1      51.248  26.281  26.234  1.00  0.00     0.124 S 
ATOM     62  O   UNL A   1      52.234  27.159  26.857  1.00  0.00    -0.237 OA
ATOM     63  O   UNL A   1      51.165  24.934  26.792  1.00  0.00    -0.237 OA
ATOM     64  O   UNL A   1      51.184  26.352  24.776  1.00  0.00    -0.744 OA
ENDBRANCH  60  61
ENDBRANCH  41  55
BRANCH  42  65
ATOM     65  C   UNL A   1      38.478  32.115  30.487  1.00  0.00    -0.014 A 
ATOM     66  C   UNL A   1      37.647  32.795  29.580  1.00  0.00     0.010 A 
ATOM     67  C   UNL A   1      38.064  31.990  31.827  1.00  0.00     0.010 A 
ATOM     68  C   UNL A   1      36.438  33.354  30.008  1.00  0.00     0.020 A 
ATOM     69  C   UNL A   1      36.844  32.521  32.252  1.00  0.00     0.020 A 
ATOM     70  C   UNL A   1      36.043  33.212  31.342  1.00  0.00     0.054 A 
BRANCH  70  71
ATOM     71  S   UNL A   1      34.450  33.904  31.866  1.00  0.00     0.124 S 
ATOM     72  O   UNL A   1      34.865  35.055  32.661  1.00  0.00    -0.237 OA
ATOM     73  O   UNL A   1      33.806  34.213  30.591  1.00  0.00    -0.237 OA
ATOM     74  O   UNL A   1      33.833  32.812  32.617  1.00  0.00    -0.744 OA
ENDBRANCH  70  71
ENDBRANCH  42  65
BRANCH  54  75
ATOM     75  C   UNL A   1      45.036  34.490  30.377  1.00  0.00    -0.014 A 
ATOM     76  C   UNL A   1      45.144  35.536  29.443  1.00  0.00     0.010 A 
ATOM     77  C   UNL A   1      45.476  34.697  31.697  1.00  0.00     0.010 A 
ATOM     78  C   UNL A   1      45.732  36.748  29.810  1.00  0.00     0.020 A 
ATOM     79  C   UNL A   1      46.033  35.919  32.076  1.00  0.00     0.020 A 
ATOM     80  C   UNL A   1      46.179  36.929  31.123  1.00  0.00     0.054 A 
BRANCH  80  81
ATOM     81  S   UNL A   1      46.935  38.513  31.579  1.00  0.00     0.124 S 
ATOM     82  O   UNL A   1      48.201  38.085  32.168  1.00  0.00    -0.237 OA
ATOM     83  O   UNL A   1      47.038  39.201  30.294  1.00  0.00    -0.237 OA
ATOM     84  O   UNL A   1      45.977  39.096  32.516  1.00  0.00    -0.744 OA
ENDBRANCH  80  81
ENDBRANCH  54  75
ENDBRANCH  28  29
ENDBRANCH  21  23
ENDBRANCH  20  21
ENDBRANCH  19  20
ENDBRANCH   1  19
TORSDOF 19
ENDMDL
MODEL 3
REMARK VINA RESULT:      -9.3      3.446      4.746
REMARK SMILES CN(C)c1cccc(C(=O)CCCC(=O)OCCOC(=O)c2ccc(-c3c4nc(c(-c5ccc(S(=O)(=O)[O-])cc5)c5ccc([nH]5)c(-c5ccc(S(=O)(=O)[O-])cc5)c5nc(c(-c6ccc(S(=O)(=O)[O-])cc6)c6ccc3[nH]6)C=C5)C=C4)cc2)c1
REMARK SMILES IDX 17 1 16 2 14 3 15 4 13 5 12 6 11 7 9 8 10 9 8 10 4 11 5 12
REMARK SMILES IDX 82 13 6 14 7 15 2 16 1 17 3 18 18 19 19 20 20 21 21 22 22 23
REMARK SMILES IDX 23 24 81 25 24 26 80 27 25 28 26 29 27 30 74 31 28 32 79 33
REMARK SMILES IDX 73 34 75 35 29 36 78 37 72 38 71 39 30 41 60 42 41 43 59 44
REMARK SMILES IDX 42 45 45 46 58 47 76 48 43 49 44 50 57 52 77 53 46 54 31 55
REMARK SMILES IDX 32 56 40 57 33 58 39 59 34 60 35 61 36 62 37 63 38 64 61 65
REMARK SMILES IDX 62 66 70 67 63 68 69 69 64 70 65 71 66 72 67 73 68 74 47 75
REMARK SMILES IDX 48 76 56 77 49 78 55 79 50 80 51 81 52 82 53 83 54 84
REMARK H PARENT 75 40 45 51
REMARK Flexibility Score: inf
ROOT
ATOM      1  C   UNL A   1      43.865  21.594  25.666  1.00  0.00     0.274 C 
ENDROOT
BRANCH   1   2
ATOM      2  O   UNL A   1      42.813  21.173  26.557  1.00  0.00    -0.462 OA
BRANCH   2   3
ATOM      3  C   UNL A   1      42.003  20.182  26.112  1.00  0.00     0.305 C 
ATOM      4  O   UNL A   1      42.375  19.264  25.392  1.00  0.00    -0.252 OA
BRANCH   3   5
ATOM      5  C   UNL A   1      40.553  20.335  26.531  1.00  0.00     0.123 C 
BRANCH   5   6
ATOM      6  C   UNL A   1      39.855  21.647  26.193  1.00  0.00     0.020 C 
BRANCH   6   7
ATOM      7  C   UNL A   1      38.394  21.559  25.742  1.00  0.00     0.081 C 
BRANCH   7   8
ATOM      8  C   UNL A   1      37.636  22.874  25.726  1.00  0.00     0.162 C 
ATOM      9  O   UNL A   1      38.172  23.899  26.152  1.00  0.00    -0.294 OA
BRANCH   8  10
ATOM     10  C   UNL A   1      36.233  22.955  25.206  1.00  0.00     0.020 A 
ATOM     11  C   UNL A   1      34.276  24.214  24.431  1.00  0.00     0.037 A 
ATOM     12  C   UNL A   1      33.688  23.011  24.036  1.00  0.00     0.026 A 
ATOM     13  C   UNL A   1      35.532  24.158  25.058  1.00  0.00     0.037 A 
ATOM     14  C   UNL A   1      34.337  21.793  24.246  1.00  0.00     0.003 A 
ATOM     15  C   UNL A   1      35.610  21.766  24.817  1.00  0.00     0.012 A 
BRANCH  11  16
ATOM     16  N   UNL A   1      33.696  25.453  24.184  1.00  0.00    -0.378 N 
ATOM     17  C   UNL A   1      33.526  25.824  22.777  1.00  0.00     0.143 C 
ATOM     18  C   UNL A   1      32.677  25.939  25.101  1.00  0.00     0.143 C 
ENDBRANCH  11  16
ENDBRANCH   8  10
ENDBRANCH   7   8
ENDBRANCH   6   7
ENDBRANCH   5   6
ENDBRANCH   3   5
ENDBRANCH   2   3
ENDBRANCH   1   2
BRANCH   1  19
ATOM     19  C   UNL A   1      43.401  22.657  24.667  1.00  0.00     0.275 C 
BRANCH  19  20
ATOM     20  O   UNL A   1      42.631  23.684  25.311  1.00  0.00    -0.458 OA
BRANCH  20  21
ATOM     21  C   UNL A   1      43.303  24.840  25.518  1.00  0.00     0.338 C 
ATOM     22  O   UNL A   1      44.249  25.269  24.865  1.00  0.00    -0.246 OA
BRANCH  21  23
ATOM     23  C   UNL A   1      42.601  25.646  26.524  1.00  0.00     0.060 A 
ATOM     24  C   UNL A   1      42.955  26.997  26.614  1.00  0.00     0.016 A 
ATOM     25  C   UNL A   1      41.666  25.097  27.400  1.00  0.00     0.016 A 
ATOM     26  C   UNL A   1      42.384  27.814  27.569  1.00  0.00     0.010 A 
ATOM     27  C   UNL A   1      41.124  25.909  28.402  1.00  0.00     0.010 A 
ATOM     28  C   UNL A   1      41.507  27.260  28.500  1.00  0.00    -0.014 A 
BRANCH  28  29
ATOM     29  C   UNL A   1      41.213  28.057  29.705  1.00  0.00     0.031 A 
ATOM     30  C   UNL A   1      42.121  27.889  30.890  1.00  0.00     0.074 A 
ATOM     31  C   UNL A   1      40.255  28.998  29.687  1.00  0.00     0.049 A 
ATOM     32  N   UNL A   1      42.066  28.457  32.064  1.00  0.00    -0.248 NA
ATOM     33  C   UNL A   1      43.255  26.960  30.720  1.00  0.00     0.031 C 
ATOM     34  C   UNL A   1      39.407  29.320  28.537  1.00  0.00     0.029 A 
ATOM     35  N   UNL A   1      39.849  29.870  30.660  1.00  0.00    -0.354 N 
ATOM     36  C   UNL A   1      43.136  27.935  32.781  1.00  0.00     0.074 A 
ATOM     37  C   UNL A   1      43.818  26.999  31.917  1.00  0.00     0.031 C 
ATOM     38  C   UNL A   1      38.577  30.322  28.877  1.00  0.00     0.029 A 
ATOM     39  C   UNL A   1      38.807  30.676  30.275  1.00  0.00     0.049 A 
ATOM     40  H   UNL A   1      40.265  29.914  31.552  1.00  0.00     0.167 HD
ATOM     41  C   UNL A   1      43.511  28.213  34.050  1.00  0.00     0.031 A 
ATOM     42  C   UNL A   1      38.105  31.577  30.988  1.00  0.00     0.031 A 
ATOM     43  C   UNL A   1      42.814  29.147  34.892  1.00  0.00     0.049 A 
ATOM     44  C   UNL A   1      38.486  31.805  32.427  1.00  0.00     0.074 A 
ATOM     45  C   UNL A   1      43.075  29.485  36.207  1.00  0.00     0.029 A 
ATOM     46  N   UNL A   1      41.716  29.895  34.493  1.00  0.00    -0.354 N 
ATOM     47  N   UNL A   1      39.463  31.265  33.118  1.00  0.00    -0.248 NA
ATOM     48  C   UNL A   1      37.672  32.766  33.181  1.00  0.00     0.031 C 
ATOM     49  C   UNL A   1      42.101  30.404  36.618  1.00  0.00     0.029 A 
ATOM     50  C   UNL A   1      41.274  30.683  35.540  1.00  0.00     0.049 A 
ATOM     51  H   UNL A   1      41.311  29.869  33.597  1.00  0.00     0.167 HD
ATOM     52  C   UNL A   1      39.395  31.835  34.384  1.00  0.00     0.074 A 
ATOM     53  C   UNL A   1      38.295  32.779  34.352  1.00  0.00     0.031 C 
ATOM     54  C   UNL A   1      40.167  31.605  35.476  1.00  0.00     0.031 A 
BRANCH  41  55
ATOM     55  C   UNL A   1      44.677  27.443  34.610  1.00  0.00    -0.014 A 
ATOM     56  C   UNL A   1      45.996  27.919  34.504  1.00  0.00     0.010 A 
ATOM     57  C   UNL A   1      44.444  26.211  35.248  1.00  0.00     0.010 A 
ATOM     58  C   UNL A   1      47.064  27.159  34.989  1.00  0.00     0.020 A 
ATOM     59  C   UNL A   1      45.506  25.460  35.759  1.00  0.00     0.020 A 
ATOM     60  C   UNL A   1      46.812  25.931  35.610  1.00  0.00     0.054 A 
BRANCH  60  61
ATOM     61  S   UNL A   1      48.214  24.968  36.243  1.00  0.00     0.124 S 
ATOM     62  O   UNL A   1      49.044  26.006  36.847  1.00  0.00    -0.237 OA
ATOM     63  O   UNL A   1      47.574  24.050  37.181  1.00  0.00    -0.237 OA
ATOM     64  O   UNL A   1      48.772  24.342  35.047  1.00  0.00    -0.744 OA
ENDBRANCH  60  61
ENDBRANCH  41  55
BRANCH  42  65
ATOM     65  C   UNL A   1      36.951  32.287  30.369  1.00  0.00    -0.014 A 
ATOM     66  C   UNL A   1      35.648  31.767  30.456  1.00  0.00     0.010 A 
ATOM     67  C   UNL A   1      37.156  33.499  29.684  1.00  0.00     0.010 A 
ATOM     68  C   UNL A   1      34.577  32.436  29.853  1.00  0.00     0.020 A 
ATOM     69  C   UNL A   1      36.085  34.185  29.106  1.00  0.00     0.020 A 
ATOM     70  C   UNL A   1      34.802  33.642  29.184  1.00  0.00     0.054 A 
BRANCH  70  71
ATOM     71  S   UNL A   1      33.392  34.516  28.449  1.00  0.00     0.124 S 
ATOM     72  O   UNL A   1      32.780  33.475  27.632  1.00  0.00    -0.237 OA
ATOM     73  O   UNL A   1      32.629  34.930  29.625  1.00  0.00    -0.237 OA
ATOM     74  O   UNL A   1      34.017  35.610  27.708  1.00  0.00    -0.744 OA
ENDBRANCH  70  71
ENDBRANCH  42  65
BRANCH  54  75
ATOM     75  C   UNL A   1      39.861  32.413  36.708  1.00  0.00    -0.014 A 
ATOM     76  C   UNL A   1      38.826  32.044  37.585  1.00  0.00     0.010 A 
ATOM     77  C   UNL A   1      40.638  33.549  36.998  1.00  0.00     0.010 A 
ATOM     78  C   UNL A   1      38.539  32.830  38.704  1.00  0.00     0.020 A 
ATOM     79  C   UNL A   1      40.375  34.318  38.133  1.00  0.00     0.020 A 
ATOM     80  C   UNL A   1      39.312  33.966  38.966  1.00  0.00     0.054 A 
BRANCH  80  81
ATOM     81  S   UNL A   1      38.924  34.968  40.427  1.00  0.00     0.124 S 
ATOM     82  O   UNL A   1      40.004  34.601  41.340  1.00  0.00    -0.237 OA
ATOM     83  O   UNL A   1      38.977  36.331  39.904  1.00  0.00    -0.237 OA
ATOM     84  O   UNL A   1      37.594  34.508  40.819  1.00  0.00    -0.744 OA
ENDBRANCH  80  81
ENDBRANCH  54  75
ENDBRANCH  28  29
ENDBRANCH  21  23
ENDBRANCH  20  21
ENDBRANCH  19  20
ENDBRANCH   1  19
TORSDOF 19
ENDMDL
