MODEL 1
REMARK VINA RESULT:      -9.2      0.000      0.000
REMARK SMILES N#Cc1ccccc1S(=O)(=O)N1CCC(C(=O)OCCOC(=O)c2ccc(-c3c4nc(c(-c5ccc(S(=O)(=O)[O-])cc5)c5ccc([nH]5)c(-c5ccc(S(=O)(=O)[O-])cc5)c5nc(c(-c6ccc(S(=O)(=O)[O-])cc6)c6ccc3[nH]6)C=C5)C=C4)cc2)CC1
REMARK SMILES IDX 19 1 18 2 16 3 17 4 15 5 12 6 13 7 85 8 14 9 84 10 9 11
REMARK SMILES IDX 10 12 11 13 8 14 3 15 4 16 5 17 7 18 6 19 2 20 1 21 20 22
REMARK SMILES IDX 21 23 22 24 23 25 24 26 25 27 83 28 26 29 82 30 27 31 28 32
REMARK SMILES IDX 29 33 76 34 30 35 81 36 75 37 77 38 31 39 80 40 74 41 73 42
REMARK SMILES IDX 32 44 62 45 43 46 61 47 44 48 47 49 60 50 78 51 45 52 46 53
REMARK SMILES IDX 59 55 79 56 48 57 33 58 34 59 42 60 35 61 41 62 36 63 37 64
REMARK SMILES IDX 38 65 39 66 40 67 63 68 64 69 72 70 65 71 71 72 66 73 67 74
REMARK SMILES IDX 68 75 69 76 70 77 49 78 50 79 58 80 51 81 57 82 52 83 53 84
REMARK SMILES IDX 54 85 55 86 56 87
REMARK H PARENT 77 43 47 54
REMARK Flexibility Score: inf
ROOT
ATOM      1  C   UNL A   1      33.983  34.149  28.870  1.00  0.00     0.274 C 
ENDROOT
BRANCH   1   2
ATOM      2  O   UNL A   1      35.059  34.187  29.825  1.00  0.00    -0.462 OA
BRANCH   2   3
ATOM      3  C   UNL A   1      34.691  34.141  31.129  1.00  0.00     0.309 C 
ATOM      4  O   UNL A   1      33.570  34.406  31.549  1.00  0.00    -0.252 OA
BRANCH   3   5
ATOM      5  C   UNL A   1      35.812  33.716  32.052  1.00  0.00     0.102 C 
ATOM      6  N   UNL A   1      38.036  32.453  33.347  1.00  0.00    -0.198 NA
ATOM      7  C   UNL A   1      36.676  32.223  33.893  1.00  0.00     0.103 C 
ATOM      8  C   UNL A   1      38.269  33.432  32.264  1.00  0.00     0.103 C 
ATOM      9  C   UNL A   1      35.553  32.479  32.895  1.00  0.00     0.032 C 
ATOM     10  C   UNL A   1      37.106  33.516  31.287  1.00  0.00     0.032 C 
BRANCH   6  11
ATOM     11  S   UNL A   1      39.353  31.989  34.298  1.00  0.00     0.244 S 
ATOM     12  O   UNL A   1      38.804  31.578  35.576  1.00  0.00    -0.207 OA
ATOM     13  O   UNL A   1      40.340  33.048  34.234  1.00  0.00    -0.207 OA
BRANCH  11  14
ATOM     14  C   UNL A   1      40.183  30.537  33.669  1.00  0.00     0.100 A 
ATOM     15  C   UNL A   1      39.619  29.338  33.234  1.00  0.00     0.072 A 
ATOM     16  C   UNL A   1      40.464  28.305  32.772  1.00  0.00     0.021 A 
ATOM     17  C   UNL A   1      41.847  28.460  32.729  1.00  0.00     0.001 A 
ATOM     18  C   UNL A   1      41.589  30.679  33.618  1.00  0.00     0.023 A 
ATOM     19  C   UNL A   1      42.412  29.654  33.151  1.00  0.00     0.001 A 
BRANCH  15  20
ATOM     20  C   UNL A   1      38.229  29.024  33.193  1.00  0.00     0.101 C 
ATOM     21  N   UNL A   1      37.093  28.833  33.090  1.00  0.00    -0.192 NA
ENDBRANCH  15  20
ENDBRANCH  11  14
ENDBRANCH   6  11
ENDBRANCH   3   5
ENDBRANCH   2   3
ENDBRANCH   1   2
BRANCH   1  22
ATOM     22  C   UNL A   1      34.062  32.887  28.009  1.00  0.00     0.275 C 
BRANCH  22  23
ATOM     23  O   UNL A   1      34.289  31.709  28.804  1.00  0.00    -0.458 OA
BRANCH  23  24
ATOM     24  C   UNL A   1      34.437  30.560  28.103  1.00  0.00     0.338 C 
ATOM     25  O   UNL A   1      33.610  30.021  27.388  1.00  0.00    -0.246 OA
BRANCH  24  26
ATOM     26  C   UNL A   1      35.809  30.053  28.252  1.00  0.00     0.060 A 
ATOM     27  C   UNL A   1      36.235  29.656  29.517  1.00  0.00     0.016 A 
ATOM     28  C   UNL A   1      36.706  30.092  27.186  1.00  0.00     0.016 A 
ATOM     29  C   UNL A   1      37.570  29.327  29.739  1.00  0.00     0.010 A 
ATOM     30  C   UNL A   1      38.042  29.727  27.402  1.00  0.00     0.010 A 
ATOM     31  C   UNL A   1      38.490  29.361  28.684  1.00  0.00    -0.014 A 
BRANCH  31  32
ATOM     32  C   UNL A   1      39.920  29.045  28.933  1.00  0.00     0.031 A 
ATOM     33  C   UNL A   1      40.843  30.100  29.481  1.00  0.00     0.074 A 
ATOM     34  C   UNL A   1      40.391  27.810  28.673  1.00  0.00     0.049 A 
ATOM     35  N   UNL A   1      42.138  30.050  29.665  1.00  0.00    -0.248 NA
ATOM     36  C   UNL A   1      40.230  31.381  29.869  1.00  0.00     0.031 C 
ATOM     37  C   UNL A   1      39.590  26.684  28.189  1.00  0.00     0.029 A 
ATOM     38  N   UNL A   1      41.660  27.296  28.776  1.00  0.00    -0.354 N 
ATOM     39  C   UNL A   1      42.501  31.299  30.158  1.00  0.00     0.074 A 
ATOM     40  C   UNL A   1      41.290  32.091  30.229  1.00  0.00     0.031 C 
ATOM     41  C   UNL A   1      40.384  25.611  28.045  1.00  0.00     0.029 A 
ATOM     42  C   UNL A   1      41.757  25.988  28.364  1.00  0.00     0.049 A 
ATOM     43  H   UNL A   1      42.426  27.814  29.112  1.00  0.00     0.167 HD
ATOM     44  C   UNL A   1      43.730  31.745  30.516  1.00  0.00     0.031 A 
ATOM     45  C   UNL A   1      42.834  25.190  28.224  1.00  0.00     0.031 A 
ATOM     46  C   UNL A   1      44.929  30.951  30.447  1.00  0.00     0.049 A 
ATOM     47  C   UNL A   1      44.196  25.728  28.563  1.00  0.00     0.074 A 
ATOM     48  C   UNL A   1      46.219  31.306  30.805  1.00  0.00     0.029 A 
ATOM     49  N   UNL A   1      44.990  29.643  29.989  1.00  0.00    -0.354 N 
ATOM     50  N   UNL A   1      44.523  26.912  29.025  1.00  0.00    -0.248 NA
ATOM     51  C   UNL A   1      45.336  24.823  28.360  1.00  0.00     0.031 C 
ATOM     52  C   UNL A   1      47.067  30.234  30.509  1.00  0.00     0.029 A 
ATOM     53  C   UNL A   1      46.298  29.187  30.028  1.00  0.00     0.049 A 
ATOM     54  H   UNL A   1      44.218  29.116  29.681  1.00  0.00     0.167 HD
ATOM     55  C   UNL A   1      45.903  26.888  29.188  1.00  0.00     0.074 A 
ATOM     56  C   UNL A   1      46.347  25.566  28.793  1.00  0.00     0.031 C 
ATOM     57  C   UNL A   1      46.728  27.871  29.626  1.00  0.00     0.031 A 
BRANCH  44  58
ATOM     58  C   UNL A   1      43.846  33.175  30.978  1.00  0.00    -0.014 A 
ATOM     59  C   UNL A   1      43.769  33.518  32.340  1.00  0.00     0.010 A 
ATOM     60  C   UNL A   1      44.071  34.192  30.031  1.00  0.00     0.010 A 
ATOM     61  C   UNL A   1      43.871  34.853  32.741  1.00  0.00     0.020 A 
ATOM     62  C   UNL A   1      44.203  35.525  30.430  1.00  0.00     0.020 A 
ATOM     63  C   UNL A   1      44.083  35.849  31.782  1.00  0.00     0.054 A 
BRANCH  63  64
ATOM     64  S   UNL A   1      44.224  37.572  32.333  1.00  0.00     0.124 S 
ATOM     65  O   UNL A   1      43.880  38.305  31.116  1.00  0.00    -0.237 OA
ATOM     66  O   UNL A   1      43.239  37.648  33.409  1.00  0.00    -0.237 OA
ATOM     67  O   UNL A   1      45.617  37.689  32.758  1.00  0.00    -0.744 OA
ENDBRANCH  63  64
ENDBRANCH  44  58
BRANCH  45  68
ATOM     68  C   UNL A   1      42.665  23.804  27.708  1.00  0.00    -0.014 A 
ATOM     69  C   UNL A   1      42.418  22.735  28.588  1.00  0.00     0.010 A 
ATOM     70  C   UNL A   1      42.731  23.548  26.325  1.00  0.00     0.010 A 
ATOM     71  C   UNL A   1      42.251  21.437  28.096  1.00  0.00     0.020 A 
ATOM     72  C   UNL A   1      42.535  22.257  25.827  1.00  0.00     0.020 A 
ATOM     73  C   UNL A   1      42.306  21.207  26.718  1.00  0.00     0.054 A 
BRANCH  73  74
ATOM     74  S   UNL A   1      42.026  19.525  26.100  1.00  0.00     0.124 S 
ATOM     75  O   UNL A   1      42.887  19.486  24.923  1.00  0.00    -0.237 OA
ATOM     76  O   UNL A   1      42.457  18.700  27.226  1.00  0.00    -0.237 OA
ATOM     77  O   UNL A   1      40.591  19.494  25.829  1.00  0.00    -0.744 OA
ENDBRANCH  73  74
ENDBRANCH  45  68
BRANCH  57  78
ATOM     78  C   UNL A   1      48.194  27.545  29.736  1.00  0.00    -0.014 A 
ATOM     79  C   UNL A   1      49.057  27.680  28.632  1.00  0.00     0.010 A 
ATOM     80  C   UNL A   1      48.726  27.147  30.976  1.00  0.00     0.010 A 
ATOM     81  C   UNL A   1      50.418  27.389  28.761  1.00  0.00     0.020 A 
ATOM     82  C   UNL A   1      50.090  26.884  31.115  1.00  0.00     0.020 A 
ATOM     83  C   UNL A   1      50.927  26.993  30.002  1.00  0.00     0.054 A 
BRANCH  83  84
ATOM     84  S   UNL A   1      52.704  26.664  30.153  1.00  0.00     0.124 S 
ATOM     85  O   UNL A   1      52.734  25.615  31.169  1.00  0.00    -0.237 OA
ATOM     86  O   UNL A   1      53.069  26.242  28.803  1.00  0.00    -0.237 OA
ATOM     87  O   UNL A   1      53.260  27.950  30.569  1.00  0.00    -0.744 OA
ENDBRANCH  83  84
ENDBRANCH  57  78
ENDBRANCH  31  32
ENDBRANCH  24  26
ENDBRANCH  23  24
ENDBRANCH  22  23
ENDBRANCH   1  22
TORSDOF 17
ENDMDL
MODEL 2
REMARK VINA RESULT:      -8.8      5.267     12.316
REMARK SMILES N#Cc1ccccc1S(=O)(=O)N1CCC(C(=O)OCCOC(=O)c2ccc(-c3c4nc(c(-c5ccc(S(=O)(=O)[O-])cc5)c5ccc([nH]5)c(-c5ccc(S(=O)(=O)[O-])cc5)c5nc(c(-c6ccc(S(=O)(=O)[O-])cc6)c6ccc3[nH]6)C=C5)C=C4)cc2)CC1
REMARK SMILES IDX 19 1 18 2 16 3 17 4 15 5 12 6 13 7 85 8 14 9 84 10 9 11
REMARK SMILES IDX 10 12 11 13 8 14 3 15 4 16 5 17 7 18 6 19 2 20 1 21 20 22
REMARK SMILES IDX 21 23 22 24 23 25 24 26 25 27 83 28 26 29 82 30 27 31 28 32
REMARK SMILES IDX 29 33 76 34 30 35 81 36 75 37 77 38 31 39 80 40 74 41 73 42
REMARK SMILES IDX 32 44 62 45 43 46 61 47 44 48 47 49 60 50 78 51 45 52 46 53
REMARK SMILES IDX 59 55 79 56 48 57 33 58 34 59 42 60 35 61 41 62 36 63 37 64
REMARK SMILES IDX 38 65 39 66 40 67 63 68 64 69 72 70 65 71 71 72 66 73 67 74
REMARK SMILES IDX 68 75 69 76 70 77 49 78 50 79 58 80 51 81 57 82 52 83 53 84
REMARK SMILES IDX 54 85 55 86 56 87
REMARK H PARENT 77 43 47 54
REMARK Flexibility Score: inf
ROOT
ATOM      1  C   UNL A   1      39.762  21.529  26.504  1.00  0.00     0.274 C 
ENDROOT
BRANCH   1   2
ATOM      2  O   UNL A   1      38.592  22.103  25.894  1.00  0.00    -0.462 OA
BRANCH   2   3
ATOM      3  C   UNL A   1      37.684  21.219  25.413  1.00  0.00     0.309 C 
ATOM      4  O   UNL A   1      37.961  20.216  24.763  1.00  0.00    -0.252 OA
BRANCH   3   5
ATOM      5  C   UNL A   1      36.256  21.579  25.759  1.00  0.00     0.102 C 
ATOM      6  N   UNL A   1      33.505  22.385  25.777  1.00  0.00    -0.198 NA
ATOM      7  C   UNL A   1      34.519  23.319  26.324  1.00  0.00     0.103 C 
ATOM      8  C   UNL A   1      33.870  21.009  25.378  1.00  0.00     0.103 C 
ATOM      9  C   UNL A   1      35.936  23.063  25.824  1.00  0.00     0.032 C 
ATOM     10  C   UNL A   1      35.277  20.916  24.808  1.00  0.00     0.032 C 
BRANCH   6  11
ATOM     11  S   UNL A   1      31.879  22.717  26.092  1.00  0.00     0.244 S 
ATOM     12  O   UNL A   1      31.824  23.210  27.456  1.00  0.00    -0.207 OA
ATOM     13  O   UNL A   1      31.106  21.554  25.707  1.00  0.00    -0.207 OA
BRANCH  11  14
ATOM     14  C   UNL A   1      31.240  24.056  25.096  1.00  0.00     0.100 A 
ATOM     15  C   UNL A   1      31.481  24.324  23.749  1.00  0.00     0.072 A 
ATOM     16  C   UNL A   1      30.872  25.447  23.149  1.00  0.00     0.021 A 
ATOM     17  C   UNL A   1      30.025  26.287  23.867  1.00  0.00     0.001 A 
ATOM     18  C   UNL A   1      30.376  24.917  25.811  1.00  0.00     0.023 A 
ATOM     19  C   UNL A   1      29.774  26.019  25.204  1.00  0.00     0.001 A 
BRANCH  15  20
ATOM     20  C   UNL A   1      32.302  23.559  22.870  1.00  0.00     0.101 C 
ATOM     21  N   UNL A   1      33.036  22.943  22.222  1.00  0.00    -0.192 NA
ENDBRANCH  15  20
ENDBRANCH  11  14
ENDBRANCH   6  11
ENDBRANCH   3   5
ENDBRANCH   2   3
ENDBRANCH   1   2
BRANCH   1  22
ATOM     22  C   UNL A   1      41.019  22.309  26.115  1.00  0.00     0.275 C 
BRANCH  22  23
ATOM     23  O   UNL A   1      41.305  23.364  27.052  1.00  0.00    -0.458 OA
BRANCH  23  24
ATOM     24  C   UNL A   1      41.594  24.565  26.495  1.00  0.00     0.338 C 
ATOM     25  O   UNL A   1      41.968  24.777  25.354  1.00  0.00    -0.246 OA
BRANCH  24  26
ATOM     26  C   UNL A   1      41.320  25.644  27.455  1.00  0.00     0.060 A 
ATOM     27  C   UNL A   1      42.247  26.677  27.574  1.00  0.00     0.016 A 
ATOM     28  C   UNL A   1      40.229  25.572  28.320  1.00  0.00     0.016 A 
ATOM     29  C   UNL A   1      42.114  27.628  28.582  1.00  0.00     0.010 A 
ATOM     30  C   UNL A   1      40.077  26.550  29.312  1.00  0.00     0.010 A 
ATOM     31  C   UNL A   1      41.028  27.575  29.465  1.00  0.00    -0.014 A 
BRANCH  31  32
ATOM     32  C   UNL A   1      40.910  28.571  30.561  1.00  0.00     0.031 A 
ATOM     33  C   UNL A   1      41.833  28.501  31.748  1.00  0.00     0.074 A 
ATOM     34  C   UNL A   1      39.978  29.541  30.490  1.00  0.00     0.049 A 
ATOM     35  N   UNL A   1      41.818  29.210  32.848  1.00  0.00    -0.248 NA
ATOM     36  C   UNL A   1      42.911  27.501  31.691  1.00  0.00     0.031 C 
ATOM     37  C   UNL A   1      39.058  29.750  29.371  1.00  0.00     0.029 A 
ATOM     38  N   UNL A   1      39.650  30.533  31.381  1.00  0.00    -0.354 N 
ATOM     39  C   UNL A   1      42.860  28.722  33.629  1.00  0.00     0.074 A 
ATOM     40  C   UNL A   1      43.477  27.646  32.882  1.00  0.00     0.031 C 
ATOM     41  C   UNL A   1      38.275  30.807  29.638  1.00  0.00     0.029 A 
ATOM     42  C   UNL A   1      38.593  31.311  30.971  1.00  0.00     0.049 A 
ATOM     43  H   UNL A   1      40.125  30.673  32.231  1.00  0.00     0.167 HD
ATOM     44  C   UNL A   1      43.264  29.132  34.856  1.00  0.00     0.031 A 
ATOM     45  C   UNL A   1      37.930  32.297  31.607  1.00  0.00     0.031 A 
ATOM     46  C   UNL A   1      42.649  30.206  35.592  1.00  0.00     0.049 A 
ATOM     47  C   UNL A   1      38.353  32.688  32.996  1.00  0.00     0.074 A 
ATOM     48  C   UNL A   1      42.997  30.709  36.835  1.00  0.00     0.029 A 
ATOM     49  N   UNL A   1      41.557  30.943  35.157  1.00  0.00    -0.354 N 
ATOM     50  N   UNL A   1      39.338  32.215  33.721  1.00  0.00    -0.248 NA
ATOM     51  C   UNL A   1      37.573  33.747  33.652  1.00  0.00     0.031 C 
ATOM     52  C   UNL A   1      42.082  31.710  37.175  1.00  0.00     0.029 A 
ATOM     53  C   UNL A   1      41.202  31.877  36.118  1.00  0.00     0.049 A 
ATOM     54  H   UNL A   1      41.102  30.821  34.293  1.00  0.00     0.167 HD
ATOM     55  C   UNL A   1      39.310  32.932  34.912  1.00  0.00     0.074 A 
ATOM     56  C   UNL A   1      38.222  33.883  34.802  1.00  0.00     0.031 C 
ATOM     57  C   UNL A   1      40.113  32.814  35.998  1.00  0.00     0.031 A 
BRANCH  44  58
ATOM     58  C   UNL A   1      44.404  28.386  35.501  1.00  0.00    -0.014 A 
ATOM     59  C   UNL A   1      45.744  28.754  35.279  1.00  0.00     0.010 A 
ATOM     60  C   UNL A   1      44.127  27.318  36.374  1.00  0.00     0.010 A 
ATOM     61  C   UNL A   1      46.783  28.040  35.882  1.00  0.00     0.020 A 
ATOM     62  C   UNL A   1      45.162  26.620  37.002  1.00  0.00     0.020 A 
ATOM     63  C   UNL A   1      46.486  26.974  36.736  1.00  0.00     0.054 A 
BRANCH  63  64
ATOM     64  S   UNL A   1      47.855  26.073  37.515  1.00  0.00     0.124 S 
ATOM     65  O   UNL A   1      47.991  26.777  38.788  1.00  0.00    -0.237 OA
ATOM     66  O   UNL A   1      47.334  24.711  37.605  1.00  0.00    -0.237 OA
ATOM     67  O   UNL A   1      48.965  26.252  36.582  1.00  0.00    -0.744 OA
ENDBRANCH  63  64
ENDBRANCH  44  58
BRANCH  45  68
ATOM     68  C   UNL A   1      36.774  32.959  30.943  1.00  0.00    -0.014 A 
ATOM     69  C   UNL A   1      35.464  32.752  31.410  1.00  0.00     0.010 A 
ATOM     70  C   UNL A   1      36.981  33.819  29.847  1.00  0.00     0.010 A 
ATOM     71  C   UNL A   1      34.383  33.384  30.788  1.00  0.00     0.020 A 
ATOM     72  C   UNL A   1      35.906  34.475  29.242  1.00  0.00     0.020 A 
ATOM     73  C   UNL A   1      34.612  34.245  29.711  1.00  0.00     0.054 A 
BRANCH  73  74
ATOM     74  S   UNL A   1      33.199  35.099  28.958  1.00  0.00     0.124 S 
ATOM     75  O   UNL A   1      32.342  35.346  30.113  1.00  0.00    -0.237 OA
ATOM     76  O   UNL A   1      33.823  36.282  28.369  1.00  0.00    -0.237 OA
ATOM     77  O   UNL A   1      32.687  34.129  27.993  1.00  0.00    -0.744 OA
ENDBRANCH  73  74
ENDBRANCH  45  68
BRANCH  57  78
ATOM     78  C   UNL A   1      39.869  33.760  37.145  1.00  0.00    -0.014 A 
ATOM     79  C   UNL A   1      40.379  35.071  37.132  1.00  0.00     0.010 A 
ATOM     80  C   UNL A   1      39.075  33.345  38.229  1.00  0.00     0.010 A 
ATOM     81  C   UNL A   1      40.125  35.937  38.198  1.00  0.00     0.020 A 
ATOM     82  C   UNL A   1      38.795  34.218  39.283  1.00  0.00     0.020 A 
ATOM     83  C   UNL A   1      39.334  35.505  39.268  1.00  0.00     0.054 A 
BRANCH  83  84
ATOM     84  S   UNL A   1      38.984  36.663  40.619  1.00  0.00     0.124 S 
ATOM     85  O   UNL A   1      38.491  37.833  39.897  1.00  0.00    -0.237 OA
ATOM     86  O   UNL A   1      37.986  35.945  41.408  1.00  0.00    -0.237 OA
ATOM     87  O   UNL A   1      40.280  36.835  41.273  1.00  0.00    -0.744 OA
ENDBRANCH  83  84
ENDBRANCH  57  78
ENDBRANCH  31  32
ENDBRANCH  24  26
ENDBRANCH  23  24
ENDBRANCH  22  23
ENDBRANCH   1  22
TORSDOF 17
ENDMDL
MODEL 3
REMARK VINA RESULT:      -8.6      5.118     11.470
REMARK SMILES N#Cc1ccccc1S(=O)(=O)N1CCC(C(=O)OCCOC(=O)c2ccc(-c3c4nc(c(-c5ccc(S(=O)(=O)[O-])cc5)c5ccc([nH]5)c(-c5ccc(S(=O)(=O)[O-])cc5)c5nc(c(-c6ccc(S(=O)(=O)[O-])cc6)c6ccc3[nH]6)C=C5)C=C4)cc2)CC1
REMARK SMILES IDX 19 1 18 2 16 3 17 4 15 5 12 6 13 7 85 8 14 9 84 10 9 11
REMARK SMILES IDX 10 12 11 13 8 14 3 15 4 16 5 17 7 18 6 19 2 20 1 21 20 22
REMARK SMILES IDX 21 23 22 24 23 25 24 26 25 27 83 28 26 29 82 30 27 31 28 32
REMARK SMILES IDX 29 33 76 34 30 35 81 36 75 37 77 38 31 39 80 40 74 41 73 42
REMARK SMILES IDX 32 44 62 45 43 46 61 47 44 48 47 49 60 50 78 51 45 52 46 53
REMARK SMILES IDX 59 55 79 56 48 57 33 58 34 59 42 60 35 61 41 62 36 63 37 64
REMARK SMILES IDX 38 65 39 66 40 67 63 68 64 69 72 70 65 71 71 72 66 73 67 74
REMARK SMILES IDX 68 75 69 76 70 77 49 78 50 79 58 80 51 81 57 82 52 83 53 84
REMARK SMILES IDX 54 85 55 86 56 87
REMARK H PARENT 77 43 47 54
REMARK Flexibility Score: inf
ROOT
ATOM      1  C   UNL A   1      39.589  22.052  26.207  1.00  0.00     0.274 C 
ENDROOT
BRANCH   1   2
ATOM      2  O   UNL A   1      38.215  22.478  26.239  1.00  0.00    -0.462 OA
BRANCH   2   3
ATOM      3  C   UNL A   1      37.409  21.942  25.290  1.00  0.00     0.309 C 
ATOM      4  O   UNL A   1      37.456  20.777  24.910  1.00  0.00    -0.252 OA
BRANCH   3   5
ATOM      5  C   UNL A   1      36.410  22.929  24.727  1.00  0.00     0.102 C 
ATOM      6  N   UNL A   1      34.118  24.533  24.103  1.00  0.00    -0.198 NA
ATOM      7  C   UNL A   1      34.496  23.447  23.167  1.00  0.00     0.103 C 
ATOM      8  C   UNL A   1      34.983  24.892  25.247  1.00  0.00     0.103 C 
ATOM      9  C   UNL A   1      35.356  22.356  23.793  1.00  0.00     0.032 C 
ATOM     10  C   UNL A   1      35.709  23.692  25.835  1.00  0.00     0.032 C 
BRANCH   6  11
ATOM     11  S   UNL A   1      32.988  25.672  23.571  1.00  0.00     0.244 S 
ATOM     12  O   UNL A   1      31.775  24.932  23.278  1.00  0.00    -0.207 OA
ATOM     13  O   UNL A   1      33.620  26.473  22.542  1.00  0.00    -0.207 OA
BRANCH  11  14
ATOM     14  C   UNL A   1      32.520  26.831  24.846  1.00  0.00     0.100 A 
ATOM     15  C   UNL A   1      31.920  26.568  26.078  1.00  0.00     0.072 A 
ATOM     16  C   UNL A   1      31.628  27.641  26.947  1.00  0.00     0.021 A 
ATOM     17  C   UNL A   1      31.937  28.956  26.609  1.00  0.00     0.001 A 
ATOM     18  C   UNL A   1      32.828  28.172  24.519  1.00  0.00     0.023 A 
ATOM     19  C   UNL A   1      32.542  29.222  25.391  1.00  0.00     0.001 A 
BRANCH  15  20
ATOM     20  C   UNL A   1      31.558  25.285  26.583  1.00  0.00     0.101 C 
ATOM     21  N   UNL A   1      31.347  24.244  27.041  1.00  0.00    -0.192 NA
ENDBRANCH  15  20
ENDBRANCH  11  14
ENDBRANCH   6  11
ENDBRANCH   3   5
ENDBRANCH   2   3
ENDBRANCH   1   2
BRANCH   1  22
ATOM     22  C   UNL A   1      40.529  23.219  26.514  1.00  0.00     0.275 C 
BRANCH  22  23
ATOM     23  O   UNL A   1      39.839  24.483  26.494  1.00  0.00    -0.458 OA
BRANCH  23  24
ATOM     24  C   UNL A   1      40.633  25.570  26.346  1.00  0.00     0.338 C 
ATOM     25  O   UNL A   1      41.197  25.939  25.329  1.00  0.00    -0.246 OA
BRANCH  24  26
ATOM     26  C   UNL A   1      40.679  26.335  27.601  1.00  0.00     0.060 A 
ATOM     27  C   UNL A   1      39.757  26.028  28.599  1.00  0.00     0.016 A 
ATOM     28  C   UNL A   1      41.532  27.428  27.741  1.00  0.00     0.016 A 
ATOM     29  C   UNL A   1      39.653  26.831  29.732  1.00  0.00     0.010 A 
ATOM     30  C   UNL A   1      41.451  28.216  28.898  1.00  0.00     0.010 A 
ATOM     31  C   UNL A   1      40.498  27.935  29.894  1.00  0.00    -0.014 A 
BRANCH  31  32
ATOM     32  C   UNL A   1      40.359  28.810  31.087  1.00  0.00     0.031 A 
ATOM     33  C   UNL A   1      39.325  29.904  31.105  1.00  0.00     0.074 A 
ATOM     34  C   UNL A   1      41.156  28.621  32.156  1.00  0.00     0.049 A 
ATOM     35  N   UNL A   1      39.123  30.834  32.005  1.00  0.00    -0.248 NA
ATOM     36  C   UNL A   1      38.402  29.964  29.961  1.00  0.00     0.031 C 
ATOM     37  C   UNL A   1      42.161  27.564  32.285  1.00  0.00     0.029 A 
ATOM     38  N   UNL A   1      41.248  29.314  33.338  1.00  0.00    -0.354 N 
ATOM     39  C   UNL A   1      38.073  31.608  31.522  1.00  0.00     0.074 A 
ATOM     40  C   UNL A   1      37.692  31.047  30.241  1.00  0.00     0.031 C 
ATOM     41  C   UNL A   1      42.762  27.674  33.480  1.00  0.00     0.029 A 
ATOM     42  C   UNL A   1      42.231  28.843  34.175  1.00  0.00     0.049 A 
ATOM     43  H   UNL A   1      40.665  30.074  33.563  1.00  0.00     0.167 HD
ATOM     44  C   UNL A   1      37.482  32.686  32.092  1.00  0.00     0.031 A 
ATOM     45  C   UNL A   1      42.682  29.317  35.353  1.00  0.00     0.031 A 
ATOM     46  C   UNL A   1      37.863  33.235  33.368  1.00  0.00     0.049 A 
ATOM     47  C   UNL A   1      42.058  30.556  35.933  1.00  0.00     0.074 A 
ATOM     48  C   UNL A   1      37.314  34.315  34.039  1.00  0.00     0.029 A 
ATOM     49  N   UNL A   1      38.890  32.751  34.165  1.00  0.00    -0.354 N 
ATOM     50  N   UNL A   1      41.069  31.277  35.463  1.00  0.00    -0.248 NA
ATOM     51  C   UNL A   1      42.612  31.044  37.203  1.00  0.00     0.031 C 
ATOM     52  C   UNL A   1      38.045  34.518  35.214  1.00  0.00     0.029 A 
ATOM     53  C   UNL A   1      39.008  33.527  35.308  1.00  0.00     0.049 A 
ATOM     54  H   UNL A   1      39.451  31.973  33.952  1.00  0.00     0.167 HD
ATOM     55  C   UNL A   1      40.868  32.294  36.389  1.00  0.00     0.074 A 
ATOM     56  C   UNL A   1      41.826  32.083  37.456  1.00  0.00     0.031 C 
ATOM     57  C   UNL A   1      39.970  33.310  36.360  1.00  0.00     0.031 A 
BRANCH  44  58
ATOM     58  C   UNL A   1      36.386  33.372  31.318  1.00  0.00    -0.014 A 
ATOM     59  C   UNL A   1      35.104  33.558  31.867  1.00  0.00     0.010 A 
ATOM     60  C   UNL A   1      36.655  33.871  30.030  1.00  0.00     0.010 A 
ATOM     61  C   UNL A   1      34.101  34.190  31.125  1.00  0.00     0.020 A 
ATOM     62  C   UNL A   1      35.664  34.529  29.296  1.00  0.00     0.020 A 
ATOM     63  C   UNL A   1      34.387  34.667  29.842  1.00  0.00     0.054 A 
BRANCH  63  64
ATOM     64  S   UNL A   1      33.070  35.494  28.906  1.00  0.00     0.124 S 
ATOM     65  O   UNL A   1      32.491  34.381  28.156  1.00  0.00    -0.237 OA
ATOM     66  O   UNL A   1      32.224  36.046  29.961  1.00  0.00    -0.237 OA
ATOM     67  O   UNL A   1      33.783  36.483  28.102  1.00  0.00    -0.744 OA
ENDBRANCH  63  64
ENDBRANCH  44  58
BRANCH  45  68
ATOM     68  C   UNL A   1      43.809  28.631  36.044  1.00  0.00    -0.014 A 
ATOM     69  C   UNL A   1      43.567  27.553  36.913  1.00  0.00     0.010 A 
ATOM     70  C   UNL A   1      45.136  29.043  35.819  1.00  0.00     0.010 A 
ATOM     71  C   UNL A   1      44.630  26.907  37.552  1.00  0.00     0.020 A 
ATOM     72  C   UNL A   1      46.203  28.381  36.432  1.00  0.00     0.020 A 
ATOM     73  C   UNL A   1      45.941  27.322  37.303  1.00  0.00     0.054 A 
BRANCH  73  74
ATOM     74  S   UNL A   1      47.307  26.429  38.097  1.00  0.00     0.124 S 
ATOM     75  O   UNL A   1      47.123  25.075  37.587  1.00  0.00    -0.237 OA
ATOM     76  O   UNL A   1      48.481  27.141  37.597  1.00  0.00    -0.237 OA
ATOM     77  O   UNL A   1      47.044  26.602  39.525  1.00  0.00    -0.744 OA
ENDBRANCH  73  74
ENDBRANCH  45  68
BRANCH  57  78
ATOM     78  C   UNL A   1      39.956  34.254  37.533  1.00  0.00    -0.014 A 
ATOM     79  C   UNL A   1      40.637  35.484  37.489  1.00  0.00     0.010 A 
ATOM     80  C   UNL A   1      39.206  33.927  38.678  1.00  0.00     0.010 A 
ATOM     81  C   UNL A   1      40.596  36.353  38.582  1.00  0.00     0.020 A 
ATOM     82  C   UNL A   1      39.139  34.807  39.761  1.00  0.00     0.020 A 
ATOM     83  C   UNL A   1      39.847  36.009  39.713  1.00  0.00     0.054 A 
BRANCH  83  84
ATOM     84  S   UNL A   1      39.774  37.174  41.101  1.00  0.00     0.124 S 
ATOM     85  O   UNL A   1      39.018  38.284  40.528  1.00  0.00    -0.237 OA
ATOM     86  O   UNL A   1      39.080  36.404  42.130  1.00  0.00    -0.237 OA
ATOM     87  O   UNL A   1      41.179  37.459  41.387  1.00  0.00    -0.744 OA
ENDBRANCH  83  84
ENDBRANCH  57  78
ENDBRANCH  31  32
ENDBRANCH  24  26
ENDBRANCH  23  24
ENDBRANCH  22  23
ENDBRANCH   1  22
TORSDOF 17
ENDMDL
