MODEL 1
REMARK VINA RESULT:     -12.0      0.000      0.000
REMARK SMILES O=C(OCCOC(=O)c1ccc(-c2c3nc(c(-c4ccc(S(=O)(=O)[O-])cc4)c4ccc([nH]4)c(-c4ccc(S(=O)(=O)[O-])cc4)c4nc(c(-c5ccc(S(=O)(=O)[O-])cc5)c5ccc2[nH]5)C=C4)C=C3)cc1)C1=NN(c2ccc(S(=O)(=O)[O-])cc2)C(=O)/C1=C/Nc1ccccc1
REMARK SMILES IDX 5 1 4 2 3 3 2 4 1 5 69 6 70 7 84 8 71 9 82 10 85 11 83 12
REMARK SMILES IDX 72 13 73 14 81 15 74 16 80 17 75 18 76 19 77 20 78 21 79 22
REMARK SMILES IDX 86 23 87 25 88 26 92 27 89 28 91 29 90 30 6 31 7 32 8 33
REMARK SMILES IDX 9 34 10 35 68 36 11 37 67 38 12 39 13 40 14 41 61 42 15 43
REMARK SMILES IDX 66 44 60 45 62 46 16 47 65 48 59 49 58 50 17 52 47 53 28 54
REMARK SMILES IDX 46 55 29 56 32 57 45 58 63 59 30 60 31 61 44 63 64 64 33 65
REMARK SMILES IDX 18 66 19 67 27 68 20 69 26 70 21 71 22 72 23 73 24 74 25 75
REMARK SMILES IDX 48 76 49 77 57 78 50 79 56 80 51 81 52 82 53 83 54 84 55 85
REMARK SMILES IDX 34 86 35 87 43 88 36 89 42 90 37 91 38 92 39 93 40 94 41 95
REMARK H PARENT 86 24 62 51 32 62
REMARK Flexibility Score: inf
ROOT
ATOM      1  C   UNL A   1      33.062  29.293  25.295  1.00  0.00     0.275 C 
ENDROOT
BRANCH   1   2
ATOM      2  C   UNL A   1      33.746  28.534  24.133  1.00  0.00     0.275 C 
BRANCH   2   3
ATOM      3  O   UNL A   1      32.961  28.206  22.970  1.00  0.00    -0.457 OA
BRANCH   3   4
ATOM      4  C   UNL A   1      33.202  27.025  22.383  1.00  0.00     0.359 C 
ATOM      5  O   UNL A   1      33.828  26.860  21.351  1.00  0.00    -0.244 OA
BRANCH   4   6
ATOM      6  C   UNL A   1      32.639  25.888  23.194  1.00  0.00     0.183 C 
ATOM      7  N   UNL A   1      33.295  24.758  23.291  1.00  0.00    -0.157 NA
ATOM      8  C   UNL A   1      31.373  25.880  23.974  1.00  0.00     0.093 C 
ATOM      9  N   UNL A   1      32.520  23.950  24.098  1.00  0.00    -0.196 N 
ATOM     10  C   UNL A   1      31.414  24.576  24.675  1.00  0.00     0.282 C 
ATOM     11  C   UNL A   1      30.192  26.518  24.042  1.00  0.00     0.099 C 
ATOM     12  O   UNL A   1      30.584  24.162  25.465  1.00  0.00    -0.267 OA
BRANCH   9  13
ATOM     13  C   UNL A   1      32.718  22.563  24.031  1.00  0.00     0.069 A 
ATOM     14  C   UNL A   1      33.593  21.914  24.906  1.00  0.00     0.030 A 
ATOM     15  C   UNL A   1      32.052  21.822  23.043  1.00  0.00     0.030 A 
ATOM     16  C   UNL A   1      33.713  20.522  24.859  1.00  0.00     0.021 A 
ATOM     17  C   UNL A   1      32.231  20.448  22.941  1.00  0.00     0.021 A 
ATOM     18  C   UNL A   1      33.033  19.796  23.873  1.00  0.00     0.054 A 
BRANCH  18  19
ATOM     19  S   UNL A   1      33.099  18.023  23.866  1.00  0.00     0.124 S 
ATOM     20  O   UNL A   1      32.615  17.548  22.600  1.00  0.00    -0.237 OA
ATOM     21  O   UNL A   1      34.393  17.652  24.402  1.00  0.00    -0.237 OA
ATOM     22  O   UNL A   1      31.978  17.550  24.927  1.00  0.00    -0.744 OA
ENDBRANCH  18  19
ENDBRANCH   9  13
BRANCH  11  23
ATOM     23  N   UNL A   1      29.602  27.371  23.150  1.00  0.00    -0.361 N 
ATOM     24  H   UNL A   1      29.477  26.994  22.250  1.00  0.00     0.166 HD
BRANCH  23  25
ATOM     25  C   UNL A   1      29.144  28.690  23.292  1.00  0.00     0.038 A 
ATOM     26  C   UNL A   1      27.820  28.984  22.918  1.00  0.00     0.026 A 
ATOM     27  C   UNL A   1      29.944  29.730  23.764  1.00  0.00     0.026 A 
ATOM     28  C   UNL A   1      27.330  30.290  22.952  1.00  0.00     0.002 A 
ATOM     29  C   UNL A   1      29.461  31.044  23.783  1.00  0.00     0.002 A 
ATOM     30  C   UNL A   1      28.159  31.325  23.369  1.00  0.00     0.000 A 
ENDBRANCH  23  25
ENDBRANCH  11  23
ENDBRANCH   4   6
ENDBRANCH   3   4
ENDBRANCH   2   3
ENDBRANCH   1   2
BRANCH   1  31
ATOM     31  O   UNL A   1      33.781  29.083  26.536  1.00  0.00    -0.458 OA
BRANCH  31  32
ATOM     32  C   UNL A   1      34.135  30.197  27.224  1.00  0.00     0.338 C 
ATOM     33  O   UNL A   1      33.443  31.184  27.381  1.00  0.00    -0.246 OA
BRANCH  32  34
ATOM     34  C   UNL A   1      35.443  29.940  27.885  1.00  0.00     0.060 A 
ATOM     35  C   UNL A   1      36.590  30.093  27.105  1.00  0.00     0.016 A 
ATOM     36  C   UNL A   1      35.568  29.595  29.236  1.00  0.00     0.016 A 
ATOM     37  C   UNL A   1      37.857  29.881  27.662  1.00  0.00     0.010 A 
ATOM     38  C   UNL A   1      36.847  29.412  29.800  1.00  0.00     0.010 A 
ATOM     39  C   UNL A   1      38.009  29.534  29.015  1.00  0.00    -0.014 A 
BRANCH  39  40
ATOM     40  C   UNL A   1      39.375  29.244  29.559  1.00  0.00     0.031 A 
ATOM     41  C   UNL A   1      39.962  30.113  30.650  1.00  0.00     0.074 A 
ATOM     42  C   UNL A   1      40.073  28.163  29.143  1.00  0.00     0.049 A 
ATOM     43  N   UNL A   1      41.094  29.976  31.297  1.00  0.00    -0.248 NA
ATOM     44  C   UNL A   1      39.174  31.282  31.076  1.00  0.00     0.031 C 
ATOM     45  C   UNL A   1      39.638  27.220  28.111  1.00  0.00     0.029 A 
ATOM     46  N   UNL A   1      41.296  27.668  29.542  1.00  0.00    -0.354 N 
ATOM     47  C   UNL A   1      41.131  31.004  32.232  1.00  0.00     0.074 A 
ATOM     48  C   UNL A   1      39.951  31.811  32.012  1.00  0.00     0.031 C 
ATOM     49  C   UNL A   1      40.571  26.263  27.964  1.00  0.00     0.029 A 
ATOM     50  C   UNL A   1      41.695  26.538  28.857  1.00  0.00     0.049 A 
ATOM     51  H   UNL A   1      41.836  28.083  30.253  1.00  0.00     0.167 HD
ATOM     52  C   UNL A   1      42.033  31.233  33.219  1.00  0.00     0.031 A 
ATOM     53  C   UNL A   1      42.844  25.827  28.907  1.00  0.00     0.031 A 
ATOM     54  C   UNL A   1      43.205  30.434  33.457  1.00  0.00     0.049 A 
ATOM     55  C   UNL A   1      43.932  26.254  29.867  1.00  0.00     0.074 A 
ATOM     56  C   UNL A   1      44.126  30.546  34.487  1.00  0.00     0.029 A 
ATOM     57  N   UNL A   1      43.628  29.386  32.659  1.00  0.00    -0.354 N 
ATOM     58  N   UNL A   1      43.897  27.176  30.802  1.00  0.00    -0.248 NA
ATOM     59  C   UNL A   1      45.218  25.541  29.783  1.00  0.00     0.031 C 
ATOM     60  C   UNL A   1      45.142  29.609  34.272  1.00  0.00     0.029 A 
ATOM     61  C   UNL A   1      44.826  28.880  33.139  1.00  0.00     0.049 A 
ATOM     62  H   UNL A   1      43.151  29.051  31.866  1.00  0.00     0.167 HD
ATOM     63  C   UNL A   1      45.127  27.101  31.454  1.00  0.00     0.074 A 
ATOM     64  C   UNL A   1      45.890  26.063  30.799  1.00  0.00     0.031 C 
ATOM     65  C   UNL A   1      45.571  27.819  32.515  1.00  0.00     0.031 A 
BRANCH  52  66
ATOM     66  C   UNL A   1      41.775  32.382  34.160  1.00  0.00    -0.014 A 
ATOM     67  C   UNL A   1      42.254  33.669  33.859  1.00  0.00     0.010 A 
ATOM     68  C   UNL A   1      40.957  32.201  35.291  1.00  0.00     0.010 A 
ATOM     69  C   UNL A   1      41.941  34.752  34.685  1.00  0.00     0.020 A 
ATOM     70  C   UNL A   1      40.624  33.287  36.107  1.00  0.00     0.020 A 
ATOM     71  C   UNL A   1      41.126  34.555  35.803  1.00  0.00     0.054 A 
BRANCH  71  72
ATOM     72  S   UNL A   1      40.692  35.991  36.824  1.00  0.00     0.124 S 
ATOM     73  O   UNL A   1      40.064  35.357  37.980  1.00  0.00    -0.237 OA
ATOM     74  O   UNL A   1      41.992  36.608  37.076  1.00  0.00    -0.237 OA
ATOM     75  O   UNL A   1      39.792  36.763  35.972  1.00  0.00    -0.744 OA
ENDBRANCH  71  72
ENDBRANCH  52  66
BRANCH  53  76
ATOM     76  C   UNL A   1      43.114  24.725  27.925  1.00  0.00    -0.014 A 
ATOM     77  C   UNL A   1      42.831  23.375  28.187  1.00  0.00     0.010 A 
ATOM     78  C   UNL A   1      43.794  25.034  26.735  1.00  0.00     0.010 A 
ATOM     79  C   UNL A   1      43.267  22.373  27.304  1.00  0.00     0.020 A 
ATOM     80  C   UNL A   1      44.211  24.053  25.838  1.00  0.00     0.020 A 
ATOM     81  C   UNL A   1      43.962  22.720  26.138  1.00  0.00     0.054 A 
BRANCH  81  82
ATOM     82  S   UNL A   1      44.564  21.418  25.029  1.00  0.00     0.124 S 
ATOM     83  O   UNL A   1      44.448  22.051  23.719  1.00  0.00    -0.237 OA
ATOM     84  O   UNL A   1      45.925  21.204  25.514  1.00  0.00    -0.237 OA
ATOM     85  O   UNL A   1      43.644  20.308  25.269  1.00  0.00    -0.744 OA
ENDBRANCH  81  82
ENDBRANCH  53  76
BRANCH  65  86
ATOM     86  C   UNL A   1      46.901  27.442  33.114  1.00  0.00    -0.014 A 
ATOM     87  C   UNL A   1      48.094  28.075  32.728  1.00  0.00     0.010 A 
ATOM     88  C   UNL A   1      46.942  26.466  34.129  1.00  0.00     0.010 A 
ATOM     89  C   UNL A   1      49.308  27.721  33.328  1.00  0.00     0.020 A 
ATOM     90  C   UNL A   1      48.148  26.127  34.747  1.00  0.00     0.020 A 
ATOM     91  C   UNL A   1      49.328  26.748  34.334  1.00  0.00     0.054 A 
BRANCH  91  92
ATOM     92  S   UNL A   1      50.906  26.337  35.131  1.00  0.00     0.124 S 
ATOM     93  O   UNL A   1      50.514  26.198  36.531  1.00  0.00    -0.237 OA
ATOM     94  O   UNL A   1      51.292  25.097  34.460  1.00  0.00    -0.237 OA
ATOM     95  O   UNL A   1      51.756  27.487  34.833  1.00  0.00    -0.744 OA
ENDBRANCH  91  92
ENDBRANCH  65  86
ENDBRANCH  39  40
ENDBRANCH  32  34
ENDBRANCH  31  32
ENDBRANCH   1  31
TORSDOF 18
ENDMDL
MODEL 2
REMARK VINA RESULT:     -11.3      5.068     11.554
REMARK SMILES O=C(OCCOC(=O)c1ccc(-c2c3nc(c(-c4ccc(S(=O)(=O)[O-])cc4)c4ccc([nH]4)c(-c4ccc(S(=O)(=O)[O-])cc4)c4nc(c(-c5ccc(S(=O)(=O)[O-])cc5)c5ccc2[nH]5)C=C4)C=C3)cc1)C1=NN(c2ccc(S(=O)(=O)[O-])cc2)C(=O)/C1=C/Nc1ccccc1
REMARK SMILES IDX 5 1 4 2 3 3 2 4 1 5 69 6 70 7 84 8 71 9 82 10 85 11 83 12
REMARK SMILES IDX 72 13 73 14 81 15 74 16 80 17 75 18 76 19 77 20 78 21 79 22
REMARK SMILES IDX 86 23 87 25 88 26 92 27 89 28 91 29 90 30 6 31 7 32 8 33
REMARK SMILES IDX 9 34 10 35 68 36 11 37 67 38 12 39 13 40 14 41 61 42 15 43
REMARK SMILES IDX 66 44 60 45 62 46 16 47 65 48 59 49 58 50 17 52 47 53 28 54
REMARK SMILES IDX 46 55 29 56 32 57 45 58 63 59 30 60 31 61 44 63 64 64 33 65
REMARK SMILES IDX 18 66 19 67 27 68 20 69 26 70 21 71 22 72 23 73 24 74 25 75
REMARK SMILES IDX 48 76 49 77 57 78 50 79 56 80 51 81 52 82 53 83 54 84 55 85
REMARK SMILES IDX 34 86 35 87 43 88 36 89 42 90 37 91 38 92 39 93 40 94 41 95
REMARK H PARENT 86 24 62 51 32 62
REMARK Flexibility Score: inf
ROOT
ATOM      1  C   UNL A   1      45.411  25.179  24.839  1.00  0.00     0.275 C 
ENDROOT
BRANCH   1   2
ATOM      2  C   UNL A   1      46.703  24.441  25.262  1.00  0.00     0.275 C 
BRANCH   2   3
ATOM      3  O   UNL A   1      46.610  23.408  26.263  1.00  0.00    -0.457 OA
BRANCH   3   4
ATOM      4  C   UNL A   1      45.845  22.346  25.976  1.00  0.00     0.359 C 
ATOM      5  O   UNL A   1      46.150  21.433  25.230  1.00  0.00    -0.244 OA
BRANCH   4   6
ATOM      6  C   UNL A   1      44.549  22.384  26.742  1.00  0.00     0.183 C 
ATOM      7  N   UNL A   1      43.466  21.854  26.232  1.00  0.00    -0.157 NA
ATOM      8  C   UNL A   1      44.322  22.952  28.097  1.00  0.00     0.093 C 
ATOM      9  N   UNL A   1      42.480  22.048  27.177  1.00  0.00    -0.196 N 
ATOM     10  C   UNL A   1      42.921  22.574  28.393  1.00  0.00     0.282 C 
ATOM     11  C   UNL A   1      44.860  23.835  28.956  1.00  0.00     0.099 C 
ATOM     12  O   UNL A   1      42.322  22.803  29.428  1.00  0.00    -0.267 OA
BRANCH   9  13
ATOM     13  C   UNL A   1      41.141  21.997  26.759  1.00  0.00     0.069 A 
ATOM     14  C   UNL A   1      40.280  23.079  26.957  1.00  0.00     0.030 A 
ATOM     15  C   UNL A   1      40.653  20.824  26.166  1.00  0.00     0.030 A 
ATOM     16  C   UNL A   1      38.973  23.022  26.465  1.00  0.00     0.021 A 
ATOM     17  C   UNL A   1      39.330  20.733  25.748  1.00  0.00     0.021 A 
ATOM     18  C   UNL A   1      38.504  21.846  25.866  1.00  0.00     0.054 A 
BRANCH  18  19
ATOM     19  S   UNL A   1      36.882  21.796  25.149  1.00  0.00     0.124 S 
ATOM     20  O   UNL A   1      35.956  22.415  26.057  1.00  0.00    -0.237 OA
ATOM     21  O   UNL A   1      37.023  22.212  23.767  1.00  0.00    -0.237 OA
ATOM     22  O   UNL A   1      36.462  20.238  25.148  1.00  0.00    -0.744 OA
ENDBRANCH  18  19
ENDBRANCH   9  13
BRANCH  11  23
ATOM     23  N   UNL A   1      45.815  24.792  28.748  1.00  0.00    -0.361 N 
ATOM     24  H   UNL A   1      46.275  24.724  27.881  1.00  0.00     0.166 HD
BRANCH  23  25
ATOM     25  C   UNL A   1      46.256  25.852  29.554  1.00  0.00     0.038 A 
ATOM     26  C   UNL A   1      46.619  25.578  30.884  1.00  0.00     0.026 A 
ATOM     27  C   UNL A   1      46.331  27.171  29.107  1.00  0.00     0.026 A 
ATOM     28  C   UNL A   1      46.984  26.599  31.763  1.00  0.00     0.002 A 
ATOM     29  C   UNL A   1      46.679  28.201  29.989  1.00  0.00     0.002 A 
ATOM     30  C   UNL A   1      46.996  27.916  31.318  1.00  0.00     0.000 A 
ENDBRANCH  23  25
ENDBRANCH  11  23
ENDBRANCH   4   6
ENDBRANCH   3   4
ENDBRANCH   2   3
ENDBRANCH   1   2
BRANCH   1  31
ATOM     31  O   UNL A   1      44.715  25.700  25.999  1.00  0.00    -0.458 OA
BRANCH  31  32
ATOM     32  C   UNL A   1      43.361  25.675  25.953  1.00  0.00     0.338 C 
ATOM     33  O   UNL A   1      42.689  25.045  25.159  1.00  0.00    -0.246 OA
BRANCH  32  34
ATOM     34  C   UNL A   1      42.840  26.418  27.132  1.00  0.00     0.060 A 
ATOM     35  C   UNL A   1      43.357  27.695  27.358  1.00  0.00     0.016 A 
ATOM     36  C   UNL A   1      41.849  25.914  27.984  1.00  0.00     0.016 A 
ATOM     37  C   UNL A   1      42.905  28.458  28.441  1.00  0.00     0.010 A 
ATOM     38  C   UNL A   1      41.376  26.698  29.054  1.00  0.00     0.010 A 
ATOM     39  C   UNL A   1      41.912  27.974  29.310  1.00  0.00    -0.014 A 
BRANCH  39  40
ATOM     40  C   UNL A   1      41.504  28.790  30.499  1.00  0.00     0.031 A 
ATOM     41  C   UNL A   1      42.249  28.653  31.810  1.00  0.00     0.074 A 
ATOM     42  C   UNL A   1      40.520  29.713  30.404  1.00  0.00     0.049 A 
ATOM     43  N   UNL A   1      42.091  29.325  32.924  1.00  0.00    -0.248 NA
ATOM     44  C   UNL A   1      43.312  27.637  31.876  1.00  0.00     0.031 C 
ATOM     45  C   UNL A   1      39.719  29.976  29.207  1.00  0.00     0.029 A 
ATOM     46  N   UNL A   1      40.029  30.610  31.328  1.00  0.00    -0.354 N 
ATOM     47  C   UNL A   1      43.060  28.851  33.801  1.00  0.00     0.074 A 
ATOM     48  C   UNL A   1      43.745  27.772  33.123  1.00  0.00     0.031 C 
ATOM     49  C   UNL A   1      38.847  30.966  29.468  1.00  0.00     0.029 A 
ATOM     50  C   UNL A   1      38.988  31.386  30.860  1.00  0.00     0.049 A 
ATOM     51  H   UNL A   1      40.388  30.689  32.242  1.00  0.00     0.167 HD
ATOM     52  C   UNL A   1      43.389  29.298  35.038  1.00  0.00     0.031 A 
ATOM     53  C   UNL A   1      38.209  32.300  31.483  1.00  0.00     0.031 A 
ATOM     54  C   UNL A   1      42.725  30.376  35.722  1.00  0.00     0.049 A 
ATOM     55  C   UNL A   1      38.462  32.609  32.941  1.00  0.00     0.074 A 
ATOM     56  C   UNL A   1      43.050  30.949  36.942  1.00  0.00     0.029 A 
ATOM     57  N   UNL A   1      41.601  31.037  35.259  1.00  0.00    -0.354 N 
ATOM     58  N   UNL A   1      39.445  32.208  33.715  1.00  0.00    -0.248 NA
ATOM     59  C   UNL A   1      37.501  33.498  33.614  1.00  0.00     0.031 C 
ATOM     60  C   UNL A   1      42.082  31.911  37.247  1.00  0.00     0.029 A 
ATOM     61  C   UNL A   1      41.186  31.973  36.194  1.00  0.00     0.049 A 
ATOM     62  H   UNL A   1      41.162  30.868  34.395  1.00  0.00     0.167 HD
ATOM     63  C   UNL A   1      39.252  32.852  34.936  1.00  0.00     0.074 A 
ATOM     64  C   UNL A   1      38.053  33.650  34.809  1.00  0.00     0.031 C 
ATOM     65  C   UNL A   1      40.016  32.799  36.055  1.00  0.00     0.031 A 
BRANCH  52  66
ATOM     66  C   UNL A   1      44.558  28.651  35.736  1.00  0.00    -0.014 A 
ATOM     67  C   UNL A   1      44.343  27.683  36.733  1.00  0.00     0.010 A 
ATOM     68  C   UNL A   1      45.874  28.927  35.321  1.00  0.00     0.010 A 
ATOM     69  C   UNL A   1      45.423  27.018  37.319  1.00  0.00     0.020 A 
ATOM     70  C   UNL A   1      46.956  28.247  35.889  1.00  0.00     0.020 A 
ATOM     71  C   UNL A   1      46.724  27.303  36.892  1.00  0.00     0.054 A 
BRANCH  71  72
ATOM     72  S   UNL A   1      48.101  26.383  37.633  1.00  0.00     0.124 S 
ATOM     73  O   UNL A   1      48.887  27.456  38.237  1.00  0.00    -0.237 OA
ATOM     74  O   UNL A   1      47.423  25.496  38.575  1.00  0.00    -0.237 OA
ATOM     75  O   UNL A   1      48.727  25.718  36.494  1.00  0.00    -0.744 OA
ENDBRANCH  71  72
ENDBRANCH  52  66
BRANCH  53  76
ATOM     76  C   UNL A   1      37.014  32.891  30.796  1.00  0.00    -0.014 A 
ATOM     77  C   UNL A   1      37.106  33.708  29.658  1.00  0.00     0.010 A 
ATOM     78  C   UNL A   1      35.749  32.727  31.385  1.00  0.00     0.010 A 
ATOM     79  C   UNL A   1      35.971  34.375  29.167  1.00  0.00     0.020 A 
ATOM     80  C   UNL A   1      34.610  33.361  30.895  1.00  0.00     0.020 A 
ATOM     81  C   UNL A   1      34.731  34.202  29.796  1.00  0.00     0.054 A 
BRANCH  81  82
ATOM     82  S   UNL A   1      33.280  35.104  29.186  1.00  0.00     0.124 S 
ATOM     83  O   UNL A   1      32.492  35.279  30.402  1.00  0.00    -0.237 OA
ATOM     84  O   UNL A   1      33.880  36.317  28.637  1.00  0.00    -0.237 OA
ATOM     85  O   UNL A   1      32.703  34.199  28.194  1.00  0.00    -0.744 OA
ENDBRANCH  81  82
ENDBRANCH  53  76
BRANCH  65  86
ATOM     86  C   UNL A   1      39.651  33.706  37.202  1.00  0.00    -0.014 A 
ATOM     87  C   UNL A   1      38.860  33.263  38.275  1.00  0.00     0.010 A 
ATOM     88  C   UNL A   1      40.164  35.018  37.227  1.00  0.00     0.010 A 
ATOM     89  C   UNL A   1      38.566  34.124  39.339  1.00  0.00     0.020 A 
ATOM     90  C   UNL A   1      39.893  35.872  38.298  1.00  0.00     0.020 A 
ATOM     91  C   UNL A   1      39.084  35.424  39.344  1.00  0.00     0.054 A 
BRANCH  91  92
ATOM     92  S   UNL A   1      38.728  36.509  40.755  1.00  0.00     0.124 S 
ATOM     93  O   UNL A   1      37.788  35.703  41.530  1.00  0.00    -0.237 OA
ATOM     94  O   UNL A   1      40.046  36.692  41.360  1.00  0.00    -0.237 OA
ATOM     95  O   UNL A   1      38.162  37.706  40.138  1.00  0.00    -0.744 OA
ENDBRANCH  91  92
ENDBRANCH  65  86
ENDBRANCH  39  40
ENDBRANCH  32  34
ENDBRANCH  31  32
ENDBRANCH   1  31
TORSDOF 18
ENDMDL
MODEL 3
REMARK VINA RESULT:     -11.3      4.210      7.986
REMARK SMILES O=C(OCCOC(=O)c1ccc(-c2c3nc(c(-c4ccc(S(=O)(=O)[O-])cc4)c4ccc([nH]4)c(-c4ccc(S(=O)(=O)[O-])cc4)c4nc(c(-c5ccc(S(=O)(=O)[O-])cc5)c5ccc2[nH]5)C=C4)C=C3)cc1)C1=NN(c2ccc(S(=O)(=O)[O-])cc2)C(=O)/C1=C/Nc1ccccc1
REMARK SMILES IDX 5 1 4 2 3 3 2 4 1 5 69 6 70 7 84 8 71 9 82 10 85 11 83 12
REMARK SMILES IDX 72 13 73 14 81 15 74 16 80 17 75 18 76 19 77 20 78 21 79 22
REMARK SMILES IDX 86 23 87 25 88 26 92 27 89 28 91 29 90 30 6 31 7 32 8 33
REMARK SMILES IDX 9 34 10 35 68 36 11 37 67 38 12 39 13 40 14 41 61 42 15 43
REMARK SMILES IDX 66 44 60 45 62 46 16 47 65 48 59 49 58 50 17 52 47 53 28 54
REMARK SMILES IDX 46 55 29 56 32 57 45 58 63 59 30 60 31 61 44 63 64 64 33 65
REMARK SMILES IDX 18 66 19 67 27 68 20 69 26 70 21 71 22 72 23 73 24 74 25 75
REMARK SMILES IDX 48 76 49 77 57 78 50 79 56 80 51 81 52 82 53 83 54 84 55 85
REMARK SMILES IDX 34 86 35 87 43 88 36 89 42 90 37 91 38 92 39 93 40 94 41 95
REMARK H PARENT 86 24 62 51 32 62
REMARK Flexibility Score: inf
ROOT
ATOM      1  C   UNL A   1      37.249  21.581  25.166  1.00  0.00     0.275 C 
ENDROOT
BRANCH   1   2
ATOM      2  C   UNL A   1      35.850  21.260  25.744  1.00  0.00     0.275 C 
BRANCH   2   3
ATOM      3  O   UNL A   1      35.246  22.205  26.650  1.00  0.00    -0.457 OA
BRANCH   3   4
ATOM      4  C   UNL A   1      33.908  22.249  26.684  1.00  0.00     0.359 C 
ATOM      5  O   UNL A   1      33.211  21.918  27.627  1.00  0.00    -0.244 OA
BRANCH   4   6
ATOM      6  C   UNL A   1      33.347  22.818  25.408  1.00  0.00     0.183 C 
ATOM      7  N   UNL A   1      33.169  24.109  25.284  1.00  0.00    -0.157 NA
ATOM      8  C   UNL A   1      32.970  22.070  24.180  1.00  0.00     0.093 C 
ATOM      9  N   UNL A   1      32.660  24.291  24.014  1.00  0.00    -0.196 N 
ATOM     10  C   UNL A   1      32.633  23.144  23.218  1.00  0.00     0.282 C 
ATOM     11  C   UNL A   1      32.629  20.832  23.781  1.00  0.00     0.099 C 
ATOM     12  O   UNL A   1      32.304  22.987  22.055  1.00  0.00    -0.267 OA
BRANCH   9  13
ATOM     13  C   UNL A   1      31.962  25.478  23.743  1.00  0.00     0.069 A 
ATOM     14  C   UNL A   1      31.915  26.010  22.453  1.00  0.00     0.030 A 
ATOM     15  C   UNL A   1      31.332  26.158  24.796  1.00  0.00     0.030 A 
ATOM     16  C   UNL A   1      31.152  27.155  22.204  1.00  0.00     0.021 A 
ATOM     17  C   UNL A   1      30.640  27.341  24.567  1.00  0.00     0.021 A 
ATOM     18  C   UNL A   1      30.520  27.817  23.266  1.00  0.00     0.054 A 
BRANCH  18  19
ATOM     19  S   UNL A   1      29.469  29.210  22.948  1.00  0.00     0.124 S 
ATOM     20  O   UNL A   1      28.115  28.748  22.824  1.00  0.00    -0.237 OA
ATOM     21  O   UNL A   1      29.862  30.250  23.879  1.00  0.00    -0.237 OA
ATOM     22  O   UNL A   1      29.860  29.712  21.465  1.00  0.00    -0.744 OA
ENDBRANCH  18  19
ENDBRANCH   9  13
BRANCH  11  23
ATOM     23  N   UNL A   1      32.265  19.741  24.521  1.00  0.00    -0.361 N 
ATOM     24  H   UNL A   1      31.487  19.888  25.106  1.00  0.00     0.166 HD
BRANCH  23  25
ATOM     25  C   UNL A   1      32.804  18.448  24.595  1.00  0.00     0.038 A 
ATOM     26  C   UNL A   1      33.498  17.946  23.479  1.00  0.00     0.026 A 
ATOM     27  C   UNL A   1      32.666  17.625  25.713  1.00  0.00     0.026 A 
ATOM     28  C   UNL A   1      33.985  16.638  23.455  1.00  0.00     0.002 A 
ATOM     29  C   UNL A   1      33.137  16.307  25.686  1.00  0.00     0.002 A 
ATOM     30  C   UNL A   1      33.787  15.811  24.554  1.00  0.00     0.000 A 
ENDBRANCH  23  25
ENDBRANCH  11  23
ENDBRANCH   4   6
ENDBRANCH   3   4
ENDBRANCH   2   3
ENDBRANCH   1   2
BRANCH   1  31
ATOM     31  O   UNL A   1      37.955  22.513  26.022  1.00  0.00    -0.458 OA
BRANCH  31  32
ATOM     32  C   UNL A   1      39.240  22.202  26.324  1.00  0.00     0.338 C 
ATOM     33  O   UNL A   1      39.785  21.139  26.097  1.00  0.00    -0.246 OA
BRANCH  32  34
ATOM     34  C   UNL A   1      39.910  23.429  26.832  1.00  0.00     0.060 A 
ATOM     35  C   UNL A   1      39.705  24.609  26.116  1.00  0.00     0.016 A 
ATOM     36  C   UNL A   1      40.692  23.454  27.994  1.00  0.00     0.016 A 
ATOM     37  C   UNL A   1      40.294  25.806  26.542  1.00  0.00     0.010 A 
ATOM     38  C   UNL A   1      41.257  24.667  28.436  1.00  0.00     0.010 A 
ATOM     39  C   UNL A   1      41.082  25.856  27.705  1.00  0.00    -0.014 A 
BRANCH  39  40
ATOM     40  C   UNL A   1      41.755  27.139  28.090  1.00  0.00     0.031 A 
ATOM     41  C   UNL A   1      40.934  28.319  28.562  1.00  0.00     0.074 A 
ATOM     42  C   UNL A   1      43.104  27.240  28.099  1.00  0.00     0.049 A 
ATOM     43  N   UNL A   1      41.341  29.484  29.007  1.00  0.00    -0.248 NA
ATOM     44  C   UNL A   1      39.469  28.174  28.537  1.00  0.00     0.031 C 
ATOM     45  C   UNL A   1      44.034  26.187  27.689  1.00  0.00     0.029 A 
ATOM     46  N   UNL A   1      43.930  28.277  28.475  1.00  0.00    -0.354 N 
ATOM     47  C   UNL A   1      40.192  30.184  29.360  1.00  0.00     0.074 A 
ATOM     48  C   UNL A   1      39.067  29.352  28.994  1.00  0.00     0.031 C 
ATOM     49  C   UNL A   1      45.296  26.627  27.840  1.00  0.00     0.029 A 
ATOM     50  C   UNL A   1      45.275  28.008  28.318  1.00  0.00     0.049 A 
ATOM     51  H   UNL A   1      43.592  29.133  28.824  1.00  0.00     0.167 HD
ATOM     52  C   UNL A   1      40.077  31.386  29.976  1.00  0.00     0.031 A 
ATOM     53  C   UNL A   1      46.365  28.789  28.495  1.00  0.00     0.031 A 
ATOM     54  C   UNL A   1      41.186  32.221  30.355  1.00  0.00     0.049 A 
ATOM     55  C   UNL A   1      46.180  30.213  28.970  1.00  0.00     0.074 A 
ATOM     56  C   UNL A   1      41.161  33.415  31.059  1.00  0.00     0.029 A 
ATOM     57  N   UNL A   1      42.512  31.963  30.057  1.00  0.00    -0.354 N 
ATOM     58  N   UNL A   1      45.086  30.814  29.380  1.00  0.00    -0.248 NA
ATOM     59  C   UNL A   1      47.378  31.067  29.009  1.00  0.00     0.031 C 
ATOM     60  C   UNL A   1      42.467  33.912  31.128  1.00  0.00     0.029 A 
ATOM     61  C   UNL A   1      43.309  33.002  30.513  1.00  0.00     0.049 A 
ATOM     62  H   UNL A   1      42.841  31.162  29.591  1.00  0.00     0.167 HD
ATOM     63  C   UNL A   1      45.484  32.087  29.787  1.00  0.00     0.074 A 
ATOM     64  C   UNL A   1      46.908  32.179  29.556  1.00  0.00     0.031 C 
ATOM     65  C   UNL A   1      44.733  33.081  30.322  1.00  0.00     0.031 A 
BRANCH  52  66
ATOM     66  C   UNL A   1      38.694  31.872  30.326  1.00  0.00    -0.014 A 
ATOM     67  C   UNL A   1      38.174  31.667  31.616  1.00  0.00     0.010 A 
ATOM     68  C   UNL A   1      37.954  32.632  29.401  1.00  0.00     0.010 A 
ATOM     69  C   UNL A   1      36.929  32.194  31.970  1.00  0.00     0.020 A 
ATOM     70  C   UNL A   1      36.717  33.179  29.759  1.00  0.00     0.020 A 
ATOM     71  C   UNL A   1      36.208  32.949  31.040  1.00  0.00     0.054 A 
BRANCH  71  72
ATOM     72  S   UNL A   1      34.621  33.665  31.546  1.00  0.00     0.124 S 
ATOM     73  O   UNL A   1      33.981  33.916  30.258  1.00  0.00    -0.237 OA
ATOM     74  O   UNL A   1      34.027  32.594  32.344  1.00  0.00    -0.237 OA
ATOM     75  O   UNL A   1      35.002  34.859  32.295  1.00  0.00    -0.744 OA
ENDBRANCH  71  72
ENDBRANCH  52  66
BRANCH  53  76
ATOM     76  C   UNL A   1      47.729  28.316  28.086  1.00  0.00    -0.014 A 
ATOM     77  C   UNL A   1      48.204  28.388  26.767  1.00  0.00     0.010 A 
ATOM     78  C   UNL A   1      48.527  27.657  29.036  1.00  0.00     0.010 A 
ATOM     79  C   UNL A   1      49.416  27.769  26.414  1.00  0.00     0.020 A 
ATOM     80  C   UNL A   1      49.742  27.061  28.706  1.00  0.00     0.020 A 
ATOM     81  C   UNL A   1      50.172  27.103  27.386  1.00  0.00     0.054 A 
BRANCH  81  82
ATOM     82  S   UNL A   1      51.709  26.266  26.911  1.00  0.00     0.124 S 
ATOM     83  O   UNL A   1      52.023  26.900  25.635  1.00  0.00    -0.237 OA
ATOM     84  O   UNL A   1      52.597  26.599  28.022  1.00  0.00    -0.237 OA
ATOM     85  O   UNL A   1      51.326  24.858  26.831  1.00  0.00    -0.744 OA
ENDBRANCH  81  82
ENDBRANCH  53  76
BRANCH  65  86
ATOM     86  C   UNL A   1      45.443  34.320  30.803  1.00  0.00    -0.014 A 
ATOM     87  C   UNL A   1      45.594  35.452  29.985  1.00  0.00     0.010 A 
ATOM     88  C   UNL A   1      45.920  34.365  32.127  1.00  0.00     0.010 A 
ATOM     89  C   UNL A   1      46.232  36.598  30.474  1.00  0.00     0.020 A 
ATOM     90  C   UNL A   1      46.537  35.515  32.627  1.00  0.00     0.020 A 
ATOM     91  C   UNL A   1      46.701  36.622  31.792  1.00  0.00     0.054 A 
BRANCH  91  92
ATOM     92  S   UNL A   1      47.484  38.134  32.421  1.00  0.00     0.124 S 
ATOM     93  O   UNL A   1      47.604  37.845  33.848  1.00  0.00    -0.237 OA
ATOM     94  O   UNL A   1      48.743  38.176  31.680  1.00  0.00    -0.237 OA
ATOM     95  O   UNL A   1      46.532  39.188  32.077  1.00  0.00    -0.744 OA
ENDBRANCH  91  92
ENDBRANCH  65  86
ENDBRANCH  39  40
ENDBRANCH  32  34
ENDBRANCH  31  32
ENDBRANCH   1  31
TORSDOF 18
ENDMDL
