MODEL 1
REMARK VINA RESULT:     -10.0      0.000      0.000
REMARK SMILES O=C(/C=C\c1ccc([N+](=O)[O-])cc1)OCCOC(=O)c1ccc(-c2c3nc(c(-c4ccc(S(=O)(=O)[O-])cc4)c4ccc([nH]4)c(-c4ccc(S(=O)(=O)[O-])cc4)c4nc(c(-c5ccc(S(=O)(=O)[O-])cc5)c5ccc2[nH]5)C=C4)C=C3)cc1
REMARK SMILES IDX 16 1 15 2 14 3 2 4 1 5 3 6 4 7 5 8 6 9 13 10 7 11 12 12 8 13
REMARK SMILES IDX 9 14 10 15 11 16 17 17 18 18 19 19 20 20 21 21 79 22 22 23
REMARK SMILES IDX 78 24 23 25 24 26 25 27 72 28 26 29 77 30 71 31 73 32 27 33
REMARK SMILES IDX 76 34 70 35 69 36 28 38 58 39 39 40 57 41 40 42 43 43 56 44
REMARK SMILES IDX 74 45 41 46 42 47 55 49 75 50 44 51 29 52 30 53 38 54 31 55
REMARK SMILES IDX 37 56 32 57 33 58 34 59 35 60 36 61 59 62 60 63 68 64 61 65
REMARK SMILES IDX 67 66 62 67 63 68 64 69 65 70 66 71 45 72 46 73 54 74 47 75
REMARK SMILES IDX 53 76 48 77 49 78 50 79 51 80 52 81
REMARK H PARENT 73 37 43 48
REMARK Flexibility Score: inf
ROOT
ATOM      1  C   UNL A   1      42.360  25.721  25.143  1.00  0.00     0.275 C 
ENDROOT
BRANCH   1   2
ATOM      2  C   UNL A   1      43.744  25.937  25.762  1.00  0.00     0.275 C 
BRANCH   2   3
ATOM      3  O   UNL A   1      43.751  26.216  27.166  1.00  0.00    -0.459 OA
BRANCH   3   4
ATOM      4  C   UNL A   1      43.849  25.302  28.157  1.00  0.00     0.330 C 
ATOM      5  O   UNL A   1      44.944  24.805  28.416  1.00  0.00    -0.247 OA
BRANCH   4   6
ATOM      6  C   UNL A   1      42.651  24.646  28.726  1.00  0.00     0.094 C 
ATOM      7  C   UNL A   1      41.979  23.493  28.563  1.00  0.00     0.015 C 
BRANCH   7   8
ATOM      8  C   UNL A   1      42.220  22.325  27.714  1.00  0.00    -0.025 A 
ATOM      9  C   UNL A   1      43.016  22.442  26.568  1.00  0.00     0.015 A 
ATOM     10  C   UNL A   1      41.579  21.108  27.964  1.00  0.00     0.015 A 
ATOM     11  C   UNL A   1      43.262  21.326  25.757  1.00  0.00     0.086 A 
ATOM     12  C   UNL A   1      41.875  19.969  27.215  1.00  0.00     0.086 A 
ATOM     13  C   UNL A   1      42.734  20.082  26.120  1.00  0.00     0.269 A 
BRANCH  13  14
ATOM     14  N   UNL A   1      43.088  18.884  25.358  1.00  0.00     0.062 N 
ATOM     15  O   UNL A   1      42.655  17.794  25.758  1.00  0.00    -0.258 OA
ATOM     16  O   UNL A   1      43.792  19.035  24.348  1.00  0.00    -0.258 OA
ENDBRANCH  13  14
ENDBRANCH   7   8
ENDBRANCH   4   6
ENDBRANCH   3   4
ENDBRANCH   2   3
ENDBRANCH   1   2
BRANCH   1  17
ATOM     17  O   UNL A   1      41.407  26.693  25.572  1.00  0.00    -0.458 OA
BRANCH  17  18
ATOM     18  C   UNL A   1      40.413  26.151  26.324  1.00  0.00     0.338 C 
ATOM     19  O   UNL A   1      39.905  25.056  26.182  1.00  0.00    -0.246 OA
BRANCH  18  20
ATOM     20  C   UNL A   1      40.110  27.046  27.452  1.00  0.00     0.060 A 
ATOM     21  C   UNL A   1      40.596  28.356  27.380  1.00  0.00     0.016 A 
ATOM     22  C   UNL A   1      39.417  26.594  28.578  1.00  0.00     0.016 A 
ATOM     23  C   UNL A   1      40.464  29.199  28.476  1.00  0.00     0.010 A 
ATOM     24  C   UNL A   1      39.272  27.446  29.670  1.00  0.00     0.010 A 
ATOM     25  C   UNL A   1      39.843  28.729  29.640  1.00  0.00    -0.014 A 
BRANCH  25  26
ATOM     26  C   UNL A   1      39.943  29.510  30.889  1.00  0.00     0.031 A 
ATOM     27  C   UNL A   1      41.057  29.188  31.844  1.00  0.00     0.074 A 
ATOM     28  C   UNL A   1      39.048  30.474  31.158  1.00  0.00     0.049 A 
ATOM     29  N   UNL A   1      41.309  29.690  33.024  1.00  0.00    -0.248 NA
ATOM     30  C   UNL A   1      42.008  28.146  31.418  1.00  0.00     0.031 C 
ATOM     31  C   UNL A   1      37.949  30.870  30.279  1.00  0.00     0.029 A 
ATOM     32  N   UNL A   1      38.915  31.281  32.257  1.00  0.00    -0.354 N 
ATOM     33  C   UNL A   1      42.430  29.011  33.489  1.00  0.00     0.074 A 
ATOM     34  C   UNL A   1      42.787  28.039  32.482  1.00  0.00     0.031 C 
ATOM     35  C   UNL A   1      37.237  31.835  30.883  1.00  0.00     0.029 A 
ATOM     36  C   UNL A   1      37.809  32.095  32.202  1.00  0.00     0.049 A 
ATOM     37  H   UNL A   1      39.547  31.279  33.010  1.00  0.00     0.167 HD
ATOM     38  C   UNL A   1      43.098  29.187  34.653  1.00  0.00     0.031 A 
ATOM     39  C   UNL A   1      37.301  32.931  33.129  1.00  0.00     0.031 A 
ATOM     40  C   UNL A   1      42.704  30.150  35.646  1.00  0.00     0.049 A 
ATOM     41  C   UNL A   1      38.030  33.087  34.434  1.00  0.00     0.074 A 
ATOM     42  C   UNL A   1      43.316  30.447  36.850  1.00  0.00     0.029 A 
ATOM     43  N   UNL A   1      41.581  30.962  35.554  1.00  0.00    -0.354 N 
ATOM     44  N   UNL A   1      39.117  32.475  34.847  1.00  0.00    -0.248 NA
ATOM     45  C   UNL A   1      37.480  34.051  35.395  1.00  0.00     0.031 C 
ATOM     46  C   UNL A   1      42.522  31.385  37.517  1.00  0.00     0.029 A 
ATOM     47  C   UNL A   1      41.460  31.735  36.695  1.00  0.00     0.049 A 
ATOM     48  H   UNL A   1      40.962  30.986  34.789  1.00  0.00     0.167 HD
ATOM     49  C   UNL A   1      39.398  33.001  36.101  1.00  0.00     0.074 A 
ATOM     50  C   UNL A   1      38.368  33.983  36.379  1.00  0.00     0.031 C 
ATOM     51  C   UNL A   1      40.421  32.706  36.943  1.00  0.00     0.031 A 
BRANCH  38  52
ATOM     52  C   UNL A   1      44.267  28.277  34.929  1.00  0.00    -0.014 A 
ATOM     53  C   UNL A   1      45.561  28.567  34.455  1.00  0.00     0.010 A 
ATOM     54  C   UNL A   1      44.065  27.096  35.667  1.00  0.00     0.010 A 
ATOM     55  C   UNL A   1      46.609  27.663  34.652  1.00  0.00     0.020 A 
ATOM     56  C   UNL A   1      45.118  26.206  35.897  1.00  0.00     0.020 A 
ATOM     57  C   UNL A   1      46.378  26.482  35.364  1.00  0.00     0.054 A 
BRANCH  57  58
ATOM     58  S   UNL A   1      47.748  25.314  35.584  1.00  0.00     0.124 S 
ATOM     59  O   UNL A   1      47.959  25.366  37.028  1.00  0.00    -0.237 OA
ATOM     60  O   UNL A   1      47.186  24.064  35.077  1.00  0.00    -0.237 OA
ATOM     61  O   UNL A   1      48.824  25.882  34.777  1.00  0.00    -0.744 OA
ENDBRANCH  57  58
ENDBRANCH  38  52
BRANCH  39  62
ATOM     62  C   UNL A   1      36.033  33.650  32.836  1.00  0.00    -0.014 A 
ATOM     63  C   UNL A   1      34.788  33.088  33.162  1.00  0.00     0.010 A 
ATOM     64  C   UNL A   1      36.075  34.952  32.300  1.00  0.00     0.010 A 
ATOM     65  C   UNL A   1      33.610  33.817  32.966  1.00  0.00     0.020 A 
ATOM     66  C   UNL A   1      34.902  35.694  32.129  1.00  0.00     0.020 A 
ATOM     67  C   UNL A   1      33.676  35.120  32.463  1.00  0.00     0.054 A 
BRANCH  67  68
ATOM     68  S   UNL A   1      32.144  36.081  32.314  1.00  0.00     0.124 S 
ATOM     69  O   UNL A   1      32.153  36.452  30.902  1.00  0.00    -0.237 OA
ATOM     70  O   UNL A   1      31.126  35.111  32.708  1.00  0.00    -0.237 OA
ATOM     71  O   UNL A   1      32.339  37.184  33.252  1.00  0.00    -0.744 OA
ENDBRANCH  67  68
ENDBRANCH  39  62
BRANCH  51  72
ATOM     72  C   UNL A   1      40.508  33.478  38.233  1.00  0.00    -0.014 A 
ATOM     73  C   UNL A   1      41.231  34.679  38.322  1.00  0.00     0.010 A 
ATOM     74  C   UNL A   1      39.759  33.041  39.342  1.00  0.00     0.010 A 
ATOM     75  C   UNL A   1      41.211  35.425  39.502  1.00  0.00     0.020 A 
ATOM     76  C   UNL A   1      39.711  33.800  40.512  1.00  0.00     0.020 A 
ATOM     77  C   UNL A   1      40.444  34.986  40.586  1.00  0.00     0.054 A 
BRANCH  77  78
ATOM     78  S   UNL A   1      40.366  36.019  42.075  1.00  0.00     0.124 S 
ATOM     79  O   UNL A   1      39.044  36.628  41.955  1.00  0.00    -0.237 OA
ATOM     80  O   UNL A   1      40.514  35.041  43.149  1.00  0.00    -0.237 OA
ATOM     81  O   UNL A   1      41.491  36.938  41.919  1.00  0.00    -0.744 OA
ENDBRANCH  77  78
ENDBRANCH  51  72
ENDBRANCH  25  26
ENDBRANCH  18  20
ENDBRANCH  17  18
ENDBRANCH   1  17
TORSDOF 16
ENDMDL
MODEL 2
REMARK VINA RESULT:      -9.8      3.609     10.466
REMARK SMILES O=C(/C=C\c1ccc([N+](=O)[O-])cc1)OCCOC(=O)c1ccc(-c2c3nc(c(-c4ccc(S(=O)(=O)[O-])cc4)c4ccc([nH]4)c(-c4ccc(S(=O)(=O)[O-])cc4)c4nc(c(-c5ccc(S(=O)(=O)[O-])cc5)c5ccc2[nH]5)C=C4)C=C3)cc1
REMARK SMILES IDX 16 1 15 2 14 3 2 4 1 5 3 6 4 7 5 8 6 9 13 10 7 11 12 12 8 13
REMARK SMILES IDX 9 14 10 15 11 16 17 17 18 18 19 19 20 20 21 21 79 22 22 23
REMARK SMILES IDX 78 24 23 25 24 26 25 27 72 28 26 29 77 30 71 31 73 32 27 33
REMARK SMILES IDX 76 34 70 35 69 36 28 38 58 39 39 40 57 41 40 42 43 43 56 44
REMARK SMILES IDX 74 45 41 46 42 47 55 49 75 50 44 51 29 52 30 53 38 54 31 55
REMARK SMILES IDX 37 56 32 57 33 58 34 59 35 60 36 61 59 62 60 63 68 64 61 65
REMARK SMILES IDX 67 66 62 67 63 68 64 69 65 70 66 71 45 72 46 73 54 74 47 75
REMARK SMILES IDX 53 76 48 77 49 78 50 79 51 80 52 81
REMARK H PARENT 73 37 43 48
REMARK Flexibility Score: inf
ROOT
ATOM      1  C   UNL A   1      34.324  32.561  29.064  1.00  0.00     0.275 C 
ENDROOT
BRANCH   1   2
ATOM      2  C   UNL A   1      34.258  34.091  29.082  1.00  0.00     0.275 C 
BRANCH   2   3
ATOM      3  O   UNL A   1      34.804  34.714  30.249  1.00  0.00    -0.459 OA
BRANCH   3   4
ATOM      4  C   UNL A   1      34.174  34.868  31.436  1.00  0.00     0.330 C 
ATOM      5  O   UNL A   1      32.951  34.997  31.460  1.00  0.00    -0.247 OA
BRANCH   4   6
ATOM      6  C   UNL A   1      34.919  35.200  32.670  1.00  0.00     0.094 C 
ATOM      7  C   UNL A   1      35.762  34.584  33.517  1.00  0.00     0.015 C 
BRANCH   7   8
ATOM      8  C   UNL A   1      36.348  33.242  33.519  1.00  0.00    -0.025 A 
ATOM      9  C   UNL A   1      35.892  32.275  32.616  1.00  0.00     0.015 A 
ATOM     10  C   UNL A   1      37.285  32.868  34.488  1.00  0.00     0.015 A 
ATOM     11  C   UNL A   1      36.456  30.992  32.603  1.00  0.00     0.086 A 
ATOM     12  C   UNL A   1      37.913  31.622  34.440  1.00  0.00     0.086 A 
ATOM     13  C   UNL A   1      37.504  30.694  33.481  1.00  0.00     0.269 A 
BRANCH  13  14
ATOM     14  N   UNL A   1      38.191  29.404  33.392  1.00  0.00     0.062 N 
ATOM     15  O   UNL A   1      39.404  29.375  33.640  1.00  0.00    -0.258 OA
ATOM     16  O   UNL A   1      37.510  28.413  33.085  1.00  0.00    -0.258 OA
ENDBRANCH  13  14
ENDBRANCH   7   8
ENDBRANCH   4   6
ENDBRANCH   3   4
ENDBRANCH   2   3
ENDBRANCH   1   2
BRANCH   1  17
ATOM     17  O   UNL A   1      34.490  32.031  27.750  1.00  0.00    -0.458 OA
BRANCH  17  18
ATOM     18  C   UNL A   1      34.393  30.676  27.719  1.00  0.00     0.338 C 
ATOM     19  O   UNL A   1      33.422  30.021  27.396  1.00  0.00    -0.246 OA
BRANCH  18  20
ATOM     20  C   UNL A   1      35.707  30.085  28.018  1.00  0.00     0.060 A 
ATOM     21  C   UNL A   1      35.877  29.501  29.278  1.00  0.00     0.016 A 
ATOM     22  C   UNL A   1      36.764  30.153  27.106  1.00  0.00     0.016 A 
ATOM     23  C   UNL A   1      37.134  29.057  29.666  1.00  0.00     0.010 A 
ATOM     24  C   UNL A   1      38.020  29.694  27.491  1.00  0.00     0.010 A 
ATOM     25  C   UNL A   1      38.218  29.197  28.790  1.00  0.00    -0.014 A 
BRANCH  25  26
ATOM     26  C   UNL A   1      39.593  28.989  29.288  1.00  0.00     0.031 A 
ATOM     27  C   UNL A   1      40.300  27.715  28.920  1.00  0.00     0.074 A 
ATOM     28  C   UNL A   1      40.181  29.918  30.059  1.00  0.00     0.049 A 
ATOM     29  N   UNL A   1      41.477  27.284  29.289  1.00  0.00    -0.248 NA
ATOM     30  C   UNL A   1      39.574  26.796  28.027  1.00  0.00     0.031 C 
ATOM     31  C   UNL A   1      39.579  31.193  30.447  1.00  0.00     0.029 A 
ATOM     32  N   UNL A   1      41.409  29.921  30.666  1.00  0.00    -0.354 N 
ATOM     33  C   UNL A   1      41.622  26.036  28.694  1.00  0.00     0.074 A 
ATOM     34  C   UNL A   1      40.401  25.764  27.970  1.00  0.00     0.031 C 
ATOM     35  C   UNL A   1      40.435  31.850  31.247  1.00  0.00     0.029 A 
ATOM     36  C   UNL A   1      41.622  31.025  31.455  1.00  0.00     0.049 A 
ATOM     37  H   UNL A   1      42.072  29.204  30.549  1.00  0.00     0.167 HD
ATOM     38  C   UNL A   1      42.682  25.195  28.748  1.00  0.00     0.031 A 
ATOM     39  C   UNL A   1      42.650  31.319  32.276  1.00  0.00     0.031 A 
ATOM     40  C   UNL A   1      43.876  25.485  29.495  1.00  0.00     0.049 A 
ATOM     41  C   UNL A   1      43.802  30.357  32.360  1.00  0.00     0.074 A 
ATOM     42  C   UNL A   1      45.030  24.732  29.603  1.00  0.00     0.029 A 
ATOM     43  N   UNL A   1      44.060  26.618  30.278  1.00  0.00    -0.354 N 
ATOM     44  N   UNL A   1      43.952  29.200  31.755  1.00  0.00    -0.248 NA
ATOM     45  C   UNL A   1      44.929  30.739  33.219  1.00  0.00     0.031 C 
ATOM     46  C   UNL A   1      45.881  25.373  30.509  1.00  0.00     0.029 A 
ATOM     47  C   UNL A   1      45.293  26.568  30.902  1.00  0.00     0.049 A 
ATOM     48  H   UNL A   1      43.408  27.350  30.375  1.00  0.00     0.167 HD
ATOM     49  C   UNL A   1      45.202  28.729  32.137  1.00  0.00     0.074 A 
ATOM     50  C   UNL A   1      45.768  29.729  33.023  1.00  0.00     0.031 C 
ATOM     51  C   UNL A   1      45.829  27.580  31.781  1.00  0.00     0.031 A 
BRANCH  38  52
ATOM     52  C   UNL A   1      42.557  23.871  28.038  1.00  0.00    -0.014 A 
ATOM     53  C   UNL A   1      41.950  22.757  28.648  1.00  0.00     0.010 A 
ATOM     54  C   UNL A   1      43.074  23.734  26.737  1.00  0.00     0.010 A 
ATOM     55  C   UNL A   1      41.926  21.518  28.000  1.00  0.00     0.020 A 
ATOM     56  C   UNL A   1      43.020  22.507  26.071  1.00  0.00     0.020 A 
ATOM     57  C   UNL A   1      42.471  21.399  26.718  1.00  0.00     0.054 A 
BRANCH  57  58
ATOM     58  S   UNL A   1      42.450  19.776  25.909  1.00  0.00     0.124 S 
ATOM     59  O   UNL A   1      41.061  19.676  25.469  1.00  0.00    -0.237 OA
ATOM     60  O   UNL A   1      43.435  19.937  24.842  1.00  0.00    -0.237 OA
ATOM     61  O   UNL A   1      42.833  18.851  26.972  1.00  0.00    -0.744 OA
ENDBRANCH  57  58
ENDBRANCH  38  52
BRANCH  39  62
ATOM     62  C   UNL A   1      42.596  32.567  33.083  1.00  0.00    -0.014 A 
ATOM     63  C   UNL A   1      43.096  33.779  32.579  1.00  0.00     0.010 A 
ATOM     64  C   UNL A   1      41.961  32.560  34.341  1.00  0.00     0.010 A 
ATOM     65  C   UNL A   1      42.952  34.962  33.312  1.00  0.00     0.020 A 
ATOM     66  C   UNL A   1      41.792  33.745  35.062  1.00  0.00     0.020 A 
ATOM     67  C   UNL A   1      42.290  34.939  34.543  1.00  0.00     0.054 A 
BRANCH  67  68
ATOM     68  S   UNL A   1      42.028  36.502  35.427  1.00  0.00     0.124 S 
ATOM     69  O   UNL A   1      40.585  36.494  35.640  1.00  0.00    -0.237 OA
ATOM     70  O   UNL A   1      42.847  36.327  36.623  1.00  0.00    -0.237 OA
ATOM     71  O   UNL A   1      42.517  37.511  34.489  1.00  0.00    -0.744 OA
ENDBRANCH  67  68
ENDBRANCH  39  62
BRANCH  51  72
ATOM     72  C   UNL A   1      47.220  27.349  32.313  1.00  0.00    -0.014 A 
ATOM     73  C   UNL A   1      47.442  26.614  33.488  1.00  0.00     0.010 A 
ATOM     74  C   UNL A   1      48.321  27.789  31.555  1.00  0.00     0.010 A 
ATOM     75  C   UNL A   1      48.746  26.330  33.902  1.00  0.00     0.020 A 
ATOM     76  C   UNL A   1      49.624  27.480  31.949  1.00  0.00     0.020 A 
ATOM     77  C   UNL A   1      49.828  26.756  33.125  1.00  0.00     0.054 A 
BRANCH  77  78
ATOM     78  S   UNL A   1      51.505  26.298  33.641  1.00  0.00     0.124 S 
ATOM     79  O   UNL A   1      52.068  27.590  34.027  1.00  0.00    -0.237 OA
ATOM     80  O   UNL A   1      51.258  25.366  34.737  1.00  0.00    -0.237 OA
ATOM     81  O   UNL A   1      52.087  25.700  32.441  1.00  0.00    -0.744 OA
ENDBRANCH  77  78
ENDBRANCH  51  72
ENDBRANCH  25  26
ENDBRANCH  18  20
ENDBRANCH  17  18
ENDBRANCH   1  17
TORSDOF 16
ENDMDL
MODEL 3
REMARK VINA RESULT:      -9.7      3.690      4.406
REMARK SMILES O=C(/C=C\c1ccc([N+](=O)[O-])cc1)OCCOC(=O)c1ccc(-c2c3nc(c(-c4ccc(S(=O)(=O)[O-])cc4)c4ccc([nH]4)c(-c4ccc(S(=O)(=O)[O-])cc4)c4nc(c(-c5ccc(S(=O)(=O)[O-])cc5)c5ccc2[nH]5)C=C4)C=C3)cc1
REMARK SMILES IDX 16 1 15 2 14 3 2 4 1 5 3 6 4 7 5 8 6 9 13 10 7 11 12 12 8 13
REMARK SMILES IDX 9 14 10 15 11 16 17 17 18 18 19 19 20 20 21 21 79 22 22 23
REMARK SMILES IDX 78 24 23 25 24 26 25 27 72 28 26 29 77 30 71 31 73 32 27 33
REMARK SMILES IDX 76 34 70 35 69 36 28 38 58 39 39 40 57 41 40 42 43 43 56 44
REMARK SMILES IDX 74 45 41 46 42 47 55 49 75 50 44 51 29 52 30 53 38 54 31 55
REMARK SMILES IDX 37 56 32 57 33 58 34 59 35 60 36 61 59 62 60 63 68 64 61 65
REMARK SMILES IDX 67 66 62 67 63 68 64 69 65 70 66 71 45 72 46 73 54 74 47 75
REMARK SMILES IDX 53 76 48 77 49 78 50 79 51 80 52 81
REMARK H PARENT 73 37 43 48
REMARK Flexibility Score: inf
ROOT
ATOM      1  C   UNL A   1      39.747  22.335  26.436  1.00  0.00     0.275 C 
ENDROOT
BRANCH   1   2
ATOM      2  C   UNL A   1      38.408  22.005  25.771  1.00  0.00     0.275 C 
BRANCH   2   3
ATOM      3  O   UNL A   1      37.641  23.136  25.342  1.00  0.00    -0.459 OA
BRANCH   3   4
ATOM      4  C   UNL A   1      36.584  23.105  24.499  1.00  0.00     0.330 C 
ATOM      5  O   UNL A   1      36.758  23.323  23.301  1.00  0.00    -0.247 OA
BRANCH   4   6
ATOM      6  C   UNL A   1      35.193  23.132  25.003  1.00  0.00     0.094 C 
ATOM      7  C   UNL A   1      34.155  22.282  25.099  1.00  0.00     0.015 C 
BRANCH   7   8
ATOM      8  C   UNL A   1      34.006  20.869  24.748  1.00  0.00    -0.025 A 
ATOM      9  C   UNL A   1      35.096  19.997  24.860  1.00  0.00     0.015 A 
ATOM     10  C   UNL A   1      32.817  20.387  24.192  1.00  0.00     0.015 A 
ATOM     11  C   UNL A   1      34.958  18.640  24.538  1.00  0.00     0.086 A 
ATOM     12  C   UNL A   1      32.637  19.026  23.941  1.00  0.00     0.086 A 
ATOM     13  C   UNL A   1      33.710  18.154  24.133  1.00  0.00     0.269 A 
BRANCH  13  14
ATOM     14  N   UNL A   1      33.517  16.719  23.919  1.00  0.00     0.062 N 
ATOM     15  O   UNL A   1      32.745  16.119  24.680  1.00  0.00    -0.258 OA
ATOM     16  O   UNL A   1      34.130  16.193  22.977  1.00  0.00    -0.258 OA
ENDBRANCH  13  14
ENDBRANCH   7   8
ENDBRANCH   4   6
ENDBRANCH   3   4
ENDBRANCH   2   3
ENDBRANCH   1   2
BRANCH   1  17
ATOM     17  O   UNL A   1      39.658  23.435  27.340  1.00  0.00    -0.458 OA
BRANCH  17  18
ATOM     18  C   UNL A   1      40.747  24.245  27.284  1.00  0.00     0.338 C 
ATOM     19  O   UNL A   1      41.763  24.059  26.643  1.00  0.00    -0.246 OA
BRANCH  18  20
ATOM     20  C   UNL A   1      40.473  25.485  28.026  1.00  0.00     0.060 A 
ATOM     21  C   UNL A   1      41.455  26.482  27.998  1.00  0.00     0.016 A 
ATOM     22  C   UNL A   1      39.307  25.644  28.779  1.00  0.00     0.016 A 
ATOM     23  C   UNL A   1      41.313  27.610  28.795  1.00  0.00     0.010 A 
ATOM     24  C   UNL A   1      39.158  26.783  29.567  1.00  0.00     0.010 A 
ATOM     25  C   UNL A   1      40.186  27.739  29.616  1.00  0.00    -0.014 A 
BRANCH  25  26
ATOM     26  C   UNL A   1      40.158  28.784  30.661  1.00  0.00     0.031 A 
ATOM     27  C   UNL A   1      41.083  28.642  31.836  1.00  0.00     0.074 A 
ATOM     28  C   UNL A   1      39.314  29.823  30.556  1.00  0.00     0.049 A 
ATOM     29  N   UNL A   1      41.191  29.392  32.901  1.00  0.00    -0.248 NA
ATOM     30  C   UNL A   1      41.999  27.488  31.816  1.00  0.00     0.031 C 
ATOM     31  C   UNL A   1      38.398  30.053  29.440  1.00  0.00     0.029 A 
ATOM     32  N   UNL A   1      39.081  30.868  31.411  1.00  0.00    -0.354 N 
ATOM     33  C   UNL A   1      42.169  28.789  33.685  1.00  0.00     0.074 A 
ATOM     34  C   UNL A   1      42.595  27.595  32.992  1.00  0.00     0.031 C 
ATOM     35  C   UNL A   1      37.683  31.163  29.688  1.00  0.00     0.029 A 
ATOM     36  C   UNL A   1      38.067  31.695  30.993  1.00  0.00     0.049 A 
ATOM     37  H   UNL A   1      39.589  31.011  32.241  1.00  0.00     0.167 HD
ATOM     38  C   UNL A   1      42.663  29.199  34.877  1.00  0.00     0.031 A 
ATOM     39  C   UNL A   1      37.494  32.745  31.614  1.00  0.00     0.031 A 
ATOM     40  C   UNL A   1      42.203  30.383  35.552  1.00  0.00     0.049 A 
ATOM     41  C   UNL A   1      38.025  33.166  32.956  1.00  0.00     0.074 A 
ATOM     42  C   UNL A   1      42.646  30.923  36.745  1.00  0.00     0.029 A 
ATOM     43  N   UNL A   1      41.177  31.201  35.096  1.00  0.00    -0.354 N 
ATOM     44  N   UNL A   1      38.983  32.619  33.669  1.00  0.00    -0.248 NA
ATOM     45  C   UNL A   1      37.416  34.351  33.573  1.00  0.00     0.031 C 
ATOM     46  C   UNL A   1      41.840  32.025  37.046  1.00  0.00     0.029 A 
ATOM     47  C   UNL A   1      40.948  32.222  36.001  1.00  0.00     0.049 A 
ATOM     48  H   UNL A   1      40.686  31.075  34.252  1.00  0.00     0.167 HD
ATOM     49  C   UNL A   1      39.111  33.407  34.805  1.00  0.00     0.074 A 
ATOM     50  C   UNL A   1      38.135  34.472  34.682  1.00  0.00     0.031 C 
ATOM     51  C   UNL A   1      39.966  33.269  35.850  1.00  0.00     0.031 A 
BRANCH  38  52
ATOM     52  C   UNL A   1      43.699  28.326  35.539  1.00  0.00    -0.014 A 
ATOM     53  C   UNL A   1      43.340  27.298  36.431  1.00  0.00     0.010 A 
ATOM     54  C   UNL A   1      45.062  28.550  35.275  1.00  0.00     0.010 A 
ATOM     55  C   UNL A   1      44.324  26.560  37.097  1.00  0.00     0.020 A 
ATOM     56  C   UNL A   1      46.049  27.792  35.911  1.00  0.00     0.020 A 
ATOM     57  C   UNL A   1      45.674  26.819  36.840  1.00  0.00     0.054 A 
BRANCH  57  58
ATOM     58  S   UNL A   1      46.931  25.867  37.735  1.00  0.00     0.124 S 
ATOM     59  O   UNL A   1      47.629  26.914  38.477  1.00  0.00    -0.237 OA
ATOM     60  O   UNL A   1      46.126  24.956  38.545  1.00  0.00    -0.237 OA
ATOM     61  O   UNL A   1      47.709  25.233  36.675  1.00  0.00    -0.744 OA
ENDBRANCH  57  58
ENDBRANCH  38  52
BRANCH  39  62
ATOM     62  C   UNL A   1      36.348  33.433  30.961  1.00  0.00    -0.014 A 
ATOM     63  C   UNL A   1      35.179  33.734  31.678  1.00  0.00     0.010 A 
ATOM     64  C   UNL A   1      36.462  33.868  29.626  1.00  0.00     0.010 A 
ATOM     65  C   UNL A   1      34.149  34.465  31.075  1.00  0.00     0.020 A 
ATOM     66  C   UNL A   1      35.448  34.622  29.030  1.00  0.00     0.020 A 
ATOM     67  C   UNL A   1      34.296  34.915  29.759  1.00  0.00     0.054 A 
BRANCH  67  68
ATOM     68  S   UNL A   1      32.990  35.946  29.034  1.00  0.00     0.124 S 
ATOM     69  O   UNL A   1      32.310  35.003  28.153  1.00  0.00    -0.237 OA
ATOM     70  O   UNL A   1      32.237  36.371  30.211  1.00  0.00    -0.237 OA
ATOM     71  O   UNL A   1      33.729  37.012  28.360  1.00  0.00    -0.744 OA
ENDBRANCH  67  68
ENDBRANCH  39  62
BRANCH  51  72
ATOM     72  C   UNL A   1      39.918  34.315  36.934  1.00  0.00    -0.014 A 
ATOM     73  C   UNL A   1      40.660  35.503  36.839  1.00  0.00     0.010 A 
ATOM     74  C   UNL A   1      39.026  34.142  38.009  1.00  0.00     0.010 A 
ATOM     75  C   UNL A   1      40.518  36.499  37.809  1.00  0.00     0.020 A 
ATOM     76  C   UNL A   1      38.859  35.148  38.963  1.00  0.00     0.020 A 
ATOM     77  C   UNL A   1      39.612  36.319  38.859  1.00  0.00     0.054 A 
BRANCH  77  78
ATOM     78  S   UNL A   1      39.385  37.664  40.055  1.00  0.00     0.124 S 
ATOM     79  O   UNL A   1      39.148  36.931  41.295  1.00  0.00    -0.237 OA
ATOM     80  O   UNL A   1      40.657  38.376  39.976  1.00  0.00    -0.237 OA
ATOM     81  O   UNL A   1      38.233  38.398  39.536  1.00  0.00    -0.744 OA
ENDBRANCH  77  78
ENDBRANCH  51  72
ENDBRANCH  25  26
ENDBRANCH  18  20
ENDBRANCH  17  18
ENDBRANCH   1  17
TORSDOF 16
ENDMDL
