MODEL 1
REMARK VINA RESULT:      -9.6      0.000      0.000
REMARK SMILES C[NH2+]CCCC(=O)NC[C@@H]1CC[C@H](C(=O)OCCOC(=O)c2ccc(-c3c4nc(c(-c5ccc(S(=O)(=O)[O-])cc5)c5ccc([nH]5)c(-c5ccc(S(=O)(=O)[O-])cc5)c5nc(c(-c6ccc(S(=O)(=O)[O-])cc6)c6ccc3[nH]6)C=C5)C=C4)cc2)O1
REMARK SMILES IDX 16 1 14 2 15 3 13 4 10 5 11 6 82 7 12 8 9 9 8 10 6 11 7 12
REMARK SMILES IDX 5 14 4 15 3 16 2 17 1 18 17 21 18 22 19 23 20 24 21 25 22 26
REMARK SMILES IDX 23 27 81 28 24 29 80 30 25 31 26 32 27 33 74 34 28 35 79 36
REMARK SMILES IDX 73 37 75 38 29 39 78 40 72 41 71 42 30 44 60 45 41 46 59 47
REMARK SMILES IDX 42 48 45 49 58 50 76 51 43 52 44 53 57 55 77 56 46 57 31 58
REMARK SMILES IDX 32 59 40 60 33 61 39 62 34 63 35 64 36 65 37 66 38 67 61 68
REMARK SMILES IDX 62 69 70 70 63 71 69 72 64 73 65 74 66 75 67 76 68 77 47 78
REMARK SMILES IDX 48 79 56 80 49 81 55 82 50 83 51 84 52 85 53 86 54 87
REMARK H PARENT 8 13 2 19 2 20 75 43 45 54
REMARK Flexibility Score: inf
ROOT
ATOM      1  O   UNL A   1      32.920  29.304  27.367  1.00  0.00    -0.460 OA
ENDROOT
BRANCH   1   2
ATOM      2  C   UNL A   1      32.110  28.212  27.397  1.00  0.00     0.335 C 
ATOM      3  O   UNL A   1      31.422  27.885  28.358  1.00  0.00    -0.249 OA
BRANCH   2   4
ATOM      4  C   UNL A   1      32.164  27.394  26.095  1.00  0.00     0.228 C 
ATOM      5  C   UNL A   1      30.919  26.984  24.168  1.00  0.00     0.138 C 
ATOM      6  C   UNL A   1      30.849  25.699  24.977  1.00  0.00     0.037 C 
ATOM      7  O   UNL A   1      31.405  28.005  25.051  1.00  0.00    -0.361 OA
ATOM      8  C   UNL A   1      31.704  25.947  26.199  1.00  0.00     0.047 C 
BRANCH   5   9
ATOM      9  C   UNL A   1      29.603  27.483  23.550  1.00  0.00     0.147 C 
BRANCH   9  10
ATOM     10  N   UNL A   1      29.765  28.430  22.464  1.00  0.00    -0.353 N 
ATOM     11  C   UNL A   1      28.948  29.447  22.076  1.00  0.00     0.220 C 
ATOM     12  O   UNL A   1      29.275  30.119  21.095  1.00  0.00    -0.275 OA
ATOM     13  H   UNL A   1      30.585  28.323  21.930  1.00  0.00     0.163 HD
BRANCH  11  14
ATOM     14  C   UNL A   1      27.670  29.754  22.836  1.00  0.00     0.106 C 
BRANCH  14  15
ATOM     15  C   UNL A   1      27.727  31.070  23.617  1.00  0.00     0.071 C 
BRANCH  15  16
ATOM     16  C   UNL A   1      27.857  32.340  22.772  1.00  0.00     0.260 C 
BRANCH  16  17
ATOM     17  N   UNL A   1      29.207  32.847  22.551  1.00  0.00    -0.349 N 
ATOM     18  C   UNL A   1      29.594  33.890  23.480  1.00  0.00     0.330 C 
ATOM     19  H   UNL A   1      29.862  32.072  22.644  1.00  0.00     0.346 HD
ATOM     20  H   UNL A   1      29.222  33.259  21.617  1.00  0.00     0.346 HD
ENDBRANCH  16  17
ENDBRANCH  15  16
ENDBRANCH  14  15
ENDBRANCH  11  14
ENDBRANCH   9  10
ENDBRANCH   5   9
ENDBRANCH   2   4
ENDBRANCH   1   2
BRANCH   1  21
ATOM     21  C   UNL A   1      34.341  29.068  27.442  1.00  0.00     0.274 C 
BRANCH  21  22
ATOM     22  C   UNL A   1      35.077  30.277  28.023  1.00  0.00     0.275 C 
BRANCH  22  23
ATOM     23  O   UNL A   1      36.495  30.154  27.818  1.00  0.00    -0.458 OA
BRANCH  23  24
ATOM     24  C   UNL A   1      37.170  29.620  28.861  1.00  0.00     0.338 C 
ATOM     25  O   UNL A   1      36.713  29.274  29.940  1.00  0.00    -0.246 OA
BRANCH  24  26
ATOM     26  C   UNL A   1      38.542  29.312  28.440  1.00  0.00     0.060 A 
ATOM     27  C   UNL A   1      39.481  29.071  29.447  1.00  0.00     0.016 A 
ATOM     28  C   UNL A   1      38.919  29.293  27.097  1.00  0.00     0.016 A 
ATOM     29  C   UNL A   1      40.806  28.822  29.122  1.00  0.00     0.010 A 
ATOM     30  C   UNL A   1      40.256  29.044  26.769  1.00  0.00     0.010 A 
ATOM     31  C   UNL A   1      41.205  28.824  27.782  1.00  0.00    -0.014 A 
BRANCH  31  32
ATOM     32  C   UNL A   1      42.641  28.659  27.471  1.00  0.00     0.031 A 
ATOM     33  C   UNL A   1      43.587  29.796  27.728  1.00  0.00     0.074 A 
ATOM     34  C   UNL A   1      43.093  27.471  27.031  1.00  0.00     0.049 A 
ATOM     35  N   UNL A   1      44.883  29.845  27.561  1.00  0.00    -0.248 NA
ATOM     36  C   UNL A   1      42.997  31.043  28.243  1.00  0.00     0.031 C 
ATOM     37  C   UNL A   1      42.263  26.289  26.790  1.00  0.00     0.029 A 
ATOM     38  N   UNL A   1      44.363  27.058  26.726  1.00  0.00    -0.354 N 
ATOM     39  C   UNL A   1      45.264  31.127  27.936  1.00  0.00     0.074 A 
ATOM     40  C   UNL A   1      44.060  31.834  28.318  1.00  0.00     0.031 C 
ATOM     41  C   UNL A   1      43.050  25.278  26.386  1.00  0.00     0.029 A 
ATOM     42  C   UNL A   1      44.429  25.750  26.310  1.00  0.00     0.049 A 
ATOM     43  H   UNL A   1      45.153  27.642  26.798  1.00  0.00     0.167 HD
ATOM     44  C   UNL A   1      46.507  31.664  27.964  1.00  0.00     0.031 A 
ATOM     45  C   UNL A   1      45.485  25.020  25.904  1.00  0.00     0.031 A 
ATOM     46  C   UNL A   1      47.696  30.955  27.570  1.00  0.00     0.049 A 
ATOM     47  C   UNL A   1      46.850  25.652  25.908  1.00  0.00     0.074 A 
ATOM     48  C   UNL A   1      49.005  31.405  27.558  1.00  0.00     0.029 A 
ATOM     49  N   UNL A   1      47.721  29.644  27.118  1.00  0.00    -0.354 N 
ATOM     50  N   UNL A   1      47.194  26.867  26.268  1.00  0.00    -0.248 NA
ATOM     51  C   UNL A   1      47.967  24.812  25.462  1.00  0.00     0.031 C 
ATOM     52  C   UNL A   1      49.815  30.380  27.054  1.00  0.00     0.029 A 
ATOM     53  C   UNL A   1      49.018  29.273  26.807  1.00  0.00     0.049 A 
ATOM     54  H   UNL A   1      46.931  29.062  27.031  1.00  0.00     0.167 HD
ATOM     55  C   UNL A   1      48.574  26.930  26.111  1.00  0.00     0.074 A 
ATOM     56  C   UNL A   1      49.000  25.624  25.647  1.00  0.00     0.031 C 
ATOM     57  C   UNL A   1      49.415  27.972  26.329  1.00  0.00     0.031 A 
BRANCH  44  58
ATOM     58  C   UNL A   1      46.630  33.102  28.397  1.00  0.00    -0.014 A 
ATOM     59  C   UNL A   1      46.645  33.458  29.757  1.00  0.00     0.010 A 
ATOM     60  C   UNL A   1      46.754  34.111  27.425  1.00  0.00     0.010 A 
ATOM     61  C   UNL A   1      46.740  34.800  30.137  1.00  0.00     0.020 A 
ATOM     62  C   UNL A   1      46.876  35.452  27.800  1.00  0.00     0.020 A 
ATOM     63  C   UNL A   1      46.850  35.790  29.155  1.00  0.00     0.054 A 
BRANCH  63  64
ATOM     64  S   UNL A   1      46.987  37.523  29.675  1.00  0.00     0.124 S 
ATOM     65  O   UNL A   1      45.653  38.035  29.370  1.00  0.00    -0.237 OA
ATOM     66  O   UNL A   1      47.306  37.408  31.094  1.00  0.00    -0.237 OA
ATOM     67  O   UNL A   1      48.063  38.051  28.838  1.00  0.00    -0.744 OA
ENDBRANCH  63  64
ENDBRANCH  44  58
BRANCH  45  68
ATOM     68  C   UNL A   1      45.288  23.614  25.457  1.00  0.00    -0.014 A 
ATOM     69  C   UNL A   1      45.045  23.315  24.105  1.00  0.00     0.010 A 
ATOM     70  C   UNL A   1      45.357  22.561  26.387  1.00  0.00     0.010 A 
ATOM     71  C   UNL A   1      44.858  21.991  23.695  1.00  0.00     0.020 A 
ATOM     72  C   UNL A   1      45.198  21.235  25.977  1.00  0.00     0.020 A 
ATOM     73  C   UNL A   1      44.938  20.959  24.633  1.00  0.00     0.054 A 
BRANCH  73  74
ATOM     74  S   UNL A   1      44.745  19.245  24.072  1.00  0.00     0.124 S 
ATOM     75  O   UNL A   1      44.521  19.417  22.641  1.00  0.00    -0.237 OA
ATOM     76  O   UNL A   1      46.024  18.643  24.446  1.00  0.00    -0.237 OA
ATOM     77  O   UNL A   1      43.594  18.763  24.833  1.00  0.00    -0.744 OA
ENDBRANCH  73  74
ENDBRANCH  45  68
BRANCH  57  78
ATOM     78  C   UNL A   1      50.881  27.721  26.090  1.00  0.00    -0.014 A 
ATOM     79  C   UNL A   1      51.464  27.948  24.831  1.00  0.00     0.010 A 
ATOM     80  C   UNL A   1      51.684  27.252  27.144  1.00  0.00     0.010 A 
ATOM     81  C   UNL A   1      52.811  27.651  24.614  1.00  0.00     0.020 A 
ATOM     82  C   UNL A   1      53.039  26.981  26.940  1.00  0.00     0.020 A 
ATOM     83  C   UNL A   1      53.588  27.158  25.668  1.00  0.00     0.054 A 
BRANCH  83  84
ATOM     84  S   UNL A   1      55.333  26.768  25.364  1.00  0.00     0.124 S 
ATOM     85  O   UNL A   1      55.985  28.034  25.680  1.00  0.00    -0.237 OA
ATOM     86  O   UNL A   1      55.588  25.677  26.302  1.00  0.00    -0.237 OA
ATOM     87  O   UNL A   1      55.360  26.385  23.954  1.00  0.00    -0.744 OA
ENDBRANCH  83  84
ENDBRANCH  57  78
ENDBRANCH  31  32
ENDBRANCH  24  26
ENDBRANCH  23  24
ENDBRANCH  22  23
ENDBRANCH  21  22
ENDBRANCH   1  21
TORSDOF 20
ENDMDL
MODEL 2
REMARK VINA RESULT:      -9.3      7.696     13.131
REMARK SMILES C[NH2+]CCCC(=O)NC[C@@H]1CC[C@H](C(=O)OCCOC(=O)c2ccc(-c3c4nc(c(-c5ccc(S(=O)(=O)[O-])cc5)c5ccc([nH]5)c(-c5ccc(S(=O)(=O)[O-])cc5)c5nc(c(-c6ccc(S(=O)(=O)[O-])cc6)c6ccc3[nH]6)C=C5)C=C4)cc2)O1
REMARK SMILES IDX 16 1 14 2 15 3 13 4 10 5 11 6 82 7 12 8 9 9 8 10 6 11 7 12
REMARK SMILES IDX 5 14 4 15 3 16 2 17 1 18 17 21 18 22 19 23 20 24 21 25 22 26
REMARK SMILES IDX 23 27 81 28 24 29 80 30 25 31 26 32 27 33 74 34 28 35 79 36
REMARK SMILES IDX 73 37 75 38 29 39 78 40 72 41 71 42 30 44 60 45 41 46 59 47
REMARK SMILES IDX 42 48 45 49 58 50 76 51 43 52 44 53 57 55 77 56 46 57 31 58
REMARK SMILES IDX 32 59 40 60 33 61 39 62 34 63 35 64 36 65 37 66 38 67 61 68
REMARK SMILES IDX 62 69 70 70 63 71 69 72 64 73 65 74 66 75 67 76 68 77 47 78
REMARK SMILES IDX 48 79 56 80 49 81 55 82 50 83 51 84 52 85 53 86 54 87
REMARK H PARENT 8 13 2 19 2 20 75 43 45 54
REMARK Flexibility Score: inf
ROOT
ATOM      1  O   UNL A   1      36.654  23.387  26.353  1.00  0.00    -0.460 OA
ENDROOT
BRANCH   1   2
ATOM      2  C   UNL A   1      35.631  23.480  25.462  1.00  0.00     0.335 C 
ATOM      3  O   UNL A   1      35.192  24.535  25.018  1.00  0.00    -0.249 OA
BRANCH   2   4
ATOM      4  C   UNL A   1      35.045  22.109  25.083  1.00  0.00     0.228 C 
ATOM      5  C   UNL A   1      33.284  21.170  23.880  1.00  0.00     0.138 C 
ATOM      6  C   UNL A   1      32.962  20.907  25.342  1.00  0.00     0.037 C 
ATOM      7  O   UNL A   1      34.319  22.163  23.854  1.00  0.00    -0.361 OA
ATOM      8  C   UNL A   1      34.133  21.466  26.117  1.00  0.00     0.047 C 
BRANCH   5   9
ATOM      9  C   UNL A   1      32.128  21.671  22.998  1.00  0.00     0.147 C 
BRANCH   9  10
ATOM     10  N   UNL A   1      32.229  23.062  22.602  1.00  0.00    -0.353 N 
ATOM     11  C   UNL A   1      31.684  24.166  23.182  1.00  0.00     0.220 C 
ATOM     12  O   UNL A   1      31.882  25.263  22.653  1.00  0.00    -0.275 OA
ATOM     13  H   UNL A   1      32.770  23.233  21.797  1.00  0.00     0.163 HD
BRANCH  11  14
ATOM     14  C   UNL A   1      30.862  24.054  24.453  1.00  0.00     0.106 C 
BRANCH  14  15
ATOM     15  C   UNL A   1      31.679  24.279  25.728  1.00  0.00     0.071 C 
BRANCH  15  16
ATOM     16  C   UNL A   1      31.827  25.736  26.175  1.00  0.00     0.260 C 
BRANCH  16  17
ATOM     17  N   UNL A   1      32.852  26.529  25.505  1.00  0.00    -0.349 N 
ATOM     18  C   UNL A   1      32.372  27.808  25.023  1.00  0.00     0.330 C 
ATOM     19  H   UNL A   1      33.612  26.697  26.164  1.00  0.00     0.346 HD
ATOM     20  H   UNL A   1      33.156  25.997  24.689  1.00  0.00     0.346 HD
ENDBRANCH  16  17
ENDBRANCH  15  16
ENDBRANCH  14  15
ENDBRANCH  11  14
ENDBRANCH   9  10
ENDBRANCH   5   9
ENDBRANCH   2   4
ENDBRANCH   1   2
BRANCH   1  21
ATOM     21  C   UNL A   1      37.943  23.000  25.834  1.00  0.00     0.274 C 
BRANCH  21  22
ATOM     22  C   UNL A   1      39.081  23.654  26.621  1.00  0.00     0.275 C 
BRANCH  22  23
ATOM     23  O   UNL A   1      38.767  25.025  26.921  1.00  0.00    -0.458 OA
BRANCH  23  24
ATOM     24  C   UNL A   1      39.837  25.849  26.975  1.00  0.00     0.338 C 
ATOM     25  O   UNL A   1      40.678  26.029  26.106  1.00  0.00    -0.246 OA
BRANCH  24  26
ATOM     26  C   UNL A   1      39.745  26.681  28.181  1.00  0.00     0.060 A 
ATOM     27  C   UNL A   1      40.493  27.861  28.202  1.00  0.00     0.016 A 
ATOM     28  C   UNL A   1      38.978  26.305  29.284  1.00  0.00     0.016 A 
ATOM     29  C   UNL A   1      40.490  28.669  29.329  1.00  0.00     0.010 A 
ATOM     30  C   UNL A   1      38.977  27.118  30.422  1.00  0.00     0.010 A 
ATOM     31  C   UNL A   1      39.746  28.294  30.452  1.00  0.00    -0.014 A 
BRANCH  31  32
ATOM     32  C   UNL A   1      39.845  29.120  31.675  1.00  0.00     0.031 A 
ATOM     33  C   UNL A   1      40.994  28.909  32.617  1.00  0.00     0.074 A 
ATOM     34  C   UNL A   1      38.946  30.097  31.891  1.00  0.00     0.049 A 
ATOM     35  N   UNL A   1      41.285  29.549  33.720  1.00  0.00    -0.248 NA
ATOM     36  C   UNL A   1      41.943  27.836  32.273  1.00  0.00     0.031 C 
ATOM     37  C   UNL A   1      37.816  30.413  31.014  1.00  0.00     0.029 A 
ATOM     38  N   UNL A   1      38.852  31.014  32.904  1.00  0.00    -0.354 N 
ATOM     39  C   UNL A   1      42.441  28.952  34.209  1.00  0.00     0.074 A 
ATOM     40  C   UNL A   1      42.785  27.882  33.296  1.00  0.00     0.031 C 
ATOM     41  C   UNL A   1      37.150  31.463  31.522  1.00  0.00     0.029 A 
ATOM     42  C   UNL A   1      37.785  31.869  32.772  1.00  0.00     0.049 A 
ATOM     43  H   UNL A   1      39.488  31.056  33.654  1.00  0.00     0.167 HD
ATOM     44  C   UNL A   1      43.151  29.270  35.317  1.00  0.00     0.031 A 
ATOM     45  C   UNL A   1      37.363  32.863  33.577  1.00  0.00     0.031 A 
ATOM     46  C   UNL A   1      42.791  30.329  36.224  1.00  0.00     0.049 A 
ATOM     47  C   UNL A   1      38.149  33.172  34.822  1.00  0.00     0.074 A 
ATOM     48  C   UNL A   1      43.440  30.735  37.377  1.00  0.00     0.029 A 
ATOM     49  N   UNL A   1      41.683  31.150  36.080  1.00  0.00    -0.354 N 
ATOM     50  N   UNL A   1      39.242  32.599  35.270  1.00  0.00    -0.248 NA
ATOM     51  C   UNL A   1      37.651  34.268  35.661  1.00  0.00     0.031 C 
ATOM     52  C   UNL A   1      42.697  31.772  37.954  1.00  0.00     0.029 A 
ATOM     53  C   UNL A   1      41.618  32.049  37.130  1.00  0.00     0.049 A 
ATOM     54  H   UNL A   1      41.037  31.100  35.338  1.00  0.00     0.167 HD
ATOM     55  C   UNL A   1      39.574  33.279  36.436  1.00  0.00     0.074 A 
ATOM     56  C   UNL A   1      38.579  34.320  36.608  1.00  0.00     0.031 C 
ATOM     57  C   UNL A   1      40.607  33.065  37.289  1.00  0.00     0.031 A 
BRANCH  44  58
ATOM     58  C   UNL A   1      44.365  28.433  35.626  1.00  0.00    -0.014 A 
ATOM     59  C   UNL A   1      45.634  28.771  35.124  1.00  0.00     0.010 A 
ATOM     60  C   UNL A   1      44.235  27.299  36.448  1.00  0.00     0.010 A 
ATOM     61  C   UNL A   1      46.744  27.969  35.407  1.00  0.00     0.020 A 
ATOM     62  C   UNL A   1      45.346  26.509  36.754  1.00  0.00     0.020 A 
ATOM     63  C   UNL A   1      46.592  26.839  36.216  1.00  0.00     0.054 A 
BRANCH  63  64
ATOM     64  S   UNL A   1      48.050  25.823  36.580  1.00  0.00     0.124 S 
ATOM     65  O   UNL A   1      48.992  26.819  37.085  1.00  0.00    -0.237 OA
ATOM     66  O   UNL A   1      47.545  24.878  37.570  1.00  0.00    -0.237 OA
ATOM     67  O   UNL A   1      48.397  25.239  35.285  1.00  0.00    -0.744 OA
ENDBRANCH  63  64
ENDBRANCH  44  58
BRANCH  45  68
ATOM     68  C   UNL A   1      36.136  33.631  33.229  1.00  0.00    -0.014 A 
ATOM     69  C   UNL A   1      34.866  33.176  33.626  1.00  0.00     0.010 A 
ATOM     70  C   UNL A   1      36.236  34.833  32.507  1.00  0.00     0.010 A 
ATOM     71  C   UNL A   1      33.718  33.902  33.292  1.00  0.00     0.020 A 
ATOM     72  C   UNL A   1      35.094  35.576  32.196  1.00  0.00     0.020 A 
ATOM     73  C   UNL A   1      33.839  35.099  32.581  1.00  0.00     0.054 A 
BRANCH  73  74
ATOM     74  S   UNL A   1      32.343  36.052  32.205  1.00  0.00     0.124 S 
ATOM     75  O   UNL A   1      32.483  37.202  33.092  1.00  0.00    -0.237 OA
ATOM     76  O   UNL A   1      32.495  36.331  30.778  1.00  0.00    -0.237 OA
ATOM     77  O   UNL A   1      31.258  35.131  32.539  1.00  0.00    -0.744 OA
ENDBRANCH  73  74
ENDBRANCH  45  68
BRANCH  57  78
ATOM     78  C   UNL A   1      40.717  33.997  38.467  1.00  0.00    -0.014 A 
ATOM     79  C   UNL A   1      40.062  33.720  39.680  1.00  0.00     0.010 A 
ATOM     80  C   UNL A   1      41.488  35.167  38.354  1.00  0.00     0.010 A 
ATOM     81  C   UNL A   1      40.128  34.628  40.740  1.00  0.00     0.020 A 
ATOM     82  C   UNL A   1      41.580  36.064  39.421  1.00  0.00     0.020 A 
ATOM     83  C   UNL A   1      40.878  35.800  40.599  1.00  0.00     0.054 A 
BRANCH  83  84
ATOM     84  S   UNL A   1      40.941  36.972  41.982  1.00  0.00     0.124 S 
ATOM     85  O   UNL A   1      39.525  37.168  42.276  1.00  0.00    -0.237 OA
ATOM     86  O   UNL A   1      41.698  36.237  42.993  1.00  0.00    -0.237 OA
ATOM     87  O   UNL A   1      41.629  38.132  41.420  1.00  0.00    -0.744 OA
ENDBRANCH  83  84
ENDBRANCH  57  78
ENDBRANCH  31  32
ENDBRANCH  24  26
ENDBRANCH  23  24
ENDBRANCH  22  23
ENDBRANCH  21  22
ENDBRANCH   1  21
TORSDOF 20
ENDMDL
MODEL 3
REMARK VINA RESULT:      -9.3      4.291      6.018
REMARK SMILES C[NH2+]CCCC(=O)NC[C@@H]1CC[C@H](C(=O)OCCOC(=O)c2ccc(-c3c4nc(c(-c5ccc(S(=O)(=O)[O-])cc5)c5ccc([nH]5)c(-c5ccc(S(=O)(=O)[O-])cc5)c5nc(c(-c6ccc(S(=O)(=O)[O-])cc6)c6ccc3[nH]6)C=C5)C=C4)cc2)O1
REMARK SMILES IDX 16 1 14 2 15 3 13 4 10 5 11 6 82 7 12 8 9 9 8 10 6 11 7 12
REMARK SMILES IDX 5 14 4 15 3 16 2 17 1 18 17 21 18 22 19 23 20 24 21 25 22 26
REMARK SMILES IDX 23 27 81 28 24 29 80 30 25 31 26 32 27 33 74 34 28 35 79 36
REMARK SMILES IDX 73 37 75 38 29 39 78 40 72 41 71 42 30 44 60 45 41 46 59 47
REMARK SMILES IDX 42 48 45 49 58 50 76 51 43 52 44 53 57 55 77 56 46 57 31 58
REMARK SMILES IDX 32 59 40 60 33 61 39 62 34 63 35 64 36 65 37 66 38 67 61 68
REMARK SMILES IDX 62 69 70 70 63 71 69 72 64 73 65 74 66 75 67 76 68 77 47 78
REMARK SMILES IDX 48 79 56 80 49 81 55 82 50 83 51 84 52 85 53 86 54 87
REMARK H PARENT 8 13 2 19 2 20 75 43 45 54
REMARK Flexibility Score: inf
ROOT
ATOM      1  O   UNL A   1      32.331  26.997  24.996  1.00  0.00    -0.460 OA
ENDROOT
BRANCH   1   2
ATOM      2  C   UNL A   1      32.176  25.655  25.158  1.00  0.00     0.335 C 
ATOM      3  O   UNL A   1      32.087  25.093  26.243  1.00  0.00    -0.249 OA
BRANCH   2   4
ATOM      4  C   UNL A   1      32.155  24.893  23.821  1.00  0.00     0.228 C 
ATOM      5  C   UNL A   1      32.368  22.734  22.973  1.00  0.00     0.138 C 
ATOM      6  C   UNL A   1      33.628  23.466  22.540  1.00  0.00     0.037 C 
ATOM      7  O   UNL A   1      31.752  23.533  23.992  1.00  0.00    -0.361 OA
ATOM      8  C   UNL A   1      33.461  24.882  23.042  1.00  0.00     0.047 C 
BRANCH   5   9
ATOM      9  C   UNL A   1      32.554  21.315  23.536  1.00  0.00     0.147 C 
BRANCH   9  10
ATOM     10  N   UNL A   1      32.652  21.245  24.981  1.00  0.00    -0.353 N 
ATOM     11  C   UNL A   1      33.735  20.981  25.761  1.00  0.00     0.220 C 
ATOM     12  O   UNL A   1      33.581  20.947  26.985  1.00  0.00    -0.275 OA
ATOM     13  H   UNL A   1      31.813  21.414  25.469  1.00  0.00     0.163 HD
BRANCH  11  14
ATOM     14  C   UNL A   1      35.101  20.744  25.144  1.00  0.00     0.106 C 
BRANCH  14  15
ATOM     15  C   UNL A   1      36.169  21.726  25.632  1.00  0.00     0.071 C 
BRANCH  15  16
ATOM     16  C   UNL A   1      37.461  21.766  24.812  1.00  0.00     0.260 C 
BRANCH  16  17
ATOM     17  N   UNL A   1      38.713  21.631  25.550  1.00  0.00    -0.349 N 
ATOM     18  C   UNL A   1      39.075  22.819  26.298  1.00  0.00     0.330 C 
ATOM     19  H   UNL A   1      38.620  20.854  26.205  1.00  0.00     0.346 HD
ATOM     20  H   UNL A   1      39.450  21.474  24.863  1.00  0.00     0.346 HD
ENDBRANCH  16  17
ENDBRANCH  15  16
ENDBRANCH  14  15
ENDBRANCH  11  14
ENDBRANCH   9  10
ENDBRANCH   5   9
ENDBRANCH   2   4
ENDBRANCH   1   2
BRANCH   1  21
ATOM     21  C   UNL A   1      33.437  27.617  25.685  1.00  0.00     0.274 C 
BRANCH  21  22
ATOM     22  C   UNL A   1      32.963  28.755  26.591  1.00  0.00     0.275 C 
BRANCH  22  23
ATOM     23  O   UNL A   1      33.842  28.904  27.719  1.00  0.00    -0.458 OA
BRANCH  23  24
ATOM     24  C   UNL A   1      34.478  30.095  27.784  1.00  0.00     0.338 C 
ATOM     25  O   UNL A   1      33.982  31.206  27.676  1.00  0.00    -0.246 OA
BRANCH  24  26
ATOM     26  C   UNL A   1      35.864  29.878  28.216  1.00  0.00     0.060 A 
ATOM     27  C   UNL A   1      36.865  30.022  27.252  1.00  0.00     0.016 A 
ATOM     28  C   UNL A   1      36.183  29.506  29.523  1.00  0.00     0.016 A 
ATOM     29  C   UNL A   1      38.191  29.784  27.580  1.00  0.00     0.010 A 
ATOM     30  C   UNL A   1      37.521  29.264  29.854  1.00  0.00     0.010 A 
ATOM     31  C   UNL A   1      38.525  29.387  28.879  1.00  0.00    -0.014 A 
BRANCH  31  32
ATOM     32  C   UNL A   1      39.933  29.040  29.173  1.00  0.00     0.031 A 
ATOM     33  C   UNL A   1      40.796  30.021  29.911  1.00  0.00     0.074 A 
ATOM     34  C   UNL A   1      40.399  27.823  28.841  1.00  0.00     0.049 A 
ATOM     35  N   UNL A   1      42.038  29.898  30.298  1.00  0.00    -0.248 NA
ATOM     36  C   UNL A   1      40.180  31.313  30.259  1.00  0.00     0.031 C 
ATOM     37  C   UNL A   1      39.628  26.780  28.161  1.00  0.00     0.029 A 
ATOM     38  N   UNL A   1      41.628  27.253  29.047  1.00  0.00    -0.354 N 
ATOM     39  C   UNL A   1      42.359  31.096  30.925  1.00  0.00     0.074 A 
ATOM     40  C   UNL A   1      41.188  31.944  30.845  1.00  0.00     0.031 C 
ATOM     41  C   UNL A   1      40.400  25.690  28.018  1.00  0.00     0.029 A 
ATOM     42  C   UNL A   1      41.724  25.970  28.565  1.00  0.00     0.049 A 
ATOM     43  H   UNL A   1      42.370  27.718  29.496  1.00  0.00     0.167 HD
ATOM     44  C   UNL A   1      43.524  31.454  31.517  1.00  0.00     0.031 A 
ATOM     45  C   UNL A   1      42.769  25.120  28.559  1.00  0.00     0.031 A 
ATOM     46  C   UNL A   1      44.686  30.606  31.579  1.00  0.00     0.049 A 
ATOM     47  C   UNL A   1      44.063  25.556  29.189  1.00  0.00     0.074 A 
ATOM     48  C   UNL A   1      45.917  30.871  32.153  1.00  0.00     0.029 A 
ATOM     49  N   UNL A   1      44.760  29.327  31.047  1.00  0.00    -0.354 N 
ATOM     50  N   UNL A   1      44.350  26.693  29.780  1.00  0.00    -0.248 NA
ATOM     51  C   UNL A   1      45.168  24.592  29.161  1.00  0.00     0.031 C 
ATOM     52  C   UNL A   1      46.750  29.768  31.927  1.00  0.00     0.029 A 
ATOM     53  C   UNL A   1      46.020  28.795  31.263  1.00  0.00     0.049 A 
ATOM     54  H   UNL A   1      44.024  28.865  30.584  1.00  0.00     0.167 HD
ATOM     55  C   UNL A   1      45.665  26.572  30.213  1.00  0.00     0.074 A 
ATOM     56  C   UNL A   1      46.106  25.243  29.836  1.00  0.00     0.031 C 
ATOM     57  C   UNL A   1      46.441  27.476  30.863  1.00  0.00     0.031 A 
BRANCH  44  58
ATOM     58  C   UNL A   1      43.604  32.838  32.105  1.00  0.00    -0.014 A 
ATOM     59  C   UNL A   1      43.370  33.067  33.472  1.00  0.00     0.010 A 
ATOM     60  C   UNL A   1      43.940  33.925  31.278  1.00  0.00     0.010 A 
ATOM     61  C   UNL A   1      43.431  34.364  33.994  1.00  0.00     0.020 A 
ATOM     62  C   UNL A   1      44.027  35.219  31.800  1.00  0.00     0.020 A 
ATOM     63  C   UNL A   1      43.754  35.433  33.152  1.00  0.00     0.054 A 
BRANCH  63  64
ATOM     64  S   UNL A   1      43.841  37.102  33.857  1.00  0.00     0.124 S 
ATOM     65  O   UNL A   1      44.530  37.839  32.801  1.00  0.00    -0.237 OA
ATOM     66  O   UNL A   1      42.434  37.444  34.046  1.00  0.00    -0.237 OA
ATOM     67  O   UNL A   1      44.605  36.918  35.089  1.00  0.00    -0.744 OA
ENDBRANCH  63  64
ENDBRANCH  44  58
BRANCH  45  68
ATOM     68  C   UNL A   1      42.631  23.777  27.931  1.00  0.00    -0.014 A 
ATOM     69  C   UNL A   1      42.963  23.577  26.580  1.00  0.00     0.010 A 
ATOM     70  C   UNL A   1      42.176  22.685  28.692  1.00  0.00     0.010 A 
ATOM     71  C   UNL A   1      42.827  22.313  25.997  1.00  0.00     0.020 A 
ATOM     72  C   UNL A   1      42.065  21.415  28.121  1.00  0.00     0.020 A 
ATOM     73  C   UNL A   1      42.381  21.239  26.773  1.00  0.00     0.054 A 
BRANCH  73  74
ATOM     74  S   UNL A   1      42.263  19.596  26.012  1.00  0.00     0.124 S 
ATOM     75  O   UNL A   1      42.719  18.728  27.092  1.00  0.00    -0.237 OA
ATOM     76  O   UNL A   1      40.843  19.502  25.680  1.00  0.00    -0.237 OA
ATOM     77  O   UNL A   1      43.158  19.687  24.860  1.00  0.00    -0.744 OA
ENDBRANCH  73  74
ENDBRANCH  45  68
BRANCH  57  78
ATOM     78  C   UNL A   1      47.835  27.036  31.225  1.00  0.00    -0.014 A 
ATOM     79  C   UNL A   1      48.086  26.300  32.396  1.00  0.00     0.010 A 
ATOM     80  C   UNL A   1      48.907  27.367  30.378  1.00  0.00     0.010 A 
ATOM     81  C   UNL A   1      49.394  25.954  32.745  1.00  0.00     0.020 A 
ATOM     82  C   UNL A   1      50.214  26.998  30.708  1.00  0.00     0.020 A 
ATOM     83  C   UNL A   1      50.451  26.316  31.903  1.00  0.00     0.054 A 
BRANCH  83  84
ATOM     84  S   UNL A   1      52.143  25.868  32.379  1.00  0.00     0.124 S 
ATOM     85  O   UNL A   1      51.914  24.769  33.311  1.00  0.00    -0.237 OA
ATOM     86  O   UNL A   1      52.749  25.495  31.103  1.00  0.00    -0.237 OA
ATOM     87  O   UNL A   1      52.670  27.094  32.975  1.00  0.00    -0.744 OA
ENDBRANCH  83  84
ENDBRANCH  57  78
ENDBRANCH  31  32
ENDBRANCH  24  26
ENDBRANCH  23  24
ENDBRANCH  22  23
ENDBRANCH  21  22
ENDBRANCH   1  21
TORSDOF 20
ENDMDL
