MODEL 1
REMARK VINA RESULT:     -12.1      0.000      0.000
REMARK SMILES Cc1cc(/C=C2\C(=O)N(Cc3ccco3)C(=O)N=C2OCCOC(=O)c2ccc(-c3c4nc(c(-c5ccc(S(=O)(=O)[O-])cc5)c5ccc([nH]5)c(-c5ccc(S(=O)(=O)[O-])cc5)c5nc(c(-c6ccc(S(=O)(=O)[O-])cc6)c6ccc3[nH]6)C=C5)C=C4)cc2)c(C)n1-c1ccc(Cl)c(C(=O)[O-])c1
REMARK SMILES IDX 22 1 21 2 20 3 19 4 5 5 6 6 7 7 8 8 9 9 18 10 16 11 17 12
REMARK SMILES IDX 4 13 1 14 2 15 3 16 88 17 86 18 87 19 89 20 90 21 98 22
REMARK SMILES IDX 91 23 94 24 92 25 93 26 95 27 96 28 97 29 10 30 11 31 12 32
REMARK SMILES IDX 15 33 13 34 14 35 23 36 24 37 25 38 26 39 27 40 85 41 28 42
REMARK SMILES IDX 84 43 29 44 30 45 31 46 78 47 32 48 83 49 77 50 79 51 33 52
REMARK SMILES IDX 82 53 76 54 75 55 34 57 64 58 45 59 63 60 46 61 49 62 62 63
REMARK SMILES IDX 80 64 47 65 48 66 61 68 81 69 50 70 35 71 36 72 44 73 37 74
REMARK SMILES IDX 43 75 38 76 39 77 40 78 41 79 42 80 65 81 66 82 74 83 67 84
REMARK SMILES IDX 73 85 68 86 69 87 70 88 71 89 72 90 51 91 52 92 60 93 53 94
REMARK SMILES IDX 59 95 54 96 55 97 56 98 57 99 58 100
REMARK H PARENT 79 56 49 67
REMARK Flexibility Score: inf
ROOT
ATOM      1  C   UNL A   1      33.697  32.138  27.685  1.00  0.00     0.274 C 
ENDROOT
BRANCH   1   2
ATOM      2  C   UNL A   1      32.880  30.832  27.304  1.00  0.00     0.273 C 
BRANCH   2   3
ATOM      3  O   UNL A   1      33.614  29.910  26.376  1.00  0.00    -0.473 OA
BRANCH   3   4
ATOM      4  C   UNL A   1      32.803  29.049  25.722  1.00  0.00     0.231 C 
ATOM      5  C   UNL A   1      33.715  26.723  26.203  1.00  0.00     0.029 C 
ATOM      6  C   UNL A   1      33.301  27.708  25.363  1.00  0.00     0.103 C 
ATOM      7  C   UNL A   1      33.043  27.479  23.925  1.00  0.00     0.267 C 
ATOM      8  O   UNL A   1      33.890  26.979  23.196  1.00  0.00    -0.268 OA
ATOM      9  N   UNL A   1      31.794  27.942  23.517  1.00  0.00    -0.250 N 
ATOM     10  N   UNL A   1      31.717  29.544  25.253  1.00  0.00    -0.156 NA
ATOM     11  C   UNL A   1      31.171  29.011  24.143  1.00  0.00     0.354 C 
ATOM     12  O   UNL A   1      30.211  29.622  23.661  1.00  0.00    -0.245 OA
BRANCH   5  13
ATOM     13  C   UNL A   1      34.030  25.314  25.945  1.00  0.00    -0.003 A 
ATOM     14  C   UNL A   1      36.284  22.429  25.012  1.00  0.00     0.065 C 
ATOM     15  C   UNL A   1      35.238  23.419  25.406  1.00  0.00     0.020 A 
ATOM     16  C   UNL A   1      35.314  24.802  25.549  1.00  0.00     0.031 A 
ATOM     17  N   UNL A   1      33.919  23.076  25.620  1.00  0.00    -0.318 N 
ATOM     18  C   UNL A   1      33.254  24.179  26.156  1.00  0.00     0.027 A 
ATOM     19  C   UNL A   1      31.948  23.961  26.850  1.00  0.00     0.065 C 
BRANCH  17  20
ATOM     20  C   UNL A   1      33.316  21.796  25.469  1.00  0.00     0.046 A 
ATOM     21  C   UNL A   1      33.456  20.873  26.509  1.00  0.00     0.028 A 
ATOM     22  C   UNL A   1      32.853  21.390  24.213  1.00  0.00     0.038 A 
ATOM     23  C   UNL A   1      33.159  19.530  26.282  1.00  0.00     0.023 A 
ATOM     24  C   UNL A   1      32.598  20.023  23.965  1.00  0.00     0.018 A 
ATOM     25  C   UNL A   1      32.755  19.095  25.012  1.00  0.00     0.050 A 
ATOM     26  Cl  UNL A   1      32.531  17.389  24.838  1.00  0.00    -0.084 Cl
BRANCH  24  27
ATOM     27  C   UNL A   1      32.256  19.585  22.581  1.00  0.00     0.073 C 
ATOM     28  O   UNL A   1      32.302  18.466  22.100  1.00  0.00    -0.545 OA
ATOM     29  O   UNL A   1      31.874  20.614  21.798  1.00  0.00    -0.545 OA
ENDBRANCH  24  27
ENDBRANCH  17  20
ENDBRANCH   5  13
BRANCH   9  30
ATOM     30  C   UNL A   1      31.368  27.580  22.175  1.00  0.00     0.206 C 
BRANCH  30  31
ATOM     31  C   UNL A   1      31.857  26.229  21.766  1.00  0.00     0.123 A 
ATOM     32  C   UNL A   1      32.527  25.785  20.641  1.00  0.00     0.047 A 
ATOM     33  O   UNL A   1      31.616  25.177  22.603  1.00  0.00    -0.467 OA
ATOM     34  C   UNL A   1      32.661  24.389  20.769  1.00  0.00     0.042 A 
ATOM     35  C   UNL A   1      32.121  24.070  21.993  1.00  0.00     0.195 A 
ENDBRANCH  30  31
ENDBRANCH   9  30
ENDBRANCH   3   4
ENDBRANCH   2   3
ENDBRANCH   1   2
BRANCH   1  36
ATOM     36  O   UNL A   1      33.728  32.693  29.085  1.00  0.00    -0.458 OA
BRANCH  36  37
ATOM     37  C   UNL A   1      34.823  32.366  29.889  1.00  0.00     0.338 C 
ATOM     38  O   UNL A   1      34.881  32.766  31.049  1.00  0.00    -0.246 OA
BRANCH  37  39
ATOM     39  C   UNL A   1      35.950  31.394  29.349  1.00  0.00     0.060 A 
ATOM     40  C   UNL A   1      35.915  30.051  29.719  1.00  0.00     0.016 A 
ATOM     41  C   UNL A   1      37.198  31.745  28.772  1.00  0.00     0.016 A 
ATOM     42  C   UNL A   1      37.011  29.119  29.449  1.00  0.00     0.010 A 
ATOM     43  C   UNL A   1      38.352  30.789  28.551  1.00  0.00     0.010 A 
ATOM     44  C   UNL A   1      38.310  29.414  28.869  1.00  0.00    -0.014 A 
BRANCH  44  45
ATOM     45  C   UNL A   1      39.550  28.266  29.073  1.00  0.00     0.031 A 
ATOM     46  C   UNL A   1      39.910  28.483  30.502  1.00  0.00     0.074 A 
ATOM     47  C   UNL A   1      40.430  27.319  28.473  1.00  0.00     0.049 A 
ATOM     48  N   UNL A   1      40.286  29.668  30.884  1.00  0.00    -0.248 NA
ATOM     49  C   UNL A   1      39.510  27.588  31.590  1.00  0.00     0.031 C 
ATOM     50  C   UNL A   1      40.585  26.979  27.042  1.00  0.00     0.029 A 
ATOM     51  N   UNL A   1      41.442  26.399  29.006  1.00  0.00    -0.354 N 
ATOM     52  C   UNL A   1      40.468  29.600  32.238  1.00  0.00     0.074 A 
ATOM     53  C   UNL A   1      39.760  28.388  32.634  1.00  0.00     0.031 C 
ATOM     54  C   UNL A   1      41.431  25.919  26.831  1.00  0.00     0.029 A 
ATOM     55  C   UNL A   1      42.026  25.422  28.077  1.00  0.00     0.049 A 
ATOM     56  H   UNL A   1      41.719  26.435  29.950  1.00  0.00     0.167 HD
ATOM     57  C   UNL A   1      41.649  30.094  32.707  1.00  0.00     0.031 A 
ATOM     58  C   UNL A   1      42.963  24.374  28.238  1.00  0.00     0.031 A 
ATOM     59  C   UNL A   1      42.569  29.039  33.048  1.00  0.00     0.049 A 
ATOM     60  C   UNL A   1      43.784  24.731  29.405  1.00  0.00     0.074 A 
ATOM     61  C   UNL A   1      42.425  27.829  33.697  1.00  0.00     0.029 A 
ATOM     62  N   UNL A   1      43.713  28.947  32.281  1.00  0.00    -0.354 N 
ATOM     63  N   UNL A   1      44.729  25.616  29.317  1.00  0.00    -0.248 NA
ATOM     64  C   UNL A   1      43.708  24.027  30.682  1.00  0.00     0.031 C 
ATOM     65  C   UNL A   1      43.148  26.912  32.902  1.00  0.00     0.029 A 
ATOM     66  C   UNL A   1      43.985  27.616  32.046  1.00  0.00     0.049 A 
ATOM     67  H   UNL A   1      44.248  29.707  31.955  1.00  0.00     0.167 HD
ATOM     68  C   UNL A   1      44.939  25.960  30.617  1.00  0.00     0.074 A 
ATOM     69  C   UNL A   1      44.537  24.798  31.389  1.00  0.00     0.031 C 
ATOM     70  C   UNL A   1      44.820  27.276  30.920  1.00  0.00     0.031 A 
BRANCH  57  71
ATOM     71  C   UNL A   1      42.088  31.396  32.076  1.00  0.00    -0.014 A 
ATOM     72  C   UNL A   1      42.963  31.370  30.983  1.00  0.00     0.010 A 
ATOM     73  C   UNL A   1      41.717  32.653  32.609  1.00  0.00     0.010 A 
ATOM     74  C   UNL A   1      43.507  32.563  30.487  1.00  0.00     0.020 A 
ATOM     75  C   UNL A   1      42.282  33.842  32.143  1.00  0.00     0.020 A 
ATOM     76  C   UNL A   1      43.184  33.787  31.087  1.00  0.00     0.054 A 
BRANCH  76  77
ATOM     77  S   UNL A   1      44.029  35.288  30.518  1.00  0.00     0.124 S 
ATOM     78  O   UNL A   1      42.913  36.167  30.169  1.00  0.00    -0.237 OA
ATOM     79  O   UNL A   1      44.778  35.688  31.705  1.00  0.00    -0.237 OA
ATOM     80  O   UNL A   1      44.823  34.840  29.377  1.00  0.00    -0.744 OA
ENDBRANCH  76  77
ENDBRANCH  57  71
BRANCH  58  81
ATOM     81  C   UNL A   1      43.665  23.087  27.589  1.00  0.00    -0.014 A 
ATOM     82  C   UNL A   1      42.867  21.959  27.153  1.00  0.00     0.010 A 
ATOM     83  C   UNL A   1      44.947  23.102  27.008  1.00  0.00     0.010 A 
ATOM     84  C   UNL A   1      43.256  21.017  26.154  1.00  0.00     0.020 A 
ATOM     85  C   UNL A   1      45.363  22.136  26.017  1.00  0.00     0.020 A 
ATOM     86  C   UNL A   1      44.504  21.124  25.564  1.00  0.00     0.054 A 
BRANCH  86  87
ATOM     87  S   UNL A   1      44.929  20.043  24.132  1.00  0.00     0.124 S 
ATOM     88  O   UNL A   1      46.349  19.768  24.331  1.00  0.00    -0.237 OA
ATOM     89  O   UNL A   1      44.040  18.897  24.311  1.00  0.00    -0.237 OA
ATOM     90  O   UNL A   1      44.620  20.874  22.969  1.00  0.00    -0.744 OA
ENDBRANCH  86  87
ENDBRANCH  58  81
BRANCH  70  91
ATOM     91  C   UNL A   1      45.330  28.274  29.892  1.00  0.00    -0.014 A 
ATOM     92  C   UNL A   1      44.527  28.893  28.904  1.00  0.00     0.010 A 
ATOM     93  C   UNL A   1      46.703  28.568  29.883  1.00  0.00     0.010 A 
ATOM     94  C   UNL A   1      45.082  29.698  27.900  1.00  0.00     0.020 A 
ATOM     95  C   UNL A   1      47.260  29.410  28.910  1.00  0.00     0.020 A 
ATOM     96  C   UNL A   1      46.453  29.940  27.902  1.00  0.00     0.054 A 
BRANCH  96  97
ATOM     97  S   UNL A   1      47.173  30.936  26.566  1.00  0.00     0.124 S 
ATOM     98  O   UNL A   1      46.421  30.476  25.399  1.00  0.00    -0.237 OA
ATOM     99  O   UNL A   1      46.886  32.305  26.986  1.00  0.00    -0.237 OA
ATOM    100  O   UNL A   1      48.583  30.554  26.574  1.00  0.00    -0.744 OA
ENDBRANCH  96  97
ENDBRANCH  70  91
ENDBRANCH  44  45
ENDBRANCH  37  39
ENDBRANCH  36  37
ENDBRANCH   1  36
TORSDOF 18
ENDMDL
MODEL 2
REMARK VINA RESULT:     -11.5      9.585     15.376
REMARK SMILES Cc1cc(/C=C2\C(=O)N(Cc3ccco3)C(=O)N=C2OCCOC(=O)c2ccc(-c3c4nc(c(-c5ccc(S(=O)(=O)[O-])cc5)c5ccc([nH]5)c(-c5ccc(S(=O)(=O)[O-])cc5)c5nc(c(-c6ccc(S(=O)(=O)[O-])cc6)c6ccc3[nH]6)C=C5)C=C4)cc2)c(C)n1-c1ccc(Cl)c(C(=O)[O-])c1
REMARK SMILES IDX 22 1 21 2 20 3 19 4 5 5 6 6 7 7 8 8 9 9 18 10 16 11 17 12
REMARK SMILES IDX 4 13 1 14 2 15 3 16 88 17 86 18 87 19 89 20 90 21 98 22
REMARK SMILES IDX 91 23 94 24 92 25 93 26 95 27 96 28 97 29 10 30 11 31 12 32
REMARK SMILES IDX 15 33 13 34 14 35 23 36 24 37 25 38 26 39 27 40 85 41 28 42
REMARK SMILES IDX 84 43 29 44 30 45 31 46 78 47 32 48 83 49 77 50 79 51 33 52
REMARK SMILES IDX 82 53 76 54 75 55 34 57 64 58 45 59 63 60 46 61 49 62 62 63
REMARK SMILES IDX 80 64 47 65 48 66 61 68 81 69 50 70 35 71 36 72 44 73 37 74
REMARK SMILES IDX 43 75 38 76 39 77 40 78 41 79 42 80 65 81 66 82 74 83 67 84
REMARK SMILES IDX 73 85 68 86 69 87 70 88 71 89 72 90 51 91 52 92 60 93 53 94
REMARK SMILES IDX 59 95 54 96 55 97 56 98 57 99 58 100
REMARK H PARENT 79 56 49 67
REMARK Flexibility Score: inf
ROOT
ATOM      1  C   UNL A   1      44.721  41.091  29.499  1.00  0.00     0.274 C 
ENDROOT
BRANCH   1   2
ATOM      2  C   UNL A   1      44.297  41.052  27.971  1.00  0.00     0.273 C 
BRANCH   2   3
ATOM      3  O   UNL A   1      45.007  42.061  27.119  1.00  0.00    -0.473 OA
BRANCH   3   4
ATOM      4  C   UNL A   1      44.558  42.101  25.845  1.00  0.00     0.231 C 
ATOM      5  C   UNL A   1      46.455  43.083  24.463  1.00  0.00     0.029 C 
ATOM      6  C   UNL A   1      45.164  43.045  24.887  1.00  0.00     0.103 C 
ATOM      7  C   UNL A   1      44.084  43.815  24.236  1.00  0.00     0.267 C 
ATOM      8  O   UNL A   1      44.172  45.025  24.070  1.00  0.00    -0.268 OA
ATOM      9  N   UNL A   1      42.979  43.031  23.910  1.00  0.00    -0.250 N 
ATOM     10  N   UNL A   1      43.468  41.466  25.612  1.00  0.00    -0.156 NA
ATOM     11  C   UNL A   1      42.644  41.900  24.639  1.00  0.00     0.354 C 
ATOM     12  O   UNL A   1      41.547  41.335  24.563  1.00  0.00    -0.245 OA
BRANCH   5  13
ATOM     13  C   UNL A   1      47.084  43.847  23.381  1.00  0.00    -0.003 A 
ATOM     14  C   UNL A   1      49.060  46.718  21.922  1.00  0.00     0.065 C 
ATOM     15  C   UNL A   1      48.270  45.507  22.295  1.00  0.00     0.020 A 
ATOM     16  C   UNL A   1      47.807  45.080  23.537  1.00  0.00     0.031 A 
ATOM     17  N   UNL A   1      47.778  44.613  21.366  1.00  0.00    -0.318 N 
ATOM     18  C   UNL A   1      47.261  43.508  22.043  1.00  0.00     0.027 A 
ATOM     19  C   UNL A   1      47.045  42.239  21.284  1.00  0.00     0.065 C 
BRANCH  17  20
ATOM     20  C   UNL A   1      47.876  44.687  19.949  1.00  0.00     0.046 A 
ATOM     21  C   UNL A   1      49.135  44.522  19.364  1.00  0.00     0.028 A 
ATOM     22  C   UNL A   1      46.804  45.189  19.203  1.00  0.00     0.038 A 
ATOM     23  C   UNL A   1      49.330  44.890  18.034  1.00  0.00     0.023 A 
ATOM     24  C   UNL A   1      47.009  45.608  17.869  1.00  0.00     0.018 A 
ATOM     25  C   UNL A   1      48.283  45.454  17.291  1.00  0.00     0.050 A 
ATOM     26  Cl  UNL A   1      48.691  45.972  15.692  1.00  0.00    -0.084 Cl
BRANCH  24  27
ATOM     27  C   UNL A   1      45.898  46.283  17.139  1.00  0.00     0.073 C 
ATOM     28  O   UNL A   1      45.791  47.456  16.826  1.00  0.00    -0.545 OA
ATOM     29  O   UNL A   1      44.896  45.434  16.832  1.00  0.00    -0.545 OA
ENDBRANCH  24  27
ENDBRANCH  17  20
ENDBRANCH   5  13
BRANCH   9  30
ATOM     30  C   UNL A   1      41.955  43.652  23.085  1.00  0.00     0.206 C 
BRANCH  30  31
ATOM     31  C   UNL A   1      42.221  43.487  21.625  1.00  0.00     0.123 A 
ATOM     32  C   UNL A   1      43.395  43.393  20.899  1.00  0.00     0.047 A 
ATOM     33  O   UNL A   1      41.151  43.430  20.778  1.00  0.00    -0.467 OA
ATOM     34  C   UNL A   1      43.031  43.325  19.540  1.00  0.00     0.042 A 
ATOM     35  C   UNL A   1      41.656  43.316  19.519  1.00  0.00     0.195 A 
ENDBRANCH  30  31
ENDBRANCH   9  30
ENDBRANCH   3   4
ENDBRANCH   2   3
ENDBRANCH   1   2
BRANCH   1  36
ATOM     36  O   UNL A   1      45.276  39.889  30.217  1.00  0.00    -0.458 OA
BRANCH  36  37
ATOM     37  C   UNL A   1      45.316  38.679  29.520  1.00  0.00     0.338 C 
ATOM     38  O   UNL A   1      46.290  38.396  28.828  1.00  0.00    -0.246 OA
BRANCH  37  39
ATOM     39  C   UNL A   1      44.156  37.616  29.694  1.00  0.00     0.060 A 
ATOM     40  C   UNL A   1      44.312  36.596  30.630  1.00  0.00     0.016 A 
ATOM     41  C   UNL A   1      43.076  37.354  28.810  1.00  0.00     0.016 A 
ATOM     42  C   UNL A   1      43.402  35.453  30.726  1.00  0.00     0.010 A 
ATOM     43  C   UNL A   1      42.175  36.138  28.876  1.00  0.00     0.010 A 
ATOM     44  C   UNL A   1      42.287  35.126  29.854  1.00  0.00    -0.014 A 
BRANCH  44  45
ATOM     45  C   UNL A   1      41.678  33.536  29.905  1.00  0.00     0.031 A 
ATOM     46  C   UNL A   1      40.385  33.748  30.614  1.00  0.00     0.074 A 
ATOM     47  C   UNL A   1      41.907  32.147  29.685  1.00  0.00     0.049 A 
ATOM     48  N   UNL A   1      40.395  34.296  31.793  1.00  0.00    -0.248 NA
ATOM     49  C   UNL A   1      39.081  33.752  29.948  1.00  0.00     0.031 C 
ATOM     50  C   UNL A   1      43.143  31.476  29.231  1.00  0.00     0.029 A 
ATOM     51  N   UNL A   1      41.068  30.950  29.819  1.00  0.00    -0.354 N 
ATOM     52  C   UNL A   1      39.086  34.446  32.163  1.00  0.00     0.074 A 
ATOM     53  C   UNL A   1      38.344  34.315  30.914  1.00  0.00     0.031 C 
ATOM     54  C   UNL A   1      42.969  30.135  28.992  1.00  0.00     0.029 A 
ATOM     55  C   UNL A   1      41.608  29.684  29.308  1.00  0.00     0.049 A 
ATOM     56  H   UNL A   1      40.178  30.994  30.236  1.00  0.00     0.167 HD
ATOM     57  C   UNL A   1      38.761  33.986  33.405  1.00  0.00     0.031 A 
ATOM     58  C   UNL A   1      41.083  28.372  29.220  1.00  0.00     0.031 A 
ATOM     59  C   UNL A   1      38.064  32.728  33.340  1.00  0.00     0.049 A 
ATOM     60  C   UNL A   1      40.066  28.265  30.277  1.00  0.00     0.074 A 
ATOM     61  C   UNL A   1      37.062  32.238  32.524  1.00  0.00     0.029 A 
ATOM     62  N   UNL A   1      38.718  31.632  33.868  1.00  0.00    -0.354 N 
ATOM     63  N   UNL A   1      40.403  28.089  31.518  1.00  0.00    -0.248 NA
ATOM     64  C   UNL A   1      38.634  28.192  30.005  1.00  0.00     0.031 C 
ATOM     65  C   UNL A   1      37.491  30.939  32.176  1.00  0.00     0.029 A 
ATOM     66  C   UNL A   1      38.499  30.545  33.048  1.00  0.00     0.049 A 
ATOM     67  H   UNL A   1      39.254  31.627  34.694  1.00  0.00     0.167 HD
ATOM     68  C   UNL A   1      39.279  28.459  32.188  1.00  0.00     0.074 A 
ATOM     69  C   UNL A   1      38.186  28.224  31.261  1.00  0.00     0.031 C 
ATOM     70  C   UNL A   1      39.423  29.440  33.114  1.00  0.00     0.031 A 
BRANCH  57  71
ATOM     71  C   UNL A   1      39.764  34.316  34.487  1.00  0.00    -0.014 A 
ATOM     72  C   UNL A   1      39.653  35.527  35.181  1.00  0.00     0.010 A 
ATOM     73  C   UNL A   1      40.873  33.481  34.766  1.00  0.00     0.010 A 
ATOM     74  C   UNL A   1      40.660  35.922  36.072  1.00  0.00     0.020 A 
ATOM     75  C   UNL A   1      41.896  33.885  35.624  1.00  0.00     0.020 A 
ATOM     76  C   UNL A   1      41.787  35.113  36.268  1.00  0.00     0.054 A 
BRANCH  76  77
ATOM     77  S   UNL A   1      43.138  35.733  37.306  1.00  0.00     0.124 S 
ATOM     78  O   UNL A   1      42.793  37.146  37.465  1.00  0.00    -0.237 OA
ATOM     79  O   UNL A   1      42.994  34.925  38.513  1.00  0.00    -0.237 OA
ATOM     80  O   UNL A   1      44.339  35.492  36.511  1.00  0.00    -0.744 OA
ENDBRANCH  76  77
ENDBRANCH  57  71
BRANCH  58  81
ATOM     81  C   UNL A   1      41.254  26.893  28.627  1.00  0.00    -0.014 A 
ATOM     82  C   UNL A   1      40.817  26.588  27.280  1.00  0.00     0.010 A 
ATOM     83  C   UNL A   1      42.171  25.948  29.126  1.00  0.00     0.010 A 
ATOM     84  C   UNL A   1      41.327  25.529  26.471  1.00  0.00     0.020 A 
ATOM     85  C   UNL A   1      42.674  24.855  28.327  1.00  0.00     0.020 A 
ATOM     86  C   UNL A   1      42.283  24.673  26.993  1.00  0.00     0.054 A 
BRANCH  86  87
ATOM     87  S   UNL A   1      43.096  23.438  25.891  1.00  0.00     0.124 S 
ATOM     88  O   UNL A   1      42.069  22.414  25.721  1.00  0.00    -0.237 OA
ATOM     89  O   UNL A   1      43.402  24.219  24.693  1.00  0.00    -0.237 OA
ATOM     90  O   UNL A   1      44.269  23.015  26.654  1.00  0.00    -0.744 OA
ENDBRANCH  86  87
ENDBRANCH  58  81
BRANCH  70  91
ATOM     91  C   UNL A   1      40.701  29.432  33.939  1.00  0.00    -0.014 A 
ATOM     92  C   UNL A   1      40.849  28.781  35.187  1.00  0.00     0.010 A 
ATOM     93  C   UNL A   1      41.800  30.163  33.459  1.00  0.00     0.010 A 
ATOM     94  C   UNL A   1      42.008  28.925  35.961  1.00  0.00     0.020 A 
ATOM     95  C   UNL A   1      42.981  30.274  34.207  1.00  0.00     0.020 A 
ATOM     96  C   UNL A   1      43.065  29.686  35.470  1.00  0.00     0.054 A 
BRANCH  96  97
ATOM     97  S   UNL A   1      44.540  29.916  36.503  1.00  0.00     0.124 S 
ATOM     98  O   UNL A   1      44.144  29.269  37.753  1.00  0.00    -0.237 OA
ATOM     99  O   UNL A   1      45.580  29.222  35.749  1.00  0.00    -0.237 OA
ATOM    100  O   UNL A   1      44.680  31.368  36.584  1.00  0.00    -0.744 OA
ENDBRANCH  96  97
ENDBRANCH  70  91
ENDBRANCH  44  45
ENDBRANCH  37  39
ENDBRANCH  36  37
ENDBRANCH   1  36
TORSDOF 18
ENDMDL
MODEL 3
REMARK VINA RESULT:     -11.4      5.955     10.649
REMARK SMILES Cc1cc(/C=C2\C(=O)N(Cc3ccco3)C(=O)N=C2OCCOC(=O)c2ccc(-c3c4nc(c(-c5ccc(S(=O)(=O)[O-])cc5)c5ccc([nH]5)c(-c5ccc(S(=O)(=O)[O-])cc5)c5nc(c(-c6ccc(S(=O)(=O)[O-])cc6)c6ccc3[nH]6)C=C5)C=C4)cc2)c(C)n1-c1ccc(Cl)c(C(=O)[O-])c1
REMARK SMILES IDX 22 1 21 2 20 3 19 4 5 5 6 6 7 7 8 8 9 9 18 10 16 11 17 12
REMARK SMILES IDX 4 13 1 14 2 15 3 16 88 17 86 18 87 19 89 20 90 21 98 22
REMARK SMILES IDX 91 23 94 24 92 25 93 26 95 27 96 28 97 29 10 30 11 31 12 32
REMARK SMILES IDX 15 33 13 34 14 35 23 36 24 37 25 38 26 39 27 40 85 41 28 42
REMARK SMILES IDX 84 43 29 44 30 45 31 46 78 47 32 48 83 49 77 50 79 51 33 52
REMARK SMILES IDX 82 53 76 54 75 55 34 57 64 58 45 59 63 60 46 61 49 62 62 63
REMARK SMILES IDX 80 64 47 65 48 66 61 68 81 69 50 70 35 71 36 72 44 73 37 74
REMARK SMILES IDX 43 75 38 76 39 77 40 78 41 79 42 80 65 81 66 82 74 83 67 84
REMARK SMILES IDX 73 85 68 86 69 87 70 88 71 89 72 90 51 91 52 92 60 93 53 94
REMARK SMILES IDX 59 95 54 96 55 97 56 98 57 99 58 100
REMARK H PARENT 79 56 49 67
REMARK Flexibility Score: inf
ROOT
ATOM      1  C   UNL A   1      43.845  37.670  32.547  1.00  0.00     0.274 C 
ENDROOT
BRANCH   1   2
ATOM      2  C   UNL A   1      43.396  37.124  33.967  1.00  0.00     0.273 C 
BRANCH   2   3
ATOM      3  O   UNL A   1      43.625  35.653  34.149  1.00  0.00    -0.473 OA
BRANCH   3   4
ATOM      4  C   UNL A   1      42.693  35.056  34.925  1.00  0.00     0.231 C 
ATOM      5  C   UNL A   1      41.034  33.977  33.326  1.00  0.00     0.029 C 
ATOM      6  C   UNL A   1      41.353  34.781  34.375  1.00  0.00     0.103 C 
ATOM      7  C   UNL A   1      40.340  35.319  35.308  1.00  0.00     0.267 C 
ATOM      8  O   UNL A   1      39.367  35.943  34.905  1.00  0.00    -0.268 OA
ATOM      9  N   UNL A   1      40.657  35.087  36.645  1.00  0.00    -0.250 N 
ATOM     10  N   UNL A   1      42.970  34.973  36.175  1.00  0.00    -0.156 NA
ATOM     11  C   UNL A   1      41.970  34.980  37.078  1.00  0.00     0.354 C 
ATOM     12  O   UNL A   1      42.308  35.045  38.264  1.00  0.00    -0.245 OA
BRANCH   5  13
ATOM     13  C   UNL A   1      39.734  33.498  32.847  1.00  0.00    -0.003 A 
ATOM     14  C   UNL A   1      36.379  31.795  33.187  1.00  0.00     0.065 C 
ATOM     15  C   UNL A   1      37.646  32.508  32.847  1.00  0.00     0.020 A 
ATOM     16  C   UNL A   1      38.760  32.791  33.633  1.00  0.00     0.031 A 
ATOM     17  N   UNL A   1      37.945  32.947  31.573  1.00  0.00    -0.318 N 
ATOM     18  C   UNL A   1      39.096  33.732  31.632  1.00  0.00     0.027 A 
ATOM     19  C   UNL A   1      39.398  34.649  30.491  1.00  0.00     0.065 C 
BRANCH  17  20
ATOM     20  C   UNL A   1      37.174  32.775  30.390  1.00  0.00     0.046 A 
ATOM     21  C   UNL A   1      36.037  33.571  30.220  1.00  0.00     0.028 A 
ATOM     22  C   UNL A   1      37.391  31.659  29.575  1.00  0.00     0.038 A 
ATOM     23  C   UNL A   1      35.096  33.229  29.251  1.00  0.00     0.023 A 
ATOM     24  C   UNL A   1      36.417  31.282  28.624  1.00  0.00     0.018 A 
ATOM     25  C   UNL A   1      35.266  32.078  28.469  1.00  0.00     0.050 A 
ATOM     26  Cl  UNL A   1      33.970  31.708  27.385  1.00  0.00    -0.084 Cl
BRANCH  24  27
ATOM     27  C   UNL A   1      36.588  30.005  27.872  1.00  0.00     0.073 C 
ATOM     28  O   UNL A   1      35.735  29.229  27.480  1.00  0.00    -0.545 OA
ATOM     29  O   UNL A   1      37.885  29.712  27.649  1.00  0.00    -0.545 OA
ENDBRANCH  24  27
ENDBRANCH  17  20
ENDBRANCH   5  13
BRANCH   9  30
ATOM     30  C   UNL A   1      39.627  35.395  37.625  1.00  0.00     0.206 C 
BRANCH  30  31
ATOM     31  C   UNL A   1      38.840  34.189  38.022  1.00  0.00     0.123 A 
ATOM     32  C   UNL A   1      38.188  33.220  37.283  1.00  0.00     0.047 A 
ATOM     33  O   UNL A   1      38.672  33.942  39.355  1.00  0.00    -0.467 OA
ATOM     34  C   UNL A   1      37.549  32.366  38.201  1.00  0.00     0.042 A 
ATOM     35  C   UNL A   1      37.899  32.824  39.449  1.00  0.00     0.195 A 
ENDBRANCH  30  31
ENDBRANCH   9  30
ENDBRANCH   3   4
ENDBRANCH   2   3
ENDBRANCH   1   2
BRANCH   1  36
ATOM     36  O   UNL A   1      44.477  36.788  31.503  1.00  0.00    -0.458 OA
BRANCH  36  37
ATOM     37  C   UNL A   1      43.766  36.570  30.320  1.00  0.00     0.338 C 
ATOM     38  O   UNL A   1      43.328  37.520  29.677  1.00  0.00    -0.246 OA
BRANCH  37  39
ATOM     39  C   UNL A   1      43.603  35.105  29.743  1.00  0.00     0.060 A 
ATOM     40  C   UNL A   1      44.095  34.031  30.482  1.00  0.00     0.016 A 
ATOM     41  C   UNL A   1      43.293  34.724  28.411  1.00  0.00     0.016 A 
ATOM     42  C   UNL A   1      44.183  32.669  29.953  1.00  0.00     0.010 A 
ATOM     43  C   UNL A   1      43.443  33.324  27.851  1.00  0.00     0.010 A 
ATOM     44  C   UNL A   1      43.887  32.216  28.605  1.00  0.00    -0.014 A 
BRANCH  44  45
ATOM     45  C   UNL A   1      44.488  30.696  28.127  1.00  0.00     0.031 A 
ATOM     46  C   UNL A   1      43.221  29.956  27.869  1.00  0.00     0.074 A 
ATOM     47  C   UNL A   1      45.611  29.831  27.988  1.00  0.00     0.049 A 
ATOM     48  N   UNL A   1      42.349  29.847  28.827  1.00  0.00    -0.248 NA
ATOM     49  C   UNL A   1      42.699  29.674  26.530  1.00  0.00     0.031 C 
ATOM     50  C   UNL A   1      47.019  30.077  28.369  1.00  0.00     0.029 A 
ATOM     51  N   UNL A   1      45.782  28.472  27.461  1.00  0.00    -0.354 N 
ATOM     52  C   UNL A   1      41.265  29.205  28.293  1.00  0.00     0.074 A 
ATOM     53  C   UNL A   1      41.443  29.337  26.852  1.00  0.00     0.031 C 
ATOM     54  C   UNL A   1      47.866  29.075  27.964  1.00  0.00     0.029 A 
ATOM     55  C   UNL A   1      47.155  27.973  27.306  1.00  0.00     0.049 A 
ATOM     56  H   UNL A   1      45.007  27.916  27.221  1.00  0.00     0.167 HD
ATOM     57  C   UNL A   1      40.792  28.142  29.004  1.00  0.00     0.031 A 
ATOM     58  C   UNL A   1      47.695  26.768  26.797  1.00  0.00     0.031 A 
ATOM     59  C   UNL A   1      41.180  26.890  28.408  1.00  0.00     0.049 A 
ATOM     60  C   UNL A   1      46.648  25.748  26.957  1.00  0.00     0.074 A 
ATOM     61  C   UNL A   1      41.228  26.433  27.105  1.00  0.00     0.029 A 
ATOM     62  N   UNL A   1      42.047  26.102  29.139  1.00  0.00    -0.354 N 
ATOM     63  N   UNL A   1      46.411  25.201  28.110  1.00  0.00    -0.248 NA
ATOM     64  C   UNL A   1      45.916  25.171  25.833  1.00  0.00     0.031 C 
ATOM     65  C   UNL A   1      42.478  25.784  27.003  1.00  0.00     0.029 A 
ATOM     66  C   UNL A   1      42.968  25.540  28.280  1.00  0.00     0.049 A 
ATOM     67  H   UNL A   1      42.015  25.965  30.114  1.00  0.00     0.167 HD
ATOM     68  C   UNL A   1      45.167  24.676  27.942  1.00  0.00     0.074 A 
ATOM     69  C   UNL A   1      45.048  24.423  26.517  1.00  0.00     0.031 C 
ATOM     70  C   UNL A   1      44.219  25.075  28.826  1.00  0.00     0.031 A 
BRANCH  57  71
ATOM     71  C   UNL A   1      40.725  28.356  30.500  1.00  0.00    -0.014 A 
ATOM     72  C   UNL A   1      39.558  28.880  31.067  1.00  0.00     0.010 A 
ATOM     73  C   UNL A   1      41.839  28.130  31.342  1.00  0.00     0.010 A 
ATOM     74  C   UNL A   1      39.532  29.235  32.423  1.00  0.00     0.020 A 
ATOM     75  C   UNL A   1      41.832  28.513  32.684  1.00  0.00     0.020 A 
ATOM     76  C   UNL A   1      40.676  29.075  33.216  1.00  0.00     0.054 A 
BRANCH  76  77
ATOM     77  S   UNL A   1      40.651  29.691  34.921  1.00  0.00     0.124 S 
ATOM     78  O   UNL A   1      39.232  29.977  35.133  1.00  0.00    -0.237 OA
ATOM     79  O   UNL A   1      41.166  28.548  35.669  1.00  0.00    -0.237 OA
ATOM     80  O   UNL A   1      41.505  30.874  34.886  1.00  0.00    -0.744 OA
ENDBRANCH  76  77
ENDBRANCH  57  71
BRANCH  58  81
ATOM     81  C   UNL A   1      49.008  25.975  26.329  1.00  0.00    -0.014 A 
ATOM     82  C   UNL A   1      49.645  26.295  25.068  1.00  0.00     0.010 A 
ATOM     83  C   UNL A   1      49.861  25.281  27.207  1.00  0.00     0.010 A 
ATOM     84  C   UNL A   1      51.019  26.059  24.759  1.00  0.00     0.020 A 
ATOM     85  C   UNL A   1      51.245  25.010  26.894  1.00  0.00     0.020 A 
ATOM     86  C   UNL A   1      51.829  25.435  25.693  1.00  0.00     0.054 A 
BRANCH  86  87
ATOM     87  S   UNL A   1      53.644  25.316  25.387  1.00  0.00     0.124 S 
ATOM     88  O   UNL A   1      53.809  23.956  24.881  1.00  0.00    -0.237 OA
ATOM     89  O   UNL A   1      53.882  26.377  24.410  1.00  0.00    -0.237 OA
ATOM     90  O   UNL A   1      54.232  25.560  26.703  1.00  0.00    -0.744 OA
ENDBRANCH  86  87
ENDBRANCH  58  81
BRANCH  70  91
ATOM     91  C   UNL A   1      44.656  25.269  30.270  1.00  0.00    -0.014 A 
ATOM     92  C   UNL A   1      44.570  24.279  31.277  1.00  0.00     0.010 A 
ATOM     93  C   UNL A   1      45.131  26.536  30.651  1.00  0.00     0.010 A 
ATOM     94  C   UNL A   1      44.861  24.563  32.619  1.00  0.00     0.020 A 
ATOM     95  C   UNL A   1      45.468  26.815  31.982  1.00  0.00     0.020 A 
ATOM     96  C   UNL A   1      45.296  25.839  32.965  1.00  0.00     0.054 A 
BRANCH  96  97
ATOM     97  S   UNL A   1      45.615  26.216  34.712  1.00  0.00     0.124 S 
ATOM     98  O   UNL A   1      46.934  25.620  34.920  1.00  0.00    -0.237 OA
ATOM     99  O   UNL A   1      45.584  27.676  34.743  1.00  0.00    -0.237 OA
ATOM    100  O   UNL A   1      44.523  25.546  35.414  1.00  0.00    -0.744 OA
ENDBRANCH  96  97
ENDBRANCH  70  91
ENDBRANCH  44  45
ENDBRANCH  37  39
ENDBRANCH  36  37
ENDBRANCH   1  36
TORSDOF 18
ENDMDL
