MODEL 1
REMARK VINA RESULT:     -10.5      0.000      0.000
REMARK SMILES COc1cc([C@@H]2CC(=O)Nc3c(C(=O)OCCOC(=O)c4ccc(-c5c6nc(c(-c7ccc(S(=O)(=O)[O-])cc7)c7ccc([nH]7)c(-c7ccc(S(=O)(=O)[O-])cc7)c7nc(c(-c8ccc(S(=O)(=O)[O-])cc8)c8ccc5[nH]8)C=C7)C=C6)cc4)cn(-c4ccc(F)cc4)c32)c(OC)c2c1OCO2
REMARK SMILES IDX 17 1 16 2 15 3 13 4 14 5 12 6 6 7 7 8 90 9 8 10 11 11 82 12
REMARK SMILES IDX 9 13 10 14 81 15 5 17 3 18 4 19 95 20 94 21 96 22 91 23
REMARK SMILES IDX 98 24 97 25 2 26 1 27 92 28 93 29 83 30 84 31 89 32 85 33
REMARK SMILES IDX 88 34 86 35 87 36 18 37 19 38 20 39 21 40 22 41 80 42 23 43
REMARK SMILES IDX 79 44 24 45 25 46 26 47 73 48 27 49 78 50 72 51 74 52 28 53
REMARK SMILES IDX 77 54 71 55 70 56 29 58 59 59 40 60 58 61 41 62 44 63 57 64
REMARK SMILES IDX 75 65 42 66 43 67 56 69 76 70 45 71 30 72 31 73 39 74 32 75
REMARK SMILES IDX 38 76 33 77 34 78 35 79 36 80 37 81 60 82 61 83 69 84 62 85
REMARK SMILES IDX 68 86 63 87 64 88 65 89 66 90 67 91 46 92 47 93 55 94 48 95
REMARK SMILES IDX 54 96 49 97 50 98 51 99 52 100 53 101
REMARK H PARENT 10 16 74 57 44 68
REMARK Flexibility Score: inf
ROOT
ATOM      1  C   UNL A   1      53.033  22.493  33.434  1.00  0.00     0.275 C 
ENDROOT
BRANCH   1   2
ATOM      2  C   UNL A   1      53.403  21.085  32.984  1.00  0.00     0.275 C 
BRANCH   2   3
ATOM      3  O   UNL A   1      52.299  20.179  33.135  1.00  0.00    -0.458 OA
BRANCH   3   4
ATOM      4  C   UNL A   1      52.195  19.545  34.345  1.00  0.00     0.341 C 
ATOM      5  O   UNL A   1      53.076  18.848  34.840  1.00  0.00    -0.246 OA
BRANCH   4   6
ATOM      6  C   UNL A   1      50.926  19.808  34.999  1.00  0.00     0.102 A 
ATOM      7  C   UNL A   1      48.768  20.393  37.941  1.00  0.00     0.082 C 
ATOM      8  C   UNL A   1      49.361  19.337  38.895  1.00  0.00     0.115 C 
ATOM      9  C   UNL A   1      49.360  20.216  36.576  1.00  0.00     0.055 A 
ATOM     10  C   UNL A   1      50.833  19.016  38.671  1.00  0.00     0.225 C 
ATOM     11  C   UNL A   1      50.579  19.621  36.353  1.00  0.00     0.078 A 
ATOM     12  N   UNL A   1      48.821  20.546  35.349  1.00  0.00    -0.317 N 
ATOM     13  O   UNL A   1      51.557  18.626  39.589  1.00  0.00    -0.275 OA
ATOM     14  N   UNL A   1      51.304  19.073  37.384  1.00  0.00    -0.324 N 
ATOM     15  C   UNL A   1      49.771  20.279  34.384  1.00  0.00     0.109 A 
ATOM     16  H   UNL A   1      52.198  18.708  37.190  1.00  0.00     0.170 HD
BRANCH   7  17
ATOM     17  C   UNL A   1      48.919  21.819  38.493  1.00  0.00     0.012 A 
ATOM     18  C   UNL A   1      50.489  23.554  39.248  1.00  0.00     0.165 A 
ATOM     19  C   UNL A   1      50.239  22.330  38.624  1.00  0.00     0.059 A 
ATOM     20  C   UNL A   1      49.404  24.313  39.636  1.00  0.00     0.211 A 
ATOM     21  C   UNL A   1      48.109  23.862  39.469  1.00  0.00     0.211 A 
ATOM     22  O   UNL A   1      49.448  25.555  40.198  1.00  0.00    -0.449 OA
ATOM     23  C   UNL A   1      47.830  22.620  38.917  1.00  0.00     0.168 A 
ATOM     24  O   UNL A   1      47.203  24.774  39.928  1.00  0.00    -0.449 OA
ATOM     25  C   UNL A   1      48.052  25.870  40.290  1.00  0.00     0.468 C 
BRANCH  18  26
ATOM     26  O   UNL A   1      51.797  23.910  39.401  1.00  0.00    -0.493 OA
ATOM     27  C   UNL A   1      52.684  23.121  38.609  1.00  0.00     0.278 C 
ENDBRANCH  18  26
BRANCH  23  28
ATOM     28  O   UNL A   1      46.589  22.089  38.759  1.00  0.00    -0.492 OA
ATOM     29  C   UNL A   1      45.832  21.685  39.887  1.00  0.00     0.278 C 
ENDBRANCH  23  28
ENDBRANCH   7  17
BRANCH  12  30
ATOM     30  C   UNL A   1      47.539  21.080  35.097  1.00  0.00     0.046 A 
ATOM     31  C   UNL A   1      47.384  22.464  34.979  1.00  0.00     0.029 A 
ATOM     32  C   UNL A   1      46.431  20.229  35.014  1.00  0.00     0.029 A 
ATOM     33  C   UNL A   1      46.108  23.013  34.872  1.00  0.00     0.041 A 
ATOM     34  C   UNL A   1      45.154  20.787  34.904  1.00  0.00     0.041 A 
ATOM     35  C   UNL A   1      45.003  22.171  34.852  1.00  0.00     0.123 A 
ATOM     36  F   UNL A   1      43.777  22.704  34.781  1.00  0.00    -0.207 F 
ENDBRANCH  12  30
ENDBRANCH   4   6
ENDBRANCH   3   4
ENDBRANCH   2   3
ENDBRANCH   1   2
BRANCH   1  37
ATOM     37  O   UNL A   1      51.824  22.924  32.816  1.00  0.00    -0.458 OA
BRANCH  37  38
ATOM     38  C   UNL A   1      51.056  23.747  33.566  1.00  0.00     0.338 C 
ATOM     39  O   UNL A   1      50.767  23.610  34.743  1.00  0.00    -0.246 OA
BRANCH  38  40
ATOM     40  C   UNL A   1      50.440  24.750  32.696  1.00  0.00     0.060 A 
ATOM     41  C   UNL A   1      49.060  24.939  32.814  1.00  0.00     0.016 A 
ATOM     42  C   UNL A   1      51.166  25.227  31.596  1.00  0.00     0.016 A 
ATOM     43  C   UNL A   1      48.376  25.431  31.725  1.00  0.00     0.010 A 
ATOM     44  C   UNL A   1      50.481  25.700  30.506  1.00  0.00     0.010 A 
ATOM     45  C   UNL A   1      49.092  25.715  30.556  1.00  0.00    -0.014 A 
BRANCH  45  46
ATOM     46  C   UNL A   1      48.354  26.130  29.384  1.00  0.00     0.031 A 
ATOM     47  C   UNL A   1      47.253  27.061  29.706  1.00  0.00     0.074 A 
ATOM     48  C   UNL A   1      48.726  25.794  28.135  1.00  0.00     0.049 A 
ATOM     49  N   UNL A   1      45.988  26.819  29.652  1.00  0.00    -0.248 NA
ATOM     50  C   UNL A   1      47.596  28.342  30.347  1.00  0.00     0.031 C 
ATOM     51  C   UNL A   1      49.956  25.128  27.695  1.00  0.00     0.029 A 
ATOM     52  N   UNL A   1      48.114  26.100  26.964  1.00  0.00    -0.354 N 
ATOM     53  C   UNL A   1      45.366  27.998  30.044  1.00  0.00     0.074 A 
ATOM     54  C   UNL A   1      46.388  28.816  30.645  1.00  0.00     0.031 C 
ATOM     55  C   UNL A   1      50.110  25.323  26.363  1.00  0.00     0.029 A 
ATOM     56  C   UNL A   1      48.933  26.003  25.846  1.00  0.00     0.049 A 
ATOM     57  H   UNL A   1      47.169  26.368  26.911  1.00  0.00     0.167 HD
ATOM     58  C   UNL A   1      44.117  28.315  29.612  1.00  0.00     0.031 A 
ATOM     59  C   UNL A   1      48.680  26.538  24.622  1.00  0.00     0.031 A 
ATOM     60  C   UNL A   1      43.456  27.185  29.016  1.00  0.00     0.049 A 
ATOM     61  C   UNL A   1      47.218  26.806  24.558  1.00  0.00     0.074 A 
ATOM     62  C   UNL A   1      43.077  25.935  29.465  1.00  0.00     0.029 A 
ATOM     63  N   UNL A   1      43.466  27.113  27.642  1.00  0.00    -0.354 N 
ATOM     64  N   UNL A   1      46.318  25.863  24.557  1.00  0.00    -0.248 NA
ATOM     65  C   UNL A   1      46.744  28.116  24.983  1.00  0.00     0.031 C 
ATOM     66  C   UNL A   1      43.344  25.059  28.373  1.00  0.00     0.029 A 
ATOM     67  C   UNL A   1      43.794  25.827  27.298  1.00  0.00     0.049 A 
ATOM     68  H   UNL A   1      43.276  27.851  27.019  1.00  0.00     0.167 HD
ATOM     69  C   UNL A   1      45.311  26.331  25.389  1.00  0.00     0.074 A 
ATOM     70  C   UNL A   1      45.587  27.759  25.551  1.00  0.00     0.031 C 
ATOM     71  C   UNL A   1      44.522  25.471  26.099  1.00  0.00     0.031 A 
BRANCH  58  72
ATOM     72  C   UNL A   1      43.667  29.728  29.354  1.00  0.00    -0.014 A 
ATOM     73  C   UNL A   1      44.184  30.406  28.234  1.00  0.00     0.010 A 
ATOM     74  C   UNL A   1      42.983  30.501  30.316  1.00  0.00     0.010 A 
ATOM     75  C   UNL A   1      44.079  31.797  28.118  1.00  0.00     0.020 A 
ATOM     76  C   UNL A   1      42.834  31.881  30.189  1.00  0.00     0.020 A 
ATOM     77  C   UNL A   1      43.413  32.525  29.105  1.00  0.00     0.054 A 
BRANCH  77  78
ATOM     78  S   UNL A   1      43.369  34.329  28.992  1.00  0.00     0.124 S 
ATOM     79  O   UNL A   1      42.039  34.630  29.511  1.00  0.00    -0.237 OA
ATOM     80  O   UNL A   1      44.488  34.717  29.846  1.00  0.00    -0.237 OA
ATOM     81  O   UNL A   1      43.561  34.587  27.567  1.00  0.00    -0.744 OA
ENDBRANCH  77  78
ENDBRANCH  58  72
BRANCH  59  82
ATOM     82  C   UNL A   1      49.648  27.190  23.697  1.00  0.00    -0.014 A 
ATOM     83  C   UNL A   1      49.323  27.396  22.342  1.00  0.00     0.010 A 
ATOM     84  C   UNL A   1      50.763  27.883  24.211  1.00  0.00     0.010 A 
ATOM     85  C   UNL A   1      50.032  28.325  21.558  1.00  0.00     0.020 A 
ATOM     86  C   UNL A   1      51.479  28.803  23.435  1.00  0.00     0.020 A 
ATOM     87  C   UNL A   1      51.090  29.043  22.120  1.00  0.00     0.054 A 
BRANCH  87  88
ATOM     88  S   UNL A   1      51.855  30.401  21.182  1.00  0.00     0.124 S 
ATOM     89  O   UNL A   1      52.165  31.368  22.229  1.00  0.00    -0.237 OA
ATOM     90  O   UNL A   1      53.004  29.750  20.560  1.00  0.00    -0.237 OA
ATOM     91  O   UNL A   1      50.802  30.810  20.251  1.00  0.00    -0.744 OA
ENDBRANCH  87  88
ENDBRANCH  59  82
BRANCH  71  92
ATOM     92  C   UNL A   1      44.560  24.002  25.749  1.00  0.00    -0.014 A 
ATOM     93  C   UNL A   1      43.550  23.326  25.032  1.00  0.00     0.010 A 
ATOM     94  C   UNL A   1      45.744  23.306  26.050  1.00  0.00     0.010 A 
ATOM     95  C   UNL A   1      43.707  21.978  24.673  1.00  0.00     0.020 A 
ATOM     96  C   UNL A   1      45.915  21.973  25.677  1.00  0.00     0.020 A 
ATOM     97  C   UNL A   1      44.889  21.309  25.006  1.00  0.00     0.054 A 
BRANCH  97  98
ATOM     98  S   UNL A   1      45.095  19.566  24.543  1.00  0.00     0.124 S 
ATOM     99  O   UNL A   1      44.588  19.541  23.174  1.00  0.00    -0.237 OA
ATOM    100  O   UNL A   1      46.535  19.359  24.687  1.00  0.00    -0.237 OA
ATOM    101  O   UNL A   1      44.275  18.848  25.519  1.00  0.00    -0.744 OA
ENDBRANCH  97  98
ENDBRANCH  71  92
ENDBRANCH  45  46
ENDBRANCH  38  40
ENDBRANCH  37  38
ENDBRANCH   1  37
TORSDOF 18
ENDMDL
MODEL 2
REMARK VINA RESULT:     -10.3      5.244     11.444
REMARK SMILES COc1cc([C@@H]2CC(=O)Nc3c(C(=O)OCCOC(=O)c4ccc(-c5c6nc(c(-c7ccc(S(=O)(=O)[O-])cc7)c7ccc([nH]7)c(-c7ccc(S(=O)(=O)[O-])cc7)c7nc(c(-c8ccc(S(=O)(=O)[O-])cc8)c8ccc5[nH]8)C=C7)C=C6)cc4)cn(-c4ccc(F)cc4)c32)c(OC)c2c1OCO2
REMARK SMILES IDX 17 1 16 2 15 3 13 4 14 5 12 6 6 7 7 8 90 9 8 10 11 11 82 12
REMARK SMILES IDX 9 13 10 14 81 15 5 17 3 18 4 19 95 20 94 21 96 22 91 23
REMARK SMILES IDX 98 24 97 25 2 26 1 27 92 28 93 29 83 30 84 31 89 32 85 33
REMARK SMILES IDX 88 34 86 35 87 36 18 37 19 38 20 39 21 40 22 41 80 42 23 43
REMARK SMILES IDX 79 44 24 45 25 46 26 47 73 48 27 49 78 50 72 51 74 52 28 53
REMARK SMILES IDX 77 54 71 55 70 56 29 58 59 59 40 60 58 61 41 62 44 63 57 64
REMARK SMILES IDX 75 65 42 66 43 67 56 69 76 70 45 71 30 72 31 73 39 74 32 75
REMARK SMILES IDX 38 76 33 77 34 78 35 79 36 80 37 81 60 82 61 83 69 84 62 85
REMARK SMILES IDX 68 86 63 87 64 88 65 89 66 90 67 91 46 92 47 93 55 94 48 95
REMARK SMILES IDX 54 96 49 97 50 98 51 99 52 100 53 101
REMARK H PARENT 10 16 74 57 44 68
REMARK Flexibility Score: inf
ROOT
ATOM      1  C   UNL A   1      41.280  31.882  36.665  1.00  0.00     0.275 C 
ENDROOT
BRANCH   1   2
ATOM      2  C   UNL A   1      42.281  32.717  35.877  1.00  0.00     0.275 C 
BRANCH   2   3
ATOM      3  O   UNL A   1      41.627  33.505  34.869  1.00  0.00    -0.458 OA
BRANCH   3   4
ATOM      4  C   UNL A   1      41.819  33.112  33.571  1.00  0.00     0.341 C 
ATOM      5  O   UNL A   1      42.819  33.372  32.908  1.00  0.00    -0.246 OA
BRANCH   4   6
ATOM      6  C   UNL A   1      40.710  32.322  33.064  1.00  0.00     0.102 A 
ATOM      7  C   UNL A   1      37.129  31.619  32.487  1.00  0.00     0.082 C 
ATOM      8  C   UNL A   1      36.572  32.031  33.864  1.00  0.00     0.115 C 
ATOM      9  C   UNL A   1      38.627  31.627  32.535  1.00  0.00     0.055 A 
ATOM     10  C   UNL A   1      37.367  33.112  34.586  1.00  0.00     0.225 C 
ATOM     11  C   UNL A   1      39.349  32.383  33.427  1.00  0.00     0.078 A 
ATOM     12  N   UNL A   1      39.521  30.895  31.781  1.00  0.00    -0.317 N 
ATOM     13  O   UNL A   1      36.832  33.882  35.386  1.00  0.00    -0.275 OA
ATOM     14  N   UNL A   1      38.725  33.131  34.398  1.00  0.00    -0.324 N 
ATOM     15  C   UNL A   1      40.795  31.307  32.118  1.00  0.00     0.109 A 
ATOM     16  H   UNL A   1      39.276  33.702  34.980  1.00  0.00     0.170 HD
BRANCH   7  17
ATOM     17  C   UNL A   1      36.548  32.474  31.349  1.00  0.00     0.012 A 
ATOM     18  C   UNL A   1      37.054  33.851  29.377  1.00  0.00     0.165 A 
ATOM     19  C   UNL A   1      37.456  32.951  30.366  1.00  0.00     0.059 A 
ATOM     20  C   UNL A   1      35.715  34.180  29.312  1.00  0.00     0.211 A 
ATOM     21  C   UNL A   1      34.804  33.686  30.223  1.00  0.00     0.211 A 
ATOM     22  O   UNL A   1      35.128  34.987  28.382  1.00  0.00    -0.449 OA
ATOM     23  C   UNL A   1      35.184  32.846  31.260  1.00  0.00     0.168 A 
ATOM     24  O   UNL A   1      33.545  34.149  29.968  1.00  0.00    -0.449 OA
ATOM     25  C   UNL A   1      33.747  34.882  28.753  1.00  0.00     0.468 C 
BRANCH  18  26
ATOM     26  O   UNL A   1      38.023  34.315  28.536  1.00  0.00    -0.493 OA
ATOM     27  C   UNL A   1      39.264  34.556  29.198  1.00  0.00     0.278 C 
ENDBRANCH  18  26
BRANCH  23  28
ATOM     28  O   UNL A   1      34.357  32.354  32.219  1.00  0.00    -0.492 OA
ATOM     29  C   UNL A   1      33.758  33.222  33.165  1.00  0.00     0.278 C 
ENDBRANCH  23  28
ENDBRANCH   7  17
BRANCH  12  30
ATOM     30  C   UNL A   1      39.218  29.909  30.818  1.00  0.00     0.046 A 
ATOM     31  C   UNL A   1      38.953  28.602  31.234  1.00  0.00     0.029 A 
ATOM     32  C   UNL A   1      39.231  30.235  29.456  1.00  0.00     0.029 A 
ATOM     33  C   UNL A   1      38.793  27.591  30.290  1.00  0.00     0.041 A 
ATOM     34  C   UNL A   1      39.067  29.216  28.514  1.00  0.00     0.041 A 
ATOM     35  C   UNL A   1      38.868  27.903  28.938  1.00  0.00     0.123 A 
ATOM     36  F   UNL A   1      38.745  26.924  28.033  1.00  0.00    -0.207 F 
ENDBRANCH  12  30
ENDBRANCH   4   6
ENDBRANCH   3   4
ENDBRANCH   2   3
ENDBRANCH   1   2
BRANCH   1  37
ATOM     37  O   UNL A   1      41.615  30.499  36.610  1.00  0.00    -0.458 OA
BRANCH  37  38
ATOM     38  C   UNL A   1      40.926  29.775  35.699  1.00  0.00     0.338 C 
ATOM     39  O   UNL A   1      39.717  29.617  35.651  1.00  0.00    -0.246 OA
BRANCH  38  40
ATOM     40  C   UNL A   1      41.870  29.026  34.870  1.00  0.00     0.060 A 
ATOM     41  C   UNL A   1      43.205  29.442  34.884  1.00  0.00     0.016 A 
ATOM     42  C   UNL A   1      41.367  28.167  33.882  1.00  0.00     0.016 A 
ATOM     43  C   UNL A   1      43.986  29.156  33.787  1.00  0.00     0.010 A 
ATOM     44  C   UNL A   1      42.141  27.900  32.782  1.00  0.00     0.010 A 
ATOM     45  C   UNL A   1      43.408  28.468  32.713  1.00  0.00    -0.014 A 
BRANCH  45  46
ATOM     46  C   UNL A   1      44.202  28.265  31.522  1.00  0.00     0.031 A 
ATOM     47  C   UNL A   1      44.122  29.403  30.584  1.00  0.00     0.074 A 
ATOM     48  C   UNL A   1      45.016  27.205  31.365  1.00  0.00     0.049 A 
ATOM     49  N   UNL A   1      43.534  29.426  29.437  1.00  0.00    -0.248 NA
ATOM     50  C   UNL A   1      44.575  30.722  31.057  1.00  0.00     0.031 C 
ATOM     51  C   UNL A   1      45.389  26.184  32.348  1.00  0.00     0.029 A 
ATOM     52  N   UNL A   1      45.792  26.891  30.297  1.00  0.00    -0.354 N 
ATOM     53  C   UNL A   1      43.736  30.708  28.941  1.00  0.00     0.074 A 
ATOM     54  C   UNL A   1      44.194  31.505  30.049  1.00  0.00     0.031 C 
ATOM     55  C   UNL A   1      46.500  25.540  31.916  1.00  0.00     0.029 A 
ATOM     56  C   UNL A   1      46.828  26.009  30.579  1.00  0.00     0.049 A 
ATOM     57  H   UNL A   1      45.633  27.257  29.397  1.00  0.00     0.167 HD
ATOM     58  C   UNL A   1      43.757  30.954  27.604  1.00  0.00     0.031 A 
ATOM     59  C   UNL A   1      47.914  25.777  29.795  1.00  0.00     0.031 A 
ATOM     60  C   UNL A   1      43.243  29.842  26.849  1.00  0.00     0.049 A 
ATOM     61  C   UNL A   1      47.568  26.237  28.423  1.00  0.00     0.074 A 
ATOM     62  C   UNL A   1      42.031  29.183  26.797  1.00  0.00     0.029 A 
ATOM     63  N   UNL A   1      44.169  28.989  26.291  1.00  0.00    -0.354 N 
ATOM     64  N   UNL A   1      46.659  25.663  27.686  1.00  0.00    -0.248 NA
ATOM     65  C   UNL A   1      47.880  27.614  28.064  1.00  0.00     0.031 C 
ATOM     66  C   UNL A   1      42.369  27.806  26.654  1.00  0.00     0.029 A 
ATOM     67  C   UNL A   1      43.758  27.707  26.549  1.00  0.00     0.049 A 
ATOM     68  H   UNL A   1      44.979  29.253  25.797  1.00  0.00     0.167 HD
ATOM     69  C   UNL A   1      45.976  26.710  27.083  1.00  0.00     0.074 A 
ATOM     70  C   UNL A   1      46.828  27.883  27.284  1.00  0.00     0.031 C 
ATOM     71  C   UNL A   1      44.660  26.592  26.736  1.00  0.00     0.031 A 
BRANCH  58  72
ATOM     72  C   UNL A   1      44.620  32.013  26.973  1.00  0.00    -0.014 A 
ATOM     73  C   UNL A   1      46.017  31.831  26.972  1.00  0.00     0.010 A 
ATOM     74  C   UNL A   1      44.137  33.296  26.640  1.00  0.00     0.010 A 
ATOM     75  C   UNL A   1      46.885  32.899  26.714  1.00  0.00     0.020 A 
ATOM     76  C   UNL A   1      44.991  34.355  26.339  1.00  0.00     0.020 A 
ATOM     77  C   UNL A   1      46.363  34.157  26.411  1.00  0.00     0.054 A 
BRANCH  77  78
ATOM     78  S   UNL A   1      47.493  35.548  26.177  1.00  0.00     0.124 S 
ATOM     79  O   UNL A   1      46.567  36.658  25.982  1.00  0.00    -0.237 OA
ATOM     80  O   UNL A   1      48.238  35.553  27.433  1.00  0.00    -0.237 OA
ATOM     81  O   UNL A   1      48.269  35.163  25.000  1.00  0.00    -0.744 OA
ENDBRANCH  77  78
ENDBRANCH  58  72
BRANCH  59  82
ATOM     82  C   UNL A   1      49.323  25.572  30.232  1.00  0.00    -0.014 A 
ATOM     83  C   UNL A   1      50.397  25.924  29.389  1.00  0.00     0.010 A 
ATOM     84  C   UNL A   1      49.616  25.319  31.587  1.00  0.00     0.010 A 
ATOM     85  C   UNL A   1      51.695  26.101  29.903  1.00  0.00     0.020 A 
ATOM     86  C   UNL A   1      50.907  25.485  32.104  1.00  0.00     0.020 A 
ATOM     87  C   UNL A   1      51.935  25.906  31.265  1.00  0.00     0.054 A 
BRANCH  87  88
ATOM     88  S   UNL A   1      53.552  26.353  31.967  1.00  0.00     0.124 S 
ATOM     89  O   UNL A   1      54.137  25.048  32.258  1.00  0.00    -0.237 OA
ATOM     90  O   UNL A   1      54.177  27.098  30.878  1.00  0.00    -0.237 OA
ATOM     91  O   UNL A   1      53.207  27.155  33.141  1.00  0.00    -0.744 OA
ENDBRANCH  87  88
ENDBRANCH  59  82
BRANCH  71  92
ATOM     92  C   UNL A   1      44.034  25.216  26.745  1.00  0.00    -0.014 A 
ATOM     93  C   UNL A   1      43.383  24.644  27.857  1.00  0.00     0.010 A 
ATOM     94  C   UNL A   1      43.992  24.529  25.519  1.00  0.00     0.010 A 
ATOM     95  C   UNL A   1      42.750  23.394  27.751  1.00  0.00     0.020 A 
ATOM     96  C   UNL A   1      43.347  23.297  25.402  1.00  0.00     0.020 A 
ATOM     97  C   UNL A   1      42.744  22.726  26.522  1.00  0.00     0.054 A 
BRANCH  97  98
ATOM     98  S   UNL A   1      41.929  21.112  26.382  1.00  0.00     0.124 S 
ATOM     99  O   UNL A   1      40.555  21.479  26.051  1.00  0.00    -0.237 OA
ATOM    100  O   UNL A   1      42.683  20.458  25.314  1.00  0.00    -0.237 OA
ATOM    101  O   UNL A   1      42.106  20.516  27.707  1.00  0.00    -0.744 OA
ENDBRANCH  97  98
ENDBRANCH  71  92
ENDBRANCH  45  46
ENDBRANCH  38  40
ENDBRANCH  37  38
ENDBRANCH   1  37
TORSDOF 18
ENDMDL
MODEL 3
REMARK VINA RESULT:     -10.3     14.461     23.773
REMARK SMILES COc1cc([C@@H]2CC(=O)Nc3c(C(=O)OCCOC(=O)c4ccc(-c5c6nc(c(-c7ccc(S(=O)(=O)[O-])cc7)c7ccc([nH]7)c(-c7ccc(S(=O)(=O)[O-])cc7)c7nc(c(-c8ccc(S(=O)(=O)[O-])cc8)c8ccc5[nH]8)C=C7)C=C6)cc4)cn(-c4ccc(F)cc4)c32)c(OC)c2c1OCO2
REMARK SMILES IDX 17 1 16 2 15 3 13 4 14 5 12 6 6 7 7 8 90 9 8 10 11 11 82 12
REMARK SMILES IDX 9 13 10 14 81 15 5 17 3 18 4 19 95 20 94 21 96 22 91 23
REMARK SMILES IDX 98 24 97 25 2 26 1 27 92 28 93 29 83 30 84 31 89 32 85 33
REMARK SMILES IDX 88 34 86 35 87 36 18 37 19 38 20 39 21 40 22 41 80 42 23 43
REMARK SMILES IDX 79 44 24 45 25 46 26 47 73 48 27 49 78 50 72 51 74 52 28 53
REMARK SMILES IDX 77 54 71 55 70 56 29 58 59 59 40 60 58 61 41 62 44 63 57 64
REMARK SMILES IDX 75 65 42 66 43 67 56 69 76 70 45 71 30 72 31 73 39 74 32 75
REMARK SMILES IDX 38 76 33 77 34 78 35 79 36 80 37 81 60 82 61 83 69 84 62 85
REMARK SMILES IDX 68 86 63 87 64 88 65 89 66 90 67 91 46 92 47 93 55 94 48 95
REMARK SMILES IDX 54 96 49 97 50 98 51 99 52 100 53 101
REMARK H PARENT 10 16 74 57 44 68
REMARK Flexibility Score: inf
ROOT
ATOM      1  C   UNL A   1      42.492  43.189  18.685  1.00  0.00     0.275 C 
ENDROOT
BRANCH   1   2
ATOM      2  C   UNL A   1      42.393  44.562  18.033  1.00  0.00     0.275 C 
BRANCH   2   3
ATOM      3  O   UNL A   1      43.481  44.790  17.123  1.00  0.00    -0.458 OA
BRANCH   3   4
ATOM      4  C   UNL A   1      44.129  45.991  17.240  1.00  0.00     0.341 C 
ATOM      5  O   UNL A   1      43.715  47.050  16.775  1.00  0.00    -0.246 OA
BRANCH   4   6
ATOM      6  C   UNL A   1      45.359  45.884  18.003  1.00  0.00     0.102 A 
ATOM      7  C   UNL A   1      48.889  46.692  18.739  1.00  0.00     0.082 C 
ATOM      8  C   UNL A   1      49.449  46.679  17.303  1.00  0.00     0.115 C 
ATOM      9  C   UNL A   1      47.479  46.186  18.726  1.00  0.00     0.055 A 
ATOM     10  C   UNL A   1      48.450  47.053  16.215  1.00  0.00     0.225 C 
ATOM     11  C   UNL A   1      46.668  46.239  17.617  1.00  0.00     0.078 A 
ATOM     12  N   UNL A   1      46.772  45.566  19.736  1.00  0.00    -0.317 N 
ATOM     13  O   UNL A   1      48.811  47.570  15.156  1.00  0.00    -0.275 OA
ATOM     14  N   UNL A   1      47.140  46.697  16.410  1.00  0.00    -0.324 N 
ATOM     15  C   UNL A   1      45.482  45.364  19.287  1.00  0.00     0.109 A 
ATOM     16  H   UNL A   1      46.512  46.772  15.655  1.00  0.00     0.170 HD
BRANCH   7  17
ATOM     17  C   UNL A   1      49.040  48.069  19.405  1.00  0.00     0.012 A 
ATOM     18  C   UNL A   1      48.147  50.351  19.583  1.00  0.00     0.165 A 
ATOM     19  C   UNL A   1      48.028  49.031  19.144  1.00  0.00     0.059 A 
ATOM     20  C   UNL A   1      49.228  50.671  20.379  1.00  0.00     0.211 A 
ATOM     21  C   UNL A   1      50.196  49.739  20.692  1.00  0.00     0.211 A 
ATOM     22  O   UNL A   1      49.476  51.884  20.951  1.00  0.00    -0.449 OA
ATOM     23  C   UNL A   1      50.144  48.437  20.213  1.00  0.00     0.168 A 
ATOM     24  O   UNL A   1      51.168  50.278  21.484  1.00  0.00    -0.449 OA
ATOM     25  C   UNL A   1      50.653  51.594  21.719  1.00  0.00     0.468 C 
BRANCH  18  26
ATOM     26  O   UNL A   1      47.162  51.217  19.204  1.00  0.00    -0.493 OA
ATOM     27  C   UNL A   1      47.028  51.319  17.787  1.00  0.00     0.278 C 
ENDBRANCH  18  26
BRANCH  23  28
ATOM     28  O   UNL A   1      51.077  47.476  20.440  1.00  0.00    -0.492 OA
ATOM     29  C   UNL A   1      51.078  46.749  21.656  1.00  0.00     0.278 C 
ENDBRANCH  23  28
ENDBRANCH   7  17
BRANCH  12  30
ATOM     30  C   UNL A   1      47.249  45.207  21.014  1.00  0.00     0.046 A 
ATOM     31  C   UNL A   1      47.241  46.155  22.041  1.00  0.00     0.029 A 
ATOM     32  C   UNL A   1      47.768  43.925  21.232  1.00  0.00     0.029 A 
ATOM     33  C   UNL A   1      47.838  45.859  23.264  1.00  0.00     0.041 A 
ATOM     34  C   UNL A   1      48.364  43.635  22.463  1.00  0.00     0.041 A 
ATOM     35  C   UNL A   1      48.409  44.608  23.459  1.00  0.00     0.123 A 
ATOM     36  F   UNL A   1      49.009  44.339  24.625  1.00  0.00    -0.207 F 
ENDBRANCH  12  30
ENDBRANCH   4   6
ENDBRANCH   3   4
ENDBRANCH   2   3
ENDBRANCH   1   2
BRANCH   1  37
ATOM     37  O   UNL A   1      42.984  43.293  20.018  1.00  0.00    -0.458 OA
BRANCH  37  38
ATOM     38  C   UNL A   1      42.057  43.125  20.988  1.00  0.00     0.338 C 
ATOM     39  O   UNL A   1      40.856  42.977  20.837  1.00  0.00    -0.246 OA
BRANCH  38  40
ATOM     40  C   UNL A   1      42.683  43.349  22.292  1.00  0.00     0.060 A 
ATOM     41  C   UNL A   1      43.807  44.180  22.328  1.00  0.00     0.016 A 
ATOM     42  C   UNL A   1      42.350  42.498  23.356  1.00  0.00     0.016 A 
ATOM     43  C   UNL A   1      44.711  44.005  23.352  1.00  0.00     0.010 A 
ATOM     44  C   UNL A   1      43.261  42.313  24.364  1.00  0.00     0.010 A 
ATOM     45  C   UNL A   1      44.464  43.007  24.302  1.00  0.00    -0.014 A 
BRANCH  45  46
ATOM     46  C   UNL A   1      45.468  42.758  25.312  1.00  0.00     0.031 A 
ATOM     47  C   UNL A   1      46.049  41.403  25.215  1.00  0.00     0.074 A 
ATOM     48  C   UNL A   1      45.900  43.712  26.157  1.00  0.00     0.049 A 
ATOM     49  N   UNL A   1      45.874  40.421  26.032  1.00  0.00    -0.248 NA
ATOM     50  C   UNL A   1      46.741  41.036  23.968  1.00  0.00     0.031 C 
ATOM     51  C   UNL A   1      45.606  45.148  26.141  1.00  0.00     0.029 A 
ATOM     52  N   UNL A   1      46.814  43.603  27.152  1.00  0.00    -0.354 N 
ATOM     53  C   UNL A   1      46.622  39.370  25.516  1.00  0.00     0.074 A 
ATOM     54  C   UNL A   1      46.958  39.736  24.164  1.00  0.00     0.031 C 
ATOM     55  C   UNL A   1      46.522  45.794  26.902  1.00  0.00     0.029 A 
ATOM     56  C   UNL A   1      47.372  44.810  27.556  1.00  0.00     0.049 A 
ATOM     57  H   UNL A   1      47.062  42.741  27.556  1.00  0.00     0.167 HD
ATOM     58  C   UNL A   1      47.123  38.396  26.321  1.00  0.00     0.031 A 
ATOM     59  C   UNL A   1      48.505  44.961  28.291  1.00  0.00     0.031 A 
ATOM     60  C   UNL A   1      46.528  38.428  27.630  1.00  0.00     0.049 A 
ATOM     61  C   UNL A   1      48.758  43.663  28.973  1.00  0.00     0.074 A 
ATOM     62  C   UNL A   1      45.242  38.288  28.115  1.00  0.00     0.029 A 
ATOM     63  N   UNL A   1      47.248  39.050  28.625  1.00  0.00    -0.354 N 
ATOM     64  N   UNL A   1      47.977  43.180  29.899  1.00  0.00    -0.248 NA
ATOM     65  C   UNL A   1      49.593  42.683  28.292  1.00  0.00     0.031 C 
ATOM     66  C   UNL A   1      45.140  39.247  29.164  1.00  0.00     0.029 A 
ATOM     67  C   UNL A   1      46.385  39.863  29.314  1.00  0.00     0.049 A 
ATOM     68  H   UNL A   1      48.209  38.934  28.807  1.00  0.00     0.167 HD
ATOM     69  C   UNL A   1      47.888  41.824  29.617  1.00  0.00     0.074 A 
ATOM     70  C   UNL A   1      48.973  41.561  28.672  1.00  0.00     0.031 C 
ATOM     71  C   UNL A   1      46.774  41.104  29.946  1.00  0.00     0.031 A 
BRANCH  58  72
ATOM     72  C   UNL A   1      48.431  37.700  26.058  1.00  0.00    -0.014 A 
ATOM     73  C   UNL A   1      48.411  36.331  25.727  1.00  0.00     0.010 A 
ATOM     74  C   UNL A   1      49.679  38.263  26.397  1.00  0.00     0.010 A 
ATOM     75  C   UNL A   1      49.573  35.553  25.798  1.00  0.00     0.020 A 
ATOM     76  C   UNL A   1      50.850  37.507  26.428  1.00  0.00     0.020 A 
ATOM     77  C   UNL A   1      50.782  36.147  26.160  1.00  0.00     0.054 A 
BRANCH  77  78
ATOM     78  S   UNL A   1      52.254  35.113  26.341  1.00  0.00     0.124 S 
ATOM     79  O   UNL A   1      52.173  34.264  25.158  1.00  0.00    -0.237 OA
ATOM     80  O   UNL A   1      53.327  36.104  26.341  1.00  0.00    -0.237 OA
ATOM     81  O   UNL A   1      52.039  34.435  27.618  1.00  0.00    -0.744 OA
ENDBRANCH  77  78
ENDBRANCH  58  72
BRANCH  59  82
ATOM     82  C   UNL A   1      49.570  45.987  28.119  1.00  0.00    -0.014 A 
ATOM     83  C   UNL A   1      50.373  46.006  26.961  1.00  0.00     0.010 A 
ATOM     84  C   UNL A   1      49.595  47.128  28.946  1.00  0.00     0.010 A 
ATOM     85  C   UNL A   1      51.101  47.156  26.601  1.00  0.00     0.020 A 
ATOM     86  C   UNL A   1      50.325  48.273  28.599  1.00  0.00     0.020 A 
ATOM     87  C   UNL A   1      51.049  48.292  27.411  1.00  0.00     0.054 A 
BRANCH  87  88
ATOM     88  S   UNL A   1      51.802  49.844  26.833  1.00  0.00     0.124 S 
ATOM     89  O   UNL A   1      51.415  50.786  27.877  1.00  0.00    -0.237 OA
ATOM     90  O   UNL A   1      53.222  49.508  26.777  1.00  0.00    -0.237 OA
ATOM     91  O   UNL A   1      51.171  50.067  25.532  1.00  0.00    -0.744 OA
ENDBRANCH  87  88
ENDBRANCH  59  82
BRANCH  71  92
ATOM     92  C   UNL A   1      45.762  41.728  30.880  1.00  0.00    -0.014 A 
ATOM     93  C   UNL A   1      44.649  42.484  30.459  1.00  0.00     0.010 A 
ATOM     94  C   UNL A   1      45.881  41.417  32.245  1.00  0.00     0.010 A 
ATOM     95  C   UNL A   1      43.709  42.953  31.390  1.00  0.00     0.020 A 
ATOM     96  C   UNL A   1      44.938  41.861  33.173  1.00  0.00     0.020 A 
ATOM     97  C   UNL A   1      43.866  42.643  32.745  1.00  0.00     0.054 A 
BRANCH  97  98
ATOM     98  S   UNL A   1      42.653  43.248  33.951  1.00  0.00     0.124 S 
ATOM     99  O   UNL A   1      41.757  42.105  34.099  1.00  0.00    -0.237 OA
ATOM    100  O   UNL A   1      43.480  43.558  35.116  1.00  0.00    -0.237 OA
ATOM    101  O   UNL A   1      42.063  44.415  33.295  1.00  0.00    -0.744 OA
ENDBRANCH  97  98
ENDBRANCH  71  92
ENDBRANCH  45  46
ENDBRANCH  38  40
ENDBRANCH  37  38
ENDBRANCH   1  37
TORSDOF 18
ENDMDL
