MODEL 1
REMARK VINA RESULT:     -11.0      0.000      0.000
REMARK SMILES C/C(=C\C(=O)OCCOC(=O)c1ccc(-c2c3nc(c(-c4ccc(S(=O)(=O)[O-])cc4)c4ccc([nH]4)c(-c4ccc(S(=O)(=O)[O-])cc4)c4nc(c(-c5ccc(S(=O)(=O)[O-])cc5)c5ccc2[nH]5)C=C4)C=C3)cc1)CSc1ccc(N)c(C)c1
REMARK SMILES IDX 7 1 6 2 4 3 5 4 3 5 1 6 2 7 72 8 73 9 74 10 75 11 81 12
REMARK SMILES IDX 76 13 79 14 77 15 80 16 78 17 8 20 9 21 10 22 11 23 12 24
REMARK SMILES IDX 13 25 71 26 14 27 70 28 15 29 16 30 17 31 64 32 18 33 69 34
REMARK SMILES IDX 63 35 65 36 19 37 68 38 62 39 61 40 20 42 50 43 31 44 49 45
REMARK SMILES IDX 32 46 35 47 48 48 66 49 33 50 34 51 47 53 67 54 36 55 21 56
REMARK SMILES IDX 22 57 30 58 23 59 29 60 24 61 25 62 26 63 27 64 28 65 51 66
REMARK SMILES IDX 52 67 60 68 53 69 59 70 54 71 55 72 56 73 57 74 58 75 37 76
REMARK SMILES IDX 38 77 46 78 39 79 45 80 40 81 41 82 42 83 43 84 44 85
REMARK H PARENT 78 18 78 19 65 41 35 52
REMARK Flexibility Score: inf
ROOT
ATOM      1  C   UNL A   1      42.629  21.984  26.383  1.00  0.00     0.275 C 
ENDROOT
BRANCH   1   2
ATOM      2  O   UNL A   1      41.460  21.439  25.743  1.00  0.00    -0.459 OA
BRANCH   2   3
ATOM      3  C   UNL A   1      40.409  21.186  26.552  1.00  0.00     0.330 C 
ATOM      4  O   UNL A   1      40.435  21.144  27.774  1.00  0.00    -0.247 OA
BRANCH   3   5
ATOM      5  C   UNL A   1      39.125  21.103  25.822  1.00  0.00     0.093 C 
ATOM      6  C   UNL A   1      38.161  23.415  26.144  1.00  0.00     0.040 C 
ATOM      7  C   UNL A   1      38.123  21.991  25.665  1.00  0.00    -0.056 C 
BRANCH   7   8
ATOM      8  C   UNL A   1      36.913  21.572  24.851  1.00  0.00     0.105 C 
BRANCH   8   9
ATOM      9  S   UNL A   1      35.351  21.515  25.783  1.00  0.00    -0.122 SA
BRANCH   9  10
ATOM     10  C   UNL A   1      34.344  20.329  24.904  1.00  0.00     0.008 A 
ATOM     11  C   UNL A   1      33.187  20.818  24.293  1.00  0.00     0.017 A 
ATOM     12  C   UNL A   1      34.677  18.985  24.716  1.00  0.00     0.020 A 
ATOM     13  C   UNL A   1      32.370  19.982  23.529  1.00  0.00     0.027 A 
ATOM     14  C   UNL A   1      33.862  18.135  23.933  1.00  0.00    -0.027 A 
ATOM     15  C   UNL A   1      32.706  18.643  23.318  1.00  0.00     0.034 A 
ATOM     16  C   UNL A   1      34.253  16.692  23.762  1.00  0.00     0.046 C 
BRANCH  15  17
ATOM     17  N   UNL A   1      31.833  17.832  22.604  1.00  0.00    -0.399 N 
ATOM     18  H   UNL A   1      31.210  18.231  21.954  1.00  0.00     0.156 HD
ATOM     19  H   UNL A   1      31.837  16.859  22.748  1.00  0.00     0.156 HD
ENDBRANCH  15  17
ENDBRANCH   9  10
ENDBRANCH   8   9
ENDBRANCH   7   8
ENDBRANCH   3   5
ENDBRANCH   2   3
ENDBRANCH   1   2
BRANCH   1  20
ATOM     20  C   UNL A   1      42.805  23.470  26.049  1.00  0.00     0.275 C 
BRANCH  20  21
ATOM     21  O   UNL A   1      41.635  24.241  26.381  1.00  0.00    -0.458 OA
BRANCH  21  22
ATOM     22  C   UNL A   1      41.673  25.532  25.972  1.00  0.00     0.338 C 
ATOM     23  O   UNL A   1      41.887  25.933  24.843  1.00  0.00    -0.246 OA
BRANCH  22  24
ATOM     24  C   UNL A   1      41.286  26.430  27.074  1.00  0.00     0.060 A 
ATOM     25  C   UNL A   1      41.910  27.679  27.142  1.00  0.00     0.016 A 
ATOM     26  C   UNL A   1      40.409  26.025  28.080  1.00  0.00     0.016 A 
ATOM     27  C   UNL A   1      41.678  28.520  28.226  1.00  0.00     0.010 A 
ATOM     28  C   UNL A   1      40.171  26.874  29.169  1.00  0.00     0.010 A 
ATOM     29  C   UNL A   1      40.820  28.118  29.257  1.00  0.00    -0.014 A 
BRANCH  29  30
ATOM     30  C   UNL A   1      40.639  28.997  30.438  1.00  0.00     0.031 A 
ATOM     31  C   UNL A   1      41.539  28.854  31.632  1.00  0.00     0.074 A 
ATOM     32  C   UNL A   1      39.694  29.954  30.414  1.00  0.00     0.049 A 
ATOM     33  N   UNL A   1      41.536  29.532  32.752  1.00  0.00    -0.248 NA
ATOM     34  C   UNL A   1      42.581  27.817  31.559  1.00  0.00     0.031 C 
ATOM     35  C   UNL A   1      38.787  30.216  29.295  1.00  0.00     0.029 A 
ATOM     36  N   UNL A   1      39.344  30.889  31.355  1.00  0.00    -0.354 N 
ATOM     37  C   UNL A   1      42.564  29.000  33.522  1.00  0.00     0.074 A 
ATOM     38  C   UNL A   1      43.158  27.929  32.749  1.00  0.00     0.031 C 
ATOM     39  C   UNL A   1      37.991  31.252  29.611  1.00  0.00     0.029 A 
ATOM     40  C   UNL A   1      38.305  31.699  30.965  1.00  0.00     0.049 A 
ATOM     41  H   UNL A   1      39.795  30.971  32.226  1.00  0.00     0.167 HD
ATOM     42  C   UNL A   1      42.976  29.370  34.758  1.00  0.00     0.031 A 
ATOM     43  C   UNL A   1      37.667  32.683  31.628  1.00  0.00     0.031 A 
ATOM     44  C   UNL A   1      42.376  30.427  35.531  1.00  0.00     0.049 A 
ATOM     45  C   UNL A   1      38.106  33.036  33.023  1.00  0.00     0.074 A 
ATOM     46  C   UNL A   1      42.727  30.876  36.793  1.00  0.00     0.029 A 
ATOM     47  N   UNL A   1      41.300  31.197  35.118  1.00  0.00    -0.354 N 
ATOM     48  N   UNL A   1      39.084  32.526  33.732  1.00  0.00    -0.248 NA
ATOM     49  C   UNL A   1      37.356  34.100  33.703  1.00  0.00     0.031 C 
ATOM     50  C   UNL A   1      41.833  31.890  37.160  1.00  0.00     0.029 A 
ATOM     51  C   UNL A   1      40.959  32.104  36.107  1.00  0.00     0.049 A 
ATOM     52  H   UNL A   1      40.845  31.111  34.249  1.00  0.00     0.167 HD
ATOM     53  C   UNL A   1      39.080  33.220  34.936  1.00  0.00     0.074 A 
ATOM     54  C   UNL A   1      38.012  34.196  34.852  1.00  0.00     0.031 C 
ATOM     55  C   UNL A   1      39.889  33.065  36.013  1.00  0.00     0.031 A 
BRANCH  42  56
ATOM     56  C   UNL A   1      44.114  28.595  35.368  1.00  0.00    -0.014 A 
ATOM     57  C   UNL A   1      45.447  29.009  35.202  1.00  0.00     0.010 A 
ATOM     58  C   UNL A   1      43.842  27.453  36.142  1.00  0.00     0.010 A 
ATOM     59  C   UNL A   1      46.492  28.268  35.763  1.00  0.00     0.020 A 
ATOM     60  C   UNL A   1      44.881  26.722  36.723  1.00  0.00     0.020 A 
ATOM     61  C   UNL A   1      46.202  27.125  36.513  1.00  0.00     0.054 A 
BRANCH  61  62
ATOM     62  S   UNL A   1      47.574  26.181  37.233  1.00  0.00     0.124 S 
ATOM     63  O   UNL A   1      47.592  26.681  38.606  1.00  0.00    -0.237 OA
ATOM     64  O   UNL A   1      47.132  24.797  37.076  1.00  0.00    -0.237 OA
ATOM     65  O   UNL A   1      48.724  26.561  36.416  1.00  0.00    -0.744 OA
ENDBRANCH  61  62
ENDBRANCH  42  56
BRANCH  43  66
ATOM     66  C   UNL A   1      36.530  33.391  30.982  1.00  0.00    -0.014 A 
ATOM     67  C   UNL A   1      35.304  33.536  31.651  1.00  0.00     0.010 A 
ATOM     68  C   UNL A   1      36.680  33.940  29.695  1.00  0.00     0.010 A 
ATOM     69  C   UNL A   1      34.241  34.210  31.039  1.00  0.00     0.020 A 
ATOM     70  C   UNL A   1      35.629  34.634  29.091  1.00  0.00     0.020 A 
ATOM     71  C   UNL A   1      34.412  34.755  29.763  1.00  0.00     0.054 A 
BRANCH  71  72
ATOM     72  S   UNL A   1      33.041  35.676  29.010  1.00  0.00     0.124 S 
ATOM     73  O   UNL A   1      33.747  36.705  28.253  1.00  0.00    -0.237 OA
ATOM     74  O   UNL A   1      32.369  34.651  28.214  1.00  0.00    -0.237 OA
ATOM     75  O   UNL A   1      32.280  36.154  30.162  1.00  0.00    -0.744 OA
ENDBRANCH  71  72
ENDBRANCH  43  66
BRANCH  55  76
ATOM     76  C   UNL A   1      39.666  33.988  37.180  1.00  0.00    -0.014 A 
ATOM     77  C   UNL A   1      38.947  33.569  38.312  1.00  0.00     0.010 A 
ATOM     78  C   UNL A   1      40.219  35.281  37.157  1.00  0.00     0.010 A 
ATOM     79  C   UNL A   1      38.756  34.438  39.390  1.00  0.00     0.020 A 
ATOM     80  C   UNL A   1      40.051  36.145  38.242  1.00  0.00     0.020 A 
ATOM     81  C   UNL A   1      39.306  35.723  39.346  1.00  0.00     0.054 A 
BRANCH  81  82
ATOM     82  S   UNL A   1      39.078  36.823  40.770  1.00  0.00     0.124 S 
ATOM     83  O   UNL A   1      40.456  37.087  41.174  1.00  0.00    -0.237 OA
ATOM     84  O   UNL A   1      38.364  37.959  40.190  1.00  0.00    -0.237 OA
ATOM     85  O   UNL A   1      38.296  36.018  41.706  1.00  0.00    -0.744 OA
ENDBRANCH  81  82
ENDBRANCH  55  76
ENDBRANCH  29  30
ENDBRANCH  22  24
ENDBRANCH  21  22
ENDBRANCH  20  21
ENDBRANCH   1  20
TORSDOF 18
ENDMDL
MODEL 2
REMARK VINA RESULT:     -10.3      1.404      1.885
REMARK SMILES C/C(=C\C(=O)OCCOC(=O)c1ccc(-c2c3nc(c(-c4ccc(S(=O)(=O)[O-])cc4)c4ccc([nH]4)c(-c4ccc(S(=O)(=O)[O-])cc4)c4nc(c(-c5ccc(S(=O)(=O)[O-])cc5)c5ccc2[nH]5)C=C4)C=C3)cc1)CSc1ccc(N)c(C)c1
REMARK SMILES IDX 7 1 6 2 4 3 5 4 3 5 1 6 2 7 72 8 73 9 74 10 75 11 81 12
REMARK SMILES IDX 76 13 79 14 77 15 80 16 78 17 8 20 9 21 10 22 11 23 12 24
REMARK SMILES IDX 13 25 71 26 14 27 70 28 15 29 16 30 17 31 64 32 18 33 69 34
REMARK SMILES IDX 63 35 65 36 19 37 68 38 62 39 61 40 20 42 50 43 31 44 49 45
REMARK SMILES IDX 32 46 35 47 48 48 66 49 33 50 34 51 47 53 67 54 36 55 21 56
REMARK SMILES IDX 22 57 30 58 23 59 29 60 24 61 25 62 26 63 27 64 28 65 51 66
REMARK SMILES IDX 52 67 60 68 53 69 59 70 54 71 55 72 56 73 57 74 58 75 37 76
REMARK SMILES IDX 38 77 46 78 39 79 45 80 40 81 41 82 42 83 43 84 44 85
REMARK H PARENT 78 18 78 19 65 41 35 52
REMARK Flexibility Score: inf
ROOT
ATOM      1  C   UNL A   1      42.686  22.134  26.458  1.00  0.00     0.275 C 
ENDROOT
BRANCH   1   2
ATOM      2  O   UNL A   1      41.531  21.563  25.817  1.00  0.00    -0.459 OA
BRANCH   2   3
ATOM      3  C   UNL A   1      40.470  21.323  26.617  1.00  0.00     0.330 C 
ATOM      4  O   UNL A   1      40.482  21.301  27.840  1.00  0.00    -0.247 OA
BRANCH   3   5
ATOM      5  C   UNL A   1      39.195  21.226  25.874  1.00  0.00     0.093 C 
ATOM      6  C   UNL A   1      38.243  23.553  26.115  1.00  0.00     0.040 C 
ATOM      7  C   UNL A   1      38.201  22.116  25.677  1.00  0.00    -0.056 C 
BRANCH   7   8
ATOM      8  C   UNL A   1      36.999  21.680  24.861  1.00  0.00     0.105 C 
BRANCH   8   9
ATOM      9  S   UNL A   1      35.437  21.594  25.791  1.00  0.00    -0.122 SA
BRANCH   9  10
ATOM     10  C   UNL A   1      34.290  22.577  24.839  1.00  0.00     0.008 A 
ATOM     11  C   UNL A   1      34.600  22.774  23.491  1.00  0.00     0.017 A 
ATOM     12  C   UNL A   1      33.079  23.081  25.322  1.00  0.00     0.020 A 
ATOM     13  C   UNL A   1      33.731  23.473  22.649  1.00  0.00     0.027 A 
ATOM     14  C   UNL A   1      32.189  23.779  24.473  1.00  0.00    -0.027 A 
ATOM     15  C   UNL A   1      32.510  23.962  23.118  1.00  0.00     0.034 A 
ATOM     16  C   UNL A   1      30.899  24.311  25.037  1.00  0.00     0.046 C 
BRANCH  15  17
ATOM     17  N   UNL A   1      31.707  24.705  22.264  1.00  0.00    -0.399 N 
ATOM     18  H   UNL A   1      31.888  24.708  21.296  1.00  0.00     0.156 HD
ATOM     19  H   UNL A   1      30.957  25.230  22.626  1.00  0.00     0.156 HD
ENDBRANCH  15  17
ENDBRANCH   9  10
ENDBRANCH   8   9
ENDBRANCH   7   8
ENDBRANCH   3   5
ENDBRANCH   2   3
ENDBRANCH   1   2
BRANCH   1  20
ATOM     20  C   UNL A   1      42.914  23.582  26.008  1.00  0.00     0.275 C 
BRANCH  20  21
ATOM     21  O   UNL A   1      41.718  24.377  26.121  1.00  0.00    -0.458 OA
BRANCH  21  22
ATOM     22  C   UNL A   1      41.875  25.683  25.794  1.00  0.00     0.338 C 
ATOM     23  O   UNL A   1      42.206  26.129  24.711  1.00  0.00    -0.246 OA
BRANCH  22  24
ATOM     24  C   UNL A   1      41.461  26.544  26.916  1.00  0.00     0.060 A 
ATOM     25  C   UNL A   1      42.068  27.798  27.027  1.00  0.00     0.016 A 
ATOM     26  C   UNL A   1      40.574  26.099  27.897  1.00  0.00     0.016 A 
ATOM     27  C   UNL A   1      41.810  28.605  28.132  1.00  0.00     0.010 A 
ATOM     28  C   UNL A   1      40.310  26.914  29.005  1.00  0.00     0.010 A 
ATOM     29  C   UNL A   1      40.941  28.163  29.139  1.00  0.00    -0.014 A 
BRANCH  29  30
ATOM     30  C   UNL A   1      40.733  29.005  30.341  1.00  0.00     0.031 A 
ATOM     31  C   UNL A   1      41.619  28.841  31.543  1.00  0.00     0.074 A 
ATOM     32  C   UNL A   1      39.774  29.949  30.331  1.00  0.00     0.049 A 
ATOM     33  N   UNL A   1      41.592  29.487  32.681  1.00  0.00    -0.248 NA
ATOM     34  C   UNL A   1      42.677  27.822  31.455  1.00  0.00     0.031 C 
ATOM     35  C   UNL A   1      38.878  30.230  29.208  1.00  0.00     0.029 A 
ATOM     36  N   UNL A   1      39.398  30.852  31.293  1.00  0.00    -0.354 N 
ATOM     37  C   UNL A   1      42.617  28.948  33.449  1.00  0.00     0.074 A 
ATOM     38  C   UNL A   1      43.236  27.908  32.654  1.00  0.00     0.031 C 
ATOM     39  C   UNL A   1      38.063  31.245  29.542  1.00  0.00     0.029 A 
ATOM     40  C   UNL A   1      38.353  31.659  30.912  1.00  0.00     0.049 A 
ATOM     41  H   UNL A   1      39.837  30.916  32.172  1.00  0.00     0.167 HD
ATOM     42  C   UNL A   1      43.007  29.289  34.701  1.00  0.00     0.031 A 
ATOM     43  C   UNL A   1      37.692  32.613  31.594  1.00  0.00     0.031 A 
ATOM     44  C   UNL A   1      42.382  30.315  35.495  1.00  0.00     0.049 A 
ATOM     45  C   UNL A   1      38.107  32.933  33.004  1.00  0.00     0.074 A 
ATOM     46  C   UNL A   1      42.710  30.733  36.774  1.00  0.00     0.029 A 
ATOM     47  N   UNL A   1      41.300  31.081  35.089  1.00  0.00    -0.354 N 
ATOM     48  N   UNL A   1      39.084  32.417  33.711  1.00  0.00    -0.248 NA
ATOM     49  C   UNL A   1      37.333  33.967  33.704  1.00  0.00     0.031 C 
ATOM     50  C   UNL A   1      41.796  31.723  37.157  1.00  0.00     0.029 A 
ATOM     51  C   UNL A   1      40.933  31.955  36.099  1.00  0.00     0.049 A 
ATOM     52  H   UNL A   1      40.857  31.013  34.213  1.00  0.00     0.167 HD
ATOM     53  C   UNL A   1      39.053  33.077  34.934  1.00  0.00     0.074 A 
ATOM     54  C   UNL A   1      37.972  34.039  34.864  1.00  0.00     0.031 C 
ATOM     55  C   UNL A   1      39.850  32.903  36.017  1.00  0.00     0.031 A 
BRANCH  42  56
ATOM     56  C   UNL A   1      44.148  28.513  35.304  1.00  0.00    -0.014 A 
ATOM     57  C   UNL A   1      45.479  28.939  35.149  1.00  0.00     0.010 A 
ATOM     58  C   UNL A   1      43.881  27.358  36.061  1.00  0.00     0.010 A 
ATOM     59  C   UNL A   1      46.527  28.197  35.704  1.00  0.00     0.020 A 
ATOM     60  C   UNL A   1      44.923  26.627  36.635  1.00  0.00     0.020 A 
ATOM     61  C   UNL A   1      46.242  27.041  36.436  1.00  0.00     0.054 A 
BRANCH  61  62
ATOM     62  S   UNL A   1      47.618  26.096  37.148  1.00  0.00     0.124 S 
ATOM     63  O   UNL A   1      47.286  24.733  36.739  1.00  0.00    -0.237 OA
ATOM     64  O   UNL A   1      48.785  26.681  36.492  1.00  0.00    -0.237 OA
ATOM     65  O   UNL A   1      47.516  26.359  38.581  1.00  0.00    -0.744 OA
ENDBRANCH  61  62
ENDBRANCH  42  56
BRANCH  43  66
ATOM     66  C   UNL A   1      36.553  33.324  30.953  1.00  0.00    -0.014 A 
ATOM     67  C   UNL A   1      35.308  33.408  31.597  1.00  0.00     0.010 A 
ATOM     68  C   UNL A   1      36.720  33.936  29.697  1.00  0.00     0.010 A 
ATOM     69  C   UNL A   1      34.244  34.083  30.990  1.00  0.00     0.020 A 
ATOM     70  C   UNL A   1      35.667  34.632  29.099  1.00  0.00     0.020 A 
ATOM     71  C   UNL A   1      34.431  34.692  29.745  1.00  0.00     0.054 A 
BRANCH  71  72
ATOM     72  S   UNL A   1      33.056  35.613  29.001  1.00  0.00     0.124 S 
ATOM     73  O   UNL A   1      32.446  34.605  28.142  1.00  0.00    -0.237 OA
ATOM     74  O   UNL A   1      32.272  36.011  30.168  1.00  0.00    -0.237 OA
ATOM     75  O   UNL A   1      33.721  36.713  28.305  1.00  0.00    -0.744 OA
ENDBRANCH  71  72
ENDBRANCH  43  66
BRANCH  55  76
ATOM     76  C   UNL A   1      39.599  33.790  37.207  1.00  0.00    -0.014 A 
ATOM     77  C   UNL A   1      38.722  33.398  38.233  1.00  0.00     0.010 A 
ATOM     78  C   UNL A   1      40.282  35.014  37.315  1.00  0.00     0.010 A 
ATOM     79  C   UNL A   1      38.506  34.232  39.334  1.00  0.00     0.020 A 
ATOM     80  C   UNL A   1      40.087  35.840  38.426  1.00  0.00     0.020 A 
ATOM     81  C   UNL A   1      39.187  35.450  39.421  1.00  0.00     0.054 A 
BRANCH  81  82
ATOM     82  S   UNL A   1      38.921  36.501  40.875  1.00  0.00     0.124 S 
ATOM     83  O   UNL A   1      37.966  35.712  41.649  1.00  0.00    -0.237 OA
ATOM     84  O   UNL A   1      40.261  36.605  41.449  1.00  0.00    -0.237 OA
ATOM     85  O   UNL A   1      38.395  37.743  40.313  1.00  0.00    -0.744 OA
ENDBRANCH  81  82
ENDBRANCH  55  76
ENDBRANCH  29  30
ENDBRANCH  22  24
ENDBRANCH  21  22
ENDBRANCH  20  21
ENDBRANCH   1  20
TORSDOF 18
ENDMDL
MODEL 3
REMARK VINA RESULT:     -10.3      4.541     10.786
REMARK SMILES C/C(=C\C(=O)OCCOC(=O)c1ccc(-c2c3nc(c(-c4ccc(S(=O)(=O)[O-])cc4)c4ccc([nH]4)c(-c4ccc(S(=O)(=O)[O-])cc4)c4nc(c(-c5ccc(S(=O)(=O)[O-])cc5)c5ccc2[nH]5)C=C4)C=C3)cc1)CSc1ccc(N)c(C)c1
REMARK SMILES IDX 7 1 6 2 4 3 5 4 3 5 1 6 2 7 72 8 73 9 74 10 75 11 81 12
REMARK SMILES IDX 76 13 79 14 77 15 80 16 78 17 8 20 9 21 10 22 11 23 12 24
REMARK SMILES IDX 13 25 71 26 14 27 70 28 15 29 16 30 17 31 64 32 18 33 69 34
REMARK SMILES IDX 63 35 65 36 19 37 68 38 62 39 61 40 20 42 50 43 31 44 49 45
REMARK SMILES IDX 32 46 35 47 48 48 66 49 33 50 34 51 47 53 67 54 36 55 21 56
REMARK SMILES IDX 22 57 30 58 23 59 29 60 24 61 25 62 26 63 27 64 28 65 51 66
REMARK SMILES IDX 52 67 60 68 53 69 59 70 54 71 55 72 56 73 57 74 58 75 37 76
REMARK SMILES IDX 38 77 46 78 39 79 45 80 40 81 41 82 42 83 43 84 44 85
REMARK H PARENT 78 18 78 19 65 41 35 52
REMARK Flexibility Score: inf
ROOT
ATOM      1  C   UNL A   1      31.816  29.762  26.064  1.00  0.00     0.275 C 
ENDROOT
BRANCH   1   2
ATOM      2  O   UNL A   1      31.552  28.388  25.725  1.00  0.00    -0.459 OA
BRANCH   2   3
ATOM      3  C   UNL A   1      31.323  27.557  26.764  1.00  0.00     0.330 C 
ATOM      4  O   UNL A   1      31.079  27.894  27.914  1.00  0.00    -0.247 OA
BRANCH   3   5
ATOM      5  C   UNL A   1      31.241  26.136  26.362  1.00  0.00     0.093 C 
ATOM      6  C   UNL A   1      29.336  26.147  24.703  1.00  0.00     0.040 C 
ATOM      7  C   UNL A   1      30.393  25.483  25.541  1.00  0.00    -0.056 C 
BRANCH   7   8
ATOM      8  C   UNL A   1      30.580  23.990  25.356  1.00  0.00     0.105 C 
BRANCH   8   9
ATOM      9  S   UNL A   1      31.547  23.520  23.887  1.00  0.00    -0.122 SA
BRANCH   9  10
ATOM     10  C   UNL A   1      33.223  23.357  24.484  1.00  0.00     0.008 A 
ATOM     11  C   UNL A   1      33.396  23.324  25.870  1.00  0.00     0.017 A 
ATOM     12  C   UNL A   1      34.345  23.176  23.671  1.00  0.00     0.020 A 
ATOM     13  C   UNL A   1      34.661  23.133  26.431  1.00  0.00     0.027 A 
ATOM     14  C   UNL A   1      35.627  22.969  24.231  1.00  0.00    -0.027 A 
ATOM     15  C   UNL A   1      35.784  22.929  25.626  1.00  0.00     0.034 A 
ATOM     16  C   UNL A   1      36.809  22.785  23.318  1.00  0.00     0.046 C 
BRANCH  15  17
ATOM     17  N   UNL A   1      37.031  22.807  26.225  1.00  0.00    -0.399 N 
ATOM     18  H   UNL A   1      37.109  22.414  27.124  1.00  0.00     0.156 HD
ATOM     19  H   UNL A   1      37.836  23.114  25.751  1.00  0.00     0.156 HD
ENDBRANCH  15  17
ENDBRANCH   9  10
ENDBRANCH   8   9
ENDBRANCH   7   8
ENDBRANCH   3   5
ENDBRANCH   2   3
ENDBRANCH   1   2
BRANCH   1  20
ATOM     20  C   UNL A   1      33.321  30.029  26.172  1.00  0.00     0.275 C 
BRANCH  20  21
ATOM     21  O   UNL A   1      33.830  29.732  27.487  1.00  0.00    -0.458 OA
BRANCH  21  22
ATOM     22  C   UNL A   1      34.660  30.672  27.998  1.00  0.00     0.338 C 
ATOM     23  O   UNL A   1      34.361  31.803  28.335  1.00  0.00    -0.246 OA
BRANCH  22  24
ATOM     24  C   UNL A   1      36.000  30.103  28.224  1.00  0.00     0.060 A 
ATOM     25  C   UNL A   1      36.284  29.599  29.496  1.00  0.00     0.016 A 
ATOM     26  C   UNL A   1      36.995  30.152  27.247  1.00  0.00     0.016 A 
ATOM     27  C   UNL A   1      37.569  29.162  29.807  1.00  0.00     0.010 A 
ATOM     28  C   UNL A   1      38.287  29.707  27.558  1.00  0.00     0.010 A 
ATOM     29  C   UNL A   1      38.585  29.228  28.845  1.00  0.00    -0.014 A 
BRANCH  29  30
ATOM     30  C   UNL A   1      39.963  28.824  29.215  1.00  0.00     0.031 A 
ATOM     31  C   UNL A   1      40.843  29.760  29.994  1.00  0.00     0.074 A 
ATOM     32  C   UNL A   1      40.404  27.595  28.888  1.00  0.00     0.049 A 
ATOM     33  N   UNL A   1      42.071  29.581  30.410  1.00  0.00    -0.248 NA
ATOM     34  C   UNL A   1      40.268  31.065  30.357  1.00  0.00     0.031 C 
ATOM     35  C   UNL A   1      39.628  26.584  28.168  1.00  0.00     0.029 A 
ATOM     36  N   UNL A   1      41.610  26.986  29.125  1.00  0.00    -0.354 N 
ATOM     37  C   UNL A   1      42.421  30.752  31.074  1.00  0.00     0.074 A 
ATOM     38  C   UNL A   1      41.282  31.641  30.988  1.00  0.00     0.031 C 
ATOM     39  C   UNL A   1      40.375  25.475  28.032  1.00  0.00     0.029 A 
ATOM     40  C   UNL A   1      41.691  25.711  28.619  1.00  0.00     0.049 A 
ATOM     41  H   UNL A   1      42.347  27.422  29.611  1.00  0.00     0.167 HD
ATOM     42  C   UNL A   1      43.585  31.056  31.697  1.00  0.00     0.031 A 
ATOM     43  C   UNL A   1      42.715  24.836  28.614  1.00  0.00     0.031 A 
ATOM     44  C   UNL A   1      44.722  30.175  31.770  1.00  0.00     0.049 A 
ATOM     45  C   UNL A   1      44.016  25.220  29.263  1.00  0.00     0.074 A 
ATOM     46  C   UNL A   1      45.943  30.395  32.383  1.00  0.00     0.029 A 
ATOM     47  N   UNL A   1      44.779  28.908  31.210  1.00  0.00    -0.354 N 
ATOM     48  N   UNL A   1      44.326  26.329  29.891  1.00  0.00    -0.248 NA
ATOM     49  C   UNL A   1      45.102  24.233  29.205  1.00  0.00     0.031 C 
ATOM     50  C   UNL A   1      46.755  29.277  32.154  1.00  0.00     0.029 A 
ATOM     51  C   UNL A   1      46.021  28.342  31.443  1.00  0.00     0.049 A 
ATOM     52  H   UNL A   1      44.044  28.475  30.718  1.00  0.00     0.167 HD
ATOM     53  C   UNL A   1      45.638  26.165  30.319  1.00  0.00     0.074 A 
ATOM     54  C   UNL A   1      46.057  24.845  29.892  1.00  0.00     0.031 C 
ATOM     55  C   UNL A   1      46.426  27.030  31.006  1.00  0.00     0.031 A 
BRANCH  42  56
ATOM     56  C   UNL A   1      43.697  32.422  32.321  1.00  0.00    -0.014 A 
ATOM     57  C   UNL A   1      43.312  32.646  33.655  1.00  0.00     0.010 A 
ATOM     58  C   UNL A   1      44.223  33.489  31.570  1.00  0.00     0.010 A 
ATOM     59  C   UNL A   1      43.410  33.925  34.212  1.00  0.00     0.020 A 
ATOM     60  C   UNL A   1      44.343  34.763  32.130  1.00  0.00     0.020 A 
ATOM     61  C   UNL A   1      43.917  34.977  33.443  1.00  0.00     0.054 A 
BRANCH  61  62
ATOM     62  S   UNL A   1      44.035  36.627  34.189  1.00  0.00     0.124 S 
ATOM     63  O   UNL A   1      43.407  36.411  35.491  1.00  0.00    -0.237 OA
ATOM     64  O   UNL A   1      45.476  36.864  34.220  1.00  0.00    -0.237 OA
ATOM     65  O   UNL A   1      43.286  37.479  33.268  1.00  0.00    -0.744 OA
ENDBRANCH  61  62
ENDBRANCH  42  56
BRANCH  43  66
ATOM     66  C   UNL A   1      42.550  23.513  27.955  1.00  0.00    -0.014 A 
ATOM     67  C   UNL A   1      42.957  23.321  26.624  1.00  0.00     0.010 A 
ATOM     68  C   UNL A   1      42.000  22.432  28.668  1.00  0.00     0.010 A 
ATOM     69  C   UNL A   1      42.805  22.071  26.013  1.00  0.00     0.020 A 
ATOM     70  C   UNL A   1      41.869  21.177  28.069  1.00  0.00     0.020 A 
ATOM     71  C   UNL A   1      42.263  21.007  26.740  1.00  0.00     0.054 A 
BRANCH  71  72
ATOM     72  S   UNL A   1      42.129  19.380  25.949  1.00  0.00     0.124 S 
ATOM     73  O   UNL A   1      40.698  19.293  25.675  1.00  0.00    -0.237 OA
ATOM     74  O   UNL A   1      42.992  19.523  24.778  1.00  0.00    -0.237 OA
ATOM     75  O   UNL A   1      42.629  18.463  26.971  1.00  0.00    -0.744 OA
ENDBRANCH  71  72
ENDBRANCH  43  66
BRANCH  55  76
ATOM     76  C   UNL A   1      47.812  26.565  31.361  1.00  0.00    -0.014 A 
ATOM     77  C   UNL A   1      48.115  26.104  32.654  1.00  0.00     0.010 A 
ATOM     78  C   UNL A   1      48.813  26.552  30.374  1.00  0.00     0.010 A 
ATOM     79  C   UNL A   1      49.407  25.669  32.964  1.00  0.00     0.020 A 
ATOM     80  C   UNL A   1      50.100  26.096  30.673  1.00  0.00     0.020 A 
ATOM     81  C   UNL A   1      50.393  25.672  31.972  1.00  0.00     0.054 A 
BRANCH  81  82
ATOM     82  S   UNL A   1      52.053  25.069  32.384  1.00  0.00     0.124 S 
ATOM     83  O   UNL A   1      52.879  25.754  31.393  1.00  0.00    -0.237 OA
ATOM     84  O   UNL A   1      52.226  25.517  33.764  1.00  0.00    -0.237 OA
ATOM     85  O   UNL A   1      51.947  23.622  32.216  1.00  0.00    -0.744 OA
ENDBRANCH  81  82
ENDBRANCH  55  76
ENDBRANCH  29  30
ENDBRANCH  22  24
ENDBRANCH  21  22
ENDBRANCH  20  21
ENDBRANCH   1  20
TORSDOF 18
ENDMDL
