MODEL 1
REMARK VINA RESULT:     -11.9      0.000      0.000
REMARK SMILES O=C(OCCOC(=O)c1ccccc1OCC[S@](=O)c1cccc(F)c1)c1ccc(-c2c3nc(c(-c4ccc(S(=O)(=O)[O-])cc4)c4ccc([nH]4)c(-c4ccc(S(=O)(=O)[O-])cc4)c4nc(c(-c5ccc(S(=O)(=O)[O-])cc5)c5ccc2[nH]5)C=C4)C=C3)cc1
REMARK SMILES IDX 5 1 4 2 3 3 2 4 1 5 27 6 28 7 86 8 29 9 85 10 30 11 31 12
REMARK SMILES IDX 32 13 79 14 33 15 84 16 78 17 80 18 34 19 83 20 77 21 76 22
REMARK SMILES IDX 35 24 65 25 46 26 64 27 47 28 50 29 63 30 81 31 48 32 49 33
REMARK SMILES IDX 62 35 82 36 51 37 36 38 37 39 45 40 38 41 44 42 39 43 40 44
REMARK SMILES IDX 41 45 42 46 43 47 66 48 67 49 75 50 68 51 74 52 69 53 70 54
REMARK SMILES IDX 71 55 72 56 73 57 52 58 53 59 61 60 54 61 60 62 55 63 56 64
REMARK SMILES IDX 57 65 58 66 59 67 6 68 7 69 8 70 9 71 10 72 14 73 11 74
REMARK SMILES IDX 13 75 12 76 15 77 16 78 17 79 18 80 19 81 20 82 21 83 26 84
REMARK SMILES IDX 22 85 24 86 23 87 25 88
REMARK H PARENT 80 23 50 34
REMARK Flexibility Score: inf
ROOT
ATOM      1  C   UNL A   1      36.700  22.481  24.481  1.00  0.00     0.275 C 
ENDROOT
BRANCH   1   2
ATOM      2  C   UNL A   1      37.818  22.189  25.498  1.00  0.00     0.275 C 
BRANCH   2   3
ATOM      3  O   UNL A   1      38.427  23.398  26.023  1.00  0.00    -0.458 OA
BRANCH   3   4
ATOM      4  C   UNL A   1      39.593  23.426  26.738  1.00  0.00     0.338 C 
ATOM      5  O   UNL A   1      40.290  22.430  26.884  1.00  0.00    -0.246 OA
BRANCH   4   6
ATOM      6  C   UNL A   1      39.895  24.620  27.561  1.00  0.00     0.060 A 
ATOM      7  C   UNL A   1      38.772  25.028  28.852  1.00  0.00     0.016 A 
ATOM      8  C   UNL A   1      41.224  25.757  27.206  1.00  0.00     0.016 A 
ATOM      9  C   UNL A   1      38.885  26.597  29.808  1.00  0.00     0.010 A 
ATOM     10  C   UNL A   1      41.444  27.240  28.203  1.00  0.00     0.010 A 
ATOM     11  C   UNL A   1      40.277  27.728  29.506  1.00  0.00    -0.014 A 
BRANCH  11  12
ATOM     12  C   UNL A   1      40.546  28.882  30.438  1.00  0.00     0.031 A 
ATOM     13  C   UNL A   1      41.324  28.602  31.681  1.00  0.00     0.074 A 
ATOM     14  C   UNL A   1      39.917  30.076  30.319  1.00  0.00     0.049 A 
ATOM     15  N   UNL A   1      41.140  29.048  32.889  1.00  0.00    -0.248 NA
ATOM     16  C   UNL A   1      42.433  27.641  31.558  1.00  0.00     0.031 C 
ATOM     17  C   UNL A   1      39.355  30.682  29.117  1.00  0.00     0.029 A 
ATOM     18  N   UNL A   1      39.480  30.935  31.300  1.00  0.00    -0.354 N 
ATOM     19  C   UNL A   1      42.056  28.350  33.663  1.00  0.00     0.074 A 
ATOM     20  C   UNL A   1      42.637  27.328  32.829  1.00  0.00     0.031 C 
ATOM     21  C   UNL A   1      38.393  31.559  29.438  1.00  0.00     0.029 A 
ATOM     22  C   UNL A   1      38.429  31.735  30.875  1.00  0.00     0.049 A 
ATOM     23  H   UNL A   1      39.870  30.977  32.204  1.00  0.00     0.167 HD
ATOM     24  C   UNL A   1      42.487  28.641  34.908  1.00  0.00     0.031 A 
ATOM     25  C   UNL A   1      37.617  32.562  31.560  1.00  0.00     0.031 A 
ATOM     26  C   UNL A   1      42.075  29.832  35.588  1.00  0.00     0.049 A 
ATOM     27  C   UNL A   1      38.046  32.856  32.963  1.00  0.00     0.074 A 
ATOM     28  C   UNL A   1      42.580  30.383  36.749  1.00  0.00     0.029 A 
ATOM     29  N   UNL A   1      41.092  30.692  35.118  1.00  0.00    -0.354 N 
ATOM     30  N   UNL A   1      38.969  32.244  33.666  1.00  0.00    -0.248 NA
ATOM     31  C   UNL A   1      37.448  34.023  33.615  1.00  0.00     0.031 C 
ATOM     32  C   UNL A   1      41.863  31.554  37.008  1.00  0.00     0.029 A 
ATOM     33  C   UNL A   1      40.944  31.754  35.985  1.00  0.00     0.049 A 
ATOM     34  H   UNL A   1      40.577  30.564  34.290  1.00  0.00     0.167 HD
ATOM     35  C   UNL A   1      39.131  33.005  34.808  1.00  0.00     0.074 A 
ATOM     36  C   UNL A   1      38.193  34.110  34.708  1.00  0.00     0.031 C 
ATOM     37  C   UNL A   1      39.995  32.826  35.835  1.00  0.00     0.031 A 
BRANCH  24  38
ATOM     38  C   UNL A   1      43.516  27.741  35.532  1.00  0.00    -0.014 A 
ATOM     39  C   UNL A   1      43.145  26.625  36.307  1.00  0.00     0.010 A 
ATOM     40  C   UNL A   1      44.880  28.000  35.321  1.00  0.00     0.010 A 
ATOM     41  C   UNL A   1      44.115  25.814  36.897  1.00  0.00     0.020 A 
ATOM     42  C   UNL A   1      45.856  27.167  35.876  1.00  0.00     0.020 A 
ATOM     43  C   UNL A   1      45.466  26.085  36.669  1.00  0.00     0.054 A 
BRANCH  43  44
ATOM     44  S   UNL A   1      46.699  24.962  37.377  1.00  0.00     0.124 S 
ATOM     45  O   UNL A   1      47.938  25.711  37.181  1.00  0.00    -0.237 OA
ATOM     46  O   UNL A   1      46.254  24.838  38.762  1.00  0.00    -0.237 OA
ATOM     47  O   UNL A   1      46.569  23.751  36.571  1.00  0.00    -0.744 OA
ENDBRANCH  43  44
ENDBRANCH  24  38
BRANCH  25  48
ATOM     48  C   UNL A   1      36.482  33.277  30.910  1.00  0.00    -0.014 A 
ATOM     49  C   UNL A   1      36.698  34.128  29.810  1.00  0.00     0.010 A 
ATOM     50  C   UNL A   1      35.169  33.132  31.399  1.00  0.00     0.010 A 
ATOM     51  C   UNL A   1      35.645  34.868  29.258  1.00  0.00     0.020 A 
ATOM     52  C   UNL A   1      34.107  33.857  30.836  1.00  0.00     0.020 A 
ATOM     53  C   UNL A   1      34.358  34.739  29.783  1.00  0.00     0.054 A 
BRANCH  53  54
ATOM     54  S   UNL A   1      33.024  35.749  29.072  1.00  0.00     0.124 S 
ATOM     55  O   UNL A   1      33.771  36.797  28.382  1.00  0.00    -0.237 OA
ATOM     56  O   UNL A   1      32.335  34.792  28.209  1.00  0.00    -0.237 OA
ATOM     57  O   UNL A   1      32.263  36.188  30.239  1.00  0.00    -0.744 OA
ENDBRANCH  53  54
ENDBRANCH  25  48
BRANCH  37  58
ATOM     58  C   UNL A   1      39.952  33.845  36.923  1.00  0.00    -0.014 A 
ATOM     59  C   UNL A   1      40.556  35.097  36.734  1.00  0.00     0.010 A 
ATOM     60  C   UNL A   1      39.224  33.580  38.096  1.00  0.00     0.010 A 
ATOM     61  C   UNL A   1      40.435  36.078  37.710  1.00  0.00     0.020 A 
ATOM     62  C   UNL A   1      39.068  34.574  39.056  1.00  0.00     0.020 A 
ATOM     63  C   UNL A   1      39.679  35.815  38.857  1.00  0.00     0.054 A 
BRANCH  63  64
ATOM     64  S   UNL A   1      39.445  37.154  40.049  1.00  0.00     0.124 S 
ATOM     65  O   UNL A   1      38.607  36.514  41.060  1.00  0.00    -0.237 OA
ATOM     66  O   UNL A   1      40.815  37.450  40.463  1.00  0.00    -0.237 OA
ATOM     67  O   UNL A   1      38.793  38.202  39.270  1.00  0.00    -0.744 OA
ENDBRANCH  63  64
ENDBRANCH  37  58
ENDBRANCH  11  12
ENDBRANCH   4   6
ENDBRANCH   3   4
ENDBRANCH   2   3
ENDBRANCH   1   2
BRANCH   1  68
ATOM     68  O   UNL A   1      35.463  22.766  25.150  1.00  0.00    -0.458 OA
BRANCH  68  69
ATOM     69  C   UNL A   1      34.832  21.756  25.777  1.00  0.00     0.342 C 
ATOM     70  O   UNL A   1      34.755  21.625  26.989  1.00  0.00    -0.246 OA
BRANCH  69  71
ATOM     71  C   UNL A   1      34.015  20.970  24.798  1.00  0.00     0.102 A 
ATOM     72  C   UNL A   1      34.120  19.566  25.022  1.00  0.00     0.019 A 
ATOM     73  C   UNL A   1      32.987  21.431  23.937  1.00  0.00     0.133 A 
ATOM     74  C   UNL A   1      33.348  18.641  24.319  1.00  0.00     0.001 A 
ATOM     75  C   UNL A   1      32.377  20.471  23.091  1.00  0.00     0.047 A 
ATOM     76  C   UNL A   1      32.538  19.093  23.292  1.00  0.00     0.004 A 
BRANCH  73  77
ATOM     77  O   UNL A   1      32.263  22.609  23.910  1.00  0.00    -0.492 OA
BRANCH  77  78
ATOM     78  C   UNL A   1      32.271  23.756  23.013  1.00  0.00     0.243 C 
BRANCH  78  79
ATOM     79  C   UNL A   1      31.489  25.190  22.991  1.00  0.00     0.152 C 
BRANCH  79  80
ATOM     80  S   UNL A   1      30.991  26.624  24.416  1.00  0.00     0.056 S 
ATOM     81  O   UNL A   1      30.573  25.884  25.658  1.00  0.00    -0.254 OA
BRANCH  80  82
ATOM     82  C   UNL A   1      29.574  28.623  23.555  1.00  0.00     0.042 A 
ATOM     83  C   UNL A   1      28.201  28.700  22.934  1.00  0.00     0.018 A 
ATOM     84  C   UNL A   1      29.862  30.153  23.763  1.00  0.00     0.057 A 
ATOM     85  C   UNL A   1      27.324  29.845  22.906  1.00  0.00     0.004 A 
ATOM     86  C   UNL A   1      28.994  31.254  23.726  1.00  0.00     0.124 A 
ATOM     87  C   UNL A   1      27.694  31.092  23.372  1.00  0.00     0.039 A 
ATOM     88  F   UNL A   1      29.462  32.461  24.074  1.00  0.00    -0.207 F 
ENDBRANCH  80  82
ENDBRANCH  79  80
ENDBRANCH  78  79
ENDBRANCH  77  78
ENDBRANCH  73  77
ENDBRANCH  69  71
ENDBRANCH  68  69
ENDBRANCH   1  68
TORSDOF 19
ENDMDL
MODEL 2
REMARK VINA RESULT:     -11.8      7.227      9.490
REMARK SMILES O=C(OCCOC(=O)c1ccccc1OCC[S@](=O)c1cccc(F)c1)c1ccc(-c2c3nc(c(-c4ccc(S(=O)(=O)[O-])cc4)c4ccc([nH]4)c(-c4ccc(S(=O)(=O)[O-])cc4)c4nc(c(-c5ccc(S(=O)(=O)[O-])cc5)c5ccc2[nH]5)C=C4)C=C3)cc1
REMARK SMILES IDX 5 1 4 2 3 3 2 4 1 5 27 6 28 7 86 8 29 9 85 10 30 11 31 12
REMARK SMILES IDX 32 13 79 14 33 15 84 16 78 17 80 18 34 19 83 20 77 21 76 22
REMARK SMILES IDX 35 24 65 25 46 26 64 27 47 28 50 29 63 30 81 31 48 32 49 33
REMARK SMILES IDX 62 35 82 36 51 37 36 38 37 39 45 40 38 41 44 42 39 43 40 44
REMARK SMILES IDX 41 45 42 46 43 47 66 48 67 49 75 50 68 51 74 52 69 53 70 54
REMARK SMILES IDX 71 55 72 56 73 57 52 58 53 59 61 60 54 61 60 62 55 63 56 64
REMARK SMILES IDX 57 65 58 66 59 67 6 68 7 69 8 70 9 71 10 72 14 73 11 74
REMARK SMILES IDX 13 75 12 76 15 77 16 78 17 79 18 80 19 81 20 82 21 83 26 84
REMARK SMILES IDX 22 85 24 86 23 87 25 88
REMARK H PARENT 80 23 50 34
REMARK Flexibility Score: inf
ROOT
ATOM      1  C   UNL A   1      42.211  18.844  27.480  1.00  0.00     0.275 C 
ENDROOT
BRANCH   1   2
ATOM      2  C   UNL A   1      43.024  17.820  26.667  1.00  0.00     0.275 C 
BRANCH   2   3
ATOM      3  O   UNL A   1      43.399  18.318  25.355  1.00  0.00    -0.458 OA
BRANCH   3   4
ATOM      4  C   UNL A   1      44.627  18.838  25.049  1.00  0.00     0.338 C 
ATOM      5  O   UNL A   1      45.632  18.140  24.994  1.00  0.00    -0.246 OA
BRANCH   4   6
ATOM      6  C   UNL A   1      44.792  20.309  25.028  1.00  0.00     0.060 A 
ATOM      7  C   UNL A   1      44.915  21.140  26.573  1.00  0.00     0.016 A 
ATOM      8  C   UNL A   1      44.696  21.295  23.543  1.00  0.00     0.016 A 
ATOM      9  C   UNL A   1      44.895  22.975  26.719  1.00  0.00     0.010 A 
ATOM     10  C   UNL A   1      44.802  23.090  23.634  1.00  0.00     0.010 A 
ATOM     11  C   UNL A   1      44.872  23.990  25.210  1.00  0.00    -0.014 A 
BRANCH  11  12
ATOM     12  C   UNL A   1      45.115  25.476  25.280  1.00  0.00     0.031 A 
ATOM     13  C   UNL A   1      46.532  25.943  25.356  1.00  0.00     0.074 A 
ATOM     14  C   UNL A   1      44.123  26.367  25.518  1.00  0.00     0.049 A 
ATOM     15  N   UNL A   1      47.050  26.895  26.075  1.00  0.00    -0.248 NA
ATOM     16  C   UNL A   1      47.512  25.198  24.550  1.00  0.00     0.031 C 
ATOM     17  C   UNL A   1      42.700  26.229  25.226  1.00  0.00     0.029 A 
ATOM     18  N   UNL A   1      44.151  27.531  26.249  1.00  0.00    -0.354 N 
ATOM     19  C   UNL A   1      48.417  26.790  25.862  1.00  0.00     0.074 A 
ATOM     20  C   UNL A   1      48.647  25.576  25.120  1.00  0.00     0.031 C 
ATOM     21  C   UNL A   1      41.976  27.018  26.033  1.00  0.00     0.029 A 
ATOM     22  C   UNL A   1      42.901  27.878  26.742  1.00  0.00     0.049 A 
ATOM     23  H   UNL A   1      44.967  28.060  26.405  1.00  0.00     0.167 HD
ATOM     24  C   UNL A   1      49.373  27.706  26.121  1.00  0.00     0.031 A 
ATOM     25  C   UNL A   1      42.534  28.821  27.630  1.00  0.00     0.031 A 
ATOM     26  C   UNL A   1      49.051  29.013  26.610  1.00  0.00     0.049 A 
ATOM     27  C   UNL A   1      43.596  29.816  27.975  1.00  0.00     0.074 A 
ATOM     28  C   UNL A   1      49.867  30.121  26.717  1.00  0.00     0.029 A 
ATOM     29  N   UNL A   1      47.779  29.398  27.013  1.00  0.00    -0.354 N 
ATOM     30  N   UNL A   1      44.877  29.752  27.703  1.00  0.00    -0.248 NA
ATOM     31  C   UNL A   1      43.162  31.065  28.606  1.00  0.00     0.031 C 
ATOM     32  C   UNL A   1      49.096  31.166  27.235  1.00  0.00     0.029 A 
ATOM     33  C   UNL A   1      47.792  30.719  27.407  1.00  0.00     0.049 A 
ATOM     34  H   UNL A   1      46.987  28.816  27.016  1.00  0.00     0.167 HD
ATOM     35  C   UNL A   1      45.392  30.988  28.043  1.00  0.00     0.074 A 
ATOM     36  C   UNL A   1      44.284  31.771  28.563  1.00  0.00     0.031 C 
ATOM     37  C   UNL A   1      46.658  31.448  27.915  1.00  0.00     0.031 A 
BRANCH  24  38
ATOM     38  C   UNL A   1      50.795  27.368  25.771  1.00  0.00    -0.014 A 
ATOM     39  C   UNL A   1      51.418  27.906  24.628  1.00  0.00     0.010 A 
ATOM     40  C   UNL A   1      51.531  26.517  26.611  1.00  0.00     0.010 A 
ATOM     41  C   UNL A   1      52.732  27.562  24.306  1.00  0.00     0.020 A 
ATOM     42  C   UNL A   1      52.861  26.203  26.315  1.00  0.00     0.020 A 
ATOM     43  C   UNL A   1      53.449  26.720  25.159  1.00  0.00     0.054 A 
BRANCH  43  44
ATOM     44  S   UNL A   1      55.180  26.364  24.761  1.00  0.00     0.124 S 
ATOM     45  O   UNL A   1      55.214  26.601  23.320  1.00  0.00    -0.237 OA
ATOM     46  O   UNL A   1      55.898  27.342  25.574  1.00  0.00    -0.237 OA
ATOM     47  O   UNL A   1      55.351  24.972  25.168  1.00  0.00    -0.744 OA
ENDBRANCH  43  44
ENDBRANCH  24  38
BRANCH  25  48
ATOM     48  C   UNL A   1      41.122  28.974  28.087  1.00  0.00    -0.014 A 
ATOM     49  C   UNL A   1      40.104  29.327  27.183  1.00  0.00     0.010 A 
ATOM     50  C   UNL A   1      40.784  28.788  29.441  1.00  0.00     0.010 A 
ATOM     51  C   UNL A   1      38.796  29.557  27.630  1.00  0.00     0.020 A 
ATOM     52  C   UNL A   1      39.471  28.998  29.891  1.00  0.00     0.020 A 
ATOM     53  C   UNL A   1      38.490  29.405  28.984  1.00  0.00     0.054 A 
BRANCH  53  54
ATOM     54  S   UNL A   1      36.795  29.757  29.536  1.00  0.00     0.124 S 
ATOM     55  O   UNL A   1      36.836  31.201  29.747  1.00  0.00    -0.237 OA
ATOM     56  O   UNL A   1      35.997  29.306  28.398  1.00  0.00    -0.237 OA
ATOM     57  O   UNL A   1      36.652  28.952  30.747  1.00  0.00    -0.744 OA
ENDBRANCH  53  54
ENDBRANCH  25  48
BRANCH  37  58
ATOM     58  C   UNL A   1      46.902  32.854  28.350  1.00  0.00    -0.014 A 
ATOM     59  C   UNL A   1      47.355  33.115  29.651  1.00  0.00     0.010 A 
ATOM     60  C   UNL A   1      46.768  33.902  27.422  1.00  0.00     0.010 A 
ATOM     61  C   UNL A   1      47.671  34.415  30.025  1.00  0.00     0.020 A 
ATOM     62  C   UNL A   1      47.122  35.198  27.783  1.00  0.00     0.020 A 
ATOM     63  C   UNL A   1      47.568  35.444  29.084  1.00  0.00     0.054 A 
BRANCH  63  64
ATOM     64  S   UNL A   1      48.101  37.102  29.571  1.00  0.00     0.124 S 
ATOM     65  O   UNL A   1      48.355  37.729  28.277  1.00  0.00    -0.237 OA
ATOM     66  O   UNL A   1      46.937  37.606  30.297  1.00  0.00    -0.237 OA
ATOM     67  O   UNL A   1      49.284  36.859  30.391  1.00  0.00    -0.744 OA
ENDBRANCH  63  64
ENDBRANCH  37  58
ENDBRANCH  11  12
ENDBRANCH   4   6
ENDBRANCH   3   4
ENDBRANCH   2   3
ENDBRANCH   1   2
BRANCH   1  68
ATOM     68  O   UNL A   1      41.907  20.000  26.686  1.00  0.00    -0.458 OA
BRANCH  68  69
ATOM     69  C   UNL A   1      40.659  20.124  26.195  1.00  0.00     0.342 C 
ATOM     70  O   UNL A   1      39.986  19.204  25.758  1.00  0.00    -0.246 OA
BRANCH  69  71
ATOM     71  C   UNL A   1      40.116  21.486  26.502  1.00  0.00     0.102 A 
ATOM     72  C   UNL A   1      41.106  22.337  27.074  1.00  0.00     0.019 A 
ATOM     73  C   UNL A   1      38.912  22.078  26.043  1.00  0.00     0.133 A 
ATOM     74  C   UNL A   1      40.869  23.689  27.322  1.00  0.00     0.001 A 
ATOM     75  C   UNL A   1      38.625  23.389  26.501  1.00  0.00     0.047 A 
ATOM     76  C   UNL A   1      39.598  24.193  27.113  1.00  0.00     0.004 A 
BRANCH  73  77
ATOM     77  O   UNL A   1      38.043  21.736  25.024  1.00  0.00    -0.492 OA
BRANCH  77  78
ATOM     78  C   UNL A   1      36.784  21.003  25.000  1.00  0.00     0.243 C 
BRANCH  78  79
ATOM     79  C   UNL A   1      35.275  21.314  25.543  1.00  0.00     0.152 C 
BRANCH  79  80
ATOM     80  S   UNL A   1      34.432  22.684  26.866  1.00  0.00     0.056 S 
ATOM     81  O   UNL A   1      33.660  21.892  27.886  1.00  0.00    -0.254 OA
BRANCH  80  82
ATOM     82  C   UNL A   1      33.373  24.792  25.781  1.00  0.00     0.042 A 
ATOM     83  C   UNL A   1      33.972  26.078  25.267  1.00  0.00     0.018 A 
ATOM     84  C   UNL A   1      31.897  24.959  25.272  1.00  0.00     0.057 A 
ATOM     85  C   UNL A   1      33.397  26.975  24.294  1.00  0.00     0.004 A 
ATOM     86  C   UNL A   1      31.356  25.844  24.327  1.00  0.00     0.124 A 
ATOM     87  C   UNL A   1      32.129  26.812  23.771  1.00  0.00     0.039 A 
ATOM     88  F   UNL A   1      30.074  25.699  23.961  1.00  0.00    -0.207 F 
ENDBRANCH  80  82
ENDBRANCH  79  80
ENDBRANCH  78  79
ENDBRANCH  77  78
ENDBRANCH  73  77
ENDBRANCH  69  71
ENDBRANCH  68  69
ENDBRANCH   1  68
TORSDOF 19
ENDMDL
MODEL 3
REMARK VINA RESULT:     -11.7      7.416     10.068
REMARK SMILES O=C(OCCOC(=O)c1ccccc1OCC[S@](=O)c1cccc(F)c1)c1ccc(-c2c3nc(c(-c4ccc(S(=O)(=O)[O-])cc4)c4ccc([nH]4)c(-c4ccc(S(=O)(=O)[O-])cc4)c4nc(c(-c5ccc(S(=O)(=O)[O-])cc5)c5ccc2[nH]5)C=C4)C=C3)cc1
REMARK SMILES IDX 5 1 4 2 3 3 2 4 1 5 27 6 28 7 86 8 29 9 85 10 30 11 31 12
REMARK SMILES IDX 32 13 79 14 33 15 84 16 78 17 80 18 34 19 83 20 77 21 76 22
REMARK SMILES IDX 35 24 65 25 46 26 64 27 47 28 50 29 63 30 81 31 48 32 49 33
REMARK SMILES IDX 62 35 82 36 51 37 36 38 37 39 45 40 38 41 44 42 39 43 40 44
REMARK SMILES IDX 41 45 42 46 43 47 66 48 67 49 75 50 68 51 74 52 69 53 70 54
REMARK SMILES IDX 71 55 72 56 73 57 52 58 53 59 61 60 54 61 60 62 55 63 56 64
REMARK SMILES IDX 57 65 58 66 59 67 6 68 7 69 8 70 9 71 10 72 14 73 11 74
REMARK SMILES IDX 13 75 12 76 15 77 16 78 17 79 18 80 19 81 20 82 21 83 26 84
REMARK SMILES IDX 22 85 24 86 23 87 25 88
REMARK H PARENT 80 23 50 34
REMARK Flexibility Score: inf
ROOT
ATOM      1  C   UNL A   1      42.052  19.058  27.465  1.00  0.00     0.275 C 
ENDROOT
BRANCH   1   2
ATOM      2  C   UNL A   1      42.885  18.020  26.690  1.00  0.00     0.275 C 
BRANCH   2   3
ATOM      3  O   UNL A   1      43.308  18.502  25.387  1.00  0.00    -0.458 OA
BRANCH   3   4
ATOM      4  C   UNL A   1      44.564  18.968  25.109  1.00  0.00     0.338 C 
ATOM      5  O   UNL A   1      45.541  18.230  25.088  1.00  0.00    -0.246 OA
BRANCH   4   6
ATOM      6  C   UNL A   1      44.789  20.432  25.076  1.00  0.00     0.060 A 
ATOM      7  C   UNL A   1      44.947  21.269  26.615  1.00  0.00     0.016 A 
ATOM      8  C   UNL A   1      44.732  21.409  23.584  1.00  0.00     0.016 A 
ATOM      9  C   UNL A   1      45.000  23.104  26.745  1.00  0.00     0.010 A 
ATOM     10  C   UNL A   1      44.911  23.199  23.660  1.00  0.00     0.010 A 
ATOM     11  C   UNL A   1      45.018  24.108  25.229  1.00  0.00    -0.014 A 
BRANCH  11  12
ATOM     12  C   UNL A   1      45.322  25.583  25.287  1.00  0.00     0.031 A 
ATOM     13  C   UNL A   1      46.753  25.991  25.409  1.00  0.00     0.074 A 
ATOM     14  C   UNL A   1      44.360  26.518  25.475  1.00  0.00     0.049 A 
ATOM     15  N   UNL A   1      47.285  26.932  26.134  1.00  0.00    -0.248 NA
ATOM     16  C   UNL A   1      47.730  25.193  24.650  1.00  0.00     0.031 C 
ATOM     17  C   UNL A   1      42.944  26.435  25.133  1.00  0.00     0.029 A 
ATOM     18  N   UNL A   1      44.411  27.692  26.190  1.00  0.00    -0.354 N 
ATOM     19  C   UNL A   1      48.653  26.766  25.972  1.00  0.00     0.074 A 
ATOM     20  C   UNL A   1      48.858  25.532  25.257  1.00  0.00     0.031 C 
ATOM     21  C   UNL A   1      42.226  27.267  25.900  1.00  0.00     0.029 A 
ATOM     22  C   UNL A   1      43.160  28.098  26.632  1.00  0.00     0.049 A 
ATOM     23  H   UNL A   1      45.242  28.188  26.369  1.00  0.00     0.167 HD
ATOM     24  C   UNL A   1      49.637  27.645  26.254  1.00  0.00     0.031 A 
ATOM     25  C   UNL A   1      42.801  29.070  27.491  1.00  0.00     0.031 A 
ATOM     26  C   UNL A   1      49.353  28.972  26.713  1.00  0.00     0.049 A 
ATOM     27  C   UNL A   1      43.891  30.025  27.862  1.00  0.00     0.074 A 
ATOM     28  C   UNL A   1      50.211  30.046  26.834  1.00  0.00     0.029 A 
ATOM     29  N   UNL A   1      48.085  29.416  27.062  1.00  0.00    -0.354 N 
ATOM     30  N   UNL A   1      45.178  29.903  27.638  1.00  0.00    -0.248 NA
ATOM     31  C   UNL A   1      43.488  31.301  28.459  1.00  0.00     0.031 C 
ATOM     32  C   UNL A   1      49.467  31.130  27.308  1.00  0.00     0.029 A 
ATOM     33  C   UNL A   1      48.140  30.742  27.438  1.00  0.00     0.049 A 
ATOM     34  H   UNL A   1      47.269  28.868  27.044  1.00  0.00     0.167 HD
ATOM     35  C   UNL A   1      45.731  31.121  27.981  1.00  0.00     0.074 A 
ATOM     36  C   UNL A   1      44.640  31.958  28.448  1.00  0.00     0.031 C 
ATOM     37  C   UNL A   1      47.020  31.525  27.893  1.00  0.00     0.031 A 
BRANCH  24  38
ATOM     38  C   UNL A   1      51.055  27.242  25.962  1.00  0.00    -0.014 A 
ATOM     39  C   UNL A   1      51.837  26.560  26.914  1.00  0.00     0.010 A 
ATOM     40  C   UNL A   1      51.609  27.528  24.704  1.00  0.00     0.010 A 
ATOM     41  C   UNL A   1      53.159  26.214  26.632  1.00  0.00     0.020 A 
ATOM     42  C   UNL A   1      52.921  27.148  24.402  1.00  0.00     0.020 A 
ATOM     43  C   UNL A   1      53.690  26.501  25.372  1.00  0.00     0.054 A 
BRANCH  43  44
ATOM     44  S   UNL A   1      55.380  25.961  25.007  1.00  0.00     0.124 S 
ATOM     45  O   UNL A   1      56.148  26.647  26.043  1.00  0.00    -0.237 OA
ATOM     46  O   UNL A   1      55.285  24.511  25.153  1.00  0.00    -0.237 OA
ATOM     47  O   UNL A   1      55.609  26.435  23.645  1.00  0.00    -0.744 OA
ENDBRANCH  43  44
ENDBRANCH  24  38
BRANCH  25  48
ATOM     48  C   UNL A   1      41.381  29.289  27.894  1.00  0.00    -0.014 A 
ATOM     49  C   UNL A   1      41.034  29.482  29.243  1.00  0.00     0.010 A 
ATOM     50  C   UNL A   1      40.355  29.283  26.929  1.00  0.00     0.010 A 
ATOM     51  C   UNL A   1      39.692  29.597  29.628  1.00  0.00     0.020 A 
ATOM     52  C   UNL A   1      39.010  29.418  27.308  1.00  0.00     0.020 A 
ATOM     53  C   UNL A   1      38.687  29.551  28.661  1.00  0.00     0.054 A 
BRANCH  53  54
ATOM     54  S   UNL A   1      36.955  29.657  29.201  1.00  0.00     0.124 S 
ATOM     55  O   UNL A   1      36.765  31.099  29.331  1.00  0.00    -0.237 OA
ATOM     56  O   UNL A   1      36.243  29.023  28.094  1.00  0.00    -0.237 OA
ATOM     57  O   UNL A   1      36.938  28.909  30.456  1.00  0.00    -0.744 OA
ENDBRANCH  53  54
ENDBRANCH  25  48
BRANCH  37  58
ATOM     58  C   UNL A   1      47.307  32.926  28.317  1.00  0.00    -0.014 A 
ATOM     59  C   UNL A   1      47.201  33.974  27.389  1.00  0.00     0.010 A 
ATOM     60  C   UNL A   1      47.590  33.201  29.666  1.00  0.00     0.010 A 
ATOM     61  C   UNL A   1      47.376  35.287  27.806  1.00  0.00     0.020 A 
ATOM     62  C   UNL A   1      47.725  34.518  30.093  1.00  0.00     0.020 A 
ATOM     63  C   UNL A   1      47.621  35.551  29.158  1.00  0.00     0.054 A 
BRANCH  63  64
ATOM     64  S   UNL A   1      47.726  37.277  29.684  1.00  0.00     0.124 S 
ATOM     65  O   UNL A   1      48.511  37.171  30.911  1.00  0.00    -0.237 OA
ATOM     66  O   UNL A   1      48.404  37.910  28.555  1.00  0.00    -0.237 OA
ATOM     67  O   UNL A   1      46.331  37.669  29.867  1.00  0.00    -0.744 OA
ENDBRANCH  63  64
ENDBRANCH  37  58
ENDBRANCH  11  12
ENDBRANCH   4   6
ENDBRANCH   3   4
ENDBRANCH   2   3
ENDBRANCH   1   2
BRANCH   1  68
ATOM     68  O   UNL A   1      41.844  20.238  26.676  1.00  0.00    -0.458 OA
BRANCH  68  69
ATOM     69  C   UNL A   1      40.579  20.600  26.394  1.00  0.00     0.342 C 
ATOM     70  O   UNL A   1      39.710  19.845  25.988  1.00  0.00    -0.246 OA
BRANCH  69  71
ATOM     71  C   UNL A   1      40.314  21.986  26.898  1.00  0.00     0.102 A 
ATOM     72  C   UNL A   1      41.471  22.564  27.498  1.00  0.00     0.019 A 
ATOM     73  C   UNL A   1      39.224  22.841  26.595  1.00  0.00     0.133 A 
ATOM     74  C   UNL A   1      41.503  23.893  27.921  1.00  0.00     0.001 A 
ATOM     75  C   UNL A   1      39.208  24.111  27.224  1.00  0.00     0.047 A 
ATOM     76  C   UNL A   1      40.340  24.640  27.860  1.00  0.00     0.004 A 
BRANCH  73  77
ATOM     77  O   UNL A   1      38.261  22.796  25.603  1.00  0.00    -0.492 OA
BRANCH  77  78
ATOM     78  C   UNL A   1      36.862  22.389  25.599  1.00  0.00     0.243 C 
BRANCH  78  79
ATOM     79  C   UNL A   1      35.456  23.152  25.273  1.00  0.00     0.152 C 
BRANCH  79  80
ATOM     80  S   UNL A   1      33.532  22.550  24.749  1.00  0.00     0.056 S 
ATOM     81  O   UNL A   1      32.583  23.237  25.693  1.00  0.00    -0.254 OA
BRANCH  80  82
ATOM     82  C   UNL A   1      33.247  20.021  24.229  1.00  0.00     0.042 A 
ATOM     83  C   UNL A   1      32.351  19.278  23.270  1.00  0.00     0.018 A 
ATOM     84  C   UNL A   1      34.169  18.843  24.706  1.00  0.00     0.057 A 
ATOM     85  C   UNL A   1      32.566  17.959  22.726  1.00  0.00     0.004 A 
ATOM     86  C   UNL A   1      34.360  17.562  24.164  1.00  0.00     0.124 A 
ATOM     87  C   UNL A   1      33.610  17.142  23.115  1.00  0.00     0.039 A 
ATOM     88  F   UNL A   1      35.315  16.775  24.681  1.00  0.00    -0.207 F 
ENDBRANCH  80  82
ENDBRANCH  79  80
ENDBRANCH  78  79
ENDBRANCH  77  78
ENDBRANCH  73  77
ENDBRANCH  69  71
ENDBRANCH  68  69
ENDBRANCH   1  68
TORSDOF 19
ENDMDL
