MODEL 1
REMARK VINA RESULT:     -10.3      0.000      0.000
REMARK SMILES COc1ccc([C@@H]2CC(c3ccc(Cl)cc3)=NN2C2=[NH+]C(=O)[C@@H](CC(=O)OCCOC(=O)c3ccc(-c4c5nc(c(-c6ccc(S(=O)(=O)[O-])cc6)c6ccc([nH]6)c(-c6ccc(S(=O)(=O)[O-])cc6)c6nc(c(-c7ccc(S(=O)(=O)[O-])cc7)c7ccc4[nH]7)C=C6)C=C5)cc3)S2)cc1OC
REMARK SMILES IDX 28 1 27 2 25 3 26 4 24 5 23 6 19 7 20 8 93 9 21 10 22 12
REMARK SMILES IDX 18 13 7 14 8 15 9 16 17 17 6 18 3 19 4 20 95 21 5 22 94 23
REMARK SMILES IDX 2 24 1 25 96 26 97 27 10 28 11 29 16 30 12 31 15 32 13 33
REMARK SMILES IDX 14 34 29 35 30 36 31 37 32 38 33 39 34 40 92 41 35 42 91 43
REMARK SMILES IDX 36 44 37 45 38 46 85 47 39 48 90 49 84 50 86 51 40 52 89 53
REMARK SMILES IDX 83 54 82 55 41 57 71 58 52 59 70 60 53 61 56 62 69 63 87 64
REMARK SMILES IDX 54 65 55 66 68 68 88 69 57 70 42 71 43 72 51 73 44 74 50 75
REMARK SMILES IDX 45 76 46 77 47 78 48 79 49 80 72 81 73 82 81 83 74 84 80 85
REMARK SMILES IDX 75 86 76 87 77 88 78 89 79 90 58 91 59 92 67 93 60 94 66 95
REMARK SMILES IDX 61 96 62 97 63 98 64 99 65 100
REMARK H PARENT 20 11 86 56 56 67
REMARK Flexibility Score: inf
ROOT
ATOM      1  C   UNL A   1      34.971  30.024  27.441  1.00  0.00     0.274 C 
ENDROOT
BRANCH   1   2
ATOM      2  O   UNL A   1      33.548  30.236  27.476  1.00  0.00    -0.462 OA
BRANCH   2   3
ATOM      3  C   UNL A   1      32.803  29.488  26.628  1.00  0.00     0.307 C 
ATOM      4  O   UNL A   1      31.632  29.709  26.346  1.00  0.00    -0.252 OA
BRANCH   3   5
ATOM      5  C   UNL A   1      33.546  28.287  26.114  1.00  0.00     0.150 C 
BRANCH   5   6
ATOM      6  C   UNL A   1      32.731  27.321  25.260  1.00  0.00     0.184 C 
ATOM      7  C   UNL A   1      33.817  25.067  25.367  1.00  0.00     0.340 C 
ATOM      8  N   UNL A   1      32.970  25.162  26.337  1.00  0.00    -0.202 N 
ATOM      9  S   UNL A   1      33.737  26.310  24.135  1.00  0.00    -0.020 SA
ATOM     10  C   UNL A   1      32.160  26.269  26.198  1.00  0.00     0.322 C 
ATOM     11  H   UNL A   1      32.911  24.524  27.085  1.00  0.00     0.316 HD
ATOM     12  O   UNL A   1      31.145  26.457  26.855  1.00  0.00    -0.246 OA
BRANCH   7  13
ATOM     13  N   UNL A   1      34.827  24.146  25.247  1.00  0.00    -0.120 N 
ATOM     14  C   UNL A   1      35.065  23.476  23.962  1.00  0.00     0.243 C 
ATOM     15  C   UNL A   1      36.469  22.891  24.103  1.00  0.00     0.118 C 
ATOM     16  C   UNL A   1      36.856  23.480  25.426  1.00  0.00     0.096 C 
ATOM     17  N   UNL A   1      35.937  24.146  26.048  1.00  0.00    -0.086 NA
BRANCH  14  18
ATOM     18  C   UNL A   1      33.954  22.477  23.681  1.00  0.00     0.003 A 
ATOM     19  C   UNL A   1      32.245  20.339  22.979  1.00  0.00     0.160 A 
ATOM     20  C   UNL A   1      32.336  21.475  22.164  1.00  0.00     0.051 A 
ATOM     21  C   UNL A   1      32.982  20.273  24.165  1.00  0.00     0.161 A 
ATOM     22  C   UNL A   1      33.175  22.539  22.515  1.00  0.00     0.012 A 
ATOM     23  C   UNL A   1      33.814  21.351  24.510  1.00  0.00     0.058 A 
BRANCH  19  24
ATOM     24  O   UNL A   1      31.562  19.248  22.514  1.00  0.00    -0.493 OA
ATOM     25  C   UNL A   1      32.407  18.143  22.212  1.00  0.00     0.278 C 
ENDBRANCH  19  24
BRANCH  21  26
ATOM     26  O   UNL A   1      33.058  19.247  25.067  1.00  0.00    -0.493 OA
ATOM     27  C   UNL A   1      33.280  19.554  26.435  1.00  0.00     0.278 C 
ENDBRANCH  21  26
ENDBRANCH  14  18
BRANCH  16  28
ATOM     28  C   UNL A   1      38.193  23.284  25.996  1.00  0.00     0.000 A 
ATOM     29  C   UNL A   1      38.768  22.011  25.922  1.00  0.00     0.011 A 
ATOM     30  C   UNL A   1      38.846  24.326  26.659  1.00  0.00     0.011 A 
ATOM     31  C   UNL A   1      40.018  21.784  26.498  1.00  0.00     0.021 A 
ATOM     32  C   UNL A   1      40.090  24.087  27.251  1.00  0.00     0.021 A 
ATOM     33  C   UNL A   1      40.672  22.821  27.162  1.00  0.00     0.041 A 
ATOM     34  Cl  UNL A   1      42.204  22.534  27.889  1.00  0.00    -0.084 Cl
ENDBRANCH  16  28
ENDBRANCH   7  13
ENDBRANCH   5   6
ENDBRANCH   3   5
ENDBRANCH   2   3
ENDBRANCH   1   2
BRANCH   1  35
ATOM     35  C   UNL A   1      35.668  30.636  28.657  1.00  0.00     0.275 C 
BRANCH  35  36
ATOM     36  O   UNL A   1      37.096  30.506  28.568  1.00  0.00    -0.458 OA
BRANCH  36  37
ATOM     37  C   UNL A   1      37.618  29.487  29.287  1.00  0.00     0.338 C 
ATOM     38  O   UNL A   1      37.041  28.791  30.109  1.00  0.00    -0.246 OA
BRANCH  37  39
ATOM     39  C   UNL A   1      38.994  29.228  28.855  1.00  0.00     0.060 A 
ATOM     40  C   UNL A   1      39.957  28.951  29.829  1.00  0.00     0.016 A 
ATOM     41  C   UNL A   1      39.347  29.351  27.511  1.00  0.00     0.016 A 
ATOM     42  C   UNL A   1      41.292  28.819  29.465  1.00  0.00     0.010 A 
ATOM     43  C   UNL A   1      40.686  29.205  27.147  1.00  0.00     0.010 A 
ATOM     44  C   UNL A   1      41.667  28.959  28.124  1.00  0.00    -0.014 A 
BRANCH  44  45
ATOM     45  C   UNL A   1      43.098  28.904  27.749  1.00  0.00     0.031 A 
ATOM     46  C   UNL A   1      43.666  27.637  27.177  1.00  0.00     0.074 A 
ATOM     47  C   UNL A   1      43.874  29.990  27.919  1.00  0.00     0.049 A 
ATOM     48  N   UNL A   1      44.903  27.357  26.861  1.00  0.00    -0.248 NA
ATOM     49  C   UNL A   1      42.716  26.539  26.933  1.00  0.00     0.031 C 
ATOM     50  C   UNL A   1      43.417  31.286  28.423  1.00  0.00     0.029 A 
ATOM     51  N   UNL A   1      45.212  30.174  27.686  1.00  0.00    -0.354 N 
ATOM     52  C   UNL A   1      44.886  26.045  26.401  1.00  0.00     0.074 A 
ATOM     53  C   UNL A   1      43.521  25.578  26.502  1.00  0.00     0.031 C 
ATOM     54  C   UNL A   1      44.459  32.133  28.459  1.00  0.00     0.029 A 
ATOM     55  C   UNL A   1      45.661  31.427  28.025  1.00  0.00     0.049 A 
ATOM     56  H   UNL A   1      45.796  29.474  27.312  1.00  0.00     0.167 HD
ATOM     57  C   UNL A   1      45.918  25.301  25.936  1.00  0.00     0.031 A 
ATOM     58  C   UNL A   1      46.906  31.940  28.009  1.00  0.00     0.031 A 
ATOM     59  C   UNL A   1      47.274  25.778  25.844  1.00  0.00     0.049 A 
ATOM     60  C   UNL A   1      48.045  31.075  27.545  1.00  0.00     0.074 A 
ATOM     61  C   UNL A   1      48.393  25.108  25.379  1.00  0.00     0.029 A 
ATOM     62  N   UNL A   1      47.694  27.045  26.222  1.00  0.00    -0.354 N 
ATOM     63  N   UNL A   1      48.016  29.835  27.115  1.00  0.00    -0.248 NA
ATOM     64  C   UNL A   1      49.384  31.678  27.561  1.00  0.00     0.031 C 
ATOM     65  C   UNL A   1      49.498  25.954  25.524  1.00  0.00     0.029 A 
ATOM     66  C   UNL A   1      49.059  27.170  26.024  1.00  0.00     0.049 A 
ATOM     67  H   UNL A   1      47.109  27.751  26.580  1.00  0.00     0.167 HD
ATOM     68  C   UNL A   1      49.329  29.519  26.784  1.00  0.00     0.074 A 
ATOM     69  C   UNL A   1      50.123  30.701  27.052  1.00  0.00     0.031 C 
ATOM     70  C   UNL A   1      49.832  28.356  26.298  1.00  0.00     0.031 A 
BRANCH  57  71
ATOM     71  C   UNL A   1      45.624  23.881  25.531  1.00  0.00    -0.014 A 
ATOM     72  C   UNL A   1      45.369  23.539  24.191  1.00  0.00     0.010 A 
ATOM     73  C   UNL A   1      45.630  22.866  26.506  1.00  0.00     0.010 A 
ATOM     74  C   UNL A   1      45.083  22.216  23.840  1.00  0.00     0.020 A 
ATOM     75  C   UNL A   1      45.372  21.537  26.155  1.00  0.00     0.020 A 
ATOM     76  C   UNL A   1      45.082  21.224  24.825  1.00  0.00     0.054 A 
BRANCH  76  77
ATOM     77  S   UNL A   1      44.721  19.513  24.343  1.00  0.00     0.124 S 
ATOM     78  O   UNL A   1      43.650  19.157  25.270  1.00  0.00    -0.237 OA
ATOM     79  O   UNL A   1      44.321  19.650  22.944  1.00  0.00    -0.237 OA
ATOM     80  O   UNL A   1      45.987  18.817  24.558  1.00  0.00    -0.744 OA
ENDBRANCH  76  77
ENDBRANCH  57  71
BRANCH  58  81
ATOM     81  C   UNL A   1      47.138  33.338  28.464  1.00  0.00    -0.014 A 
ATOM     82  C   UNL A   1      47.505  33.606  29.793  1.00  0.00     0.010 A 
ATOM     83  C   UNL A   1      47.005  34.409  27.562  1.00  0.00     0.010 A 
ATOM     84  C   UNL A   1      47.721  34.922  30.217  1.00  0.00     0.020 A 
ATOM     85  C   UNL A   1      47.248  35.723  27.973  1.00  0.00     0.020 A 
ATOM     86  C   UNL A   1      47.592  35.972  29.303  1.00  0.00     0.054 A 
BRANCH  86  87
ATOM     87  S   UNL A   1      47.926  37.665  29.861  1.00  0.00     0.124 S 
ATOM     88  O   UNL A   1      47.517  37.610  31.261  1.00  0.00    -0.237 OA
ATOM     89  O   UNL A   1      49.361  37.800  29.626  1.00  0.00    -0.237 OA
ATOM     90  O   UNL A   1      47.081  38.484  28.994  1.00  0.00    -0.744 OA
ENDBRANCH  86  87
ENDBRANCH  58  81
BRANCH  70  91
ATOM     91  C   UNL A   1      51.304  28.318  25.988  1.00  0.00    -0.014 A 
ATOM     92  C   UNL A   1      51.799  28.755  24.746  1.00  0.00     0.010 A 
ATOM     93  C   UNL A   1      52.208  27.884  26.973  1.00  0.00     0.010 A 
ATOM     94  C   UNL A   1      53.172  28.726  24.485  1.00  0.00     0.020 A 
ATOM     95  C   UNL A   1      53.583  27.878  26.726  1.00  0.00     0.020 A 
ATOM     96  C   UNL A   1      54.055  28.286  25.477  1.00  0.00     0.054 A 
BRANCH  96  97
ATOM     97  S   UNL A   1      55.835  28.295  25.129  1.00  0.00     0.124 S 
ATOM     98  O   UNL A   1      55.930  27.366  24.006  1.00  0.00    -0.237 OA
ATOM     99  O   UNL A   1      56.094  29.696  24.808  1.00  0.00    -0.237 OA
ATOM    100  O   UNL A   1      56.435  27.826  26.377  1.00  0.00    -0.744 OA
ENDBRANCH  96  97
ENDBRANCH  70  91
ENDBRANCH  44  45
ENDBRANCH  37  39
ENDBRANCH  36  37
ENDBRANCH  35  36
ENDBRANCH   1  35
TORSDOF 20
ENDMDL
MODEL 2
REMARK VINA RESULT:      -8.9      3.618      4.253
REMARK SMILES COc1ccc([C@@H]2CC(c3ccc(Cl)cc3)=NN2C2=[NH+]C(=O)[C@@H](CC(=O)OCCOC(=O)c3ccc(-c4c5nc(c(-c6ccc(S(=O)(=O)[O-])cc6)c6ccc([nH]6)c(-c6ccc(S(=O)(=O)[O-])cc6)c6nc(c(-c7ccc(S(=O)(=O)[O-])cc7)c7ccc4[nH]7)C=C6)C=C5)cc3)S2)cc1OC
REMARK SMILES IDX 28 1 27 2 25 3 26 4 24 5 23 6 19 7 20 8 93 9 21 10 22 12
REMARK SMILES IDX 18 13 7 14 8 15 9 16 17 17 6 18 3 19 4 20 95 21 5 22 94 23
REMARK SMILES IDX 2 24 1 25 96 26 97 27 10 28 11 29 16 30 12 31 15 32 13 33
REMARK SMILES IDX 14 34 29 35 30 36 31 37 32 38 33 39 34 40 92 41 35 42 91 43
REMARK SMILES IDX 36 44 37 45 38 46 85 47 39 48 90 49 84 50 86 51 40 52 89 53
REMARK SMILES IDX 83 54 82 55 41 57 71 58 52 59 70 60 53 61 56 62 69 63 87 64
REMARK SMILES IDX 54 65 55 66 68 68 88 69 57 70 42 71 43 72 51 73 44 74 50 75
REMARK SMILES IDX 45 76 46 77 47 78 48 79 49 80 72 81 73 82 81 83 74 84 80 85
REMARK SMILES IDX 75 86 76 87 77 88 78 89 79 90 58 91 59 92 67 93 60 94 66 95
REMARK SMILES IDX 61 96 62 97 63 98 64 99 65 100
REMARK H PARENT 20 11 86 56 56 67
REMARK Flexibility Score: inf
ROOT
ATOM      1  C   UNL A   1      34.412  29.829  27.558  1.00  0.00     0.274 C 
ENDROOT
BRANCH   1   2
ATOM      2  O   UNL A   1      33.046  30.117  27.210  1.00  0.00    -0.462 OA
BRANCH   2   3
ATOM      3  C   UNL A   1      32.494  29.354  26.237  1.00  0.00     0.307 C 
ATOM      4  O   UNL A   1      31.480  29.642  25.613  1.00  0.00    -0.252 OA
BRANCH   3   5
ATOM      5  C   UNL A   1      33.218  28.051  26.047  1.00  0.00     0.150 C 
BRANCH   5   6
ATOM      6  C   UNL A   1      32.522  27.033  25.149  1.00  0.00     0.184 C 
ATOM      7  C   UNL A   1      33.695  24.834  25.393  1.00  0.00     0.340 C 
ATOM      8  N   UNL A   1      32.767  24.907  26.288  1.00  0.00    -0.202 N 
ATOM      9  S   UNL A   1      33.663  26.051  24.132  1.00  0.00    -0.020 SA
ATOM     10  C   UNL A   1      31.922  25.972  26.059  1.00  0.00     0.322 C 
ATOM     11  H   UNL A   1      32.674  24.280  27.042  1.00  0.00     0.316 HD
ATOM     12  O   UNL A   1      30.848  26.123  26.626  1.00  0.00    -0.246 OA
BRANCH   7  13
ATOM     13  N   UNL A   1      34.753  23.960  25.377  1.00  0.00    -0.120 N 
ATOM     14  C   UNL A   1      35.053  23.189  24.164  1.00  0.00     0.243 C 
ATOM     15  C   UNL A   1      36.480  22.692  24.383  1.00  0.00     0.118 C 
ATOM     16  C   UNL A   1      36.808  23.418  25.654  1.00  0.00     0.096 C 
ATOM     17  N   UNL A   1      35.843  24.090  26.194  1.00  0.00    -0.086 NA
BRANCH  14  18
ATOM     18  C   UNL A   1      34.000  22.112  23.956  1.00  0.00     0.003 A 
ATOM     19  C   UNL A   1      32.373  19.903  23.278  1.00  0.00     0.160 A 
ATOM     20  C   UNL A   1      32.182  21.145  22.658  1.00  0.00     0.051 A 
ATOM     21  C   UNL A   1      33.357  19.761  24.262  1.00  0.00     0.161 A 
ATOM     22  C   UNL A   1      32.981  22.243  23.000  1.00  0.00     0.012 A 
ATOM     23  C   UNL A   1      34.146  20.872  24.600  1.00  0.00     0.058 A 
BRANCH  19  24
ATOM     24  O   UNL A   1      31.704  18.814  22.790  1.00  0.00    -0.493 OA
ATOM     25  C   UNL A   1      32.174  18.389  21.515  1.00  0.00     0.278 C 
ENDBRANCH  19  24
BRANCH  21  26
ATOM     26  O   UNL A   1      33.720  18.635  24.950  1.00  0.00    -0.493 OA
ATOM     27  C   UNL A   1      32.839  18.122  25.937  1.00  0.00     0.278 C 
ENDBRANCH  21  26
ENDBRANCH  14  18
BRANCH  16  28
ATOM     28  C   UNL A   1      38.140  23.345  26.263  1.00  0.00     0.000 A 
ATOM     29  C   UNL A   1      38.824  22.126  26.222  1.00  0.00     0.011 A 
ATOM     30  C   UNL A   1      38.682  24.446  26.930  1.00  0.00     0.011 A 
ATOM     31  C   UNL A   1      40.072  22.013  26.836  1.00  0.00     0.021 A 
ATOM     32  C   UNL A   1      39.923  24.322  27.560  1.00  0.00     0.021 A 
ATOM     33  C   UNL A   1      40.615  23.109  27.504  1.00  0.00     0.041 A 
ATOM     34  Cl  UNL A   1      42.144  22.963  28.277  1.00  0.00    -0.084 Cl
ENDBRANCH  16  28
ENDBRANCH   7  13
ENDBRANCH   5   6
ENDBRANCH   3   5
ENDBRANCH   2   3
ENDBRANCH   1   2
BRANCH   1  35
ATOM     35  C   UNL A   1      35.006  30.902  28.471  1.00  0.00     0.275 C 
BRANCH  35  36
ATOM     36  O   UNL A   1      36.406  30.679  28.706  1.00  0.00    -0.458 OA
BRANCH  36  37
ATOM     37  C   UNL A   1      36.691  30.034  29.859  1.00  0.00     0.338 C 
ATOM     38  O   UNL A   1      35.900  29.660  30.712  1.00  0.00    -0.246 OA
BRANCH  37  39
ATOM     39  C   UNL A   1      38.121  29.715  29.909  1.00  0.00     0.060 A 
ATOM     40  C   UNL A   1      38.558  28.761  30.833  1.00  0.00     0.016 A 
ATOM     41  C   UNL A   1      39.030  30.418  29.119  1.00  0.00     0.016 A 
ATOM     42  C   UNL A   1      39.919  28.522  30.990  1.00  0.00     0.010 A 
ATOM     43  C   UNL A   1      40.394  30.167  29.269  1.00  0.00     0.010 A 
ATOM     44  C   UNL A   1      40.846  29.233  30.219  1.00  0.00    -0.014 A 
BRANCH  44  45
ATOM     45  C   UNL A   1      42.295  29.041  30.446  1.00  0.00     0.031 A 
ATOM     46  C   UNL A   1      43.036  27.993  29.666  1.00  0.00     0.074 A 
ATOM     47  C   UNL A   1      42.937  29.810  31.345  1.00  0.00     0.049 A 
ATOM     48  N   UNL A   1      44.281  27.612  29.772  1.00  0.00    -0.248 NA
ATOM     49  C   UNL A   1      42.269  27.274  28.635  1.00  0.00     0.031 C 
ATOM     50  C   UNL A   1      42.327  30.888  32.125  1.00  0.00     0.029 A 
ATOM     51  N   UNL A   1      44.246  29.800  31.754  1.00  0.00    -0.354 N 
ATOM     52  C   UNL A   1      44.446  26.597  28.837  1.00  0.00     0.074 A 
ATOM     53  C   UNL A   1      43.166  26.405  28.191  1.00  0.00     0.031 C 
ATOM     54  C   UNL A   1      43.262  31.438  32.917  1.00  0.00     0.029 A 
ATOM     55  C   UNL A   1      44.522  30.722  32.733  1.00  0.00     0.049 A 
ATOM     56  H   UNL A   1      44.922  29.189  31.380  1.00  0.00     0.167 HD
ATOM     57  C   UNL A   1      45.565  25.892  28.546  1.00  0.00     0.031 A 
ATOM     58  C   UNL A   1      45.657  30.948  33.422  1.00  0.00     0.031 A 
ATOM     59  C   UNL A   1      46.833  26.092  29.199  1.00  0.00     0.049 A 
ATOM     60  C   UNL A   1      46.870  30.112  33.121  1.00  0.00     0.074 A 
ATOM     61  C   UNL A   1      48.031  25.437  28.973  1.00  0.00     0.029 A 
ATOM     62  N   UNL A   1      47.066  27.017  30.205  1.00  0.00    -0.354 N 
ATOM     63  N   UNL A   1      47.011  29.152  32.236  1.00  0.00    -0.248 NA
ATOM     64  C   UNL A   1      48.077  30.389  33.910  1.00  0.00     0.031 C 
ATOM     65  C   UNL A   1      48.976  25.932  29.878  1.00  0.00     0.029 A 
ATOM     66  C   UNL A   1      48.383  26.936  30.628  1.00  0.00     0.049 A 
ATOM     67  H   UNL A   1      46.395  27.640  30.568  1.00  0.00     0.167 HD
ATOM     68  C   UNL A   1      48.332  28.731  32.344  1.00  0.00     0.074 A 
ATOM     69  C   UNL A   1      48.948  29.546  33.370  1.00  0.00     0.031 C 
ATOM     70  C   UNL A   1      48.977  27.757  31.653  1.00  0.00     0.031 A 
BRANCH  57  71
ATOM     71  C   UNL A   1      45.454  24.813  27.502  1.00  0.00    -0.014 A 
ATOM     72  C   UNL A   1      45.335  23.457  27.859  1.00  0.00     0.010 A 
ATOM     73  C   UNL A   1      45.440  25.163  26.139  1.00  0.00     0.010 A 
ATOM     74  C   UNL A   1      45.248  22.470  26.872  1.00  0.00     0.020 A 
ATOM     75  C   UNL A   1      45.326  24.181  25.150  1.00  0.00     0.020 A 
ATOM     76  C   UNL A   1      45.249  22.838  25.524  1.00  0.00     0.054 A 
BRANCH  76  77
ATOM     77  S   UNL A   1      45.122  21.540  24.263  1.00  0.00     0.124 S 
ATOM     78  O   UNL A   1      44.181  20.610  24.882  1.00  0.00    -0.237 OA
ATOM     79  O   UNL A   1      44.613  22.267  23.102  1.00  0.00    -0.237 OA
ATOM     80  O   UNL A   1      46.490  21.047  24.132  1.00  0.00    -0.744 OA
ENDBRANCH  76  77
ENDBRANCH  57  71
BRANCH  58  81
ATOM     81  C   UNL A   1      45.690  32.001  34.472  1.00  0.00    -0.014 A 
ATOM     82  C   UNL A   1      46.214  33.275  34.192  1.00  0.00     0.010 A 
ATOM     83  C   UNL A   1      45.181  31.739  35.757  1.00  0.00     0.010 A 
ATOM     84  C   UNL A   1      46.244  34.262  35.183  1.00  0.00     0.020 A 
ATOM     85  C   UNL A   1      45.183  32.730  36.742  1.00  0.00     0.020 A 
ATOM     86  C   UNL A   1      45.727  33.983  36.452  1.00  0.00     0.054 A 
BRANCH  86  87
ATOM     87  S   UNL A   1      45.730  35.294  37.706  1.00  0.00     0.124 S 
ATOM     88  O   UNL A   1      45.460  36.482  36.904  1.00  0.00    -0.237 OA
ATOM     89  O   UNL A   1      44.655  34.877  38.603  1.00  0.00    -0.237 OA
ATOM     90  O   UNL A   1      47.073  35.217  38.278  1.00  0.00    -0.744 OA
ENDBRANCH  86  87
ENDBRANCH  58  81
BRANCH  70  91
ATOM     91  C   UNL A   1      50.436  27.549  31.957  1.00  0.00    -0.014 A 
ATOM     92  C   UNL A   1      51.431  28.310  31.317  1.00  0.00     0.010 A 
ATOM     93  C   UNL A   1      50.813  26.609  32.933  1.00  0.00     0.010 A 
ATOM     94  C   UNL A   1      52.779  28.110  31.626  1.00  0.00     0.020 A 
ATOM     95  C   UNL A   1      52.157  26.425  33.265  1.00  0.00     0.020 A 
ATOM     96  C   UNL A   1      53.134  27.167  32.598  1.00  0.00     0.054 A 
BRANCH  96  97
ATOM     97  S   UNL A   1      54.887  26.954  33.010  1.00  0.00     0.124 S 
ATOM     98  O   UNL A   1      54.985  27.650  34.290  1.00  0.00    -0.237 OA
ATOM     99  O   UNL A   1      55.030  25.502  33.072  1.00  0.00    -0.237 OA
ATOM    100  O   UNL A   1      55.585  27.596  31.898  1.00  0.00    -0.744 OA
ENDBRANCH  96  97
ENDBRANCH  70  91
ENDBRANCH  44  45
ENDBRANCH  37  39
ENDBRANCH  36  37
ENDBRANCH  35  36
ENDBRANCH   1  35
TORSDOF 20
ENDMDL
MODEL 3
REMARK VINA RESULT:      -8.8      6.161     11.390
REMARK SMILES COc1ccc([C@@H]2CC(c3ccc(Cl)cc3)=NN2C2=[NH+]C(=O)[C@@H](CC(=O)OCCOC(=O)c3ccc(-c4c5nc(c(-c6ccc(S(=O)(=O)[O-])cc6)c6ccc([nH]6)c(-c6ccc(S(=O)(=O)[O-])cc6)c6nc(c(-c7ccc(S(=O)(=O)[O-])cc7)c7ccc4[nH]7)C=C6)C=C5)cc3)S2)cc1OC
REMARK SMILES IDX 28 1 27 2 25 3 26 4 24 5 23 6 19 7 20 8 93 9 21 10 22 12
REMARK SMILES IDX 18 13 7 14 8 15 9 16 17 17 6 18 3 19 4 20 95 21 5 22 94 23
REMARK SMILES IDX 2 24 1 25 96 26 97 27 10 28 11 29 16 30 12 31 15 32 13 33
REMARK SMILES IDX 14 34 29 35 30 36 31 37 32 38 33 39 34 40 92 41 35 42 91 43
REMARK SMILES IDX 36 44 37 45 38 46 85 47 39 48 90 49 84 50 86 51 40 52 89 53
REMARK SMILES IDX 83 54 82 55 41 57 71 58 52 59 70 60 53 61 56 62 69 63 87 64
REMARK SMILES IDX 54 65 55 66 68 68 88 69 57 70 42 71 43 72 51 73 44 74 50 75
REMARK SMILES IDX 45 76 46 77 47 78 48 79 49 80 72 81 73 82 81 83 74 84 80 85
REMARK SMILES IDX 75 86 76 87 77 88 78 89 79 90 58 91 59 92 67 93 60 94 66 95
REMARK SMILES IDX 61 96 62 97 63 98 64 99 65 100
REMARK H PARENT 20 11 86 56 56 67
REMARK Flexibility Score: inf
ROOT
ATOM      1  C   UNL A   1      34.782  29.565  27.248  1.00  0.00     0.274 C 
ENDROOT
BRANCH   1   2
ATOM      2  O   UNL A   1      33.361  29.791  27.191  1.00  0.00    -0.462 OA
BRANCH   2   3
ATOM      3  C   UNL A   1      32.641  28.933  26.431  1.00  0.00     0.307 C 
ATOM      4  O   UNL A   1      31.661  29.242  25.765  1.00  0.00    -0.252 OA
BRANCH   3   5
ATOM      5  C   UNL A   1      33.125  27.514  26.548  1.00  0.00     0.150 C 
BRANCH   5   6
ATOM      6  C   UNL A   1      32.605  26.549  25.488  1.00  0.00     0.184 C 
ATOM      7  C   UNL A   1      33.921  24.424  25.643  1.00  0.00     0.340 C 
ATOM      8  N   UNL A   1      32.906  24.338  26.437  1.00  0.00    -0.202 N 
ATOM      9  S   UNL A   1      33.916  25.760  24.509  1.00  0.00    -0.020 SA
ATOM     10  C   UNL A   1      32.005  25.359  26.222  1.00  0.00     0.322 C 
ATOM     11  H   UNL A   1      32.790  23.632  27.113  1.00  0.00     0.316 HD
ATOM     12  O   UNL A   1      30.872  25.376  26.683  1.00  0.00    -0.246 OA
BRANCH   7  13
ATOM     13  N   UNL A   1      35.042  23.632  25.656  1.00  0.00    -0.120 N 
ATOM     14  C   UNL A   1      35.362  22.790  24.498  1.00  0.00     0.243 C 
ATOM     15  C   UNL A   1      36.830  22.420  24.701  1.00  0.00     0.118 C 
ATOM     16  C   UNL A   1      37.141  23.270  25.897  1.00  0.00     0.096 C 
ATOM     17  N   UNL A   1      36.145  23.910  26.419  1.00  0.00    -0.086 NA
BRANCH  14  18
ATOM     18  C   UNL A   1      34.389  21.624  24.415  1.00  0.00     0.003 A 
ATOM     19  C   UNL A   1      32.845  19.320  23.878  1.00  0.00     0.160 A 
ATOM     20  C   UNL A   1      32.396  20.586  23.481  1.00  0.00     0.051 A 
ATOM     21  C   UNL A   1      34.053  19.195  24.572  1.00  0.00     0.161 A 
ATOM     22  C   UNL A   1      33.156  21.730  23.755  1.00  0.00     0.012 A 
ATOM     23  C   UNL A   1      34.801  20.352  24.847  1.00  0.00     0.058 A 
BRANCH  19  24
ATOM     24  O   UNL A   1      32.174  18.214  23.433  1.00  0.00    -0.493 OA
ATOM     25  C   UNL A   1      32.138  18.109  22.014  1.00  0.00     0.278 C 
ENDBRANCH  19  24
BRANCH  21  26
ATOM     26  O   UNL A   1      34.675  18.057  25.007  1.00  0.00    -0.493 OA
ATOM     27  C   UNL A   1      34.567  16.877  24.227  1.00  0.00     0.278 C 
ENDBRANCH  21  26
ENDBRANCH  14  18
BRANCH  16  28
ATOM     28  C   UNL A   1      38.493  23.346  26.458  1.00  0.00     0.000 A 
ATOM     29  C   UNL A   1      39.285  22.194  26.443  1.00  0.00     0.011 A 
ATOM     30  C   UNL A   1      38.952  24.521  27.059  1.00  0.00     0.011 A 
ATOM     31  C   UNL A   1      40.558  22.223  27.015  1.00  0.00     0.021 A 
ATOM     32  C   UNL A   1      40.220  24.540  27.646  1.00  0.00     0.021 A 
ATOM     33  C   UNL A   1      41.019  23.394  27.615  1.00  0.00     0.041 A 
ATOM     34  Cl  UNL A   1      42.580  23.423  28.337  1.00  0.00    -0.084 Cl
ENDBRANCH  16  28
ENDBRANCH   7  13
ENDBRANCH   5   6
ENDBRANCH   3   5
ENDBRANCH   2   3
ENDBRANCH   1   2
BRANCH   1  35
ATOM     35  C   UNL A   1      35.516  30.725  27.921  1.00  0.00     0.275 C 
BRANCH  35  36
ATOM     36  O   UNL A   1      36.338  30.270  29.008  1.00  0.00    -0.458 OA
BRANCH  36  37
ATOM     37  C   UNL A   1      37.646  30.117  28.704  1.00  0.00     0.338 C 
ATOM     38  O   UNL A   1      38.132  29.333  27.902  1.00  0.00    -0.246 OA
BRANCH  37  39
ATOM     39  C   UNL A   1      38.439  31.135  29.398  1.00  0.00     0.060 A 
ATOM     40  C   UNL A   1      39.700  30.779  29.885  1.00  0.00     0.016 A 
ATOM     41  C   UNL A   1      37.904  32.399  29.647  1.00  0.00     0.016 A 
ATOM     42  C   UNL A   1      40.428  31.682  30.651  1.00  0.00     0.010 A 
ATOM     43  C   UNL A   1      38.642  33.309  30.405  1.00  0.00     0.010 A 
ATOM     44  C   UNL A   1      39.897  32.948  30.927  1.00  0.00    -0.014 A 
BRANCH  44  45
ATOM     45  C   UNL A   1      40.633  33.878  31.813  1.00  0.00     0.031 A 
ATOM     46  C   UNL A   1      41.641  34.822  31.224  1.00  0.00     0.074 A 
ATOM     47  C   UNL A   1      40.388  33.873  33.136  1.00  0.00     0.049 A 
ATOM     48  N   UNL A   1      42.445  35.654  31.831  1.00  0.00    -0.248 NA
ATOM     49  C   UNL A   1      41.764  34.824  29.756  1.00  0.00     0.031 C 
ATOM     50  C   UNL A   1      39.398  33.031  33.810  1.00  0.00     0.029 A 
ATOM     51  N   UNL A   1      40.955  34.600  34.150  1.00  0.00    -0.354 N 
ATOM     52  C   UNL A   1      43.185  36.265  30.825  1.00  0.00     0.074 A 
ATOM     53  C   UNL A   1      42.750  35.690  29.571  1.00  0.00     0.031 C 
ATOM     54  C   UNL A   1      39.426  33.292  35.127  1.00  0.00     0.029 A 
ATOM     55  C   UNL A   1      40.465  34.283  35.394  1.00  0.00     0.049 A 
ATOM     56  H   UNL A   1      41.649  35.283  34.001  1.00  0.00     0.167 HD
ATOM     57  C   UNL A   1      44.138  37.221  30.940  1.00  0.00     0.031 A 
ATOM     58  C   UNL A   1      40.829  34.725  36.612  1.00  0.00     0.031 A 
ATOM     59  C   UNL A   1      44.563  37.783  32.196  1.00  0.00     0.049 A 
ATOM     60  C   UNL A   1      41.931  35.743  36.719  1.00  0.00     0.074 A 
ATOM     61  C   UNL A   1      45.515  38.762  32.423  1.00  0.00     0.029 A 
ATOM     62  N   UNL A   1      44.061  37.417  33.436  1.00  0.00    -0.354 N 
ATOM     63  N   UNL A   1      42.624  36.310  35.759  1.00  0.00    -0.248 NA
ATOM     64  C   UNL A   1      42.299  36.181  38.071  1.00  0.00     0.031 C 
ATOM     65  C   UNL A   1      45.624  38.951  33.805  1.00  0.00     0.029 A 
ATOM     66  C   UNL A   1      44.700  38.133  34.435  1.00  0.00     0.049 A 
ATOM     67  H   UNL A   1      43.356  36.746  33.585  1.00  0.00     0.167 HD
ATOM     68  C   UNL A   1      43.492  37.194  36.392  1.00  0.00     0.074 A 
ATOM     69  C   UNL A   1      43.228  37.093  37.813  1.00  0.00     0.031 C 
ATOM     70  C   UNL A   1      44.423  38.017  35.845  1.00  0.00     0.031 A 
BRANCH  57  71
ATOM     71  C   UNL A   1      44.811  37.686  29.677  1.00  0.00    -0.014 A 
ATOM     72  C   UNL A   1      45.949  37.031  29.169  1.00  0.00     0.010 A 
ATOM     73  C   UNL A   1      44.281  38.781  28.969  1.00  0.00     0.010 A 
ATOM     74  C   UNL A   1      46.567  37.490  28.001  1.00  0.00     0.020 A 
ATOM     75  C   UNL A   1      44.881  39.226  27.787  1.00  0.00     0.020 A 
ATOM     76  C   UNL A   1      46.031  38.588  27.321  1.00  0.00     0.054 A 
BRANCH  76  77
ATOM     77  S   UNL A   1      46.844  39.155  25.801  1.00  0.00     0.124 S 
ATOM     78  O   UNL A   1      47.903  40.013  26.327  1.00  0.00    -0.237 OA
ATOM     79  O   UNL A   1      47.294  37.906  25.191  1.00  0.00    -0.237 OA
ATOM     80  O   UNL A   1      45.783  39.849  25.077  1.00  0.00    -0.744 OA
ENDBRANCH  76  77
ENDBRANCH  57  71
BRANCH  58  81
ATOM     81  C   UNL A   1      40.153  34.194  37.826  1.00  0.00    -0.014 A 
ATOM     82  C   UNL A   1      38.889  34.674  38.210  1.00  0.00     0.010 A 
ATOM     83  C   UNL A   1      40.767  33.191  38.599  1.00  0.00     0.010 A 
ATOM     84  C   UNL A   1      38.258  34.172  39.353  1.00  0.00     0.020 A 
ATOM     85  C   UNL A   1      40.127  32.666  39.726  1.00  0.00     0.020 A 
ATOM     86  C   UNL A   1      38.881  33.169  40.103  1.00  0.00     0.054 A 
BRANCH  86  87
ATOM     87  S   UNL A   1      38.022  32.498  41.552  1.00  0.00     0.124 S 
ATOM     88  O   UNL A   1      38.461  31.106  41.548  1.00  0.00    -0.237 OA
ATOM     89  O   UNL A   1      38.541  33.322  42.640  1.00  0.00    -0.237 OA
ATOM     90  O   UNL A   1      36.609  32.708  41.241  1.00  0.00    -0.744 OA
ENDBRANCH  86  87
ENDBRANCH  58  81
BRANCH  70  91
ATOM     91  C   UNL A   1      45.195  38.903  36.785  1.00  0.00    -0.014 A 
ATOM     92  C   UNL A   1      44.719  40.176  37.145  1.00  0.00     0.010 A 
ATOM     93  C   UNL A   1      46.393  38.432  37.353  1.00  0.00     0.010 A 
ATOM     94  C   UNL A   1      45.446  40.976  38.031  1.00  0.00     0.020 A 
ATOM     95  C   UNL A   1      47.109  39.217  38.260  1.00  0.00     0.020 A 
ATOM     96  C   UNL A   1      46.637  40.491  38.582  1.00  0.00     0.054 A 
BRANCH  96  97
ATOM     97  S   UNL A   1      47.542  41.531  39.761  1.00  0.00     0.124 S 
ATOM     98  O   UNL A   1      46.757  41.362  40.981  1.00  0.00    -0.237 OA
ATOM     99  O   UNL A   1      48.869  40.921  39.778  1.00  0.00    -0.237 OA
ATOM    100  O   UNL A   1      47.483  42.864  39.163  1.00  0.00    -0.744 OA
ENDBRANCH  96  97
ENDBRANCH  70  91
ENDBRANCH  44  45
ENDBRANCH  37  39
ENDBRANCH  36  37
ENDBRANCH  35  36
ENDBRANCH   1  35
TORSDOF 20
ENDMDL
