MODEL 1
REMARK VINA RESULT:     -10.8      0.000      0.000
REMARK SMILES COc1ccc2c(c1)[C@H]([NH2+][C@H]1CCC[C@H](C(=O)OCCOC(=O)c3ccc(-c4c5nc(c(-c6ccc(S(=O)(=O)[O-])cc6)c6ccc([nH]6)c(-c6ccc(S(=O)(=O)[O-])cc6)c6nc(c(-c7ccc(S(=O)(=O)[O-])cc7)c7ccc4[nH]7)C=C6)C=C5)cc3)C1)CC2
REMARK SMILES IDX 19 1 18 2 16 3 17 4 15 5 11 6 12 7 84 8 13 9 14 10 10 11
REMARK SMILES IDX 9 14 3 15 4 16 8 17 5 18 7 19 6 20 86 21 85 22 2 23 1 24
REMARK SMILES IDX 20 25 21 26 22 27 23 28 24 29 25 30 83 31 26 32 82 33 27 34
REMARK SMILES IDX 28 35 29 36 76 37 30 38 81 39 75 40 77 41 31 42 80 43 74 44
REMARK SMILES IDX 73 45 32 47 62 48 43 49 61 50 44 51 47 52 60 53 78 54 45 55
REMARK SMILES IDX 46 56 59 58 79 59 48 60 33 61 34 62 42 63 35 64 41 65 36 66
REMARK SMILES IDX 37 67 38 68 39 69 40 70 63 71 64 72 72 73 65 74 71 75 66 76
REMARK SMILES IDX 67 77 68 78 69 79 70 80 49 81 50 82 58 83 51 84 57 85 52 86
REMARK SMILES IDX 53 87 54 88 55 89 56 90
REMARK H PARENT 10 12 10 13 77 46 47 57
REMARK Flexibility Score: inf
ROOT
ATOM      1  C   UNL A   1      31.863  30.235  25.555  1.00  0.00     0.274 C 
ENDROOT
BRANCH   1   2
ATOM      2  O   UNL A   1      31.603  28.829  25.387  1.00  0.00    -0.462 OA
BRANCH   2   3
ATOM      3  C   UNL A   1      31.880  28.305  24.161  1.00  0.00     0.309 C 
ATOM      4  O   UNL A   1      31.968  28.963  23.132  1.00  0.00    -0.252 OA
BRANCH   3   5
ATOM      5  C   UNL A   1      32.182  26.813  24.244  1.00  0.00     0.105 C 
ATOM      6  C   UNL A   1      34.103  25.108  24.136  1.00  0.00     0.183 C 
ATOM      7  C   UNL A   1      33.309  24.304  23.086  1.00  0.00     0.065 C 
ATOM      8  C   UNL A   1      33.686  26.581  24.037  1.00  0.00     0.080 C 
ATOM      9  C   UNL A   1      31.794  24.514  23.143  1.00  0.00     0.007 C 
ATOM     10  C   UNL A   1      31.365  25.980  23.249  1.00  0.00     0.016 C 
BRANCH   6  11
ATOM     11  N   UNL A   1      33.970  24.447  25.420  1.00  0.00    -0.338 N 
ATOM     12  H   UNL A   1      33.820  25.195  26.096  1.00  0.00     0.347 HD
ATOM     13  H   UNL A   1      33.245  23.764  25.199  1.00  0.00     0.347 HD
BRANCH  11  14
ATOM     14  C   UNL A   1      34.961  23.584  26.018  1.00  0.00     0.214 C 
ATOM     15  C   UNL A   1      33.470  20.173  25.078  1.00  0.00     0.119 A 
ATOM     16  C   UNL A   1      34.660  19.484  24.844  1.00  0.00     0.047 A 
ATOM     17  C   UNL A   1      33.494  21.505  25.473  1.00  0.00     0.056 A 
ATOM     18  C   UNL A   1      35.892  20.133  24.995  1.00  0.00     0.008 A 
ATOM     19  C   UNL A   1      34.713  22.153  25.612  1.00  0.00     0.016 A 
ATOM     20  C   UNL A   1      35.902  21.475  25.349  1.00  0.00    -0.038 A 
ATOM     21  C   UNL A   1      37.079  22.387  25.481  1.00  0.00     0.042 C 
ATOM     22  C   UNL A   1      36.402  23.776  25.485  1.00  0.00     0.075 C 
BRANCH  15  23
ATOM     23  O   UNL A   1      32.282  19.559  24.782  1.00  0.00    -0.497 OA
ATOM     24  C   UNL A   1      32.455  18.178  24.470  1.00  0.00     0.278 C 
ENDBRANCH  15  23
ENDBRANCH  11  14
ENDBRANCH   6  11
ENDBRANCH   3   5
ENDBRANCH   2   3
ENDBRANCH   1   2
BRANCH   1  25
ATOM     25  C   UNL A   1      32.405  30.519  26.956  1.00  0.00     0.275 C 
BRANCH  25  26
ATOM     26  O   UNL A   1      33.777  30.096  27.083  1.00  0.00    -0.458 OA
BRANCH  26  27
ATOM     27  C   UNL A   1      34.520  30.813  27.947  1.00  0.00     0.338 C 
ATOM     28  O   UNL A   1      34.205  31.871  28.496  1.00  0.00    -0.246 OA
BRANCH  27  29
ATOM     29  C   UNL A   1      35.795  30.140  28.201  1.00  0.00     0.060 A 
ATOM     30  C   UNL A   1      36.018  29.578  29.454  1.00  0.00     0.016 A 
ATOM     31  C   UNL A   1      36.818  30.168  27.250  1.00  0.00     0.016 A 
ATOM     32  C   UNL A   1      37.291  29.110  29.782  1.00  0.00     0.010 A 
ATOM     33  C   UNL A   1      38.081  29.652  27.573  1.00  0.00     0.010 A 
ATOM     34  C   UNL A   1      38.354  29.159  28.862  1.00  0.00    -0.014 A 
BRANCH  34  35
ATOM     35  C   UNL A   1      39.738  28.742  29.260  1.00  0.00     0.031 A 
ATOM     36  C   UNL A   1      40.606  29.637  30.122  1.00  0.00     0.074 A 
ATOM     37  C   UNL A   1      40.234  27.545  28.881  1.00  0.00     0.049 A 
ATOM     38  N   UNL A   1      41.859  29.480  30.481  1.00  0.00    -0.248 NA
ATOM     39  C   UNL A   1      39.994  30.870  30.639  1.00  0.00     0.031 C 
ATOM     40  C   UNL A   1      39.522  26.545  28.084  1.00  0.00     0.029 A 
ATOM     41  N   UNL A   1      41.454  26.958  29.131  1.00  0.00    -0.354 N 
ATOM     42  C   UNL A   1      42.199  30.616  31.209  1.00  0.00     0.074 A 
ATOM     43  C   UNL A   1      41.019  31.455  31.244  1.00  0.00     0.031 C 
ATOM     44  C   UNL A   1      40.289  25.450  27.964  1.00  0.00     0.029 A 
ATOM     45  C   UNL A   1      41.581  25.698  28.595  1.00  0.00     0.049 A 
ATOM     46  H   UNL A   1      42.167  27.399  29.645  1.00  0.00     0.167 HD
ATOM     47  C   UNL A   1      43.380  30.940  31.795  1.00  0.00     0.031 A 
ATOM     48  C   UNL A   1      42.621  24.840  28.580  1.00  0.00     0.031 A 
ATOM     49  C   UNL A   1      44.550  30.098  31.813  1.00  0.00     0.049 A 
ATOM     50  C   UNL A   1      43.929  25.232  29.205  1.00  0.00     0.074 A 
ATOM     51  C   UNL A   1      45.772  30.336  32.422  1.00  0.00     0.029 A 
ATOM     52  N   UNL A   1      44.648  28.856  31.205  1.00  0.00    -0.354 N 
ATOM     53  N   UNL A   1      44.234  26.325  29.861  1.00  0.00    -0.248 NA
ATOM     54  C   UNL A   1      45.038  24.276  29.073  1.00  0.00     0.031 C 
ATOM     55  C   UNL A   1      46.624  29.261  32.141  1.00  0.00     0.029 A 
ATOM     56  C   UNL A   1      45.915  28.330  31.403  1.00  0.00     0.049 A 
ATOM     57  H   UNL A   1      43.923  28.413  30.707  1.00  0.00     0.167 HD
ATOM     58  C   UNL A   1      45.569  26.184  30.227  1.00  0.00     0.074 A 
ATOM     59  C   UNL A   1      46.006  24.893  29.739  1.00  0.00     0.031 C 
ATOM     60  C   UNL A   1      46.358  27.052  30.904  1.00  0.00     0.031 A 
BRANCH  47  61
ATOM     61  C   UNL A   1      43.492  32.301  32.436  1.00  0.00    -0.014 A 
ATOM     62  C   UNL A   1      43.834  33.444  31.693  1.00  0.00     0.010 A 
ATOM     63  C   UNL A   1      43.198  32.440  33.806  1.00  0.00     0.010 A 
ATOM     64  C   UNL A   1      43.928  34.692  32.319  1.00  0.00     0.020 A 
ATOM     65  C   UNL A   1      43.265  33.688  34.430  1.00  0.00     0.020 A 
ATOM     66  C   UNL A   1      43.651  34.805  33.686  1.00  0.00     0.054 A 
BRANCH  66  67
ATOM     67  S   UNL A   1      43.775  36.433  34.476  1.00  0.00     0.124 S 
ATOM     68  O   UNL A   1      43.924  36.072  35.884  1.00  0.00    -0.237 OA
ATOM     69  O   UNL A   1      44.961  37.008  33.848  1.00  0.00    -0.237 OA
ATOM     70  O   UNL A   1      42.513  37.083  34.131  1.00  0.00    -0.744 OA
ENDBRANCH  66  67
ENDBRANCH  47  61
BRANCH  48  71
ATOM     71  C   UNL A   1      42.471  23.517  27.915  1.00  0.00    -0.014 A 
ATOM     72  C   UNL A   1      43.077  23.276  26.669  1.00  0.00     0.010 A 
ATOM     73  C   UNL A   1      41.744  22.484  28.536  1.00  0.00     0.010 A 
ATOM     74  C   UNL A   1      42.960  22.025  26.057  1.00  0.00     0.020 A 
ATOM     75  C   UNL A   1      41.650  21.224  27.940  1.00  0.00     0.020 A 
ATOM     76  C   UNL A   1      42.252  21.004  26.701  1.00  0.00     0.054 A 
BRANCH  76  77
ATOM     77  S   UNL A   1      42.183  19.363  25.932  1.00  0.00     0.124 S 
ATOM     78  O   UNL A   1      40.752  19.192  25.709  1.00  0.00    -0.237 OA
ATOM     79  O   UNL A   1      42.995  19.540  24.729  1.00  0.00    -0.237 OA
ATOM     80  O   UNL A   1      42.771  18.489  26.944  1.00  0.00    -0.744 OA
ENDBRANCH  76  77
ENDBRANCH  48  71
BRANCH  60  81
ATOM     81  C   UNL A   1      47.776  26.627  31.180  1.00  0.00    -0.014 A 
ATOM     82  C   UNL A   1      48.086  25.783  32.262  1.00  0.00     0.010 A 
ATOM     83  C   UNL A   1      48.813  27.060  30.333  1.00  0.00     0.010 A 
ATOM     84  C   UNL A   1      49.409  25.412  32.514  1.00  0.00     0.020 A 
ATOM     85  C   UNL A   1      50.135  26.673  30.568  1.00  0.00     0.020 A 
ATOM     86  C   UNL A   1      50.427  25.864  31.669  1.00  0.00     0.054 A 
BRANCH  86  87
ATOM     87  S   UNL A   1      52.136  25.354  32.003  1.00  0.00     0.124 S 
ATOM     88  O   UNL A   1      52.478  26.173  33.162  1.00  0.00    -0.237 OA
ATOM     89  O   UNL A   1      52.002  23.922  32.264  1.00  0.00    -0.237 OA
ATOM     90  O   UNL A   1      52.845  25.692  30.770  1.00  0.00    -0.744 OA
ENDBRANCH  86  87
ENDBRANCH  60  81
ENDBRANCH  34  35
ENDBRANCH  27  29
ENDBRANCH  26  27
ENDBRANCH  25  26
ENDBRANCH   1  25
TORSDOF 17
ENDMDL
MODEL 2
REMARK VINA RESULT:     -10.7      4.279      9.908
REMARK SMILES COc1ccc2c(c1)[C@H]([NH2+][C@H]1CCC[C@H](C(=O)OCCOC(=O)c3ccc(-c4c5nc(c(-c6ccc(S(=O)(=O)[O-])cc6)c6ccc([nH]6)c(-c6ccc(S(=O)(=O)[O-])cc6)c6nc(c(-c7ccc(S(=O)(=O)[O-])cc7)c7ccc4[nH]7)C=C6)C=C5)cc3)C1)CC2
REMARK SMILES IDX 19 1 18 2 16 3 17 4 15 5 11 6 12 7 84 8 13 9 14 10 10 11
REMARK SMILES IDX 9 14 3 15 4 16 8 17 5 18 7 19 6 20 86 21 85 22 2 23 1 24
REMARK SMILES IDX 20 25 21 26 22 27 23 28 24 29 25 30 83 31 26 32 82 33 27 34
REMARK SMILES IDX 28 35 29 36 76 37 30 38 81 39 75 40 77 41 31 42 80 43 74 44
REMARK SMILES IDX 73 45 32 47 62 48 43 49 61 50 44 51 47 52 60 53 78 54 45 55
REMARK SMILES IDX 46 56 59 58 79 59 48 60 33 61 34 62 42 63 35 64 41 65 36 66
REMARK SMILES IDX 37 67 38 68 39 69 40 70 63 71 64 72 72 73 65 74 71 75 66 76
REMARK SMILES IDX 67 77 68 78 69 79 70 80 49 81 50 82 58 83 51 84 57 85 52 86
REMARK SMILES IDX 53 87 54 88 55 89 56 90
REMARK H PARENT 10 12 10 13 77 46 47 57
REMARK Flexibility Score: inf
ROOT
ATOM      1  C   UNL A   1      34.884  33.338  30.118  1.00  0.00     0.274 C 
ENDROOT
BRANCH   1   2
ATOM      2  O   UNL A   1      34.117  32.616  29.138  1.00  0.00    -0.462 OA
BRANCH   2   3
ATOM      3  C   UNL A   1      34.715  32.409  27.932  1.00  0.00     0.309 C 
ATOM      4  O   UNL A   1      35.669  33.053  27.515  1.00  0.00    -0.252 OA
BRANCH   3   5
ATOM      5  C   UNL A   1      34.126  31.200  27.213  1.00  0.00     0.105 C 
ATOM      6  C   UNL A   1      31.934  29.908  26.847  1.00  0.00     0.183 C 
ATOM      7  C   UNL A   1      32.659  28.602  27.235  1.00  0.00     0.065 C 
ATOM      8  C   UNL A   1      32.633  31.078  27.551  1.00  0.00     0.080 C 
ATOM      9  C   UNL A   1      34.173  28.631  27.015  1.00  0.00     0.007 C 
ATOM     10  C   UNL A   1      34.863  29.894  27.536  1.00  0.00     0.016 C 
BRANCH   6  11
ATOM     11  N   UNL A   1      31.812  29.955  25.404  1.00  0.00    -0.338 N 
ATOM     12  H   UNL A   1      31.468  30.892  25.191  1.00  0.00     0.347 HD
ATOM     13  H   UNL A   1      32.746  29.648  25.132  1.00  0.00     0.347 HD
BRANCH  11  14
ATOM     14  C   UNL A   1      31.006  29.061  24.607  1.00  0.00     0.214 C 
ATOM     15  C   UNL A   1      28.721  31.632  22.901  1.00  0.00     0.119 A 
ATOM     16  C   UNL A   1      28.610  31.015  21.655  1.00  0.00     0.047 A 
ATOM     17  C   UNL A   1      29.475  31.047  23.910  1.00  0.00     0.056 A 
ATOM     18  C   UNL A   1      29.267  29.804  21.406  1.00  0.00     0.008 A 
ATOM     19  C   UNL A   1      30.136  29.852  23.663  1.00  0.00     0.016 A 
ATOM     20  C   UNL A   1      30.052  29.251  22.408  1.00  0.00    -0.038 A 
ATOM     21  C   UNL A   1      30.906  28.026  22.344  1.00  0.00     0.042 C 
ATOM     22  C   UNL A   1      31.796  28.195  23.595  1.00  0.00     0.075 C 
BRANCH  15  23
ATOM     23  O   UNL A   1      28.190  32.883  23.068  1.00  0.00    -0.497 OA
ATOM     24  C   UNL A   1      29.190  33.855  23.366  1.00  0.00     0.278 C 
ENDBRANCH  15  23
ENDBRANCH  11  14
ENDBRANCH   6  11
ENDBRANCH   3   5
ENDBRANCH   2   3
ENDBRANCH   1   2
BRANCH   1  25
ATOM     25  C   UNL A   1      35.442  32.386  31.176  1.00  0.00     0.275 C 
BRANCH  25  26
ATOM     26  O   UNL A   1      36.046  31.226  30.570  1.00  0.00    -0.458 OA
BRANCH  26  27
ATOM     27  C   UNL A   1      36.812  30.484  31.392  1.00  0.00     0.338 C 
ATOM     28  O   UNL A   1      36.460  29.933  32.437  1.00  0.00    -0.246 OA
BRANCH  27  29
ATOM     29  C   UNL A   1      38.170  30.369  30.856  1.00  0.00     0.060 A 
ATOM     30  C   UNL A   1      38.362  30.504  29.485  1.00  0.00     0.016 A 
ATOM     31  C   UNL A   1      39.234  30.008  31.685  1.00  0.00     0.016 A 
ATOM     32  C   UNL A   1      39.607  30.203  28.931  1.00  0.00     0.010 A 
ATOM     33  C   UNL A   1      40.495  29.754  31.125  1.00  0.00     0.010 A 
ATOM     34  C   UNL A   1      40.691  29.798  29.733  1.00  0.00    -0.014 A 
BRANCH  34  35
ATOM     35  C   UNL A   1      41.994  29.386  29.116  1.00  0.00     0.031 A 
ATOM     36  C   UNL A   1      42.184  27.992  28.551  1.00  0.00     0.074 A 
ATOM     37  C   UNL A   1      43.021  30.257  29.025  1.00  0.00     0.049 A 
ATOM     38  N   UNL A   1      43.271  27.435  28.069  1.00  0.00    -0.248 NA
ATOM     39  C   UNL A   1      41.009  27.108  28.533  1.00  0.00     0.031 C 
ATOM     40  C   UNL A   1      42.998  31.648  29.481  1.00  0.00     0.029 A 
ATOM     41  N   UNL A   1      44.285  30.105  28.501  1.00  0.00    -0.354 N 
ATOM     42  C   UNL A   1      42.926  26.124  27.751  1.00  0.00     0.074 A 
ATOM     43  C   UNL A   1      41.527  25.969  28.092  1.00  0.00     0.031 C 
ATOM     44  C   UNL A   1      44.161  32.235  29.163  1.00  0.00     0.029 A 
ATOM     45  C   UNL A   1      45.050  31.246  28.561  1.00  0.00     0.049 A 
ATOM     46  H   UNL A   1      44.609  29.259  28.117  1.00  0.00     0.167 HD
ATOM     47  C   UNL A   1      43.694  25.136  27.226  1.00  0.00     0.031 A 
ATOM     48  C   UNL A   1      46.329  31.478  28.206  1.00  0.00     0.031 A 
ATOM     49  C   UNL A   1      45.074  25.284  26.836  1.00  0.00     0.049 A 
ATOM     50  C   UNL A   1      47.172  30.362  27.659  1.00  0.00     0.074 A 
ATOM     51  C   UNL A   1      45.910  24.342  26.258  1.00  0.00     0.029 A 
ATOM     52  N   UNL A   1      45.821  26.443  26.973  1.00  0.00    -0.354 N 
ATOM     53  N   UNL A   1      46.831  29.124  27.397  1.00  0.00    -0.248 NA
ATOM     54  C   UNL A   1      48.580  30.674  27.374  1.00  0.00     0.031 C 
ATOM     55  C   UNL A   1      47.176  24.916  26.090  1.00  0.00     0.029 A 
ATOM     56  C   UNL A   1      47.113  26.232  26.515  1.00  0.00     0.049 A 
ATOM     57  H   UNL A   1      45.485  27.292  27.341  1.00  0.00     0.167 HD
ATOM     58  C   UNL A   1      47.980  28.512  26.908  1.00  0.00     0.074 A 
ATOM     59  C   UNL A   1      49.020  29.520  26.891  1.00  0.00     0.031 C 
ATOM     60  C   UNL A   1      48.154  27.228  26.513  1.00  0.00     0.031 A 
BRANCH  47  61
ATOM     61  C   UNL A   1      43.073  23.769  27.084  1.00  0.00    -0.014 A 
ATOM     62  C   UNL A   1      43.105  22.827  28.127  1.00  0.00     0.010 A 
ATOM     63  C   UNL A   1      42.400  23.443  25.890  1.00  0.00     0.010 A 
ATOM     64  C   UNL A   1      42.518  21.569  27.962  1.00  0.00     0.020 A 
ATOM     65  C   UNL A   1      41.789  22.196  25.730  1.00  0.00     0.020 A 
ATOM     66  C   UNL A   1      41.871  21.257  26.760  1.00  0.00     0.054 A 
BRANCH  66  67
ATOM     67  S   UNL A   1      41.112  19.621  26.569  1.00  0.00     0.124 S 
ATOM     68  O   UNL A   1      39.855  19.950  25.901  1.00  0.00    -0.237 OA
ATOM     69  O   UNL A   1      42.088  18.906  25.751  1.00  0.00    -0.237 OA
ATOM     70  O   UNL A   1      40.980  19.137  27.941  1.00  0.00    -0.744 OA
ENDBRANCH  66  67
ENDBRANCH  47  61
BRANCH  48  71
ATOM     71  C   UNL A   1      46.907  32.838  28.388  1.00  0.00    -0.014 A 
ATOM     72  C   UNL A   1      47.554  33.180  29.588  1.00  0.00     0.010 A 
ATOM     73  C   UNL A   1      46.835  33.787  27.351  1.00  0.00     0.010 A 
ATOM     74  C   UNL A   1      48.121  34.448  29.748  1.00  0.00     0.020 A 
ATOM     75  C   UNL A   1      47.425  35.045  27.498  1.00  0.00     0.020 A 
ATOM     76  C   UNL A   1      48.059  35.370  28.698  1.00  0.00     0.054 A 
BRANCH  76  77
ATOM     77  S   UNL A   1      48.874  36.979  28.893  1.00  0.00     0.124 S 
ATOM     78  O   UNL A   1      48.212  37.780  27.869  1.00  0.00    -0.237 OA
ATOM     79  O   UNL A   1      48.557  37.331  30.275  1.00  0.00    -0.237 OA
ATOM     80  O   UNL A   1      50.282  36.677  28.645  1.00  0.00    -0.744 OA
ENDBRANCH  76  77
ENDBRANCH  48  71
BRANCH  60  81
ATOM     81  C   UNL A   1      49.518  26.839  26.005  1.00  0.00    -0.014 A 
ATOM     82  C   UNL A   1      49.936  27.182  24.706  1.00  0.00     0.010 A 
ATOM     83  C   UNL A   1      50.403  26.139  26.845  1.00  0.00     0.010 A 
ATOM     84  C   UNL A   1      51.198  26.799  24.245  1.00  0.00     0.020 A 
ATOM     85  C   UNL A   1      51.674  25.774  26.395  1.00  0.00     0.020 A 
ATOM     86  C   UNL A   1      52.058  26.091  25.090  1.00  0.00     0.054 A 
BRANCH  86  87
ATOM     87  S   UNL A   1      53.700  25.621  24.478  1.00  0.00     0.124 S 
ATOM     88  O   UNL A   1      53.630  26.028  23.077  1.00  0.00    -0.237 OA
ATOM     89  O   UNL A   1      54.597  26.411  25.317  1.00  0.00    -0.237 OA
ATOM     90  O   UNL A   1      53.754  24.178  24.705  1.00  0.00    -0.744 OA
ENDBRANCH  86  87
ENDBRANCH  60  81
ENDBRANCH  34  35
ENDBRANCH  27  29
ENDBRANCH  26  27
ENDBRANCH  25  26
ENDBRANCH   1  25
TORSDOF 17
ENDMDL
MODEL 3
REMARK VINA RESULT:     -10.7      3.943     11.236
REMARK SMILES COc1ccc2c(c1)[C@H]([NH2+][C@H]1CCC[C@H](C(=O)OCCOC(=O)c3ccc(-c4c5nc(c(-c6ccc(S(=O)(=O)[O-])cc6)c6ccc([nH]6)c(-c6ccc(S(=O)(=O)[O-])cc6)c6nc(c(-c7ccc(S(=O)(=O)[O-])cc7)c7ccc4[nH]7)C=C6)C=C5)cc3)C1)CC2
REMARK SMILES IDX 19 1 18 2 16 3 17 4 15 5 11 6 12 7 84 8 13 9 14 10 10 11
REMARK SMILES IDX 9 14 3 15 4 16 8 17 5 18 7 19 6 20 86 21 85 22 2 23 1 24
REMARK SMILES IDX 20 25 21 26 22 27 23 28 24 29 25 30 83 31 26 32 82 33 27 34
REMARK SMILES IDX 28 35 29 36 76 37 30 38 81 39 75 40 77 41 31 42 80 43 74 44
REMARK SMILES IDX 73 45 32 47 62 48 43 49 61 50 44 51 47 52 60 53 78 54 45 55
REMARK SMILES IDX 46 56 59 58 79 59 48 60 33 61 34 62 42 63 35 64 41 65 36 66
REMARK SMILES IDX 37 67 38 68 39 69 40 70 63 71 64 72 72 73 65 74 71 75 66 76
REMARK SMILES IDX 67 77 68 78 69 79 70 80 49 81 50 82 58 83 51 84 57 85 52 86
REMARK SMILES IDX 53 87 54 88 55 89 56 90
REMARK H PARENT 10 12 10 13 77 46 47 57
REMARK Flexibility Score: inf
ROOT
ATOM      1  C   UNL A   1      40.865  19.773  26.536  1.00  0.00     0.274 C 
ENDROOT
BRANCH   1   2
ATOM      2  O   UNL A   1      42.051  19.154  27.069  1.00  0.00    -0.462 OA
BRANCH   2   3
ATOM      3  C   UNL A   1      42.896  18.585  26.165  1.00  0.00     0.309 C 
ATOM      4  O   UNL A   1      42.635  17.584  25.511  1.00  0.00    -0.252 OA
BRANCH   3   5
ATOM      5  C   UNL A   1      44.162  19.414  25.982  1.00  0.00     0.105 C 
ATOM      6  C   UNL A   1      45.149  21.366  24.631  1.00  0.00     0.183 C 
ATOM      7  C   UNL A   1      46.364  20.484  24.275  1.00  0.00     0.065 C 
ATOM      8  C   UNL A   1      43.940  20.453  24.873  1.00  0.00     0.080 C 
ATOM      9  C   UNL A   1      46.640  19.357  25.273  1.00  0.00     0.007 C 
ATOM     10  C   UNL A   1      45.399  18.559  25.682  1.00  0.00     0.016 C 
BRANCH   6  11
ATOM     11  N   UNL A   1      45.537  22.278  25.689  1.00  0.00    -0.338 N 
ATOM     12  H   UNL A   1      45.635  21.700  26.523  1.00  0.00     0.347 HD
ATOM     13  H   UNL A   1      46.336  22.736  25.251  1.00  0.00     0.347 HD
BRANCH  11  14
ATOM     14  C   UNL A   1      44.780  23.433  26.111  1.00  0.00     0.214 C 
ATOM     15  C   UNL A   1      47.665  25.903  26.671  1.00  0.00     0.119 A 
ATOM     16  C   UNL A   1      47.032  27.064  26.229  1.00  0.00     0.047 A 
ATOM     17  C   UNL A   1      46.989  24.689  26.670  1.00  0.00     0.056 A 
ATOM     18  C   UNL A   1      45.710  27.016  25.771  1.00  0.00     0.008 A 
ATOM     19  C   UNL A   1      45.682  24.637  26.206  1.00  0.00     0.016 A 
ATOM     20  C   UNL A   1      45.059  25.791  25.734  1.00  0.00    -0.038 A 
ATOM     21  C   UNL A   1      43.693  25.484  25.209  1.00  0.00     0.042 C 
ATOM     22  C   UNL A   1      43.742  23.945  25.083  1.00  0.00     0.075 C 
BRANCH  15  23
ATOM     23  O   UNL A   1      48.999  25.953  26.975  1.00  0.00    -0.497 OA
ATOM     24  C   UNL A   1      49.422  24.815  27.724  1.00  0.00     0.278 C 
ENDBRANCH  15  23
ENDBRANCH  11  14
ENDBRANCH   6  11
ENDBRANCH   3   5
ENDBRANCH   2   3
ENDBRANCH   1   2
BRANCH   1  25
ATOM     25  C   UNL A   1      40.672  21.169  27.128  1.00  0.00     0.275 C 
BRANCH  25  26
ATOM     26  O   UNL A   1      40.436  22.148  26.097  1.00  0.00    -0.458 OA
BRANCH  26  27
ATOM     27  C   UNL A   1      39.254  22.787  26.174  1.00  0.00     0.338 C 
ATOM     28  O   UNL A   1      38.151  22.347  25.841  1.00  0.00    -0.246 OA
BRANCH  27  29
ATOM     29  C   UNL A   1      39.431  24.116  26.760  1.00  0.00     0.060 A 
ATOM     30  C   UNL A   1      40.090  25.092  26.019  1.00  0.00     0.016 A 
ATOM     31  C   UNL A   1      39.060  24.367  28.083  1.00  0.00     0.016 A 
ATOM     32  C   UNL A   1      40.444  26.297  26.628  1.00  0.00     0.010 A 
ATOM     33  C   UNL A   1      39.379  25.599  28.672  1.00  0.00     0.010 A 
ATOM     34  C   UNL A   1      40.121  26.567  27.970  1.00  0.00    -0.014 A 
BRANCH  34  35
ATOM     35  C   UNL A   1      40.592  27.824  28.639  1.00  0.00     0.031 A 
ATOM     36  C   UNL A   1      42.031  27.976  29.089  1.00  0.00     0.074 A 
ATOM     37  C   UNL A   1      39.749  28.860  28.832  1.00  0.00     0.049 A 
ATOM     38  N   UNL A   1      42.588  28.952  29.768  1.00  0.00    -0.248 NA
ATOM     39  C   UNL A   1      42.962  26.893  28.742  1.00  0.00     0.031 C 
ATOM     40  C   UNL A   1      38.343  28.898  28.427  1.00  0.00     0.029 A 
ATOM     41  N   UNL A   1      39.958  30.093  29.407  1.00  0.00    -0.354 N 
ATOM     42  C   UNL A   1      43.910  28.573  29.980  1.00  0.00     0.074 A 
ATOM     43  C   UNL A   1      44.074  27.276  29.355  1.00  0.00     0.031 C 
ATOM     44  C   UNL A   1      37.836  30.109  28.708  1.00  0.00     0.029 A 
ATOM     45  C   UNL A   1      38.849  30.906  29.393  1.00  0.00     0.049 A 
ATOM     46  H   UNL A   1      40.822  30.367  29.791  1.00  0.00     0.167 HD
ATOM     47  C   UNL A   1      44.900  29.232  30.634  1.00  0.00     0.031 A 
ATOM     48  C   UNL A   1      38.644  32.139  29.896  1.00  0.00     0.031 A 
ATOM     49  C   UNL A   1      44.769  30.542  31.221  1.00  0.00     0.049 A 
ATOM     50  C   UNL A   1      39.743  32.838  30.645  1.00  0.00     0.074 A 
ATOM     51  C   UNL A   1      45.738  31.297  31.864  1.00  0.00     0.029 A 
ATOM     52  N   UNL A   1      43.608  31.299  31.232  1.00  0.00    -0.354 N 
ATOM     53  N   UNL A   1      40.975  32.444  30.858  1.00  0.00    -0.248 NA
ATOM     54  C   UNL A   1      39.415  34.144  31.235  1.00  0.00     0.031 C 
ATOM     55  C   UNL A   1      45.150  32.488  32.307  1.00  0.00     0.029 A 
ATOM     56  C   UNL A   1      43.830  32.498  31.893  1.00  0.00     0.049 A 
ATOM     57  H   UNL A   1      42.752  31.025  30.830  1.00  0.00     0.167 HD
ATOM     58  C   UNL A   1      41.572  33.458  31.600  1.00  0.00     0.074 A 
ATOM     59  C   UNL A   1      40.573  34.492  31.780  1.00  0.00     0.031 C 
ATOM     60  C   UNL A   1      42.834  33.521  32.088  1.00  0.00     0.031 A 
BRANCH  47  61
ATOM     61  C   UNL A   1      46.221  28.523  30.800  1.00  0.00    -0.014 A 
ATOM     62  C   UNL A   1      46.509  27.750  31.938  1.00  0.00     0.010 A 
ATOM     63  C   UNL A   1      47.174  28.598  29.765  1.00  0.00     0.010 A 
ATOM     64  C   UNL A   1      47.745  27.104  32.059  1.00  0.00     0.020 A 
ATOM     65  C   UNL A   1      48.399  27.934  29.870  1.00  0.00     0.020 A 
ATOM     66  C   UNL A   1      48.686  27.208  31.028  1.00  0.00     0.054 A 
BRANCH  66  67
ATOM     67  S   UNL A   1      50.279  26.359  31.204  1.00  0.00     0.124 S 
ATOM     68  O   UNL A   1      50.736  26.847  32.503  1.00  0.00    -0.237 OA
ATOM     69  O   UNL A   1      49.901  24.949  31.162  1.00  0.00    -0.237 OA
ATOM     70  O   UNL A   1      51.051  26.828  30.056  1.00  0.00    -0.744 OA
ENDBRANCH  66  67
ENDBRANCH  47  61
BRANCH  48  71
ATOM     71  C   UNL A   1      37.316  32.790  29.729  1.00  0.00    -0.014 A 
ATOM     72  C   UNL A   1      36.296  32.573  30.671  1.00  0.00     0.010 A 
ATOM     73  C   UNL A   1      37.075  33.648  28.640  1.00  0.00     0.010 A 
ATOM     74  C   UNL A   1      35.057  33.206  30.530  1.00  0.00     0.020 A 
ATOM     75  C   UNL A   1      35.848  34.305  28.512  1.00  0.00     0.020 A 
ATOM     76  C   UNL A   1      34.844  34.073  29.453  1.00  0.00     0.054 A 
BRANCH  76  77
ATOM     77  S   UNL A   1      33.261  34.951  29.333  1.00  0.00     0.124 S 
ATOM     78  O   UNL A   1      32.780  34.898  30.709  1.00  0.00    -0.237 OA
ATOM     79  O   UNL A   1      33.664  36.271  28.853  1.00  0.00    -0.237 OA
ATOM     80  O   UNL A   1      32.504  34.154  28.370  1.00  0.00    -0.744 OA
ENDBRANCH  76  77
ENDBRANCH  48  71
BRANCH  60  81
ATOM     81  C   UNL A   1      43.220  34.761  32.850  1.00  0.00    -0.014 A 
ATOM     82  C   UNL A   1      43.627  35.929  32.180  1.00  0.00     0.010 A 
ATOM     83  C   UNL A   1      43.154  34.767  34.256  1.00  0.00     0.010 A 
ATOM     84  C   UNL A   1      43.998  37.067  32.903  1.00  0.00     0.020 A 
ATOM     85  C   UNL A   1      43.502  35.909  34.981  1.00  0.00     0.020 A 
ATOM     86  C   UNL A   1      43.940  37.048  34.300  1.00  0.00     0.054 A 
BRANCH  86  87
ATOM     87  S   UNL A   1      44.407  38.542  35.218  1.00  0.00     0.124 S 
ATOM     88  O   UNL A   1      45.863  38.520  35.114  1.00  0.00    -0.237 OA
ATOM     89  O   UNL A   1      43.740  39.604  34.469  1.00  0.00    -0.237 OA
ATOM     90  O   UNL A   1      43.875  38.305  36.558  1.00  0.00    -0.744 OA
ENDBRANCH  86  87
ENDBRANCH  60  81
ENDBRANCH  34  35
ENDBRANCH  27  29
ENDBRANCH  26  27
ENDBRANCH  25  26
ENDBRANCH   1  25
TORSDOF 17
ENDMDL
