MODEL 1
REMARK VINA RESULT:     -10.3      0.000      0.000
REMARK SMILES CCCCCCNC(=O)Oc1cccc(-c2ccc([C@@H](C)C(=O)OCCOC(=O)c3ccc(-c4c5nc(c(-c6ccc(S(=O)(=O)[O-])cc6)c6ccc([nH]6)c(-c6ccc(S(=O)(=O)[O-])cc6)c6nc(c(-c7ccc(S(=O)(=O)[O-])cc7)c7ccc4[nH]7)C=C6)C=C5)cc3)cc2F)c1
REMARK SMILES IDX 20 1 21 2 19 3 16 4 17 5 91 6 18 7 90 8 92 9 15 10 11 11
REMARK SMILES IDX 12 12 93 13 13 14 14 15 10 16 8 17 7 18 9 20 6 21 5 22 4 23
REMARK SMILES IDX 3 24 2 25 1 26 22 27 23 28 24 29 25 30 26 31 27 32 28 33
REMARK SMILES IDX 29 34 30 35 31 36 89 37 32 38 88 39 33 40 34 41 35 42 82 43
REMARK SMILES IDX 36 44 87 45 81 46 83 47 37 48 86 49 80 50 79 51 38 53 68 54
REMARK SMILES IDX 49 55 67 56 50 57 53 58 66 59 84 60 51 61 52 62 65 64 85 65
REMARK SMILES IDX 54 66 39 67 40 68 48 69 41 70 47 71 42 72 43 73 44 74 45 75
REMARK SMILES IDX 46 76 69 77 70 78 78 79 71 80 77 81 72 82 73 83 74 84 75 85
REMARK SMILES IDX 76 86 55 87 56 88 64 89 57 90 63 91 58 92 59 93 60 94 61 95
REMARK SMILES IDX 62 96
REMARK H PARENT 7 19 83 52 53 63
REMARK Flexibility Score: inf
ROOT
ATOM      1  C   UNL A   1      41.314  22.599  26.758  1.00  0.00     0.126 C 
ATOM      2  C   UNL A   1      41.515  22.167  28.210  1.00  0.00     0.025 C 
ENDROOT
BRANCH   1   3
ATOM      3  C   UNL A   1      39.855  22.531  26.332  1.00  0.00    -0.031 A 
ATOM      4  C   UNL A   1      37.139  22.364  25.481  1.00  0.00     0.018 A 
ATOM      5  C   UNL A   1      37.640  23.519  26.103  1.00  0.00     0.012 A 
ATOM      6  C   UNL A   1      38.023  21.290  25.316  1.00  0.00     0.131 A 
ATOM      7  C   UNL A   1      38.976  23.606  26.515  1.00  0.00     0.005 A 
ATOM      8  C   UNL A   1      39.355  21.366  25.730  1.00  0.00     0.044 A 
ATOM      9  F   UNL A   1      37.615  20.163  24.714  1.00  0.00    -0.206 F 
BRANCH   4  10
ATOM     10  C   UNL A   1      35.749  22.317  24.993  1.00  0.00    -0.012 A 
ATOM     11  C   UNL A   1      33.770  23.377  24.067  1.00  0.00     0.133 A 
ATOM     12  C   UNL A   1      33.071  22.173  24.104  1.00  0.00     0.047 A 
ATOM     13  C   UNL A   1      35.091  23.464  24.516  1.00  0.00     0.056 A 
ATOM     14  C   UNL A   1      33.707  21.030  24.574  1.00  0.00     0.004 A 
ATOM     15  C   UNL A   1      35.032  21.104  25.014  1.00  0.00     0.009 A 
BRANCH  11  16
ATOM     16  O   UNL A   1      33.041  24.511  23.677  1.00  0.00    -0.410 OA
BRANCH  16  17
ATOM     17  C   UNL A   1      33.262  25.038  22.413  1.00  0.00     0.412 C 
ATOM     18  N   UNL A   1      33.088  26.395  22.361  1.00  0.00    -0.321 N 
ATOM     19  H   UNL A   1      33.271  26.830  21.497  1.00  0.00     0.167 HD
ATOM     20  O   UNL A   1      33.550  24.401  21.407  1.00  0.00    -0.224 OA
BRANCH  18  21
ATOM     21  C   UNL A   1      32.666  27.259  23.446  1.00  0.00     0.119 C 
BRANCH  21  22
ATOM     22  C   UNL A   1      33.788  27.540  24.443  1.00  0.00     0.021 C 
BRANCH  22  23
ATOM     23  C   UNL A   1      33.618  28.822  25.266  1.00  0.00     0.002 C 
BRANCH  23  24
ATOM     24  C   UNL A   1      34.362  28.857  26.605  1.00  0.00    -0.000 C 
BRANCH  24  25
ATOM     25  C   UNL A   1      34.237  30.162  27.397  1.00  0.00    -0.003 C 
ATOM     26  C   UNL A   1      35.566  30.681  27.922  1.00  0.00     0.004 C 
ENDBRANCH  24  25
ENDBRANCH  23  24
ENDBRANCH  22  23
ENDBRANCH  21  22
ENDBRANCH  18  21
ENDBRANCH  16  17
ENDBRANCH  11  16
ENDBRANCH   4  10
ENDBRANCH   1   3
BRANCH   1  27
ATOM     27  C   UNL A   1      42.312  21.876  25.861  1.00  0.00     0.313 C 
ATOM     28  O   UNL A   1      42.652  20.715  26.071  1.00  0.00    -0.252 OA
BRANCH  27  29
ATOM     29  O   UNL A   1      42.739  22.617  24.806  1.00  0.00    -0.462 OA
BRANCH  29  30
ATOM     30  C   UNL A   1      44.082  23.133  24.876  1.00  0.00     0.274 C 
BRANCH  30  31
ATOM     31  C   UNL A   1      44.081  24.663  24.925  1.00  0.00     0.275 C 
BRANCH  31  32
ATOM     32  O   UNL A   1      43.554  25.146  26.174  1.00  0.00    -0.458 OA
BRANCH  32  33
ATOM     33  C   UNL A   1      42.491  25.976  26.065  1.00  0.00     0.338 C 
ATOM     34  O   UNL A   1      41.745  26.106  25.112  1.00  0.00    -0.246 OA
BRANCH  33  35
ATOM     35  C   UNL A   1      42.280  26.660  27.347  1.00  0.00     0.060 A 
ATOM     36  C   UNL A   1      41.333  26.141  28.234  1.00  0.00     0.016 A 
ATOM     37  C   UNL A   1      42.954  27.845  27.637  1.00  0.00     0.016 A 
ATOM     38  C   UNL A   1      41.048  26.810  29.420  1.00  0.00     0.010 A 
ATOM     39  C   UNL A   1      42.676  28.510  28.832  1.00  0.00     0.010 A 
ATOM     40  C   UNL A   1      41.715  28.003  29.726  1.00  0.00    -0.014 A 
BRANCH  40  41
ATOM     41  C   UNL A   1      41.390  28.749  30.963  1.00  0.00     0.031 A 
ATOM     42  C   UNL A   1      40.266  29.744  30.954  1.00  0.00     0.074 A 
ATOM     43  C   UNL A   1      42.113  28.545  32.080  1.00  0.00     0.049 A 
ATOM     44  N   UNL A   1      39.928  30.615  31.869  1.00  0.00    -0.248 NA
ATOM     45  C   UNL A   1      39.411  29.763  29.756  1.00  0.00     0.031 C 
ATOM     46  C   UNL A   1      43.188  27.562  32.225  1.00  0.00     0.029 A 
ATOM     47  N   UNL A   1      42.062  29.168  33.301  1.00  0.00    -0.354 N 
ATOM     48  C   UNL A   1      38.836  31.299  31.352  1.00  0.00     0.074 A 
ATOM     49  C   UNL A   1      38.574  30.753  30.038  1.00  0.00     0.031 C 
ATOM     50  C   UNL A   1      43.704  27.657  33.462  1.00  0.00     0.029 A 
ATOM     51  C   UNL A   1      43.035  28.743  34.173  1.00  0.00     0.049 A 
ATOM     52  H   UNL A   1      41.392  29.853  33.530  1.00  0.00     0.167 HD
ATOM     53  C   UNL A   1      38.117  32.296  31.924  1.00  0.00     0.031 A 
ATOM     54  C   UNL A   1      43.379  29.206  35.390  1.00  0.00     0.031 A 
ATOM     55  C   UNL A   1      38.393  32.839  33.227  1.00  0.00     0.049 A 
ATOM     56  C   UNL A   1      42.622  30.371  35.970  1.00  0.00     0.074 A 
ATOM     57  C   UNL A   1      37.741  33.866  33.888  1.00  0.00     0.029 A 
ATOM     58  N   UNL A   1      39.400  32.395  34.070  1.00  0.00    -0.354 N 
ATOM     59  N   UNL A   1      41.612  31.032  35.457  1.00  0.00    -0.248 NA
ATOM     60  C   UNL A   1      43.056  30.857  37.288  1.00  0.00     0.031 C 
ATOM     61  C   UNL A   1      38.380  34.067  35.117  1.00  0.00     0.029 A 
ATOM     62  C   UNL A   1      39.396  33.133  35.241  1.00  0.00     0.049 A 
ATOM     63  H   UNL A   1      40.026  31.663  33.867  1.00  0.00     0.167 HD
ATOM     64  C   UNL A   1      41.274  31.997  36.399  1.00  0.00     0.074 A 
ATOM     65  C   UNL A   1      42.181  31.828  37.517  1.00  0.00     0.031 C 
ATOM     66  C   UNL A   1      40.301  32.939  36.345  1.00  0.00     0.031 A 
BRANCH  53  67
ATOM     67  C   UNL A   1      36.988  32.884  31.123  1.00  0.00    -0.014 A 
ATOM     68  C   UNL A   1      37.238  33.717  30.018  1.00  0.00     0.010 A 
ATOM     69  C   UNL A   1      35.657  32.574  31.460  1.00  0.00     0.010 A 
ATOM     70  C   UNL A   1      36.177  34.258  29.286  1.00  0.00     0.020 A 
ATOM     71  C   UNL A   1      34.595  33.095  30.718  1.00  0.00     0.020 A 
ATOM     72  C   UNL A   1      34.861  33.949  29.644  1.00  0.00     0.054 A 
BRANCH  72  73
ATOM     73  S   UNL A   1      33.502  34.652  28.670  1.00  0.00     0.124 S 
ATOM     74  O   UNL A   1      34.153  35.788  28.021  1.00  0.00    -0.237 OA
ATOM     75  O   UNL A   1      33.136  33.550  27.783  1.00  0.00    -0.237 OA
ATOM     76  O   UNL A   1      32.499  34.999  29.672  1.00  0.00    -0.744 OA
ENDBRANCH  72  73
ENDBRANCH  53  67
BRANCH  54  77
ATOM     77  C   UNL A   1      44.527  28.603  36.120  1.00  0.00    -0.014 A 
ATOM     78  C   UNL A   1      45.827  29.110  35.958  1.00  0.00     0.010 A 
ATOM     79  C   UNL A   1      44.320  27.512  36.986  1.00  0.00     0.010 A 
ATOM     80  C   UNL A   1      46.904  28.524  36.630  1.00  0.00     0.020 A 
ATOM     81  C   UNL A   1      45.390  26.941  37.680  1.00  0.00     0.020 A 
ATOM     82  C   UNL A   1      46.678  27.442  37.487  1.00  0.00     0.054 A 
BRANCH  82  83
ATOM     83  S   UNL A   1      48.082  26.721  38.382  1.00  0.00     0.124 S 
ATOM     84  O   UNL A   1      48.994  26.384  37.294  1.00  0.00    -0.237 OA
ATOM     85  O   UNL A   1      48.507  27.817  39.248  1.00  0.00    -0.237 OA
ATOM     86  O   UNL A   1      47.490  25.581  39.081  1.00  0.00    -0.744 OA
ENDBRANCH  82  83
ENDBRANCH  54  77
BRANCH  66  87
ATOM     87  C   UNL A   1      40.133  33.833  37.543  1.00  0.00    -0.014 A 
ATOM     88  C   UNL A   1      39.283  33.476  38.602  1.00  0.00     0.010 A 
ATOM     89  C   UNL A   1      40.901  35.008  37.640  1.00  0.00     0.010 A 
ATOM     90  C   UNL A   1      39.193  34.287  39.736  1.00  0.00     0.020 A 
ATOM     91  C   UNL A   1      40.830  35.810  38.781  1.00  0.00     0.020 A 
ATOM     92  C   UNL A   1      39.970  35.449  39.820  1.00  0.00     0.054 A 
BRANCH  92  93
ATOM     93  S   UNL A   1      39.891  36.448  41.331  1.00  0.00     0.124 S 
ATOM     94  O   UNL A   1      41.261  36.943  41.440  1.00  0.00    -0.237 OA
ATOM     95  O   UNL A   1      38.885  37.453  41.001  1.00  0.00    -0.237 OA
ATOM     96  O   UNL A   1      39.491  35.489  42.359  1.00  0.00    -0.744 OA
ENDBRANCH  92  93
ENDBRANCH  66  87
ENDBRANCH  40  41
ENDBRANCH  33  35
ENDBRANCH  32  33
ENDBRANCH  31  32
ENDBRANCH  30  31
ENDBRANCH  29  30
ENDBRANCH  27  29
ENDBRANCH   1  27
TORSDOF 23
ENDMDL
MODEL 2
REMARK VINA RESULT:      -9.8      1.378      2.065
REMARK SMILES CCCCCCNC(=O)Oc1cccc(-c2ccc([C@@H](C)C(=O)OCCOC(=O)c3ccc(-c4c5nc(c(-c6ccc(S(=O)(=O)[O-])cc6)c6ccc([nH]6)c(-c6ccc(S(=O)(=O)[O-])cc6)c6nc(c(-c7ccc(S(=O)(=O)[O-])cc7)c7ccc4[nH]7)C=C6)C=C5)cc3)cc2F)c1
REMARK SMILES IDX 20 1 21 2 19 3 16 4 17 5 91 6 18 7 90 8 92 9 15 10 11 11
REMARK SMILES IDX 12 12 93 13 13 14 14 15 10 16 8 17 7 18 9 20 6 21 5 22 4 23
REMARK SMILES IDX 3 24 2 25 1 26 22 27 23 28 24 29 25 30 26 31 27 32 28 33
REMARK SMILES IDX 29 34 30 35 31 36 89 37 32 38 88 39 33 40 34 41 35 42 82 43
REMARK SMILES IDX 36 44 87 45 81 46 83 47 37 48 86 49 80 50 79 51 38 53 68 54
REMARK SMILES IDX 49 55 67 56 50 57 53 58 66 59 84 60 51 61 52 62 65 64 85 65
REMARK SMILES IDX 54 66 39 67 40 68 48 69 41 70 47 71 42 72 43 73 44 74 45 75
REMARK SMILES IDX 46 76 69 77 70 78 78 79 71 80 77 81 72 82 73 83 74 84 75 85
REMARK SMILES IDX 76 86 55 87 56 88 64 89 57 90 63 91 58 92 59 93 60 94 61 95
REMARK SMILES IDX 62 96
REMARK H PARENT 7 19 83 52 53 63
REMARK Flexibility Score: inf
ROOT
ATOM      1  C   UNL A   1      41.871  20.769  26.827  1.00  0.00     0.126 C 
ATOM      2  C   UNL A   1      41.875  19.444  27.588  1.00  0.00     0.025 C 
ENDROOT
BRANCH   1   3
ATOM      3  C   UNL A   1      40.485  21.142  26.324  1.00  0.00    -0.031 A 
ATOM      4  C   UNL A   1      37.878  21.882  25.436  1.00  0.00     0.018 A 
ATOM      5  C   UNL A   1      38.391  20.595  25.205  1.00  0.00     0.012 A 
ATOM      6  C   UNL A   1      38.709  22.792  26.102  1.00  0.00     0.131 A 
ATOM      7  C   UNL A   1      39.668  20.227  25.647  1.00  0.00     0.005 A 
ATOM      8  C   UNL A   1      39.986  22.436  26.540  1.00  0.00     0.044 A 
ATOM      9  F   UNL A   1      38.275  24.033  26.371  1.00  0.00    -0.206 F 
BRANCH   4  10
ATOM     10  C   UNL A   1      36.506  22.228  25.024  1.00  0.00    -0.012 A 
ATOM     11  C   UNL A   1      34.122  22.395  25.450  1.00  0.00     0.133 A 
ATOM     12  C   UNL A   1      33.895  22.875  24.163  1.00  0.00     0.047 A 
ATOM     13  C   UNL A   1      35.407  22.059  25.884  1.00  0.00     0.056 A 
ATOM     14  C   UNL A   1      34.971  23.047  23.300  1.00  0.00     0.004 A 
ATOM     15  C   UNL A   1      36.261  22.725  23.727  1.00  0.00     0.009 A 
BRANCH  11  16
ATOM     16  O   UNL A   1      32.984  22.151  26.236  1.00  0.00    -0.410 OA
BRANCH  16  17
ATOM     17  C   UNL A   1      31.815  21.755  25.604  1.00  0.00     0.412 C 
ATOM     18  N   UNL A   1      30.808  22.676  25.715  1.00  0.00    -0.321 N 
ATOM     19  H   UNL A   1      29.966  22.465  25.251  1.00  0.00     0.167 HD
ATOM     20  O   UNL A   1      31.635  20.691  25.023  1.00  0.00    -0.224 OA
BRANCH  18  21
ATOM     21  C   UNL A   1      30.853  23.929  26.443  1.00  0.00     0.119 C 
BRANCH  21  22
ATOM     22  C   UNL A   1      31.385  25.081  25.593  1.00  0.00     0.021 C 
BRANCH  22  23
ATOM     23  C   UNL A   1      31.046  26.481  26.116  1.00  0.00     0.002 C 
BRANCH  23  24
ATOM     24  C   UNL A   1      31.628  27.651  25.313  1.00  0.00    -0.000 C 
BRANCH  24  25
ATOM     25  C   UNL A   1      32.053  28.871  26.136  1.00  0.00    -0.003 C 
ATOM     26  C   UNL A   1      31.559  28.834  27.573  1.00  0.00     0.004 C 
ENDBRANCH  24  25
ENDBRANCH  23  24
ENDBRANCH  22  23
ENDBRANCH  21  22
ENDBRANCH  18  21
ENDBRANCH  16  17
ENDBRANCH  11  16
ENDBRANCH   4  10
ENDBRANCH   1   3
BRANCH   1  27
ATOM     27  C   UNL A   1      42.987  20.770  25.787  1.00  0.00     0.313 C 
ATOM     28  O   UNL A   1      43.622  19.755  25.514  1.00  0.00    -0.252 OA
BRANCH  27  29
ATOM     29  O   UNL A   1      43.169  21.970  25.178  1.00  0.00    -0.462 OA
BRANCH  29  30
ATOM     30  C   UNL A   1      44.166  22.841  25.743  1.00  0.00     0.274 C 
BRANCH  30  31
ATOM     31  C   UNL A   1      44.015  24.269  25.212  1.00  0.00     0.275 C 
BRANCH  31  32
ATOM     32  O   UNL A   1      43.565  25.165  26.243  1.00  0.00    -0.458 OA
BRANCH  32  33
ATOM     33  C   UNL A   1      42.363  25.744  26.016  1.00  0.00     0.338 C 
ATOM     34  O   UNL A   1      41.645  25.605  25.043  1.00  0.00    -0.246 OA
BRANCH  33  35
ATOM     35  C   UNL A   1      41.970  26.521  27.198  1.00  0.00     0.060 A 
ATOM     36  C   UNL A   1      42.646  27.713  27.470  1.00  0.00     0.016 A 
ATOM     37  C   UNL A   1      40.997  26.038  28.071  1.00  0.00     0.016 A 
ATOM     38  C   UNL A   1      42.356  28.431  28.626  1.00  0.00     0.010 A 
ATOM     39  C   UNL A   1      40.699  26.764  29.226  1.00  0.00     0.010 A 
ATOM     40  C   UNL A   1      41.382  27.959  29.515  1.00  0.00    -0.014 A 
BRANCH  40  41
ATOM     41  C   UNL A   1      41.095  28.688  30.771  1.00  0.00     0.031 A 
ATOM     42  C   UNL A   1      39.980  29.693  30.807  1.00  0.00     0.074 A 
ATOM     43  C   UNL A   1      41.844  28.459  31.866  1.00  0.00     0.049 A 
ATOM     44  N   UNL A   1      39.673  30.551  31.744  1.00  0.00    -0.248 NA
ATOM     45  C   UNL A   1      39.097  29.739  29.631  1.00  0.00     0.031 C 
ATOM     46  C   UNL A   1      42.912  27.464  31.969  1.00  0.00     0.029 A 
ATOM     47  N   UNL A   1      41.828  29.062  33.099  1.00  0.00    -0.354 N 
ATOM     48  C   UNL A   1      38.575  31.254  31.266  1.00  0.00     0.074 A 
ATOM     49  C   UNL A   1      38.276  30.731  29.950  1.00  0.00     0.031 C 
ATOM     50  C   UNL A   1      43.460  27.534  33.194  1.00  0.00     0.029 A 
ATOM     51  C   UNL A   1      42.819  28.614  33.939  1.00  0.00     0.049 A 
ATOM     52  H   UNL A   1      41.171  29.748  33.355  1.00  0.00     0.167 HD
ATOM     53  C   UNL A   1      37.881  32.247  31.871  1.00  0.00     0.031 A 
ATOM     54  C   UNL A   1      43.197  29.053  35.155  1.00  0.00     0.031 A 
ATOM     55  C   UNL A   1      38.194  32.767  33.176  1.00  0.00     0.049 A 
ATOM     56  C   UNL A   1      42.466  30.215  35.772  1.00  0.00     0.074 A 
ATOM     57  C   UNL A   1      37.569  33.788  33.870  1.00  0.00     0.029 A 
ATOM     58  N   UNL A   1      39.218  32.299  33.987  1.00  0.00    -0.354 N 
ATOM     59  N   UNL A   1      41.450  30.894  35.296  1.00  0.00    -0.248 NA
ATOM     60  C   UNL A   1      42.937  30.676  37.086  1.00  0.00     0.031 C 
ATOM     61  C   UNL A   1      38.239  33.963  35.086  1.00  0.00     0.029 A 
ATOM     62  C   UNL A   1      39.249  33.018  35.169  1.00  0.00     0.049 A 
ATOM     63  H   UNL A   1      39.831  31.565  33.756  1.00  0.00     0.167 HD
ATOM     64  C   UNL A   1      41.145  31.846  36.261  1.00  0.00     0.074 A 
ATOM     65  C   UNL A   1      42.078  31.650  37.353  1.00  0.00     0.031 C 
ATOM     66  C   UNL A   1      40.179  32.797  36.246  1.00  0.00     0.031 A 
BRANCH  53  67
ATOM     67  C   UNL A   1      36.737  32.859  31.109  1.00  0.00    -0.014 A 
ATOM     68  C   UNL A   1      35.405  32.513  31.397  1.00  0.00     0.010 A 
ATOM     69  C   UNL A   1      36.996  33.819  30.113  1.00  0.00     0.010 A 
ATOM     70  C   UNL A   1      34.354  33.089  30.678  1.00  0.00     0.020 A 
ATOM     71  C   UNL A   1      35.947  34.413  29.407  1.00  0.00     0.020 A 
ATOM     72  C   UNL A   1      34.632  34.031  29.682  1.00  0.00     0.054 A 
BRANCH  72  73
ATOM     73  S   UNL A   1      33.250  34.775  28.772  1.00  0.00     0.124 S 
ATOM     74  O   UNL A   1      33.925  35.809  27.992  1.00  0.00    -0.237 OA
ATOM     75  O   UNL A   1      32.728  33.649  28.001  1.00  0.00    -0.237 OA
ATOM     76  O   UNL A   1      32.365  35.267  29.825  1.00  0.00    -0.744 OA
ENDBRANCH  72  73
ENDBRANCH  53  67
BRANCH  54  77
ATOM     77  C   UNL A   1      44.358  28.428  35.845  1.00  0.00    -0.014 A 
ATOM     78  C   UNL A   1      44.172  27.358  36.737  1.00  0.00     0.010 A 
ATOM     79  C   UNL A   1      45.661  28.905  35.610  1.00  0.00     0.010 A 
ATOM     80  C   UNL A   1      45.265  26.791  37.398  1.00  0.00     0.020 A 
ATOM     81  C   UNL A   1      46.759  28.323  36.249  1.00  0.00     0.020 A 
ATOM     82  C   UNL A   1      46.553  27.278  37.151  1.00  0.00     0.054 A 
BRANCH  82  83
ATOM     83  S   UNL A   1      47.963  26.503  37.988  1.00  0.00     0.124 S 
ATOM     84  O   UNL A   1      47.486  25.138  38.184  1.00  0.00    -0.237 OA
ATOM     85  O   UNL A   1      49.040  26.663  37.014  1.00  0.00    -0.237 OA
ATOM     86  O   UNL A   1      48.114  27.297  39.206  1.00  0.00    -0.744 OA
ENDBRANCH  82  83
ENDBRANCH  54  77
BRANCH  66  87
ATOM     87  C   UNL A   1      40.050  33.673  37.463  1.00  0.00    -0.014 A 
ATOM     88  C   UNL A   1      40.700  34.917  37.535  1.00  0.00     0.010 A 
ATOM     89  C   UNL A   1      39.201  33.276  38.512  1.00  0.00     0.010 A 
ATOM     90  C   UNL A   1      40.512  35.745  38.644  1.00  0.00     0.020 A 
ATOM     91  C   UNL A   1      38.994  34.111  39.612  1.00  0.00     0.020 A 
ATOM     92  C   UNL A   1      39.658  35.338  39.675  1.00  0.00     0.054 A 
BRANCH  92  93
ATOM     93  S   UNL A   1      39.373  36.461  41.070  1.00  0.00     0.124 S 
ATOM     94  O   UNL A   1      39.395  37.768  40.419  1.00  0.00    -0.237 OA
ATOM     95  O   UNL A   1      38.070  36.030  41.570  1.00  0.00    -0.237 OA
ATOM     96  O   UNL A   1      40.496  36.192  41.966  1.00  0.00    -0.744 OA
ENDBRANCH  92  93
ENDBRANCH  66  87
ENDBRANCH  40  41
ENDBRANCH  33  35
ENDBRANCH  32  33
ENDBRANCH  31  32
ENDBRANCH  30  31
ENDBRANCH  29  30
ENDBRANCH  27  29
ENDBRANCH   1  27
TORSDOF 23
ENDMDL
MODEL 3
REMARK VINA RESULT:      -9.6      6.079     11.938
REMARK SMILES CCCCCCNC(=O)Oc1cccc(-c2ccc([C@@H](C)C(=O)OCCOC(=O)c3ccc(-c4c5nc(c(-c6ccc(S(=O)(=O)[O-])cc6)c6ccc([nH]6)c(-c6ccc(S(=O)(=O)[O-])cc6)c6nc(c(-c7ccc(S(=O)(=O)[O-])cc7)c7ccc4[nH]7)C=C6)C=C5)cc3)cc2F)c1
REMARK SMILES IDX 20 1 21 2 19 3 16 4 17 5 91 6 18 7 90 8 92 9 15 10 11 11
REMARK SMILES IDX 12 12 93 13 13 14 14 15 10 16 8 17 7 18 9 20 6 21 5 22 4 23
REMARK SMILES IDX 3 24 2 25 1 26 22 27 23 28 24 29 25 30 26 31 27 32 28 33
REMARK SMILES IDX 29 34 30 35 31 36 89 37 32 38 88 39 33 40 34 41 35 42 82 43
REMARK SMILES IDX 36 44 87 45 81 46 83 47 37 48 86 49 80 50 79 51 38 53 68 54
REMARK SMILES IDX 49 55 67 56 50 57 53 58 66 59 84 60 51 61 52 62 65 64 85 65
REMARK SMILES IDX 54 66 39 67 40 68 48 69 41 70 47 71 42 72 43 73 44 74 45 75
REMARK SMILES IDX 46 76 69 77 70 78 78 79 71 80 77 81 72 82 73 83 74 84 75 85
REMARK SMILES IDX 76 86 55 87 56 88 64 89 57 90 63 91 58 92 59 93 60 94 61 95
REMARK SMILES IDX 62 96
REMARK H PARENT 7 19 83 52 53 63
REMARK Flexibility Score: inf
ROOT
ATOM      1  C   UNL A   1      35.381  30.665  28.252  1.00  0.00     0.126 C 
ATOM      2  C   UNL A   1      36.734  30.526  27.557  1.00  0.00     0.025 C 
ENDROOT
BRANCH   1   3
ATOM      3  C   UNL A   1      34.284  29.885  27.543  1.00  0.00    -0.031 A 
ATOM      4  C   UNL A   1      32.275  28.396  26.172  1.00  0.00     0.018 A 
ATOM      5  C   UNL A   1      32.002  29.661  26.720  1.00  0.00     0.012 A 
ATOM      6  C   UNL A   1      33.568  27.889  26.347  1.00  0.00     0.131 A 
ATOM      7  C   UNL A   1      32.990  30.397  27.386  1.00  0.00     0.005 A 
ATOM      8  C   UNL A   1      34.558  28.613  27.016  1.00  0.00     0.044 A 
ATOM      9  F   UNL A   1      33.902  26.695  25.834  1.00  0.00    -0.206 F 
BRANCH   4  10
ATOM     10  C   UNL A   1      31.241  27.668  25.415  1.00  0.00    -0.012 A 
ATOM     11  C   UNL A   1      29.606  27.519  23.627  1.00  0.00     0.133 A 
ATOM     12  C   UNL A   1      29.243  26.235  24.025  1.00  0.00     0.047 A 
ATOM     13  C   UNL A   1      30.584  28.243  24.314  1.00  0.00     0.056 A 
ATOM     14  C   UNL A   1      29.883  25.652  25.112  1.00  0.00     0.004 A 
ATOM     15  C   UNL A   1      30.870  26.363  25.799  1.00  0.00     0.009 A 
BRANCH  11  16
ATOM     16  O   UNL A   1      28.854  28.087  22.586  1.00  0.00    -0.410 OA
BRANCH  16  17
ATOM     17  C   UNL A   1      27.643  28.689  22.896  1.00  0.00     0.412 C 
ATOM     18  N   UNL A   1      27.309  29.697  22.031  1.00  0.00    -0.321 N 
ATOM     19  H   UNL A   1      26.440  30.134  22.179  1.00  0.00     0.167 HD
ATOM     20  O   UNL A   1      26.924  28.414  23.850  1.00  0.00    -0.224 OA
BRANCH  18  21
ATOM     21  C   UNL A   1      28.101  30.185  20.919  1.00  0.00     0.119 C 
BRANCH  21  22
ATOM     22  C   UNL A   1      29.123  31.237  21.344  1.00  0.00     0.021 C 
BRANCH  22  23
ATOM     23  C   UNL A   1      28.541  32.627  21.626  1.00  0.00     0.002 C 
BRANCH  23  24
ATOM     24  C   UNL A   1      28.658  33.118  23.074  1.00  0.00    -0.000 C 
BRANCH  24  25
ATOM     25  C   UNL A   1      28.704  32.022  24.142  1.00  0.00    -0.003 C 
ATOM     26  C   UNL A   1      30.098  31.772  24.694  1.00  0.00     0.004 C 
ENDBRANCH  24  25
ENDBRANCH  23  24
ENDBRANCH  22  23
ENDBRANCH  21  22
ENDBRANCH  18  21
ENDBRANCH  16  17
ENDBRANCH  11  16
ENDBRANCH   4  10
ENDBRANCH   1   3
BRANCH   1  27
ATOM     27  C   UNL A   1      35.091  32.137  28.525  1.00  0.00     0.313 C 
ATOM     28  O   UNL A   1      35.270  33.004  27.675  1.00  0.00    -0.252 OA
BRANCH  27  29
ATOM     29  O   UNL A   1      34.583  32.376  29.762  1.00  0.00    -0.462 OA
BRANCH  29  30
ATOM     30  C   UNL A   1      35.389  33.169  30.653  1.00  0.00     0.274 C 
BRANCH  30  31
ATOM     31  C   UNL A   1      35.732  32.389  31.925  1.00  0.00     0.275 C 
BRANCH  31  32
ATOM     32  O   UNL A   1      37.105  31.959  31.919  1.00  0.00    -0.458 OA
BRANCH  32  33
ATOM     33  C   UNL A   1      37.288  30.626  31.776  1.00  0.00     0.338 C 
ATOM     34  O   UNL A   1      36.488  29.738  32.010  1.00  0.00    -0.246 OA
BRANCH  33  35
ATOM     35  C   UNL A   1      38.604  30.380  31.174  1.00  0.00     0.060 A 
ATOM     36  C   UNL A   1      38.867  30.903  29.905  1.00  0.00     0.016 A 
ATOM     37  C   UNL A   1      39.542  29.578  31.823  1.00  0.00     0.016 A 
ATOM     38  C   UNL A   1      40.073  30.619  29.270  1.00  0.00     0.010 A 
ATOM     39  C   UNL A   1      40.755  29.303  31.190  1.00  0.00     0.010 A 
ATOM     40  C   UNL A   1      41.024  29.814  29.907  1.00  0.00    -0.014 A 
BRANCH  40  41
ATOM     41  C   UNL A   1      42.292  29.467  29.226  1.00  0.00     0.031 A 
ATOM     42  C   UNL A   1      42.493  28.077  28.696  1.00  0.00     0.074 A 
ATOM     43  C   UNL A   1      43.262  30.393  29.101  1.00  0.00     0.049 A 
ATOM     44  N   UNL A   1      43.579  27.524  28.222  1.00  0.00    -0.248 NA
ATOM     45  C   UNL A   1      41.317  27.193  28.703  1.00  0.00     0.031 C 
ATOM     46  C   UNL A   1      43.158  31.791  29.521  1.00  0.00     0.029 A 
ATOM     47  N   UNL A   1      44.534  30.289  28.597  1.00  0.00    -0.354 N 
ATOM     48  C   UNL A   1      43.225  26.222  27.893  1.00  0.00     0.074 A 
ATOM     49  C   UNL A   1      41.827  26.062  28.233  1.00  0.00     0.031 C 
ATOM     50  C   UNL A   1      44.322  32.412  29.271  1.00  0.00     0.029 A 
ATOM     51  C   UNL A   1      45.269  31.443  28.725  1.00  0.00     0.049 A 
ATOM     52  H   UNL A   1      44.885  29.467  28.183  1.00  0.00     0.167 HD
ATOM     53  C   UNL A   1      43.999  25.248  27.357  1.00  0.00     0.031 A 
ATOM     54  C   UNL A   1      46.571  31.681  28.475  1.00  0.00     0.031 A 
ATOM     55  C   UNL A   1      45.391  25.414  27.033  1.00  0.00     0.049 A 
ATOM     56  C   UNL A   1      47.433  30.559  27.961  1.00  0.00     0.074 A 
ATOM     57  C   UNL A   1      46.271  24.483  26.510  1.00  0.00     0.029 A 
ATOM     58  N   UNL A   1      46.104  26.593  27.198  1.00  0.00    -0.354 N 
ATOM     59  N   UNL A   1      47.095  29.322  27.685  1.00  0.00    -0.248 NA
ATOM     60  C   UNL A   1      48.853  30.863  27.731  1.00  0.00     0.031 C 
ATOM     61  C   UNL A   1      47.527  25.090  26.392  1.00  0.00     0.029 A 
ATOM     62  C   UNL A   1      47.416  26.410  26.796  1.00  0.00     0.049 A 
ATOM     63  H   UNL A   1      45.732  27.434  27.547  1.00  0.00     0.167 HD
ATOM     64  C   UNL A   1      48.254  28.707  27.227  1.00  0.00     0.074 A 
ATOM     65  C   UNL A   1      49.300  29.709  27.255  1.00  0.00     0.031 C 
ATOM     66  C   UNL A   1      48.437  27.426  26.821  1.00  0.00     0.031 A 
BRANCH  53  67
ATOM     67  C   UNL A   1      43.362  23.905  27.124  1.00  0.00    -0.014 A 
ATOM     68  C   UNL A   1      43.104  23.028  28.192  1.00  0.00     0.010 A 
ATOM     69  C   UNL A   1      42.985  23.528  25.821  1.00  0.00     0.010 A 
ATOM     70  C   UNL A   1      42.513  21.783  27.958  1.00  0.00     0.020 A 
ATOM     71  C   UNL A   1      42.375  22.294  25.586  1.00  0.00     0.020 A 
ATOM     72  C   UNL A   1      42.158  21.421  26.655  1.00  0.00     0.054 A 
BRANCH  72  73
ATOM     73  S   UNL A   1      41.380  19.805  26.378  1.00  0.00     0.124 S 
ATOM     74  O   UNL A   1      42.127  19.304  25.227  1.00  0.00    -0.237 OA
ATOM     75  O   UNL A   1      41.629  19.107  27.637  1.00  0.00    -0.237 OA
ATOM     76  O   UNL A   1      39.981  20.133  26.118  1.00  0.00    -0.744 OA
ENDBRANCH  72  73
ENDBRANCH  53  67
BRANCH  54  77
ATOM     77  C   UNL A   1      47.151  33.022  28.757  1.00  0.00    -0.014 A 
ATOM     78  C   UNL A   1      47.701  33.315  30.016  1.00  0.00     0.010 A 
ATOM     79  C   UNL A   1      47.155  34.015  27.759  1.00  0.00     0.010 A 
ATOM     80  C   UNL A   1      48.225  34.585  30.280  1.00  0.00     0.020 A 
ATOM     81  C   UNL A   1      47.702  35.276  28.011  1.00  0.00     0.020 A 
ATOM     82  C   UNL A   1      48.221  35.558  29.275  1.00  0.00     0.054 A 
BRANCH  82  83
ATOM     83  S   UNL A   1      48.942  37.186  29.624  1.00  0.00     0.124 S 
ATOM     84  O   UNL A   1      49.660  37.470  28.386  1.00  0.00    -0.237 OA
ATOM     85  O   UNL A   1      47.762  38.010  29.875  1.00  0.00    -0.237 OA
ATOM     86  O   UNL A   1      49.782  36.943  30.795  1.00  0.00    -0.744 OA
ENDBRANCH  82  83
ENDBRANCH  54  77
BRANCH  66  87
ATOM     87  C   UNL A   1      49.806  27.043  26.331  1.00  0.00    -0.014 A 
ATOM     88  C   UNL A   1      50.776  26.531  27.209  1.00  0.00     0.010 A 
ATOM     89  C   UNL A   1      50.095  27.124  24.956  1.00  0.00     0.010 A 
ATOM     90  C   UNL A   1      52.018  26.118  26.723  1.00  0.00     0.020 A 
ATOM     91  C   UNL A   1      51.328  26.691  24.463  1.00  0.00     0.020 A 
ATOM     92  C   UNL A   1      52.286  26.197  25.351  1.00  0.00     0.054 A 
BRANCH  92  93
ATOM     93  S   UNL A   1      53.878  25.587  24.733  1.00  0.00     0.124 S 
ATOM     94  O   UNL A   1      53.965  26.234  23.426  1.00  0.00    -0.237 OA
ATOM     95  O   UNL A   1      54.820  26.072  25.737  1.00  0.00    -0.237 OA
ATOM     96  O   UNL A   1      53.703  24.137  24.700  1.00  0.00    -0.744 OA
ENDBRANCH  92  93
ENDBRANCH  66  87
ENDBRANCH  40  41
ENDBRANCH  33  35
ENDBRANCH  32  33
ENDBRANCH  31  32
ENDBRANCH  30  31
ENDBRANCH  29  30
ENDBRANCH  27  29
ENDBRANCH   1  27
TORSDOF 23
ENDMDL
