MODEL 1
REMARK VINA RESULT:     -13.6      0.000      0.000
REMARK SMILES Cc1ccc(S(=O)(=O)N(c2ccccc2)[C@H](C)C(=O)OCCOC(=O)c2ccc(-c3c4nc(c(-c5ccc(S(=O)(=O)[O-])cc5)c5ccc([nH]5)c(-c5ccc(S(=O)(=O)[O-])cc5)c5nc(c(-c6ccc(S(=O)(=O)[O-])cc6)c6ccc3[nH]6)C=C5)C=C4)cc2)cc1
REMARK SMILES IDX 21 1 20 2 18 3 19 4 16 5 17 6 9 7 6 8 7 9 8 10 5 11 1 12
REMARK SMILES IDX 2 13 3 14 87 15 4 16 86 17 10 18 11 19 15 20 12 21 14 22
REMARK SMILES IDX 13 23 22 24 23 25 24 26 25 27 26 28 27 29 85 30 28 31 84 32
REMARK SMILES IDX 29 33 30 34 31 35 78 36 32 37 83 38 77 39 79 40 33 41 82 42
REMARK SMILES IDX 76 43 75 44 34 46 64 47 45 48 63 49 46 50 49 51 62 52 80 53
REMARK SMILES IDX 47 54 48 55 61 57 81 58 50 59 35 60 36 61 44 62 37 63 43 64
REMARK SMILES IDX 38 65 39 66 40 67 41 68 42 69 65 70 66 71 74 72 67 73 73 74
REMARK SMILES IDX 68 75 69 76 70 77 71 78 72 79 51 80 52 81 60 82 53 83 59 84
REMARK SMILES IDX 54 85 55 86 56 87 57 88 58 89
REMARK H PARENT 79 45 49 56
REMARK Flexibility Score: inf
ROOT
ATOM      1  C   UNL A   1      33.132  29.519  27.314  1.00  0.00     0.274 C 
ENDROOT
BRANCH   1   2
ATOM      2  O   UNL A   1      32.295  29.218  26.188  1.00  0.00    -0.461 OA
BRANCH   2   3
ATOM      3  C   UNL A   1      31.731  27.992  26.221  1.00  0.00     0.329 C 
ATOM      4  O   UNL A   1      31.224  27.577  27.248  1.00  0.00    -0.250 OA
BRANCH   3   5
ATOM      5  C   UNL A   1      31.409  27.269  24.730  1.00  0.00     0.206 C 
ATOM      6  C   UNL A   1      29.545  26.481  23.814  1.00  0.00     0.045 C 
BRANCH   5   7
ATOM      7  N   UNL A   1      31.524  27.901  23.683  1.00  0.00    -0.252 N 
BRANCH   7   8
ATOM      8  S   UNL A   1      32.425  26.554  22.078  1.00  0.00     0.265 S 
ATOM      9  O   UNL A   1      33.652  27.198  21.616  1.00  0.00    -0.201 OA
ATOM     10  O   UNL A   1      31.446  26.145  21.102  1.00  0.00    -0.201 OA
BRANCH   8  11
ATOM     11  C   UNL A   1      33.157  24.728  22.866  1.00  0.00     0.088 A 
ATOM     12  C   UNL A   1      34.532  21.096  24.951  1.00  0.00     0.044 C 
ATOM     13  C   UNL A   1      34.096  22.255  24.093  1.00  0.00    -0.051 A 
ATOM     14  C   UNL A   1      33.015  22.279  23.188  1.00  0.00     0.005 A 
ATOM     15  C   UNL A   1      34.785  23.429  24.252  1.00  0.00     0.005 A 
ATOM     16  C   UNL A   1      32.542  23.502  22.565  1.00  0.00     0.022 A 
ATOM     17  C   UNL A   1      34.300  24.607  23.678  1.00  0.00     0.022 A 
ENDBRANCH   8  11
ENDBRANCH   7   8
BRANCH   7  18
ATOM     18  C   UNL A   1      29.938  29.252  23.242  1.00  0.00     0.053 A 
ATOM     19  C   UNL A   1      29.571  30.516  24.002  1.00  0.00     0.027 A 
ATOM     20  C   UNL A   1      29.075  29.326  22.001  1.00  0.00     0.027 A 
ATOM     21  C   UNL A   1      28.798  31.607  23.548  1.00  0.00     0.002 A 
ATOM     22  C   UNL A   1      28.289  30.419  21.564  1.00  0.00     0.002 A 
ATOM     23  C   UNL A   1      28.199  31.573  22.310  1.00  0.00     0.000 A 
ENDBRANCH   7  18
ENDBRANCH   5   7
ENDBRANCH   3   5
ENDBRANCH   2   3
ENDBRANCH   1   2
BRANCH   1  24
ATOM     24  C   UNL A   1      34.702  29.740  27.205  1.00  0.00     0.275 C 
BRANCH  24  25
ATOM     25  O   UNL A   1      35.622  30.829  27.729  1.00  0.00    -0.458 OA
BRANCH  25  26
ATOM     26  C   UNL A   1      36.829  31.124  28.306  1.00  0.00     0.338 C 
ATOM     27  O   UNL A   1      37.173  32.249  28.636  1.00  0.00    -0.246 OA
BRANCH  26  28
ATOM     28  C   UNL A   1      37.605  29.966  28.753  1.00  0.00     0.060 A 
ATOM     29  C   UNL A   1      37.742  28.640  30.235  1.00  0.00     0.016 A 
ATOM     30  C   UNL A   1      38.942  29.509  27.416  1.00  0.00     0.016 A 
ATOM     31  C   UNL A   1      39.126  27.236  30.241  1.00  0.00     0.010 A 
ATOM     32  C   UNL A   1      40.460  28.365  27.542  1.00  0.00     0.010 A 
ATOM     33  C   UNL A   1      40.750  27.098  29.004  1.00  0.00    -0.014 A 
BRANCH  33  34
ATOM     34  C   UNL A   1      42.300  27.320  28.853  1.00  0.00     0.031 A 
ATOM     35  C   UNL A   1      42.847  26.070  28.419  1.00  0.00     0.074 A 
ATOM     36  C   UNL A   1      43.015  28.465  28.594  1.00  0.00     0.049 A 
ATOM     37  N   UNL A   1      43.466  25.252  29.202  1.00  0.00    -0.248 NA
ATOM     38  C   UNL A   1      42.292  25.533  27.174  1.00  0.00     0.031 C 
ATOM     39  C   UNL A   1      44.185  28.587  27.713  1.00  0.00     0.029 A 
ATOM     40  N   UNL A   1      42.809  29.794  28.956  1.00  0.00    -0.354 N 
ATOM     41  C   UNL A   1      43.571  24.151  28.399  1.00  0.00     0.074 A 
ATOM     42  C   UNL A   1      42.423  24.255  27.501  1.00  0.00     0.031 C 
ATOM     43  C   UNL A   1      44.706  29.828  27.796  1.00  0.00     0.029 A 
ATOM     44  C   UNL A   1      43.949  30.586  28.781  1.00  0.00     0.049 A 
ATOM     45  H   UNL A   1      41.953  30.138  29.300  1.00  0.00     0.167 HD
ATOM     46  C   UNL A   1      44.777  23.821  27.855  1.00  0.00     0.031 A 
ATOM     47  C   UNL A   1      44.505  31.214  29.859  1.00  0.00     0.031 A 
ATOM     48  C   UNL A   1      45.752  24.918  27.961  1.00  0.00     0.049 A 
ATOM     49  C   UNL A   1      45.604  30.331  30.439  1.00  0.00     0.074 A 
ATOM     50  C   UNL A   1      46.290  25.801  27.036  1.00  0.00     0.029 A 
ATOM     51  N   UNL A   1      46.009  25.491  29.206  1.00  0.00    -0.354 N 
ATOM     52  N   UNL A   1      45.811  29.107  30.018  1.00  0.00    -0.248 NA
ATOM     53  C   UNL A   1      46.622  30.737  31.403  1.00  0.00     0.031 C 
ATOM     54  C   UNL A   1      46.926  26.868  27.748  1.00  0.00     0.029 A 
ATOM     55  C   UNL A   1      46.764  26.646  29.107  1.00  0.00     0.049 A 
ATOM     56  H   UNL A   1      45.688  25.117  30.058  1.00  0.00     0.167 HD
ATOM     57  C   UNL A   1      46.911  28.559  30.601  1.00  0.00     0.074 A 
ATOM     58  C   UNL A   1      47.399  29.635  31.453  1.00  0.00     0.031 C 
ATOM     59  C   UNL A   1      47.299  27.275  30.324  1.00  0.00     0.031 A 
BRANCH  46  60
ATOM     60  C   UNL A   1      44.767  22.691  26.856  1.00  0.00    -0.014 A 
ATOM     61  C   UNL A   1      45.897  22.400  26.090  1.00  0.00     0.010 A 
ATOM     62  C   UNL A   1      43.629  21.856  26.671  1.00  0.00     0.010 A 
ATOM     63  C   UNL A   1      45.881  21.348  25.165  1.00  0.00     0.020 A 
ATOM     64  C   UNL A   1      43.572  20.866  25.694  1.00  0.00     0.020 A 
ATOM     65  C   UNL A   1      44.719  20.594  24.970  1.00  0.00     0.054 A 
BRANCH  65  66
ATOM     66  S   UNL A   1      44.753  19.185  23.839  1.00  0.00     0.124 S 
ATOM     67  O   UNL A   1      46.147  18.759  23.908  1.00  0.00    -0.237 OA
ATOM     68  O   UNL A   1      43.779  18.285  24.451  1.00  0.00    -0.237 OA
ATOM     69  O   UNL A   1      44.346  19.760  22.557  1.00  0.00    -0.744 OA
ENDBRANCH  65  66
ENDBRANCH  46  60
BRANCH  47  70
ATOM     70  C   UNL A   1      43.553  32.171  30.524  1.00  0.00    -0.014 A 
ATOM     71  C   UNL A   1      42.931  33.138  29.693  1.00  0.00     0.010 A 
ATOM     72  C   UNL A   1      42.934  31.908  31.759  1.00  0.00     0.010 A 
ATOM     73  C   UNL A   1      41.694  33.724  30.024  1.00  0.00     0.020 A 
ATOM     74  C   UNL A   1      41.683  32.480  32.092  1.00  0.00     0.020 A 
ATOM     75  C   UNL A   1      41.063  33.383  31.220  1.00  0.00     0.054 A 
BRANCH  75  76
ATOM     76  S   UNL A   1      39.356  34.012  31.524  1.00  0.00     0.124 S 
ATOM     77  O   UNL A   1      38.596  32.769  31.628  1.00  0.00    -0.237 OA
ATOM     78  O   UNL A   1      39.487  34.743  32.789  1.00  0.00    -0.237 OA
ATOM     79  O   UNL A   1      39.043  34.813  30.341  1.00  0.00    -0.744 OA
ENDBRANCH  75  76
ENDBRANCH  47  70
BRANCH  59  80
ATOM     80  C   UNL A   1      48.255  26.445  31.158  1.00  0.00    -0.014 A 
ATOM     81  C   UNL A   1      48.055  26.120  32.503  1.00  0.00     0.010 A 
ATOM     82  C   UNL A   1      49.386  25.853  30.533  1.00  0.00     0.010 A 
ATOM     83  C   UNL A   1      48.949  25.299  33.196  1.00  0.00     0.020 A 
ATOM     84  C   UNL A   1      50.240  24.969  31.187  1.00  0.00     0.020 A 
ATOM     85  C   UNL A   1      50.029  24.723  32.531  1.00  0.00     0.054 A 
BRANCH  85  86
ATOM     86  S   UNL A   1      51.142  23.652  33.456  1.00  0.00     0.124 S 
ATOM     87  O   UNL A   1      52.316  24.506  33.612  1.00  0.00    -0.237 OA
ATOM     88  O   UNL A   1      50.384  23.394  34.677  1.00  0.00    -0.237 OA
ATOM     89  O   UNL A   1      51.322  22.495  32.583  1.00  0.00    -0.744 OA
ENDBRANCH  85  86
ENDBRANCH  59  80
ENDBRANCH  33  34
ENDBRANCH  26  28
ENDBRANCH  25  26
ENDBRANCH  24  25
ENDBRANCH   1  24
TORSDOF 18
ENDMDL
MODEL 2
REMARK VINA RESULT:     -13.4      4.343     10.819
REMARK SMILES Cc1ccc(S(=O)(=O)N(c2ccccc2)[C@H](C)C(=O)OCCOC(=O)c2ccc(-c3c4nc(c(-c5ccc(S(=O)(=O)[O-])cc5)c5ccc([nH]5)c(-c5ccc(S(=O)(=O)[O-])cc5)c5nc(c(-c6ccc(S(=O)(=O)[O-])cc6)c6ccc3[nH]6)C=C5)C=C4)cc2)cc1
REMARK SMILES IDX 21 1 20 2 18 3 19 4 16 5 17 6 9 7 6 8 7 9 8 10 5 11 1 12
REMARK SMILES IDX 2 13 3 14 87 15 4 16 86 17 10 18 11 19 15 20 12 21 14 22
REMARK SMILES IDX 13 23 22 24 23 25 24 26 25 27 26 28 27 29 85 30 28 31 84 32
REMARK SMILES IDX 29 33 30 34 31 35 78 36 32 37 83 38 77 39 79 40 33 41 82 42
REMARK SMILES IDX 76 43 75 44 34 46 64 47 45 48 63 49 46 50 49 51 62 52 80 53
REMARK SMILES IDX 47 54 48 55 61 57 81 58 50 59 35 60 36 61 44 62 37 63 43 64
REMARK SMILES IDX 38 65 39 66 40 67 41 68 42 69 65 70 66 71 74 72 67 73 73 74
REMARK SMILES IDX 68 75 69 76 70 77 71 78 72 79 51 80 52 81 60 82 53 83 59 84
REMARK SMILES IDX 54 85 55 86 56 87 57 88 58 89
REMARK H PARENT 79 45 49 56
REMARK Flexibility Score: inf
ROOT
ATOM      1  C   UNL A   1      33.974  27.884  24.550  1.00  0.00     0.274 C 
ENDROOT
BRANCH   1   2
ATOM      2  O   UNL A   1      33.063  26.937  23.973  1.00  0.00    -0.461 OA
BRANCH   2   3
ATOM      3  C   UNL A   1      33.562  25.689  23.839  1.00  0.00     0.329 C 
ATOM      4  O   UNL A   1      34.147  25.368  22.821  1.00  0.00    -0.250 OA
BRANCH   3   5
ATOM      5  C   UNL A   1      33.692  24.773  25.252  1.00  0.00     0.206 C 
ATOM      6  C   UNL A   1      32.191  24.082  26.736  1.00  0.00     0.045 C 
BRANCH   5   7
ATOM      7  N   UNL A   1      34.032  23.593  25.211  1.00  0.00    -0.252 N 
BRANCH   7   8
ATOM      8  S   UNL A   1      32.707  22.473  23.730  1.00  0.00     0.265 S 
ATOM      9  O   UNL A   1      33.370  22.532  22.431  1.00  0.00    -0.201 OA
ATOM     10  O   UNL A   1      31.326  22.880  23.824  1.00  0.00    -0.201 OA
BRANCH   8  11
ATOM     11  C   UNL A   1      32.654  20.388  24.104  1.00  0.00     0.088 A 
ATOM     12  C   UNL A   1      32.969  16.022  24.625  1.00  0.00     0.044 C 
ATOM     13  C   UNL A   1      32.731  17.508  24.556  1.00  0.00    -0.051 A 
ATOM     14  C   UNL A   1      32.858  18.436  25.610  1.00  0.00     0.005 A 
ATOM     15  C   UNL A   1      32.415  18.022  23.325  1.00  0.00     0.005 A 
ATOM     16  C   UNL A   1      32.814  19.872  25.400  1.00  0.00     0.022 A 
ATOM     17  C   UNL A   1      32.413  19.405  23.126  1.00  0.00     0.022 A 
ENDBRANCH   8  11
ENDBRANCH   7   8
BRANCH   7  18
ATOM     18  C   UNL A   1      36.128  23.233  25.325  1.00  0.00     0.053 A 
ATOM     19  C   UNL A   1      37.169  24.088  26.028  1.00  0.00     0.027 A 
ATOM     20  C   UNL A   1      36.895  21.983  24.949  1.00  0.00     0.027 A 
ATOM     21  C   UNL A   1      38.466  23.710  26.440  1.00  0.00     0.002 A 
ATOM     22  C   UNL A   1      38.202  21.623  25.354  1.00  0.00     0.002 A 
ATOM     23  C   UNL A   1      38.959  22.461  26.144  1.00  0.00     0.000 A 
ENDBRANCH   7  18
ENDBRANCH   5   7
ENDBRANCH   3   5
ENDBRANCH   2   3
ENDBRANCH   1   2
BRANCH   1  24
ATOM     24  C   UNL A   1      33.926  28.328  26.075  1.00  0.00     0.275 C 
BRANCH  24  25
ATOM     25  O   UNL A   1      34.980  28.901  27.008  1.00  0.00    -0.458 OA
BRANCH  25  26
ATOM     26  C   UNL A   1      35.316  29.919  27.861  1.00  0.00     0.338 C 
ATOM     27  O   UNL A   1      34.658  30.938  28.003  1.00  0.00    -0.246 OA
BRANCH  26  28
ATOM     28  C   UNL A   1      36.392  29.611  28.804  1.00  0.00     0.060 A 
ATOM     29  C   UNL A   1      36.723  29.115  30.706  1.00  0.00     0.016 A 
ATOM     30  C   UNL A   1      38.106  29.632  27.884  1.00  0.00     0.016 A 
ATOM     31  C   UNL A   1      38.548  28.836  31.399  1.00  0.00     0.010 A 
ATOM     32  C   UNL A   1      39.875  29.665  28.590  1.00  0.00     0.010 A 
ATOM     33  C   UNL A   1      40.308  29.296  30.461  1.00  0.00    -0.014 A 
BRANCH  33  34
ATOM     34  C   UNL A   1      41.506  30.309  30.356  1.00  0.00     0.031 A 
ATOM     35  C   UNL A   1      41.217  31.373  31.270  1.00  0.00     0.074 A 
ATOM     36  C   UNL A   1      42.816  30.107  29.991  1.00  0.00     0.049 A 
ATOM     37  N   UNL A   1      40.761  32.524  30.905  1.00  0.00    -0.248 NA
ATOM     38  C   UNL A   1      41.017  30.973  32.666  1.00  0.00     0.031 C 
ATOM     39  C   UNL A   1      44.001  30.715  30.610  1.00  0.00     0.029 A 
ATOM     40  N   UNL A   1      43.404  29.240  29.074  1.00  0.00    -0.354 N 
ATOM     41  C   UNL A   1      40.436  33.072  32.115  1.00  0.00     0.074 A 
ATOM     42  C   UNL A   1      40.134  31.918  32.958  1.00  0.00     0.031 C 
ATOM     43  C   UNL A   1      45.111  30.389  29.916  1.00  0.00     0.029 A 
ATOM     44  C   UNL A   1      44.721  29.593  28.762  1.00  0.00     0.049 A 
ATOM     45  H   UNL A   1      42.942  28.462  28.686  1.00  0.00     0.167 HD
ATOM     46  C   UNL A   1      41.214  34.060  32.643  1.00  0.00     0.031 A 
ATOM     47  C   UNL A   1      45.049  29.899  27.472  1.00  0.00     0.031 A 
ATOM     48  C   UNL A   1      42.510  34.172  31.955  1.00  0.00     0.049 A 
ATOM     49  C   UNL A   1      44.941  31.407  27.275  1.00  0.00     0.074 A 
ATOM     50  C   UNL A   1      43.806  33.831  32.314  1.00  0.00     0.029 A 
ATOM     51  N   UNL A   1      42.543  34.323  30.569  1.00  0.00    -0.354 N 
ATOM     52  N   UNL A   1      44.445  32.198  28.195  1.00  0.00    -0.248 NA
ATOM     53  C   UNL A   1      45.466  32.172  26.147  1.00  0.00     0.031 C 
ATOM     54  C   UNL A   1      44.620  33.848  31.137  1.00  0.00     0.029 A 
ATOM     55  C   UNL A   1      43.820  34.183  30.056  1.00  0.00     0.049 A 
ATOM     56  H   UNL A   1      41.748  34.506  30.019  1.00  0.00     0.167 HD
ATOM     57  C   UNL A   1      44.555  33.506  27.839  1.00  0.00     0.074 A 
ATOM     58  C   UNL A   1      45.224  33.437  26.547  1.00  0.00     0.031 C 
ATOM     59  C   UNL A   1      44.079  34.506  28.645  1.00  0.00     0.031 A 
BRANCH  46  60
ATOM     60  C   UNL A   1      40.876  34.491  34.047  1.00  0.00    -0.014 A 
ATOM     61  C   UNL A   1      39.608  34.983  34.362  1.00  0.00     0.010 A 
ATOM     62  C   UNL A   1      41.812  34.389  35.115  1.00  0.00     0.010 A 
ATOM     63  C   UNL A   1      39.301  35.381  35.670  1.00  0.00     0.020 A 
ATOM     64  C   UNL A   1      41.547  34.861  36.397  1.00  0.00     0.020 A 
ATOM     65  C   UNL A   1      40.272  35.323  36.675  1.00  0.00     0.054 A 
BRANCH  65  66
ATOM     66  S   UNL A   1      39.824  35.753  38.371  1.00  0.00     0.124 S 
ATOM     67  O   UNL A   1      38.764  34.795  38.669  1.00  0.00    -0.237 OA
ATOM     68  O   UNL A   1      41.086  35.550  39.077  1.00  0.00    -0.237 OA
ATOM     69  O   UNL A   1      39.386  37.145  38.271  1.00  0.00    -0.744 OA
ENDBRANCH  65  66
ENDBRANCH  46  60
BRANCH  47  70
ATOM     70  C   UNL A   1      44.794  28.758  26.526  1.00  0.00    -0.014 A 
ATOM     71  C   UNL A   1      45.894  27.911  26.231  1.00  0.00     0.010 A 
ATOM     72  C   UNL A   1      43.512  28.240  26.273  1.00  0.00     0.010 A 
ATOM     73  C   UNL A   1      45.719  26.575  25.819  1.00  0.00     0.020 A 
ATOM     74  C   UNL A   1      43.327  26.893  25.874  1.00  0.00     0.020 A 
ATOM     75  C   UNL A   1      44.432  26.063  25.654  1.00  0.00     0.054 A 
BRANCH  75  76
ATOM     76  S   UNL A   1      44.241  24.260  25.313  1.00  0.00     0.124 S 
ATOM     77  O   UNL A   1      45.123  24.081  24.163  1.00  0.00    -0.237 OA
ATOM     78  O   UNL A   1      44.726  23.632  26.546  1.00  0.00    -0.237 OA
ATOM     79  O   UNL A   1      42.819  24.091  25.014  1.00  0.00    -0.744 OA
ENDBRANCH  75  76
ENDBRANCH  47  70
BRANCH  59  80
ATOM     80  C   UNL A   1      43.810  35.933  28.210  1.00  0.00    -0.014 A 
ATOM     81  C   UNL A   1      44.779  36.939  28.153  1.00  0.00     0.010 A 
ATOM     82  C   UNL A   1      42.522  36.278  27.719  1.00  0.00     0.010 A 
ATOM     83  C   UNL A   1      44.474  38.220  27.685  1.00  0.00     0.020 A 
ATOM     84  C   UNL A   1      42.224  37.524  27.174  1.00  0.00     0.020 A 
ATOM     85  C   UNL A   1      43.203  38.501  27.191  1.00  0.00     0.054 A 
BRANCH  85  86
ATOM     86  S   UNL A   1      42.859  40.157  26.573  1.00  0.00     0.124 S 
ATOM     87  O   UNL A   1      41.520  39.995  26.016  1.00  0.00    -0.237 OA
ATOM     88  O   UNL A   1      42.943  40.966  27.787  1.00  0.00    -0.237 OA
ATOM     89  O   UNL A   1      43.919  40.394  25.597  1.00  0.00    -0.744 OA
ENDBRANCH  85  86
ENDBRANCH  59  80
ENDBRANCH  33  34
ENDBRANCH  26  28
ENDBRANCH  25  26
ENDBRANCH  24  25
ENDBRANCH   1  24
TORSDOF 18
ENDMDL
MODEL 3
REMARK VINA RESULT:     -13.3      4.096     10.909
REMARK SMILES Cc1ccc(S(=O)(=O)N(c2ccccc2)[C@H](C)C(=O)OCCOC(=O)c2ccc(-c3c4nc(c(-c5ccc(S(=O)(=O)[O-])cc5)c5ccc([nH]5)c(-c5ccc(S(=O)(=O)[O-])cc5)c5nc(c(-c6ccc(S(=O)(=O)[O-])cc6)c6ccc3[nH]6)C=C5)C=C4)cc2)cc1
REMARK SMILES IDX 21 1 20 2 18 3 19 4 16 5 17 6 9 7 6 8 7 9 8 10 5 11 1 12
REMARK SMILES IDX 2 13 3 14 87 15 4 16 86 17 10 18 11 19 15 20 12 21 14 22
REMARK SMILES IDX 13 23 22 24 23 25 24 26 25 27 26 28 27 29 85 30 28 31 84 32
REMARK SMILES IDX 29 33 30 34 31 35 78 36 32 37 83 38 77 39 79 40 33 41 82 42
REMARK SMILES IDX 76 43 75 44 34 46 64 47 45 48 63 49 46 50 49 51 62 52 80 53
REMARK SMILES IDX 47 54 48 55 61 57 81 58 50 59 35 60 36 61 44 62 37 63 43 64
REMARK SMILES IDX 38 65 39 66 40 67 41 68 42 69 65 70 66 71 74 72 67 73 73 74
REMARK SMILES IDX 68 75 69 76 70 77 71 78 72 79 51 80 52 81 60 82 53 83 59 84
REMARK SMILES IDX 54 85 55 86 56 87 57 88 58 89
REMARK H PARENT 79 45 49 56
REMARK Flexibility Score: inf
ROOT
ATOM      1  C   UNL A   1      32.858  27.226  25.923  1.00  0.00     0.274 C 
ENDROOT
BRANCH   1   2
ATOM      2  O   UNL A   1      32.707  25.814  26.129  1.00  0.00    -0.461 OA
BRANCH   2   3
ATOM      3  C   UNL A   1      33.556  25.049  25.409  1.00  0.00     0.329 C 
ATOM      4  O   UNL A   1      34.533  25.547  24.882  1.00  0.00    -0.250 OA
BRANCH   3   5
ATOM      5  C   UNL A   1      33.426  23.378  25.617  1.00  0.00     0.206 C 
ATOM      6  C   UNL A   1      31.679  22.011  25.729  1.00  0.00     0.045 C 
BRANCH   5   7
ATOM      7  N   UNL A   1      33.839  22.601  24.760  1.00  0.00    -0.252 N 
BRANCH   7   8
ATOM      8  S   UNL A   1      32.829  23.061  22.767  1.00  0.00     0.265 S 
ATOM      9  O   UNL A   1      31.835  22.017  22.539  1.00  0.00    -0.201 OA
ATOM     10  O   UNL A   1      33.787  23.347  21.728  1.00  0.00    -0.201 OA
BRANCH   8  11
ATOM     11  C   UNL A   1      31.626  24.804  22.849  1.00  0.00     0.088 A 
ATOM     12  C   UNL A   1      29.293  28.489  23.483  1.00  0.00     0.044 C 
ATOM     13  C   UNL A   1      30.041  27.238  23.104  1.00  0.00    -0.051 A 
ATOM     14  C   UNL A   1      31.121  27.138  22.203  1.00  0.00     0.005 A 
ATOM     15  C   UNL A   1      29.673  26.085  23.747  1.00  0.00     0.005 A 
ATOM     16  C   UNL A   1      31.913  25.930  22.061  1.00  0.00     0.022 A 
ATOM     17  C   UNL A   1      30.464  24.939  23.632  1.00  0.00     0.022 A 
ENDBRANCH   8  11
ENDBRANCH   7   8
BRANCH   7  18
ATOM     18  C   UNL A   1      35.910  22.118  24.874  1.00  0.00     0.053 A 
ATOM     19  C   UNL A   1      37.035  23.011  25.374  1.00  0.00     0.027 A 
ATOM     20  C   UNL A   1      36.578  20.769  24.712  1.00  0.00     0.027 A 
ATOM     21  C   UNL A   1      38.321  22.623  25.809  1.00  0.00     0.002 A 
ATOM     22  C   UNL A   1      37.876  20.397  25.137  1.00  0.00     0.002 A 
ATOM     23  C   UNL A   1      38.718  21.309  25.734  1.00  0.00     0.000 A 
ENDBRANCH   7  18
ENDBRANCH   5   7
ENDBRANCH   3   5
ENDBRANCH   2   3
ENDBRANCH   1   2
BRANCH   1  24
ATOM     24  C   UNL A   1      33.279  28.240  27.073  1.00  0.00     0.275 C 
BRANCH  24  25
ATOM     25  O   UNL A   1      34.614  28.851  27.461  1.00  0.00    -0.458 OA
BRANCH  25  26
ATOM     26  C   UNL A   1      35.267  29.958  27.936  1.00  0.00     0.338 C 
ATOM     27  O   UNL A   1      34.887  31.105  27.759  1.00  0.00    -0.246 OA
BRANCH  26  28
ATOM     28  C   UNL A   1      36.328  29.685  28.907  1.00  0.00     0.060 A 
ATOM     29  C   UNL A   1      36.632  29.280  30.834  1.00  0.00     0.016 A 
ATOM     30  C   UNL A   1      38.053  29.643  28.007  1.00  0.00     0.016 A 
ATOM     31  C   UNL A   1      38.445  29.016  31.562  1.00  0.00     0.010 A 
ATOM     32  C   UNL A   1      39.814  29.692  28.732  1.00  0.00     0.010 A 
ATOM     33  C   UNL A   1      40.222  29.411  30.624  1.00  0.00    -0.014 A 
BRANCH  33  34
ATOM     34  C   UNL A   1      41.432  30.406  30.484  1.00  0.00     0.031 A 
ATOM     35  C   UNL A   1      41.182  31.478  31.399  1.00  0.00     0.074 A 
ATOM     36  C   UNL A   1      42.728  30.181  30.087  1.00  0.00     0.049 A 
ATOM     37  N   UNL A   1      40.734  32.634  31.040  1.00  0.00    -0.248 NA
ATOM     38  C   UNL A   1      41.010  31.088  32.801  1.00  0.00     0.031 C 
ATOM     39  C   UNL A   1      43.938  30.775  30.673  1.00  0.00     0.029 A 
ATOM     40  N   UNL A   1      43.280  29.301  29.161  1.00  0.00    -0.354 N 
ATOM     41  C   UNL A   1      40.448  33.193  32.254  1.00  0.00     0.074 A 
ATOM     42  C   UNL A   1      40.149  32.047  33.110  1.00  0.00     0.031 C 
ATOM     43  C   UNL A   1      45.026  30.429  29.954  1.00  0.00     0.029 A 
ATOM     44  C   UNL A   1      44.595  29.633  28.814  1.00  0.00     0.049 A 
ATOM     45  H   UNL A   1      42.797  28.529  28.789  1.00  0.00     0.167 HD
ATOM     46  C   UNL A   1      41.253  34.172  32.757  1.00  0.00     0.031 A 
ATOM     47  C   UNL A   1      44.895  29.927  27.514  1.00  0.00     0.031 A 
ATOM     48  C   UNL A   1      42.534  34.261  32.037  1.00  0.00     0.049 A 
ATOM     49  C   UNL A   1      44.805  31.436  27.312  1.00  0.00     0.074 A 
ATOM     50  C   UNL A   1      43.833  33.902  32.366  1.00  0.00     0.029 A 
ATOM     51  N   UNL A   1      42.534  34.404  30.650  1.00  0.00    -0.354 N 
ATOM     52  N   UNL A   1      44.344  32.239  28.240  1.00  0.00    -0.248 NA
ATOM     53  C   UNL A   1      45.313  32.187  26.168  1.00  0.00     0.031 C 
ATOM     54  C   UNL A   1      44.617  33.900  31.169  1.00  0.00     0.029 A 
ATOM     55  C   UNL A   1      43.795  34.242  30.106  1.00  0.00     0.049 A 
ATOM     56  H   UNL A   1      41.728  34.597  30.119  1.00  0.00     0.167 HD
ATOM     57  C   UNL A   1      44.464  33.543  27.875  1.00  0.00     0.074 A 
ATOM     58  C   UNL A   1      45.100  33.458  26.566  1.00  0.00     0.031 C 
ATOM     59  C   UNL A   1      44.023  34.554  28.687  1.00  0.00     0.031 A 
BRANCH  46  60
ATOM     60  C   UNL A   1      40.957  34.614  34.167  1.00  0.00    -0.014 A 
ATOM     61  C   UNL A   1      39.752  35.244  34.484  1.00  0.00     0.010 A 
ATOM     62  C   UNL A   1      41.867  34.386  35.238  1.00  0.00     0.010 A 
ATOM     63  C   UNL A   1      39.483  35.653  35.797  1.00  0.00     0.020 A 
ATOM     64  C   UNL A   1      41.649  34.864  36.527  1.00  0.00     0.020 A 
ATOM     65  C   UNL A   1      40.434  35.465  36.806  1.00  0.00     0.054 A 
BRANCH  65  66
ATOM     66  S   UNL A   1      40.026  35.915  38.507  1.00  0.00     0.124 S 
ATOM     67  O   UNL A   1      41.329  35.871  39.166  1.00  0.00    -0.237 OA
ATOM     68  O   UNL A   1      39.442  37.241  38.336  1.00  0.00    -0.237 OA
ATOM     69  O   UNL A   1      39.089  34.873  38.926  1.00  0.00    -0.744 OA
ENDBRANCH  65  66
ENDBRANCH  46  60
BRANCH  47  70
ATOM     70  C   UNL A   1      44.599  28.785  26.581  1.00  0.00    -0.014 A 
ATOM     71  C   UNL A   1      45.669  27.899  26.293  1.00  0.00     0.010 A 
ATOM     72  C   UNL A   1      43.300  28.309  26.336  1.00  0.00     0.010 A 
ATOM     73  C   UNL A   1      45.447  26.566  25.896  1.00  0.00     0.020 A 
ATOM     74  C   UNL A   1      43.068  26.965  25.952  1.00  0.00     0.020 A 
ATOM     75  C   UNL A   1      44.144  26.095  25.738  1.00  0.00     0.054 A 
BRANCH  75  76
ATOM     76  S   UNL A   1      43.891  24.297  25.417  1.00  0.00     0.124 S 
ATOM     77  O   UNL A   1      44.418  23.700  26.641  1.00  0.00    -0.237 OA
ATOM     78  O   UNL A   1      42.436  24.183  25.271  1.00  0.00    -0.237 OA
ATOM     79  O   UNL A   1      44.686  24.021  24.221  1.00  0.00    -0.744 OA
ENDBRANCH  75  76
ENDBRANCH  47  70
BRANCH  59  80
ATOM     80  C   UNL A   1      43.766  35.983  28.252  1.00  0.00    -0.014 A 
ATOM     81  C   UNL A   1      44.634  37.053  28.491  1.00  0.00     0.010 A 
ATOM     82  C   UNL A   1      42.627  36.270  27.451  1.00  0.00     0.010 A 
ATOM     83  C   UNL A   1      44.361  38.336  28.008  1.00  0.00     0.020 A 
ATOM     84  C   UNL A   1      42.384  37.523  26.895  1.00  0.00     0.020 A 
ATOM     85  C   UNL A   1      43.244  38.559  27.206  1.00  0.00     0.054 A 
BRANCH  85  86
ATOM     86  S   UNL A   1      42.944  40.222  26.584  1.00  0.00     0.124 S 
ATOM     87  O   UNL A   1      43.065  41.021  27.800  1.00  0.00    -0.237 OA
ATOM     88  O   UNL A   1      44.021  40.389  25.611  1.00  0.00    -0.237 OA
ATOM     89  O   UNL A   1      41.601  40.147  26.015  1.00  0.00    -0.744 OA
ENDBRANCH  85  86
ENDBRANCH  59  80
ENDBRANCH  33  34
ENDBRANCH  26  28
ENDBRANCH  25  26
ENDBRANCH  24  25
ENDBRANCH   1  24
TORSDOF 18
ENDMDL
