MODEL 1
REMARK VINA RESULT:     -10.8      0.000      0.000
REMARK SMILES COCC1CCN(C(=O)NC[C@H]2CC[C@H](C(=O)OCCOC(=O)c3ccc(-c4c5nc(c(-c6ccc(S(=O)(=O)[O-])cc6)c6ccc([nH]6)c(-c6ccc(S(=O)(=O)[O-])cc6)c6nc(c(-c7ccc(S(=O)(=O)[O-])cc7)c7ccc4[nH]7)C=C6)C=C5)cc3)O2)CC1
REMARK SMILES IDX 19 1 18 2 16 3 17 4 15 5 12 6 13 7 84 8 14 9 11 10 10 11
REMARK SMILES IDX 4 12 5 13 86 14 6 15 85 16 7 17 8 18 9 19 3 21 2 22 1 23
REMARK SMILES IDX 20 24 21 25 22 26 23 27 24 28 25 29 83 30 26 31 82 32 27 33
REMARK SMILES IDX 28 34 29 35 76 36 30 37 81 38 75 39 77 40 31 41 80 42 74 43
REMARK SMILES IDX 73 44 32 46 62 47 43 48 61 49 44 50 47 51 60 52 78 53 45 54
REMARK SMILES IDX 46 55 59 57 79 58 48 59 33 60 34 61 42 62 35 63 41 64 36 65
REMARK SMILES IDX 37 66 38 67 39 68 40 69 63 70 64 71 72 72 65 73 71 74 66 75
REMARK SMILES IDX 67 76 68 77 69 78 70 79 49 80 50 81 58 82 51 83 57 84 52 85
REMARK SMILES IDX 53 86 54 87 55 88 56 89
REMARK H PARENT 10 20 77 45 47 56
REMARK Flexibility Score: inf
ROOT
ATOM      1  C   UNL A   1      37.902  22.409  25.183  1.00  0.00     0.274 C 
ENDROOT
BRANCH   1   2
ATOM      2  O   UNL A   1      36.660  22.025  25.802  1.00  0.00    -0.460 OA
BRANCH   2   3
ATOM      3  C   UNL A   1      35.973  21.031  25.171  1.00  0.00     0.335 C 
ATOM      4  O   UNL A   1      36.404  19.898  24.987  1.00  0.00    -0.249 OA
BRANCH   3   5
ATOM      5  C   UNL A   1      34.590  21.485  24.700  1.00  0.00     0.228 C 
ATOM      6  C   UNL A   1      33.200  23.300  25.182  1.00  0.00     0.138 C 
ATOM      7  C   UNL A   1      32.907  22.227  26.211  1.00  0.00     0.037 C 
ATOM      8  O   UNL A   1      34.472  22.921  24.618  1.00  0.00    -0.361 OA
ATOM      9  C   UNL A   1      33.438  20.975  25.560  1.00  0.00     0.047 C 
BRANCH   6  10
ATOM     10  C   UNL A   1      32.138  23.484  24.071  1.00  0.00     0.149 C 
BRANCH  10  11
ATOM     11  N   UNL A   1      32.600  24.278  22.941  1.00  0.00    -0.335 N 
ATOM     12  C   UNL A   1      32.917  28.606  25.722  1.00  0.00     0.018 C 
ATOM     13  C   UNL A   1      33.971  28.522  24.604  1.00  0.00     0.027 C 
ATOM     14  C   UNL A   1      32.197  27.257  25.877  1.00  0.00     0.027 C 
ATOM     15  C   UNL A   1      33.493  27.824  23.329  1.00  0.00     0.121 C 
ATOM     16  C   UNL A   1      31.730  26.671  24.552  1.00  0.00     0.121 C 
ATOM     17  N   UNL A   1      32.835  26.548  23.615  1.00  0.00    -0.325 N 
ATOM     18  C   UNL A   1      33.062  25.522  22.743  1.00  0.00     0.317 C 
ATOM     19  O   UNL A   1      33.713  25.676  21.705  1.00  0.00    -0.249 OA
ATOM     20  H   UNL A   1      32.564  23.766  22.100  1.00  0.00     0.165 HD
BRANCH  12  21
ATOM     21  C   UNL A   1      31.948  29.789  25.552  1.00  0.00     0.163 C 
BRANCH  21  22
ATOM     22  O   UNL A   1      31.969  30.665  26.670  1.00  0.00    -0.384 OA
ATOM     23  C   UNL A   1      31.259  31.877  26.430  1.00  0.00     0.194 C 
ENDBRANCH  21  22
ENDBRANCH  12  21
ENDBRANCH  10  11
ENDBRANCH   6  10
ENDBRANCH   3   5
ENDBRANCH   2   3
ENDBRANCH   1   2
BRANCH   1  24
ATOM     24  C   UNL A   1      38.998  22.686  26.217  1.00  0.00     0.275 C 
BRANCH  24  25
ATOM     25  O   UNL A   1      39.096  24.085  26.541  1.00  0.00    -0.458 OA
BRANCH  25  26
ATOM     26  C   UNL A   1      40.339  24.528  26.839  1.00  0.00     0.338 C 
ATOM     27  O   UNL A   1      41.391  24.166  26.330  1.00  0.00    -0.246 OA
BRANCH  26  28
ATOM     28  C   UNL A   1      40.264  25.620  27.820  1.00  0.00     0.060 A 
ATOM     29  C   UNL A   1      41.287  26.573  27.837  1.00  0.00     0.016 A 
ATOM     30  C   UNL A   1      39.235  25.666  28.763  1.00  0.00     0.016 A 
ATOM     31  C   UNL A   1      41.282  27.583  28.798  1.00  0.00     0.010 A 
ATOM     32  C   UNL A   1      39.233  26.681  29.726  1.00  0.00     0.010 A 
ATOM     33  C   UNL A   1      40.259  27.643  29.754  1.00  0.00    -0.014 A 
BRANCH  33  34
ATOM     34  C   UNL A   1      40.263  28.708  30.787  1.00  0.00     0.031 A 
ATOM     35  C   UNL A   1      41.193  28.619  31.964  1.00  0.00     0.074 A 
ATOM     36  C   UNL A   1      39.417  29.750  30.670  1.00  0.00     0.049 A 
ATOM     37  N   UNL A   1      41.289  29.411  33.000  1.00  0.00    -0.248 NA
ATOM     38  C   UNL A   1      42.136  27.489  31.983  1.00  0.00     0.031 C 
ATOM     39  C   UNL A   1      38.477  29.957  29.566  1.00  0.00     0.029 A 
ATOM     40  N   UNL A   1      39.200  30.823  31.498  1.00  0.00    -0.354 N 
ATOM     41  C   UNL A   1      42.283  28.868  33.805  1.00  0.00     0.074 A 
ATOM     42  C   UNL A   1      42.758  27.673  33.141  1.00  0.00     0.031 C 
ATOM     43  C   UNL A   1      37.779  31.083  29.791  1.00  0.00     0.029 A 
ATOM     44  C   UNL A   1      38.193  31.654  31.069  1.00  0.00     0.049 A 
ATOM     45  H   UNL A   1      39.718  30.983  32.320  1.00  0.00     0.167 HD
ATOM     46  C   UNL A   1      42.754  29.325  34.990  1.00  0.00     0.031 A 
ATOM     47  C   UNL A   1      37.642  32.738  31.652  1.00  0.00     0.031 A 
ATOM     48  C   UNL A   1      42.290  30.523  35.641  1.00  0.00     0.049 A 
ATOM     49  C   UNL A   1      38.164  33.202  32.985  1.00  0.00     0.074 A 
ATOM     50  C   UNL A   1      42.746  31.090  36.820  1.00  0.00     0.029 A 
ATOM     51  N   UNL A   1      41.267  31.333  35.177  1.00  0.00    -0.354 N 
ATOM     52  N   UNL A   1      39.134  32.699  33.710  1.00  0.00    -0.248 NA
ATOM     53  C   UNL A   1      37.516  34.380  33.579  1.00  0.00     0.031 C 
ATOM     54  C   UNL A   1      41.963  32.216  37.094  1.00  0.00     0.029 A 
ATOM     55  C   UNL A   1      41.054  32.377  36.062  1.00  0.00     0.049 A 
ATOM     56  H   UNL A   1      40.765  31.188  34.343  1.00  0.00     0.167 HD
ATOM     57  C   UNL A   1      39.222  33.508  34.838  1.00  0.00     0.074 A 
ATOM     58  C   UNL A   1      38.221  34.544  34.690  1.00  0.00     0.031 C 
ATOM     59  C   UNL A   1      40.053  33.400  35.903  1.00  0.00     0.031 A 
BRANCH  46  60
ATOM     60  C   UNL A   1      43.813  28.518  35.688  1.00  0.00    -0.014 A 
ATOM     61  C   UNL A   1      45.179  28.799  35.511  1.00  0.00     0.010 A 
ATOM     62  C   UNL A   1      43.431  27.521  36.604  1.00  0.00     0.010 A 
ATOM     63  C   UNL A   1      46.145  28.088  36.229  1.00  0.00     0.020 A 
ATOM     64  C   UNL A   1      44.393  26.820  37.338  1.00  0.00     0.020 A 
ATOM     65  C   UNL A   1      45.745  27.103  37.139  1.00  0.00     0.054 A 
BRANCH  65  66
ATOM     66  S   UNL A   1      47.017  26.234  38.100  1.00  0.00     0.124 S 
ATOM     67  O   UNL A   1      48.067  26.042  37.103  1.00  0.00    -0.237 OA
ATOM     68  O   UNL A   1      47.326  27.188  39.161  1.00  0.00    -0.237 OA
ATOM     69  O   UNL A   1      46.346  25.014  38.540  1.00  0.00    -0.744 OA
ENDBRANCH  65  66
ENDBRANCH  46  60
BRANCH  47  70
ATOM     70  C   UNL A   1      36.494  33.430  31.007  1.00  0.00    -0.014 A 
ATOM     71  C   UNL A   1      36.584  33.898  29.685  1.00  0.00     0.010 A 
ATOM     72  C   UNL A   1      35.308  33.646  31.731  1.00  0.00     0.010 A 
ATOM     73  C   UNL A   1      35.518  34.598  29.109  1.00  0.00     0.020 A 
ATOM     74  C   UNL A   1      34.231  34.322  31.150  1.00  0.00     0.020 A 
ATOM     75  C   UNL A   1      34.351  34.809  29.849  1.00  0.00     0.054 A 
BRANCH  75  76
ATOM     76  S   UNL A   1      32.968  35.701  29.082  1.00  0.00     0.124 S 
ATOM     77  O   UNL A   1      32.389  34.676  28.220  1.00  0.00    -0.237 OA
ATOM     78  O   UNL A   1      32.159  36.092  30.233  1.00  0.00    -0.237 OA
ATOM     79  O   UNL A   1      33.623  36.808  28.387  1.00  0.00    -0.744 OA
ENDBRANCH  75  76
ENDBRANCH  47  70
BRANCH  59  80
ATOM     80  C   UNL A   1      39.931  34.440  36.983  1.00  0.00    -0.014 A 
ATOM     81  C   UNL A   1      40.655  35.642  36.914  1.00  0.00     0.010 A 
ATOM     82  C   UNL A   1      39.043  34.231  38.053  1.00  0.00     0.010 A 
ATOM     83  C   UNL A   1      40.515  36.609  37.914  1.00  0.00     0.020 A 
ATOM     84  C   UNL A   1      38.883  35.205  39.043  1.00  0.00     0.020 A 
ATOM     85  C   UNL A   1      39.631  36.383  38.973  1.00  0.00     0.054 A 
BRANCH  85  86
ATOM     86  S   UNL A   1      39.431  37.668  40.238  1.00  0.00     0.124 S 
ATOM     87  O   UNL A   1      39.369  36.879  41.466  1.00  0.00    -0.237 OA
ATOM     88  O   UNL A   1      40.636  38.477  40.072  1.00  0.00    -0.237 OA
ATOM     89  O   UNL A   1      38.186  38.333  39.861  1.00  0.00    -0.744 OA
ENDBRANCH  85  86
ENDBRANCH  59  80
ENDBRANCH  33  34
ENDBRANCH  26  28
ENDBRANCH  25  26
ENDBRANCH  24  25
ENDBRANCH   1  24
TORSDOF 18
ENDMDL
MODEL 2
REMARK VINA RESULT:     -10.8      7.285     12.660
REMARK SMILES COCC1CCN(C(=O)NC[C@H]2CC[C@H](C(=O)OCCOC(=O)c3ccc(-c4c5nc(c(-c6ccc(S(=O)(=O)[O-])cc6)c6ccc([nH]6)c(-c6ccc(S(=O)(=O)[O-])cc6)c6nc(c(-c7ccc(S(=O)(=O)[O-])cc7)c7ccc4[nH]7)C=C6)C=C5)cc3)O2)CC1
REMARK SMILES IDX 19 1 18 2 16 3 17 4 15 5 12 6 13 7 84 8 14 9 11 10 10 11
REMARK SMILES IDX 4 12 5 13 86 14 6 15 85 16 7 17 8 18 9 19 3 21 2 22 1 23
REMARK SMILES IDX 20 24 21 25 22 26 23 27 24 28 25 29 83 30 26 31 82 32 27 33
REMARK SMILES IDX 28 34 29 35 76 36 30 37 81 38 75 39 77 40 31 41 80 42 74 43
REMARK SMILES IDX 73 44 32 46 62 47 43 48 61 49 44 50 47 51 60 52 78 53 45 54
REMARK SMILES IDX 46 55 59 57 79 58 48 59 33 60 34 61 42 62 35 63 41 64 36 65
REMARK SMILES IDX 37 66 38 67 39 68 40 69 63 70 64 71 72 72 65 73 71 74 66 75
REMARK SMILES IDX 67 76 68 77 69 78 70 79 49 80 50 81 58 82 51 83 57 84 52 85
REMARK SMILES IDX 53 86 54 87 55 88 56 89
REMARK H PARENT 10 20 77 45 47 56
REMARK Flexibility Score: inf
ROOT
ATOM      1  C   UNL A   1      34.308  29.266  26.681  1.00  0.00     0.274 C 
ENDROOT
BRANCH   1   2
ATOM      2  O   UNL A   1      32.974  28.818  26.985  1.00  0.00    -0.460 OA
BRANCH   2   3
ATOM      3  C   UNL A   1      32.100  28.820  25.939  1.00  0.00     0.335 C 
ATOM      4  O   UNL A   1      31.520  29.816  25.522  1.00  0.00    -0.249 OA
BRANCH   3   5
ATOM      5  C   UNL A   1      31.909  27.428  25.335  1.00  0.00     0.228 C 
ATOM      6  C   UNL A   1      30.063  26.167  24.654  1.00  0.00     0.138 C 
ATOM      7  C   UNL A   1      30.263  25.905  26.133  1.00  0.00     0.037 C 
ATOM      8  O   UNL A   1      30.814  27.371  24.398  1.00  0.00    -0.361 OA
ATOM      9  C   UNL A   1      31.692  26.324  26.366  1.00  0.00     0.047 C 
BRANCH   6  10
ATOM     10  C   UNL A   1      30.501  25.031  23.698  1.00  0.00     0.149 C 
BRANCH  10  11
ATOM     11  N   UNL A   1      30.531  23.716  24.322  1.00  0.00    -0.335 N 
ATOM     12  C   UNL A   1      35.549  24.035  25.457  1.00  0.00     0.018 C 
ATOM     13  C   UNL A   1      34.741  23.225  26.486  1.00  0.00     0.027 C 
ATOM     14  C   UNL A   1      34.601  24.751  24.481  1.00  0.00     0.027 C 
ATOM     15  C   UNL A   1      33.588  22.413  25.895  1.00  0.00     0.121 C 
ATOM     16  C   UNL A   1      33.515  23.841  23.923  1.00  0.00     0.121 C 
ATOM     17  N   UNL A   1      32.758  23.212  24.994  1.00  0.00    -0.325 N 
ATOM     18  C   UNL A   1      31.411  22.986  25.024  1.00  0.00     0.317 C 
ATOM     19  O   UNL A   1      30.914  22.084  25.705  1.00  0.00    -0.249 OA
ATOM     20  H   UNL A   1      29.681  23.235  24.195  1.00  0.00     0.165 HD
BRANCH  12  21
ATOM     21  C   UNL A   1      36.628  23.202  24.743  1.00  0.00     0.163 C 
BRANCH  21  22
ATOM     22  O   UNL A   1      37.080  22.114  25.537  1.00  0.00    -0.384 OA
ATOM     23  C   UNL A   1      38.436  22.261  25.947  1.00  0.00     0.194 C 
ENDBRANCH  21  22
ENDBRANCH  12  21
ENDBRANCH  10  11
ENDBRANCH   6  10
ENDBRANCH   3   5
ENDBRANCH   2   3
ENDBRANCH   1   2
BRANCH   1  24
ATOM     24  C   UNL A   1      35.025  29.819  27.916  1.00  0.00     0.275 C 
BRANCH  24  25
ATOM     25  O   UNL A   1      36.457  29.763  27.781  1.00  0.00    -0.458 OA
BRANCH  25  26
ATOM     26  C   UNL A   1      37.136  29.438  28.905  1.00  0.00     0.338 C 
ATOM     27  O   UNL A   1      36.673  29.292  30.028  1.00  0.00    -0.246 OA
BRANCH  26  28
ATOM     28  C   UNL A   1      38.545  29.167  28.583  1.00  0.00     0.060 A 
ATOM     29  C   UNL A   1      39.422  28.864  29.630  1.00  0.00     0.016 A 
ATOM     30  C   UNL A   1      39.016  29.283  27.273  1.00  0.00     0.016 A 
ATOM     31  C   UNL A   1      40.777  28.670  29.367  1.00  0.00     0.010 A 
ATOM     32  C   UNL A   1      40.376  29.087  27.013  1.00  0.00     0.010 A 
ATOM     33  C   UNL A   1      41.267  28.785  28.059  1.00  0.00    -0.014 A 
BRANCH  33  34
ATOM     34  C   UNL A   1      42.713  28.594  27.784  1.00  0.00     0.031 A 
ATOM     35  C   UNL A   1      43.674  29.737  27.953  1.00  0.00     0.074 A 
ATOM     36  C   UNL A   1      43.156  27.392  27.366  1.00  0.00     0.049 A 
ATOM     37  N   UNL A   1      44.955  29.781  27.692  1.00  0.00    -0.248 NA
ATOM     38  C   UNL A   1      43.124  30.996  28.482  1.00  0.00     0.031 C 
ATOM     39  C   UNL A   1      42.324  26.202  27.178  1.00  0.00     0.029 A 
ATOM     40  N   UNL A   1      44.416  26.978  27.010  1.00  0.00    -0.354 N 
ATOM     41  C   UNL A   1      45.362  31.073  28.001  1.00  0.00     0.074 A 
ATOM     42  C   UNL A   1      44.191  31.786  28.464  1.00  0.00     0.031 C 
ATOM     43  C   UNL A   1      43.094  25.196  26.732  1.00  0.00     0.029 A 
ATOM     44  C   UNL A   1      44.462  25.678  26.566  1.00  0.00     0.049 A 
ATOM     45  H   UNL A   1      45.210  27.557  27.067  1.00  0.00     0.167 HD
ATOM     46  C   UNL A   1      46.600  31.615  27.904  1.00  0.00     0.031 A 
ATOM     47  C   UNL A   1      45.484  24.962  26.055  1.00  0.00     0.031 A 
ATOM     48  C   UNL A   1      47.768  30.898  27.457  1.00  0.00     0.049 A 
ATOM     49  C   UNL A   1      46.840  25.601  25.929  1.00  0.00     0.074 A 
ATOM     50  C   UNL A   1      49.073  31.353  27.376  1.00  0.00     0.029 A 
ATOM     51  N   UNL A   1      47.772  29.586  27.013  1.00  0.00    -0.354 N 
ATOM     52  N   UNL A   1      47.215  26.812  26.266  1.00  0.00    -0.248 NA
ATOM     53  C   UNL A   1      47.912  24.777  25.352  1.00  0.00     0.031 C 
ATOM     54  C   UNL A   1      49.858  30.330  26.834  1.00  0.00     0.029 A 
ATOM     55  C   UNL A   1      49.051  29.224  26.625  1.00  0.00     0.049 A 
ATOM     56  H   UNL A   1      46.983  28.999  26.978  1.00  0.00     0.167 HD
ATOM     57  C   UNL A   1      48.568  26.889  25.956  1.00  0.00     0.074 A 
ATOM     58  C   UNL A   1      48.951  25.598  25.423  1.00  0.00     0.031 C 
ATOM     59  C   UNL A   1      49.417  27.937  26.095  1.00  0.00     0.031 A 
BRANCH  46  60
ATOM     60  C   UNL A   1      46.767  33.066  28.262  1.00  0.00    -0.014 A 
ATOM     61  C   UNL A   1      47.126  33.459  29.563  1.00  0.00     0.010 A 
ATOM     62  C   UNL A   1      46.650  34.043  27.257  1.00  0.00     0.010 A 
ATOM     63  C   UNL A   1      47.352  34.807  29.855  1.00  0.00     0.020 A 
ATOM     64  C   UNL A   1      46.893  35.390  27.540  1.00  0.00     0.020 A 
ATOM     65  C   UNL A   1      47.235  35.764  28.841  1.00  0.00     0.054 A 
BRANCH  65  66
ATOM     66  S   UNL A   1      47.590  37.500  29.235  1.00  0.00     0.124 S 
ATOM     67  O   UNL A   1      48.232  37.386  30.543  1.00  0.00    -0.237 OA
ATOM     68  O   UNL A   1      48.465  37.907  28.139  1.00  0.00    -0.237 OA
ATOM     69  O   UNL A   1      46.272  38.131  29.242  1.00  0.00    -0.744 OA
ENDBRANCH  65  66
ENDBRANCH  46  60
BRANCH  47  70
ATOM     70  C   UNL A   1      45.253  23.575  25.571  1.00  0.00    -0.014 A 
ATOM     71  C   UNL A   1      45.541  22.468  26.388  1.00  0.00     0.010 A 
ATOM     72  C   UNL A   1      44.766  23.356  24.270  1.00  0.00     0.010 A 
ATOM     73  C   UNL A   1      45.374  21.167  25.901  1.00  0.00     0.020 A 
ATOM     74  C   UNL A   1      44.574  22.059  23.789  1.00  0.00     0.020 A 
ATOM     75  C   UNL A   1      44.897  20.972  24.602  1.00  0.00     0.054 A 
BRANCH  75  76
ATOM     76  S   UNL A   1      44.667  19.279  23.990  1.00  0.00     0.124 S 
ATOM     77  O   UNL A   1      44.572  19.489  22.548  1.00  0.00    -0.237 OA
ATOM     78  O   UNL A   1      45.874  18.602  24.452  1.00  0.00    -0.237 OA
ATOM     79  O   UNL A   1      43.432  18.848  24.642  1.00  0.00    -0.744 OA
ENDBRANCH  75  76
ENDBRANCH  47  70
BRANCH  59  80
ATOM     80  C   UNL A   1      50.848  27.725  25.685  1.00  0.00    -0.014 A 
ATOM     81  C   UNL A   1      51.815  27.316  26.618  1.00  0.00     0.010 A 
ATOM     82  C   UNL A   1      51.218  27.890  24.338  1.00  0.00     0.010 A 
ATOM     83  C   UNL A   1      53.137  27.102  26.218  1.00  0.00     0.020 A 
ATOM     84  C   UNL A   1      52.534  27.656  23.929  1.00  0.00     0.020 A 
ATOM     85  C   UNL A   1      53.488  27.275  24.876  1.00  0.00     0.054 A 
BRANCH  85  86
ATOM     86  S   UNL A   1      55.200  26.951  24.368  1.00  0.00     0.124 S 
ATOM     87  O   UNL A   1      55.927  28.016  25.053  1.00  0.00    -0.237 OA
ATOM     88  O   UNL A   1      55.438  25.601  24.876  1.00  0.00    -0.237 OA
ATOM     89  O   UNL A   1      55.156  27.063  22.912  1.00  0.00    -0.744 OA
ENDBRANCH  85  86
ENDBRANCH  59  80
ENDBRANCH  33  34
ENDBRANCH  26  28
ENDBRANCH  25  26
ENDBRANCH  24  25
ENDBRANCH   1  24
TORSDOF 18
ENDMDL
MODEL 3
REMARK VINA RESULT:     -10.6      1.752      2.372
REMARK SMILES COCC1CCN(C(=O)NC[C@H]2CC[C@H](C(=O)OCCOC(=O)c3ccc(-c4c5nc(c(-c6ccc(S(=O)(=O)[O-])cc6)c6ccc([nH]6)c(-c6ccc(S(=O)(=O)[O-])cc6)c6nc(c(-c7ccc(S(=O)(=O)[O-])cc7)c7ccc4[nH]7)C=C6)C=C5)cc3)O2)CC1
REMARK SMILES IDX 19 1 18 2 16 3 17 4 15 5 12 6 13 7 84 8 14 9 11 10 10 11
REMARK SMILES IDX 4 12 5 13 86 14 6 15 85 16 7 17 8 18 9 19 3 21 2 22 1 23
REMARK SMILES IDX 20 24 21 25 22 26 23 27 24 28 25 29 83 30 26 31 82 32 27 33
REMARK SMILES IDX 28 34 29 35 76 36 30 37 81 38 75 39 77 40 31 41 80 42 74 43
REMARK SMILES IDX 73 44 32 46 62 47 43 48 61 49 44 50 47 51 60 52 78 53 45 54
REMARK SMILES IDX 46 55 59 57 79 58 48 59 33 60 34 61 42 62 35 63 41 64 36 65
REMARK SMILES IDX 37 66 38 67 39 68 40 69 63 70 64 71 72 72 65 73 71 74 66 75
REMARK SMILES IDX 67 76 68 77 69 78 70 79 49 80 50 81 58 82 51 83 57 84 52 85
REMARK SMILES IDX 53 86 54 87 55 88 56 89
REMARK H PARENT 10 20 77 45 47 56
REMARK Flexibility Score: inf
ROOT
ATOM      1  C   UNL A   1      37.071  23.703  25.552  1.00  0.00     0.274 C 
ENDROOT
BRANCH   1   2
ATOM      2  O   UNL A   1      36.988  22.686  24.536  1.00  0.00    -0.460 OA
BRANCH   2   3
ATOM      3  C   UNL A   1      36.423  21.509  24.928  1.00  0.00     0.335 C 
ATOM      4  O   UNL A   1      37.049  20.556  25.379  1.00  0.00    -0.249 OA
BRANCH   3   5
ATOM      5  C   UNL A   1      34.906  21.496  24.736  1.00  0.00     0.228 C 
ATOM      6  C   UNL A   1      33.075  21.052  26.117  1.00  0.00     0.138 C 
ATOM      7  C   UNL A   1      33.532  19.727  25.542  1.00  0.00     0.037 C 
ATOM      8  O   UNL A   1      34.191  21.941  25.907  1.00  0.00    -0.361 OA
ATOM      9  C   UNL A   1      34.338  20.137  24.336  1.00  0.00     0.047 C 
BRANCH   6  10
ATOM     10  C   UNL A   1      31.778  21.644  25.511  1.00  0.00     0.149 C 
BRANCH  10  11
ATOM     11  N   UNL A   1      30.982  22.411  26.459  1.00  0.00    -0.335 N 
ATOM     12  C   UNL A   1      31.556  26.815  23.844  1.00  0.00     0.018 C 
ATOM     13  C   UNL A   1      30.203  26.709  24.570  1.00  0.00     0.027 C 
ATOM     14  C   UNL A   1      32.290  25.465  23.886  1.00  0.00     0.027 C 
ATOM     15  C   UNL A   1      30.255  25.973  25.910  1.00  0.00     0.121 C 
ATOM     16  C   UNL A   1      32.315  24.839  25.274  1.00  0.00     0.121 C 
ATOM     17  N   UNL A   1      30.971  24.700  25.810  1.00  0.00    -0.325 N 
ATOM     18  C   UNL A   1      30.480  23.653  26.536  1.00  0.00     0.317 C 
ATOM     19  O   UNL A   1      29.535  23.784  27.320  1.00  0.00    -0.249 OA
ATOM     20  H   UNL A   1      30.752  21.876  27.254  1.00  0.00     0.165 HD
BRANCH  12  21
ATOM     21  C   UNL A   1      32.422  27.985  24.345  1.00  0.00     0.163 C 
BRANCH  21  22
ATOM     22  O   UNL A   1      32.721  28.913  23.311  1.00  0.00    -0.384 OA
ATOM     23  C   UNL A   1      34.006  28.698  22.736  1.00  0.00     0.194 C 
ENDBRANCH  21  22
ENDBRANCH  12  21
ENDBRANCH  10  11
ENDBRANCH   6  10
ENDBRANCH   3   5
ENDBRANCH   2   3
ENDBRANCH   1   2
BRANCH   1  24
ATOM     24  C   UNL A   1      38.466  23.775  26.181  1.00  0.00     0.275 C 
BRANCH  24  25
ATOM     25  O   UNL A   1      38.560  24.814  27.172  1.00  0.00    -0.458 OA
BRANCH  25  26
ATOM     26  C   UNL A   1      39.627  25.637  27.054  1.00  0.00     0.338 C 
ATOM     27  O   UNL A   1      40.403  25.705  26.111  1.00  0.00    -0.246 OA
BRANCH  26  28
ATOM     28  C   UNL A   1      39.686  26.555  28.201  1.00  0.00     0.060 A 
ATOM     29  C   UNL A   1      40.538  27.662  28.126  1.00  0.00     0.016 A 
ATOM     30  C   UNL A   1      38.967  26.290  29.369  1.00  0.00     0.016 A 
ATOM     31  C   UNL A   1      40.669  28.514  29.222  1.00  0.00     0.010 A 
ATOM     32  C   UNL A   1      39.101  27.146  30.466  1.00  0.00     0.010 A 
ATOM     33  C   UNL A   1      39.957  28.261  30.403  1.00  0.00    -0.014 A 
BRANCH  33  34
ATOM     34  C   UNL A   1      40.110  29.159  31.574  1.00  0.00     0.031 A 
ATOM     35  C   UNL A   1      41.225  28.938  32.558  1.00  0.00     0.074 A 
ATOM     36  C   UNL A   1      39.233  30.165  31.759  1.00  0.00     0.049 A 
ATOM     37  N   UNL A   1      41.475  29.571  33.674  1.00  0.00    -0.248 NA
ATOM     38  C   UNL A   1      42.183  27.864  32.248  1.00  0.00     0.031 C 
ATOM     39  C   UNL A   1      38.119  30.491  30.866  1.00  0.00     0.029 A 
ATOM     40  N   UNL A   1      39.134  31.091  32.767  1.00  0.00    -0.354 N 
ATOM     41  C   UNL A   1      42.601  28.961  34.214  1.00  0.00     0.074 A 
ATOM     42  C   UNL A   1      42.984  27.903  33.305  1.00  0.00     0.031 C 
ATOM     43  C   UNL A   1      37.443  31.535  31.373  1.00  0.00     0.029 A 
ATOM     44  C   UNL A   1      38.051  31.929  32.641  1.00  0.00     0.049 A 
ATOM     45  H   UNL A   1      39.778  31.151  33.510  1.00  0.00     0.167 HD
ATOM     46  C   UNL A   1      43.253  29.258  35.364  1.00  0.00     0.031 A 
ATOM     47  C   UNL A   1      37.583  32.885  33.466  1.00  0.00     0.031 A 
ATOM     48  C   UNL A   1      42.878  30.322  36.260  1.00  0.00     0.049 A 
ATOM     49  C   UNL A   1      38.309  33.169  34.753  1.00  0.00     0.074 A 
ATOM     50  C   UNL A   1      43.512  30.727  37.422  1.00  0.00     0.029 A 
ATOM     51  N   UNL A   1      41.774  31.143  36.098  1.00  0.00    -0.354 N 
ATOM     52  N   UNL A   1      39.397  32.610  35.225  1.00  0.00    -0.248 NA
ATOM     53  C   UNL A   1      37.743  34.214  35.619  1.00  0.00     0.031 C 
ATOM     54  C   UNL A   1      42.761  31.761  37.991  1.00  0.00     0.029 A 
ATOM     55  C   UNL A   1      41.689  32.032  37.157  1.00  0.00     0.049 A 
ATOM     56  H   UNL A   1      41.143  31.101  35.344  1.00  0.00     0.167 HD
ATOM     57  C   UNL A   1      39.654  33.245  36.435  1.00  0.00     0.074 A 
ATOM     58  C   UNL A   1      38.620  34.243  36.613  1.00  0.00     0.031 C 
ATOM     59  C   UNL A   1      40.654  33.018  37.322  1.00  0.00     0.031 A 
BRANCH  46  60
ATOM     60  C   UNL A   1      44.431  28.406  35.748  1.00  0.00    -0.014 A 
ATOM     61  C   UNL A   1      45.743  28.777  35.402  1.00  0.00     0.010 A 
ATOM     62  C   UNL A   1      44.229  27.265  36.545  1.00  0.00     0.010 A 
ATOM     63  C   UNL A   1      46.829  28.012  35.834  1.00  0.00     0.020 A 
ATOM     64  C   UNL A   1      45.314  26.508  36.996  1.00  0.00     0.020 A 
ATOM     65  C   UNL A   1      46.608  26.883  36.630  1.00  0.00     0.054 A 
BRANCH  65  66
ATOM     66  S   UNL A   1      48.041  25.941  37.227  1.00  0.00     0.124 S 
ATOM     67  O   UNL A   1      48.278  25.020  36.118  1.00  0.00    -0.237 OA
ATOM     68  O   UNL A   1      49.054  26.977  37.409  1.00  0.00    -0.237 OA
ATOM     69  O   UNL A   1      47.560  25.321  38.459  1.00  0.00    -0.744 OA
ENDBRANCH  65  66
ENDBRANCH  46  60
BRANCH  47  70
ATOM     70  C   UNL A   1      36.328  33.611  33.130  1.00  0.00    -0.014 A 
ATOM     71  C   UNL A   1      36.367  34.890  32.549  1.00  0.00     0.010 A 
ATOM     72  C   UNL A   1      35.081  33.028  33.418  1.00  0.00     0.010 A 
ATOM     73  C   UNL A   1      35.181  35.586  32.291  1.00  0.00     0.020 A 
ATOM     74  C   UNL A   1      33.894  33.709  33.137  1.00  0.00     0.020 A 
ATOM     75  C   UNL A   1      33.952  34.992  32.592  1.00  0.00     0.054 A 
BRANCH  75  76
ATOM     76  S   UNL A   1      32.421  35.898  32.233  1.00  0.00     0.124 S 
ATOM     77  O   UNL A   1      32.531  36.118  30.794  1.00  0.00    -0.237 OA
ATOM     78  O   UNL A   1      31.385  34.958  32.651  1.00  0.00    -0.237 OA
ATOM     79  O   UNL A   1      32.534  37.097  33.061  1.00  0.00    -0.744 OA
ENDBRANCH  75  76
ENDBRANCH  47  70
BRANCH  59  80
ATOM     80  C   UNL A   1      40.690  33.878  38.555  1.00  0.00    -0.014 A 
ATOM     81  C   UNL A   1      41.350  35.119  38.553  1.00  0.00     0.010 A 
ATOM     82  C   UNL A   1      40.014  33.461  39.716  1.00  0.00     0.010 A 
ATOM     83  C   UNL A   1      41.358  35.918  39.700  1.00  0.00     0.020 A 
ATOM     84  C   UNL A   1      40.000  34.266  40.858  1.00  0.00     0.020 A 
ATOM     85  C   UNL A   1      40.684  35.484  40.846  1.00  0.00     0.054 A 
BRANCH  85  86
ATOM     86  S   UNL A   1      40.669  36.555  42.311  1.00  0.00     0.124 S 
ATOM     87  O   UNL A   1      41.922  37.291  42.163  1.00  0.00    -0.237 OA
ATOM     88  O   UNL A   1      39.453  37.342  42.125  1.00  0.00    -0.237 OA
ATOM     89  O   UNL A   1      40.629  35.613  43.428  1.00  0.00    -0.744 OA
ENDBRANCH  85  86
ENDBRANCH  59  80
ENDBRANCH  33  34
ENDBRANCH  26  28
ENDBRANCH  25  26
ENDBRANCH  24  25
ENDBRANCH   1  24
TORSDOF 18
ENDMDL
