MODEL 1
REMARK VINA RESULT:     -12.8      0.000      0.000
REMARK SMILES CC(C)[C@H](NC(=O)c1cc2cc(Cl)ccc2n1C)C(=O)N[C@@H](C(=O)OCCOC(=O)c1ccc(-c2c3nc(c(-c4ccc(S(=O)(=O)[O-])cc4)c4ccc([nH]4)c(-c4ccc(S(=O)(=O)[O-])cc4)c4nc(c(-c5ccc(S(=O)(=O)[O-])cc5)c5ccc2[nH]5)C=C4)C=C3)cc1)c1ccccc1
REMARK SMILES IDX 26 1 25 2 23 3 24 4 22 5 21 6 19 7 20 8 4 10 2 11 1 12 3 13
REMARK SMILES IDX 5 14 6 15 7 17 8 18 9 19 17 20 10 21 16 22 18 23 11 24 15 25
REMARK SMILES IDX 12 26 14 27 13 28 91 29 92 30 96 31 93 32 95 33 94 34 27 35
REMARK SMILES IDX 28 36 29 37 30 38 31 39 32 40 90 41 33 42 89 43 34 44 35 45
REMARK SMILES IDX 36 46 83 47 37 48 88 49 82 50 84 51 38 52 87 53 81 54 80 55
REMARK SMILES IDX 39 57 69 58 50 59 68 60 51 61 54 62 67 63 85 64 52 65 53 66
REMARK SMILES IDX 66 68 86 69 55 70 40 71 41 72 49 73 42 74 48 75 43 76 44 77
REMARK SMILES IDX 45 78 46 79 47 80 70 81 71 82 79 83 72 84 78 85 73 86 74 87
REMARK SMILES IDX 75 88 76 89 77 90 56 91 57 92 65 93 58 94 64 95 59 96 60 97
REMARK SMILES IDX 61 98 62 99 63 100
REMARK H PARENT 21 9 5 16 84 56 54 67
REMARK Flexibility Score: inf
ROOT
ATOM      1  C   UNL A   1      32.484  30.763  27.249  1.00  0.00     0.274 C 
ENDROOT
BRANCH   1   2
ATOM      2  O   UNL A   1      32.236  30.509  25.837  1.00  0.00    -0.460 OA
BRANCH   2   3
ATOM      3  C   UNL A   1      31.636  29.310  25.552  1.00  0.00     0.333 C 
ATOM      4  O   UNL A   1      31.363  28.470  26.404  1.00  0.00    -0.249 OA
BRANCH   3   5
ATOM      5  C   UNL A   1      31.250  29.131  24.079  1.00  0.00     0.223 C 
BRANCH   5   6
ATOM      6  N   UNL A   1      32.434  29.258  23.255  1.00  0.00    -0.337 N 
ATOM      7  C   UNL A   1      33.241  28.244  22.837  1.00  0.00     0.243 C 
ATOM      8  O   UNL A   1      34.267  28.540  22.221  1.00  0.00    -0.273 OA
ATOM      9  H   UNL A   1      32.679  30.168  22.968  1.00  0.00     0.164 HD
BRANCH   7  10
ATOM     10  C   UNL A   1      32.876  26.760  23.119  1.00  0.00     0.174 C 
BRANCH  10  11
ATOM     11  C   UNL A   1      33.683  25.738  22.272  1.00  0.00     0.015 C 
ATOM     12  C   UNL A   1      34.263  24.518  23.002  1.00  0.00     0.010 C 
ATOM     13  C   UNL A   1      32.823  25.183  21.130  1.00  0.00     0.010 C 
ENDBRANCH  10  11
BRANCH  10  14
ATOM     14  N   UNL A   1      31.385  26.668  23.216  1.00  0.00    -0.339 N 
ATOM     15  C   UNL A   1      30.436  25.766  23.649  1.00  0.00     0.268 C 
ATOM     16  H   UNL A   1      30.960  27.488  22.873  1.00  0.00     0.164 HD
ATOM     17  O   UNL A   1      29.263  26.094  23.589  1.00  0.00    -0.268 OA
BRANCH  15  18
ATOM     18  C   UNL A   1      30.878  24.499  24.150  1.00  0.00     0.107 A 
ATOM     19  C   UNL A   1      30.856  23.264  23.536  1.00  0.00     0.042 A 
ATOM     20  N   UNL A   1      31.376  24.259  25.408  1.00  0.00    -0.340 N 
ATOM     21  C   UNL A   1      31.765  22.422  24.239  1.00  0.00     0.002 A 
ATOM     22  C   UNL A   1      32.170  23.132  25.369  1.00  0.00     0.048 A 
ATOM     23  C   UNL A   1      31.108  25.108  26.546  1.00  0.00     0.150 C 
ATOM     24  C   UNL A   1      32.335  21.159  23.984  1.00  0.00     0.030 A 
ATOM     25  C   UNL A   1      33.179  22.652  26.216  1.00  0.00     0.028 A 
ATOM     26  C   UNL A   1      33.307  20.655  24.848  1.00  0.00     0.041 A 
ATOM     27  C   UNL A   1      33.737  21.397  25.939  1.00  0.00     0.023 A 
ATOM     28  Cl  UNL A   1      33.990  19.109  24.518  1.00  0.00    -0.084 Cl
ENDBRANCH  15  18
ENDBRANCH  10  14
ENDBRANCH   7  10
ENDBRANCH   5   6
BRANCH   5  29
ATOM     29  C   UNL A   1      30.057  29.858  23.456  1.00  0.00    -0.014 A 
ATOM     30  C   UNL A   1      29.515  30.964  24.145  1.00  0.00     0.006 A 
ATOM     31  C   UNL A   1      29.341  29.408  22.346  1.00  0.00     0.006 A 
ATOM     32  C   UNL A   1      28.306  31.569  23.805  1.00  0.00     0.000 A 
ATOM     33  C   UNL A   1      28.121  30.018  21.989  1.00  0.00     0.000 A 
ATOM     34  C   UNL A   1      27.601  31.087  22.721  1.00  0.00     0.000 A 
ENDBRANCH   5  29
ENDBRANCH   3   5
ENDBRANCH   2   3
ENDBRANCH   1   2
BRANCH   1  35
ATOM     35  C   UNL A   1      33.621  31.779  27.458  1.00  0.00     0.275 C 
BRANCH  35  36
ATOM     36  O   UNL A   1      34.636  31.190  28.301  1.00  0.00    -0.458 OA
BRANCH  36  37
ATOM     37  C   UNL A   1      35.202  31.986  29.243  1.00  0.00     0.338 C 
ATOM     38  O   UNL A   1      34.625  32.618  30.113  1.00  0.00    -0.246 OA
BRANCH  37  39
ATOM     39  C   UNL A   1      36.601  31.524  29.336  1.00  0.00     0.060 A 
ATOM     40  C   UNL A   1      37.654  32.050  30.066  1.00  0.00     0.016 A 
ATOM     41  C   UNL A   1      36.827  30.407  28.554  1.00  0.00     0.016 A 
ATOM     42  C   UNL A   1      38.929  31.444  29.935  1.00  0.00     0.010 A 
ATOM     43  C   UNL A   1      38.034  29.758  28.482  1.00  0.00     0.010 A 
ATOM     44  C   UNL A   1      39.123  30.299  29.125  1.00  0.00    -0.014 A 
BRANCH  44  45
ATOM     45  C   UNL A   1      40.329  29.459  29.111  1.00  0.00     0.031 A 
ATOM     46  C   UNL A   1      40.730  29.029  30.467  1.00  0.00     0.074 A 
ATOM     47  C   UNL A   1      40.916  28.839  28.053  1.00  0.00     0.049 A 
ATOM     48  N   UNL A   1      41.753  29.469  31.108  1.00  0.00    -0.248 NA
ATOM     49  C   UNL A   1      39.873  28.129  31.251  1.00  0.00     0.031 C 
ATOM     50  C   UNL A   1      40.520  28.862  26.641  1.00  0.00     0.029 A 
ATOM     51  N   UNL A   1      41.965  27.946  28.042  1.00  0.00    -0.354 N 
ATOM     52  C   UNL A   1      41.805  28.749  32.289  1.00  0.00     0.074 A 
ATOM     53  C   UNL A   1      40.542  28.064  32.406  1.00  0.00     0.031 C 
ATOM     54  C   UNL A   1      41.191  27.899  25.952  1.00  0.00     0.029 A 
ATOM     55  C   UNL A   1      42.176  27.275  26.821  1.00  0.00     0.049 A 
ATOM     56  H   UNL A   1      42.530  27.786  28.832  1.00  0.00     0.167 HD
ATOM     57  C   UNL A   1      42.980  28.623  32.956  1.00  0.00     0.031 A 
ATOM     58  C   UNL A   1      43.107  26.303  26.581  1.00  0.00     0.031 A 
ATOM     59  C   UNL A   1      44.011  29.425  32.335  1.00  0.00     0.049 A 
ATOM     60  C   UNL A   1      44.244  26.671  27.452  1.00  0.00     0.074 A 
ATOM     61  C   UNL A   1      44.286  30.773  32.255  1.00  0.00     0.029 A 
ATOM     62  N   UNL A   1      44.655  28.814  31.285  1.00  0.00    -0.354 N 
ATOM     63  N   UNL A   1      44.937  27.757  27.266  1.00  0.00    -0.248 NA
ATOM     64  C   UNL A   1      44.540  25.944  28.683  1.00  0.00     0.031 C 
ATOM     65  C   UNL A   1      44.919  30.975  30.992  1.00  0.00     0.029 A 
ATOM     66  C   UNL A   1      45.063  29.745  30.354  1.00  0.00     0.049 A 
ATOM     67  H   UNL A   1      44.805  27.844  31.210  1.00  0.00     0.167 HD
ATOM     68  C   UNL A   1      45.343  28.095  28.534  1.00  0.00     0.074 A 
ATOM     69  C   UNL A   1      45.327  26.845  29.278  1.00  0.00     0.031 C 
ATOM     70  C   UNL A   1      45.282  29.389  28.960  1.00  0.00     0.031 A 
BRANCH  57  71
ATOM     71  C   UNL A   1      43.308  27.539  33.938  1.00  0.00    -0.014 A 
ATOM     72  C   UNL A   1      43.399  26.174  33.599  1.00  0.00     0.010 A 
ATOM     73  C   UNL A   1      43.743  27.915  35.224  1.00  0.00     0.010 A 
ATOM     74  C   UNL A   1      43.866  25.222  34.510  1.00  0.00     0.020 A 
ATOM     75  C   UNL A   1      44.248  26.975  36.129  1.00  0.00     0.020 A 
ATOM     76  C   UNL A   1      44.296  25.631  35.768  1.00  0.00     0.054 A 
BRANCH  76  77
ATOM     77  S   UNL A   1      44.986  24.390  36.892  1.00  0.00     0.124 S 
ATOM     78  O   UNL A   1      44.267  24.674  38.131  1.00  0.00    -0.237 OA
ATOM     79  O   UNL A   1      44.635  23.137  36.231  1.00  0.00    -0.237 OA
ATOM     80  O   UNL A   1      46.413  24.702  36.913  1.00  0.00    -0.744 OA
ENDBRANCH  76  77
ENDBRANCH  57  71
BRANCH  58  81
ATOM     81  C   UNL A   1      43.254  25.103  25.692  1.00  0.00    -0.014 A 
ATOM     82  C   UNL A   1      42.371  24.020  25.708  1.00  0.00     0.010 A 
ATOM     83  C   UNL A   1      44.505  24.877  25.060  1.00  0.00     0.010 A 
ATOM     84  C   UNL A   1      42.804  22.724  25.344  1.00  0.00     0.020 A 
ATOM     85  C   UNL A   1      44.960  23.590  24.738  1.00  0.00     0.020 A 
ATOM     86  C   UNL A   1      44.130  22.506  24.975  1.00  0.00     0.054 A 
BRANCH  86  87
ATOM     87  S   UNL A   1      44.825  20.827  24.953  1.00  0.00     0.124 S 
ATOM     88  O   UNL A   1      43.860  20.092  25.767  1.00  0.00    -0.237 OA
ATOM     89  O   UNL A   1      44.822  20.476  23.533  1.00  0.00    -0.237 OA
ATOM     90  O   UNL A   1      46.147  21.005  25.546  1.00  0.00    -0.744 OA
ENDBRANCH  86  87
ENDBRANCH  58  81
BRANCH  70  91
ATOM     91  C   UNL A   1      45.190  30.487  27.909  1.00  0.00    -0.014 A 
ATOM     92  C   UNL A   1      46.364  31.159  27.534  1.00  0.00     0.010 A 
ATOM     93  C   UNL A   1      43.977  30.946  27.353  1.00  0.00     0.010 A 
ATOM     94  C   UNL A   1      46.325  32.271  26.683  1.00  0.00     0.020 A 
ATOM     95  C   UNL A   1      43.926  32.041  26.477  1.00  0.00     0.020 A 
ATOM     96  C   UNL A   1      45.104  32.714  26.169  1.00  0.00     0.054 A 
BRANCH  96  97
ATOM     97  S   UNL A   1      45.089  34.184  25.108  1.00  0.00     0.124 S 
ATOM     98  O   UNL A   1      46.502  34.557  25.076  1.00  0.00    -0.237 OA
ATOM     99  O   UNL A   1      44.552  33.669  23.850  1.00  0.00    -0.237 OA
ATOM    100  O   UNL A   1      44.217  35.123  25.810  1.00  0.00    -0.744 OA
ENDBRANCH  96  97
ENDBRANCH  70  91
ENDBRANCH  44  45
ENDBRANCH  37  39
ENDBRANCH  36  37
ENDBRANCH  35  36
ENDBRANCH   1  35
TORSDOF 20
ENDMDL
MODEL 2
REMARK VINA RESULT:     -11.8      3.414      6.976
REMARK SMILES CC(C)[C@H](NC(=O)c1cc2cc(Cl)ccc2n1C)C(=O)N[C@@H](C(=O)OCCOC(=O)c1ccc(-c2c3nc(c(-c4ccc(S(=O)(=O)[O-])cc4)c4ccc([nH]4)c(-c4ccc(S(=O)(=O)[O-])cc4)c4nc(c(-c5ccc(S(=O)(=O)[O-])cc5)c5ccc2[nH]5)C=C4)C=C3)cc1)c1ccccc1
REMARK SMILES IDX 26 1 25 2 23 3 24 4 22 5 21 6 19 7 20 8 4 10 2 11 1 12 3 13
REMARK SMILES IDX 5 14 6 15 7 17 8 18 9 19 17 20 10 21 16 22 18 23 11 24 15 25
REMARK SMILES IDX 12 26 14 27 13 28 91 29 92 30 96 31 93 32 95 33 94 34 27 35
REMARK SMILES IDX 28 36 29 37 30 38 31 39 32 40 90 41 33 42 89 43 34 44 35 45
REMARK SMILES IDX 36 46 83 47 37 48 88 49 82 50 84 51 38 52 87 53 81 54 80 55
REMARK SMILES IDX 39 57 69 58 50 59 68 60 51 61 54 62 67 63 85 64 52 65 53 66
REMARK SMILES IDX 66 68 86 69 55 70 40 71 41 72 49 73 42 74 48 75 43 76 44 77
REMARK SMILES IDX 45 78 46 79 47 80 70 81 71 82 79 83 72 84 78 85 73 86 74 87
REMARK SMILES IDX 75 88 76 89 77 90 56 91 57 92 65 93 58 94 64 95 59 96 60 97
REMARK SMILES IDX 61 98 62 99 63 100
REMARK H PARENT 21 9 5 16 84 56 54 67
REMARK Flexibility Score: inf
ROOT
ATOM      1  C   UNL A   1      31.117  31.838  26.662  1.00  0.00     0.274 C 
ENDROOT
BRANCH   1   2
ATOM      2  O   UNL A   1      31.350  31.048  25.461  1.00  0.00    -0.460 OA
BRANCH   2   3
ATOM      3  C   UNL A   1      31.458  29.696  25.659  1.00  0.00     0.333 C 
ATOM      4  O   UNL A   1      31.611  29.184  26.764  1.00  0.00    -0.249 OA
BRANCH   3   5
ATOM      5  C   UNL A   1      31.287  28.856  24.388  1.00  0.00     0.223 C 
BRANCH   5   6
ATOM      6  N   UNL A   1      32.546  28.804  23.675  1.00  0.00    -0.337 N 
ATOM      7  C   UNL A   1      33.190  27.681  23.251  1.00  0.00     0.243 C 
ATOM      8  O   UNL A   1      34.306  27.814  22.744  1.00  0.00    -0.273 OA
ATOM      9  H   UNL A   1      32.979  29.667  23.477  1.00  0.00     0.164 HD
BRANCH   7  10
ATOM     10  C   UNL A   1      32.535  26.279  23.393  1.00  0.00     0.174 C 
BRANCH  10  11
ATOM     11  C   UNL A   1      32.681  25.653  24.807  1.00  0.00     0.015 C 
ATOM     12  C   UNL A   1      33.590  26.377  25.809  1.00  0.00     0.010 C 
ATOM     13  C   UNL A   1      31.312  25.527  25.486  1.00  0.00     0.010 C 
ENDBRANCH  10  11
BRANCH  10  14
ATOM     14  N   UNL A   1      32.877  25.492  22.166  1.00  0.00    -0.339 N 
ATOM     15  C   UNL A   1      33.157  24.185  21.828  1.00  0.00     0.268 C 
ATOM     16  H   UNL A   1      32.910  26.074  21.373  1.00  0.00     0.164 HD
ATOM     17  O   UNL A   1      33.361  23.926  20.654  1.00  0.00    -0.268 OA
BRANCH  15  18
ATOM     18  C   UNL A   1      33.186  23.202  22.871  1.00  0.00     0.107 A 
ATOM     19  C   UNL A   1      32.159  22.423  23.363  1.00  0.00     0.042 A 
ATOM     20  N   UNL A   1      34.275  22.879  23.644  1.00  0.00    -0.340 N 
ATOM     21  C   UNL A   1      32.750  21.335  24.067  1.00  0.00     0.002 A 
ATOM     22  C   UNL A   1      34.118  21.597  24.129  1.00  0.00     0.048 A 
ATOM     23  C   UNL A   1      35.397  23.766  23.850  1.00  0.00     0.150 C 
ATOM     24  C   UNL A   1      32.262  20.122  24.593  1.00  0.00     0.030 A 
ATOM     25  C   UNL A   1      35.025  20.655  24.633  1.00  0.00     0.028 A 
ATOM     26  C   UNL A   1      33.154  19.199  25.139  1.00  0.00     0.041 A 
ATOM     27  C   UNL A   1      34.518  19.453  25.144  1.00  0.00     0.023 A 
ATOM     28  Cl  UNL A   1      32.537  17.724  25.775  1.00  0.00    -0.084 Cl
ENDBRANCH  15  18
ENDBRANCH  10  14
ENDBRANCH   7  10
ENDBRANCH   5   6
BRANCH   5  29
ATOM     29  C   UNL A   1      30.112  29.059  23.431  1.00  0.00    -0.014 A 
ATOM     30  C   UNL A   1      30.229  30.046  22.429  1.00  0.00     0.006 A 
ATOM     31  C   UNL A   1      28.854  28.470  23.577  1.00  0.00     0.006 A 
ATOM     32  C   UNL A   1      29.162  30.480  21.644  1.00  0.00     0.000 A 
ATOM     33  C   UNL A   1      27.771  28.897  22.782  1.00  0.00     0.000 A 
ATOM     34  C   UNL A   1      27.922  29.904  21.827  1.00  0.00     0.000 A 
ENDBRANCH   5  29
ENDBRANCH   3   5
ENDBRANCH   2   3
ENDBRANCH   1   2
BRANCH   1  35
ATOM     35  C   UNL A   1      32.197  32.918  26.856  1.00  0.00     0.275 C 
BRANCH  35  36
ATOM     36  O   UNL A   1      32.214  33.330  28.241  1.00  0.00    -0.458 OA
BRANCH  36  37
ATOM     37  C   UNL A   1      33.003  34.384  28.567  1.00  0.00     0.338 C 
ATOM     38  O   UNL A   1      32.642  35.524  28.808  1.00  0.00    -0.246 OA
BRANCH  37  39
ATOM     39  C   UNL A   1      34.251  33.779  29.074  1.00  0.00     0.060 A 
ATOM     40  C   UNL A   1      34.423  32.786  30.023  1.00  0.00     0.016 A 
ATOM     41  C   UNL A   1      35.369  34.334  28.481  1.00  0.00     0.016 A 
ATOM     42  C   UNL A   1      35.747  32.420  30.376  1.00  0.00     0.010 A 
ATOM     43  C   UNL A   1      36.653  33.933  28.751  1.00  0.00     0.010 A 
ATOM     44  C   UNL A   1      36.869  33.009  29.747  1.00  0.00    -0.014 A 
BRANCH  44  45
ATOM     45  C   UNL A   1      38.256  32.537  29.860  1.00  0.00     0.031 A 
ATOM     46  C   UNL A   1      38.386  31.097  29.553  1.00  0.00     0.074 A 
ATOM     47  C   UNL A   1      39.398  33.272  29.932  1.00  0.00     0.049 A 
ATOM     48  N   UNL A   1      38.618  30.175  30.418  1.00  0.00    -0.248 NA
ATOM     49  C   UNL A   1      38.118  30.592  28.200  1.00  0.00     0.031 C 
ATOM     50  C   UNL A   1      39.550  34.730  29.942  1.00  0.00     0.029 A 
ATOM     51  N   UNL A   1      40.709  32.847  29.907  1.00  0.00    -0.354 N 
ATOM     52  C   UNL A   1      38.745  28.999  29.702  1.00  0.00     0.074 A 
ATOM     53  C   UNL A   1      38.264  29.276  28.372  1.00  0.00     0.031 C 
ATOM     54  C   UNL A   1      40.854  35.066  29.742  1.00  0.00     0.029 A 
ATOM     55  C   UNL A   1      41.670  33.861  29.733  1.00  0.00     0.049 A 
ATOM     56  H   UNL A   1      40.957  31.899  30.004  1.00  0.00     0.167 HD
ATOM     57  C   UNL A   1      39.439  27.956  30.226  1.00  0.00     0.031 A 
ATOM     58  C   UNL A   1      43.021  33.686  29.613  1.00  0.00     0.031 A 
ATOM     59  C   UNL A   1      39.840  28.239  31.587  1.00  0.00     0.049 A 
ATOM     60  C   UNL A   1      43.306  32.504  30.455  1.00  0.00     0.074 A 
ATOM     61  C   UNL A   1      39.193  28.323  32.800  1.00  0.00     0.029 A 
ATOM     62  N   UNL A   1      41.013  28.947  31.699  1.00  0.00    -0.354 N 
ATOM     63  N   UNL A   1      43.153  32.521  31.748  1.00  0.00    -0.248 NA
ATOM     64  C   UNL A   1      43.593  31.195  29.878  1.00  0.00     0.031 C 
ATOM     65  C   UNL A   1      39.903  29.298  33.562  1.00  0.00     0.029 A 
ATOM     66  C   UNL A   1      40.994  29.748  32.822  1.00  0.00     0.049 A 
ATOM     67  H   UNL A   1      41.764  28.891  31.065  1.00  0.00     0.167 HD
ATOM     68  C   UNL A   1      42.821  31.221  32.044  1.00  0.00     0.074 A 
ATOM     69  C   UNL A   1      43.377  30.435  30.955  1.00  0.00     0.031 C 
ATOM     70  C   UNL A   1      41.814  30.946  32.923  1.00  0.00     0.031 A 
BRANCH  57  71
ATOM     71  C   UNL A   1      40.054  26.840  29.438  1.00  0.00    -0.014 A 
ATOM     72  C   UNL A   1      39.310  25.819  28.812  1.00  0.00     0.010 A 
ATOM     73  C   UNL A   1      41.427  26.916  29.135  1.00  0.00     0.010 A 
ATOM     74  C   UNL A   1      39.912  24.894  27.953  1.00  0.00     0.020 A 
ATOM     75  C   UNL A   1      42.031  26.019  28.247  1.00  0.00     0.020 A 
ATOM     76  C   UNL A   1      41.269  25.006  27.669  1.00  0.00     0.054 A 
BRANCH  76  77
ATOM     77  S   UNL A   1      42.001  23.854  26.480  1.00  0.00     0.124 S 
ATOM     78  O   UNL A   1      40.909  22.909  26.265  1.00  0.00    -0.237 OA
ATOM     79  O   UNL A   1      42.316  24.724  25.351  1.00  0.00    -0.237 OA
ATOM     80  O   UNL A   1      43.160  23.316  27.191  1.00  0.00    -0.744 OA
ENDBRANCH  76  77
ENDBRANCH  57  71
BRANCH  58  81
ATOM     81  C   UNL A   1      44.173  34.371  28.939  1.00  0.00    -0.014 A 
ATOM     82  C   UNL A   1      44.142  34.803  27.610  1.00  0.00     0.010 A 
ATOM     83  C   UNL A   1      45.459  34.276  29.533  1.00  0.00     0.010 A 
ATOM     84  C   UNL A   1      45.328  34.891  26.847  1.00  0.00     0.020 A 
ATOM     85  C   UNL A   1      46.639  34.317  28.776  1.00  0.00     0.020 A 
ATOM     86  C   UNL A   1      46.552  34.532  27.409  1.00  0.00     0.054 A 
BRANCH  86  87
ATOM     87  S   UNL A   1      47.995  34.191  26.358  1.00  0.00     0.124 S 
ATOM     88  O   UNL A   1      49.015  35.044  26.962  1.00  0.00    -0.237 OA
ATOM     89  O   UNL A   1      48.213  32.756  26.535  1.00  0.00    -0.237 OA
ATOM     90  O   UNL A   1      47.542  34.590  25.029  1.00  0.00    -0.744 OA
ENDBRANCH  86  87
ENDBRANCH  58  81
BRANCH  70  91
ATOM     91  C   UNL A   1      41.376  32.045  33.881  1.00  0.00    -0.014 A 
ATOM     92  C   UNL A   1      42.091  32.221  35.075  1.00  0.00     0.010 A 
ATOM     93  C   UNL A   1      40.227  32.843  33.692  1.00  0.00     0.010 A 
ATOM     94  C   UNL A   1      41.653  33.114  36.061  1.00  0.00     0.020 A 
ATOM     95  C   UNL A   1      39.792  33.763  34.658  1.00  0.00     0.020 A 
ATOM     96  C   UNL A   1      40.498  33.872  35.852  1.00  0.00     0.054 A 
BRANCH  96  97
ATOM     97  S   UNL A   1      39.937  34.983  37.169  1.00  0.00     0.124 S 
ATOM     98  O   UNL A   1      40.984  34.823  38.176  1.00  0.00    -0.237 OA
ATOM     99  O   UNL A   1      39.908  36.285  36.504  1.00  0.00    -0.237 OA
ATOM    100  O   UNL A   1      38.628  34.457  37.549  1.00  0.00    -0.744 OA
ENDBRANCH  96  97
ENDBRANCH  70  91
ENDBRANCH  44  45
ENDBRANCH  37  39
ENDBRANCH  36  37
ENDBRANCH  35  36
ENDBRANCH   1  35
TORSDOF 20
ENDMDL
MODEL 3
REMARK VINA RESULT:     -11.5      4.215      6.449
REMARK SMILES CC(C)[C@H](NC(=O)c1cc2cc(Cl)ccc2n1C)C(=O)N[C@@H](C(=O)OCCOC(=O)c1ccc(-c2c3nc(c(-c4ccc(S(=O)(=O)[O-])cc4)c4ccc([nH]4)c(-c4ccc(S(=O)(=O)[O-])cc4)c4nc(c(-c5ccc(S(=O)(=O)[O-])cc5)c5ccc2[nH]5)C=C4)C=C3)cc1)c1ccccc1
REMARK SMILES IDX 26 1 25 2 23 3 24 4 22 5 21 6 19 7 20 8 4 10 2 11 1 12 3 13
REMARK SMILES IDX 5 14 6 15 7 17 8 18 9 19 17 20 10 21 16 22 18 23 11 24 15 25
REMARK SMILES IDX 12 26 14 27 13 28 91 29 92 30 96 31 93 32 95 33 94 34 27 35
REMARK SMILES IDX 28 36 29 37 30 38 31 39 32 40 90 41 33 42 89 43 34 44 35 45
REMARK SMILES IDX 36 46 83 47 37 48 88 49 82 50 84 51 38 52 87 53 81 54 80 55
REMARK SMILES IDX 39 57 69 58 50 59 68 60 51 61 54 62 67 63 85 64 52 65 53 66
REMARK SMILES IDX 66 68 86 69 55 70 40 71 41 72 49 73 42 74 48 75 43 76 44 77
REMARK SMILES IDX 45 78 46 79 47 80 70 81 71 82 79 83 72 84 78 85 73 86 74 87
REMARK SMILES IDX 75 88 76 89 77 90 56 91 57 92 65 93 58 94 64 95 59 96 60 97
REMARK SMILES IDX 61 98 62 99 63 100
REMARK H PARENT 21 9 5 16 84 56 54 67
REMARK Flexibility Score: inf
ROOT
ATOM      1  C   UNL A   1      31.722  32.020  27.181  1.00  0.00     0.274 C 
ENDROOT
BRANCH   1   2
ATOM      2  O   UNL A   1      32.270  31.116  26.179  1.00  0.00    -0.460 OA
BRANCH   2   3
ATOM      3  C   UNL A   1      31.729  29.856  26.167  1.00  0.00     0.333 C 
ATOM      4  O   UNL A   1      31.462  29.224  27.184  1.00  0.00    -0.249 OA
BRANCH   3   5
ATOM      5  C   UNL A   1      31.400  29.325  24.766  1.00  0.00     0.223 C 
BRANCH   5   6
ATOM      6  N   UNL A   1      32.597  29.346  23.953  1.00  0.00    -0.337 N 
ATOM      7  C   UNL A   1      33.278  28.262  23.488  1.00  0.00     0.243 C 
ATOM      8  O   UNL A   1      34.338  28.461  22.890  1.00  0.00    -0.273 OA
ATOM      9  H   UNL A   1      32.953  30.232  23.711  1.00  0.00     0.164 HD
BRANCH   7  10
ATOM     10  C   UNL A   1      32.733  26.822  23.696  1.00  0.00     0.174 C 
BRANCH  10  11
ATOM     11  C   UNL A   1      33.117  26.192  25.063  1.00  0.00     0.015 C 
ATOM     12  C   UNL A   1      34.031  27.011  25.986  1.00  0.00     0.010 C 
ATOM     13  C   UNL A   1      31.862  25.868  25.881  1.00  0.00     0.010 C 
ENDBRANCH  10  11
BRANCH  10  14
ATOM     14  N   UNL A   1      32.939  26.069  22.419  1.00  0.00    -0.339 N 
ATOM     15  C   UNL A   1      33.127  24.764  22.013  1.00  0.00     0.268 C 
ATOM     16  H   UNL A   1      32.939  26.680  21.647  1.00  0.00     0.164 HD
ATOM     17  O   UNL A   1      33.226  24.543  20.818  1.00  0.00    -0.268 OA
BRANCH  15  18
ATOM     18  C   UNL A   1      33.188  23.741  23.015  1.00  0.00     0.107 A 
ATOM     19  C   UNL A   1      32.165  22.996  23.563  1.00  0.00     0.042 A 
ATOM     20  N   UNL A   1      34.318  23.333  23.681  1.00  0.00    -0.340 N 
ATOM     21  C   UNL A   1      32.752  21.853  24.177  1.00  0.00     0.002 A 
ATOM     22  C   UNL A   1      34.133  22.043  24.132  1.00  0.00     0.048 A 
ATOM     23  C   UNL A   1      35.499  24.153  23.824  1.00  0.00     0.150 C 
ATOM     24  C   UNL A   1      32.244  20.646  24.698  1.00  0.00     0.030 A 
ATOM     25  C   UNL A   1      35.026  21.037  24.526  1.00  0.00     0.028 A 
ATOM     26  C   UNL A   1      33.127  19.658  25.134  1.00  0.00     0.041 A 
ATOM     27  C   UNL A   1      34.499  19.842  25.034  1.00  0.00     0.023 A 
ATOM     28  Cl  UNL A   1      32.486  18.192  25.768  1.00  0.00    -0.084 Cl
ENDBRANCH  15  18
ENDBRANCH  10  14
ENDBRANCH   7  10
ENDBRANCH   5   6
BRANCH   5  29
ATOM     29  C   UNL A   1      30.181  29.808  23.978  1.00  0.00    -0.014 A 
ATOM     30  C   UNL A   1      29.708  31.116  24.215  1.00  0.00     0.006 A 
ATOM     31  C   UNL A   1      29.383  28.998  23.168  1.00  0.00     0.006 A 
ATOM     32  C   UNL A   1      28.490  31.596  23.735  1.00  0.00     0.000 A 
ATOM     33  C   UNL A   1      28.154  29.476  22.671  1.00  0.00     0.000 A 
ATOM     34  C   UNL A   1      27.705  30.766  22.961  1.00  0.00     0.000 A 
ENDBRANCH   5  29
ENDBRANCH   3   5
ENDBRANCH   2   3
ENDBRANCH   1   2
BRANCH   1  35
ATOM     35  C   UNL A   1      32.584  33.285  27.344  1.00  0.00     0.275 C 
BRANCH  35  36
ATOM     36  O   UNL A   1      33.557  33.066  28.390  1.00  0.00    -0.458 OA
BRANCH  36  37
ATOM     37  C   UNL A   1      34.851  33.363  28.109  1.00  0.00     0.338 C 
ATOM     38  O   UNL A   1      35.258  34.228  27.352  1.00  0.00    -0.246 OA
BRANCH  37  39
ATOM     39  C   UNL A   1      35.617  32.827  29.252  1.00  0.00     0.060 A 
ATOM     40  C   UNL A   1      35.366  31.712  30.033  1.00  0.00     0.016 A 
ATOM     41  C   UNL A   1      36.728  33.600  29.534  1.00  0.00     0.016 A 
ATOM     42  C   UNL A   1      36.237  31.445  31.119  1.00  0.00     0.010 A 
ATOM     43  C   UNL A   1      37.627  33.307  30.528  1.00  0.00     0.010 A 
ATOM     44  C   UNL A   1      37.367  32.258  31.377  1.00  0.00    -0.014 A 
BRANCH  44  45
ATOM     45  C   UNL A   1      38.455  31.935  32.311  1.00  0.00     0.031 A 
ATOM     46  C   UNL A   1      38.316  32.641  33.602  1.00  0.00     0.074 A 
ATOM     47  C   UNL A   1      39.356  30.919  32.242  1.00  0.00     0.049 A 
ATOM     48  N   UNL A   1      39.055  33.617  33.993  1.00  0.00    -0.248 NA
ATOM     49  C   UNL A   1      37.192  32.345  34.501  1.00  0.00     0.031 C 
ATOM     50  C   UNL A   1      39.501  29.891  31.206  1.00  0.00     0.029 A 
ATOM     51  N   UNL A   1      40.295  30.525  33.170  1.00  0.00    -0.354 N 
ATOM     52  C   UNL A   1      38.642  33.922  35.277  1.00  0.00     0.074 A 
ATOM     53  C   UNL A   1      37.393  33.233  35.479  1.00  0.00     0.031 C 
ATOM     54  C   UNL A   1      40.330  28.903  31.641  1.00  0.00     0.029 A 
ATOM     55  C   UNL A   1      40.903  29.279  32.925  1.00  0.00     0.049 A 
ATOM     56  H   UNL A   1      40.526  31.076  33.952  1.00  0.00     0.167 HD
ATOM     57  C   UNL A   1      39.488  34.552  36.132  1.00  0.00     0.031 A 
ATOM     58  C   UNL A   1      41.812  28.647  33.728  1.00  0.00     0.031 A 
ATOM     59  C   UNL A   1      40.710  34.930  35.457  1.00  0.00     0.049 A 
ATOM     60  C   UNL A   1      42.570  29.753  34.351  1.00  0.00     0.074 A 
ATOM     61  C   UNL A   1      41.058  35.883  34.525  1.00  0.00     0.029 A 
ATOM     62  N   UNL A   1      41.662  33.940  35.402  1.00  0.00    -0.354 N 
ATOM     63  N   UNL A   1      43.334  30.547  33.657  1.00  0.00    -0.248 NA
ATOM     64  C   UNL A   1      42.366  30.143  35.743  1.00  0.00     0.031 C 
ATOM     65  C   UNL A   1      42.115  35.316  33.752  1.00  0.00     0.029 A 
ATOM     66  C   UNL A   1      42.423  34.056  34.259  1.00  0.00     0.049 A 
ATOM     67  H   UNL A   1      41.783  33.243  36.087  1.00  0.00     0.167 HD
ATOM     68  C   UNL A   1      43.266  31.734  34.346  1.00  0.00     0.074 A 
ATOM     69  C   UNL A   1      42.923  31.357  35.709  1.00  0.00     0.031 C 
ATOM     70  C   UNL A   1      43.116  32.915  33.680  1.00  0.00     0.031 A 
BRANCH  57  71
ATOM     71  C   UNL A   1      39.386  34.531  37.627  1.00  0.00    -0.014 A 
ATOM     72  C   UNL A   1      39.364  35.691  38.427  1.00  0.00     0.010 A 
ATOM     73  C   UNL A   1      39.097  33.306  38.258  1.00  0.00     0.010 A 
ATOM     74  C   UNL A   1      39.103  35.630  39.800  1.00  0.00     0.020 A 
ATOM     75  C   UNL A   1      38.797  33.239  39.623  1.00  0.00     0.020 A 
ATOM     76  C   UNL A   1      38.813  34.403  40.388  1.00  0.00     0.054 A 
BRANCH  76  77
ATOM     77  S   UNL A   1      38.385  34.367  42.146  1.00  0.00     0.124 S 
ATOM     78  O   UNL A   1      37.124  35.105  42.164  1.00  0.00    -0.237 OA
ATOM     79  O   UNL A   1      38.283  32.936  42.417  1.00  0.00    -0.237 OA
ATOM     80  O   UNL A   1      39.511  35.042  42.788  1.00  0.00    -0.744 OA
ENDBRANCH  76  77
ENDBRANCH  57  71
BRANCH  58  81
ATOM     81  C   UNL A   1      42.215  27.239  34.054  1.00  0.00    -0.014 A 
ATOM     82  C   UNL A   1      41.666  26.506  35.110  1.00  0.00     0.010 A 
ATOM     83  C   UNL A   1      43.429  26.740  33.513  1.00  0.00     0.010 A 
ATOM     84  C   UNL A   1      42.409  25.488  35.750  1.00  0.00     0.020 A 
ATOM     85  C   UNL A   1      44.193  25.762  34.167  1.00  0.00     0.020 A 
ATOM     86  C   UNL A   1      43.712  25.209  35.343  1.00  0.00     0.054 A 
BRANCH  86  87
ATOM     87  S   UNL A   1      44.838  24.261  36.410  1.00  0.00     0.124 S 
ATOM     88  O   UNL A   1      44.568  22.889  35.986  1.00  0.00    -0.237 OA
ATOM     89  O   UNL A   1      46.160  24.766  36.043  1.00  0.00    -0.237 OA
ATOM     90  O   UNL A   1      44.393  24.606  37.756  1.00  0.00    -0.744 OA
ENDBRANCH  86  87
ENDBRANCH  58  81
BRANCH  70  91
ATOM     91  C   UNL A   1      43.463  32.953  32.198  1.00  0.00    -0.014 A 
ATOM     92  C   UNL A   1      42.492  32.551  31.270  1.00  0.00     0.010 A 
ATOM     93  C   UNL A   1      44.742  33.278  31.697  1.00  0.00     0.010 A 
ATOM     94  C   UNL A   1      42.795  32.427  29.908  1.00  0.00     0.020 A 
ATOM     95  C   UNL A   1      45.052  33.186  30.332  1.00  0.00     0.020 A 
ATOM     96  C   UNL A   1      44.079  32.733  29.448  1.00  0.00     0.054 A 
BRANCH  96  97
ATOM     97  S   UNL A   1      44.446  32.516  27.686  1.00  0.00     0.124 S 
ATOM     98  O   UNL A   1      45.905  32.428  27.683  1.00  0.00    -0.237 OA
ATOM     99  O   UNL A   1      43.748  31.274  27.361  1.00  0.00    -0.237 OA
ATOM    100  O   UNL A   1      43.897  33.714  27.055  1.00  0.00    -0.744 OA
ENDBRANCH  96  97
ENDBRANCH  70  91
ENDBRANCH  44  45
ENDBRANCH  37  39
ENDBRANCH  36  37
ENDBRANCH  35  36
ENDBRANCH   1  35
TORSDOF 20
ENDMDL
