MODEL 1
REMARK VINA RESULT:     -11.3      0.000      0.000
REMARK SMILES O=C(CCCN1C(=O)/C(=C/c2ccccc2Cl)SC1=S)Nc1cccc(C(=O)OCCOC(=O)c2ccc(-c3c4nc(c(-c5ccc(S(=O)(=O)[O-])cc5)c5ccc([nH]5)c(-c5ccc(S(=O)(=O)[O-])cc5)c5nc(c(-c6ccc(S(=O)(=O)[O-])cc6)c6ccc3[nH]6)C=C5)C=C4)cc2)c1
REMARK SMILES IDX 29 1 27 2 28 3 26 4 22 5 23 6 95 7 24 8 25 9 21 10 1 11 2 12
REMARK SMILES IDX 3 14 4 15 5 16 6 17 7 18 19 19 8 20 9 21 18 22 20 23 10 24
REMARK SMILES IDX 11 25 12 26 16 27 13 28 15 29 17 30 14 31 30 32 31 33 32 34
REMARK SMILES IDX 33 35 34 36 35 37 36 38 94 39 37 40 93 41 38 42 39 43 40 44
REMARK SMILES IDX 87 45 41 46 92 47 86 48 88 49 42 50 91 51 85 52 84 53 43 55
REMARK SMILES IDX 73 56 54 57 72 58 55 59 58 60 71 61 89 62 56 63 57 64 70 66
REMARK SMILES IDX 90 67 59 68 44 69 45 70 53 71 46 72 52 73 47 74 48 75 49 76
REMARK SMILES IDX 50 77 51 78 74 79 75 80 83 81 76 82 82 83 77 84 78 85 79 86
REMARK SMILES IDX 80 87 81 88 60 89 61 90 69 91 62 92 68 93 63 94 64 95 65 96
REMARK SMILES IDX 66 97 67 98
REMARK H PARENT 21 13 88 54 58 65
REMARK Flexibility Score: inf
ROOT
ATOM      1  O   UNL A   1      41.471  21.832  26.622  1.00  0.00    -0.458 OA
ENDROOT
BRANCH   1   2
ATOM      2  C   UNL A   1      40.444  21.042  26.212  1.00  0.00     0.338 C 
ATOM      3  O   UNL A   1      40.460  19.829  26.086  1.00  0.00    -0.246 OA
BRANCH   2   4
ATOM      4  C   UNL A   1      39.222  21.869  26.067  1.00  0.00     0.062 A 
ATOM      5  C   UNL A   1      37.018  22.195  25.156  1.00  0.00     0.042 A 
ATOM      6  C   UNL A   1      37.032  23.529  25.568  1.00  0.00     0.026 A 
ATOM      7  C   UNL A   1      38.136  21.387  25.347  1.00  0.00     0.041 A 
ATOM      8  C   UNL A   1      38.090  23.995  26.342  1.00  0.00     0.003 A 
ATOM      9  C   UNL A   1      39.153  23.143  26.643  1.00  0.00     0.016 A 
BRANCH   5  10
ATOM     10  N   UNL A   1      35.835  21.680  24.609  1.00  0.00    -0.326 N 
ATOM     11  O   UNL A   1      34.592  21.613  26.576  1.00  0.00    -0.275 OA
ATOM     12  C   UNL A   1      34.701  21.439  25.365  1.00  0.00     0.224 C 
ATOM     13  H   UNL A   1      35.809  21.480  23.645  1.00  0.00     0.169 HD
BRANCH  12  14
ATOM     14  C   UNL A   1      33.524  20.933  24.574  1.00  0.00     0.102 C 
BRANCH  14  15
ATOM     15  C   UNL A   1      33.168  21.779  23.349  1.00  0.00     0.032 C 
BRANCH  15  16
ATOM     16  C   UNL A   1      31.877  22.612  23.420  1.00  0.00     0.128 C 
BRANCH  16  17
ATOM     17  N   UNL A   1      31.924  23.820  24.254  1.00  0.00    -0.293 N 
ATOM     18  C   UNL A   1      32.423  25.000  23.728  1.00  0.00     0.266 C 
ATOM     19  C   UNL A   1      31.355  23.926  25.512  1.00  0.00     0.148 C 
ATOM     20  O   UNL A   1      32.771  25.193  22.571  1.00  0.00    -0.268 OA
ATOM     21  C   UNL A   1      32.487  26.043  24.777  1.00  0.00     0.081 C 
ATOM     22  S   UNL A   1      31.579  25.552  26.143  1.00  0.00    -0.054 SA
ATOM     23  S   UNL A   1      30.565  22.745  26.382  1.00  0.00    -0.052 S 
ATOM     24  C   UNL A   1      33.200  27.163  24.599  1.00  0.00     0.031 C 
BRANCH  24  25
ATOM     25  C   UNL A   1      33.288  28.277  25.550  1.00  0.00    -0.006 A 
ATOM     26  C   UNL A   1      34.348  28.230  26.469  1.00  0.00     0.010 A 
ATOM     27  C   UNL A   1      32.399  29.363  25.591  1.00  0.00     0.048 A 
ATOM     28  C   UNL A   1      34.539  29.261  27.388  1.00  0.00     0.001 A 
ATOM     29  C   UNL A   1      32.603  30.403  26.505  1.00  0.00     0.021 A 
ATOM     30  Cl  UNL A   1      31.014  29.457  24.561  1.00  0.00    -0.084 Cl
ATOM     31  C   UNL A   1      33.675  30.352  27.399  1.00  0.00     0.002 A 
ENDBRANCH  24  25
ENDBRANCH  16  17
ENDBRANCH  15  16
ENDBRANCH  14  15
ENDBRANCH  12  14
ENDBRANCH   5  10
ENDBRANCH   2   4
ENDBRANCH   1   2
BRANCH   1  32
ATOM     32  C   UNL A   1      42.557  22.032  25.699  1.00  0.00     0.275 C 
BRANCH  32  33
ATOM     33  C   UNL A   1      42.984  23.501  25.670  1.00  0.00     0.275 C 
BRANCH  33  34
ATOM     34  O   UNL A   1      41.963  24.332  26.251  1.00  0.00    -0.458 OA
BRANCH  34  35
ATOM     35  C   UNL A   1      42.073  25.655  25.990  1.00  0.00     0.338 C 
ATOM     36  O   UNL A   1      42.080  26.202  24.901  1.00  0.00    -0.246 OA
BRANCH  35  37
ATOM     37  C   UNL A   1      42.045  26.403  27.255  1.00  0.00     0.060 A 
ATOM     38  C   UNL A   1      41.198  25.929  28.247  1.00  0.00     0.016 A 
ATOM     39  C   UNL A   1      42.709  27.612  27.427  1.00  0.00     0.016 A 
ATOM     40  C   UNL A   1      40.929  26.683  29.381  1.00  0.00     0.010 A 
ATOM     41  C   UNL A   1      42.511  28.334  28.617  1.00  0.00     0.010 A 
ATOM     42  C   UNL A   1      41.595  27.893  29.593  1.00  0.00    -0.014 A 
BRANCH  42  43
ATOM     43  C   UNL A   1      41.293  28.699  30.812  1.00  0.00     0.031 A 
ATOM     44  C   UNL A   1      40.126  29.654  30.819  1.00  0.00     0.074 A 
ATOM     45  C   UNL A   1      42.034  28.551  31.930  1.00  0.00     0.049 A 
ATOM     46  N   UNL A   1      39.785  30.536  31.724  1.00  0.00    -0.248 NA
ATOM     47  C   UNL A   1      39.233  29.622  29.649  1.00  0.00     0.031 C 
ATOM     48  C   UNL A   1      43.154  27.617  32.091  1.00  0.00     0.029 A 
ATOM     49  N   UNL A   1      41.953  29.174  33.152  1.00  0.00    -0.354 N 
ATOM     50  C   UNL A   1      38.677  31.201  31.209  1.00  0.00     0.074 A 
ATOM     51  C   UNL A   1      38.407  30.626  29.910  1.00  0.00     0.031 C 
ATOM     52  C   UNL A   1      43.624  27.701  33.345  1.00  0.00     0.029 A 
ATOM     53  C   UNL A   1      42.909  28.758  34.050  1.00  0.00     0.049 A 
ATOM     54  H   UNL A   1      41.274  29.856  33.364  1.00  0.00     0.167 HD
ATOM     55  C   UNL A   1      37.951  32.200  31.769  1.00  0.00     0.031 A 
ATOM     56  C   UNL A   1      43.215  29.202  35.285  1.00  0.00     0.031 A 
ATOM     57  C   UNL A   1      38.204  32.745  33.077  1.00  0.00     0.049 A 
ATOM     58  C   UNL A   1      42.431  30.348  35.862  1.00  0.00     0.074 A 
ATOM     59  C   UNL A   1      37.520  33.753  33.737  1.00  0.00     0.029 A 
ATOM     60  N   UNL A   1      39.211  32.323  33.933  1.00  0.00    -0.354 N 
ATOM     61  N   UNL A   1      41.416  30.996  35.342  1.00  0.00    -0.248 NA
ATOM     62  C   UNL A   1      42.840  30.828  37.189  1.00  0.00     0.031 C 
ATOM     63  C   UNL A   1      38.147  33.977  34.967  1.00  0.00     0.029 A 
ATOM     64  C   UNL A   1      39.180  33.063  35.104  1.00  0.00     0.049 A 
ATOM     65  H   UNL A   1      39.853  31.603  33.736  1.00  0.00     0.167 HD
ATOM     66  C   UNL A   1      41.053  31.948  36.286  1.00  0.00     0.074 A 
ATOM     67  C   UNL A   1      41.942  31.776  37.417  1.00  0.00     0.031 C 
ATOM     68  C   UNL A   1      40.072  32.883  36.221  1.00  0.00     0.031 A 
BRANCH  55  69
ATOM     69  C   UNL A   1      36.843  32.808  30.945  1.00  0.00    -0.014 A 
ATOM     70  C   UNL A   1      35.515  32.353  31.040  1.00  0.00     0.010 A 
ATOM     71  C   UNL A   1      37.135  33.883  30.085  1.00  0.00     0.010 A 
ATOM     72  C   UNL A   1      34.510  32.934  30.260  1.00  0.00     0.020 A 
ATOM     73  C   UNL A   1      36.128  34.487  29.326  1.00  0.00     0.020 A 
ATOM     74  C   UNL A   1      34.824  33.997  29.406  1.00  0.00     0.054 A 
BRANCH  74  75
ATOM     75  S   UNL A   1      33.497  34.744  28.420  1.00  0.00     0.124 S 
ATOM     76  O   UNL A   1      32.911  33.576  27.768  1.00  0.00    -0.237 OA
ATOM     77  O   UNL A   1      32.663  35.382  29.435  1.00  0.00    -0.237 OA
ATOM     78  O   UNL A   1      34.202  35.664  27.530  1.00  0.00    -0.744 OA
ENDBRANCH  74  75
ENDBRANCH  55  69
BRANCH  56  79
ATOM     79  C   UNL A   1      44.350  28.594  36.036  1.00  0.00    -0.014 A 
ATOM     80  C   UNL A   1      44.157  27.455  36.836  1.00  0.00     0.010 A 
ATOM     81  C   UNL A   1      45.640  29.151  35.942  1.00  0.00     0.010 A 
ATOM     82  C   UNL A   1      45.230  26.892  37.536  1.00  0.00     0.020 A 
ATOM     83  C   UNL A   1      46.721  28.571  36.613  1.00  0.00     0.020 A 
ATOM     84  C   UNL A   1      46.505  27.452  37.417  1.00  0.00     0.054 A 
BRANCH  84  85
ATOM     85  S   UNL A   1      47.891  26.671  38.291  1.00  0.00     0.124 S 
ATOM     86  O   UNL A   1      48.718  26.198  37.186  1.00  0.00    -0.237 OA
ATOM     87  O   UNL A   1      48.441  27.779  39.066  1.00  0.00    -0.237 OA
ATOM     88  O   UNL A   1      47.248  25.624  39.084  1.00  0.00    -0.744 OA
ENDBRANCH  84  85
ENDBRANCH  56  79
BRANCH  68  89
ATOM     89  C   UNL A   1      39.880  33.764  37.427  1.00  0.00    -0.014 A 
ATOM     90  C   UNL A   1      40.383  35.076  37.464  1.00  0.00     0.010 A 
ATOM     91  C   UNL A   1      39.149  33.277  38.528  1.00  0.00     0.010 A 
ATOM     92  C   UNL A   1      40.192  35.874  38.595  1.00  0.00     0.020 A 
ATOM     93  C   UNL A   1      38.930  34.082  39.648  1.00  0.00     0.020 A 
ATOM     94  C   UNL A   1      39.467  35.371  39.681  1.00  0.00     0.054 A 
BRANCH  94  95
ATOM     95  S   UNL A   1      39.205  36.436  41.126  1.00  0.00     0.124 S 
ATOM     96  O   UNL A   1      38.211  35.681  41.884  1.00  0.00    -0.237 OA
ATOM     97  O   UNL A   1      40.536  36.500  41.723  1.00  0.00    -0.237 OA
ATOM     98  O   UNL A   1      38.727  37.691  40.549  1.00  0.00    -0.744 OA
ENDBRANCH  94  95
ENDBRANCH  68  89
ENDBRANCH  42  43
ENDBRANCH  35  37
ENDBRANCH  34  35
ENDBRANCH  33  34
ENDBRANCH  32  33
ENDBRANCH   1  32
TORSDOF 20
ENDMDL
MODEL 2
REMARK VINA RESULT:     -10.6      1.379      8.074
REMARK SMILES O=C(CCCN1C(=O)/C(=C/c2ccccc2Cl)SC1=S)Nc1cccc(C(=O)OCCOC(=O)c2ccc(-c3c4nc(c(-c5ccc(S(=O)(=O)[O-])cc5)c5ccc([nH]5)c(-c5ccc(S(=O)(=O)[O-])cc5)c5nc(c(-c6ccc(S(=O)(=O)[O-])cc6)c6ccc3[nH]6)C=C5)C=C4)cc2)c1
REMARK SMILES IDX 29 1 27 2 28 3 26 4 22 5 23 6 95 7 24 8 25 9 21 10 1 11 2 12
REMARK SMILES IDX 3 14 4 15 5 16 6 17 7 18 19 19 8 20 9 21 18 22 20 23 10 24
REMARK SMILES IDX 11 25 12 26 16 27 13 28 15 29 17 30 14 31 30 32 31 33 32 34
REMARK SMILES IDX 33 35 34 36 35 37 36 38 94 39 37 40 93 41 38 42 39 43 40 44
REMARK SMILES IDX 87 45 41 46 92 47 86 48 88 49 42 50 91 51 85 52 84 53 43 55
REMARK SMILES IDX 73 56 54 57 72 58 55 59 58 60 71 61 89 62 56 63 57 64 70 66
REMARK SMILES IDX 90 67 59 68 44 69 45 70 53 71 46 72 52 73 47 74 48 75 49 76
REMARK SMILES IDX 50 77 51 78 74 79 75 80 83 81 76 82 82 83 77 84 78 85 79 86
REMARK SMILES IDX 80 87 81 88 60 89 61 90 69 91 62 92 68 93 63 94 64 95 65 96
REMARK SMILES IDX 66 97 67 98
REMARK H PARENT 21 13 88 54 58 65
REMARK Flexibility Score: inf
ROOT
ATOM      1  O   UNL A   1      45.231  22.435  26.236  1.00  0.00    -0.458 OA
ENDROOT
BRANCH   1   2
ATOM      2  C   UNL A   1      44.220  21.873  25.524  1.00  0.00     0.338 C 
ATOM      3  O   UNL A   1      44.314  21.288  24.458  1.00  0.00    -0.246 OA
BRANCH   2   4
ATOM      4  C   UNL A   1      42.968  21.950  26.315  1.00  0.00     0.062 A 
ATOM      5  C   UNL A   1      40.564  22.022  26.415  1.00  0.00     0.042 A 
ATOM      6  C   UNL A   1      40.618  22.365  27.767  1.00  0.00     0.026 A 
ATOM      7  C   UNL A   1      41.736  21.881  25.676  1.00  0.00     0.041 A 
ATOM      8  C   UNL A   1      41.847  22.373  28.422  1.00  0.00     0.003 A 
ATOM      9  C   UNL A   1      43.012  22.103  27.705  1.00  0.00     0.016 A 
BRANCH   5  10
ATOM     10  N   UNL A   1      39.310  21.765  25.844  1.00  0.00    -0.326 N 
ATOM     11  O   UNL A   1      39.585  19.477  25.521  1.00  0.00    -0.275 OA
ATOM     12  C   UNL A   1      38.910  20.501  25.450  1.00  0.00     0.224 C 
ATOM     13  H   UNL A   1      38.687  22.516  25.717  1.00  0.00     0.169 HD
BRANCH  12  14
ATOM     14  C   UNL A   1      37.507  20.434  24.907  1.00  0.00     0.102 C 
BRANCH  14  15
ATOM     15  C   UNL A   1      36.798  21.787  24.805  1.00  0.00     0.032 C 
BRANCH  15  16
ATOM     16  C   UNL A   1      35.314  21.775  24.401  1.00  0.00     0.128 C 
BRANCH  16  17
ATOM     17  N   UNL A   1      34.530  22.964  24.759  1.00  0.00    -0.293 N 
ATOM     18  C   UNL A   1      34.362  23.982  23.835  1.00  0.00     0.266 C 
ATOM     19  C   UNL A   1      33.793  23.095  25.924  1.00  0.00     0.148 C 
ATOM     20  O   UNL A   1      34.736  23.977  22.670  1.00  0.00    -0.268 OA
ATOM     21  C   UNL A   1      33.647  25.123  24.452  1.00  0.00     0.081 C 
ATOM     22  S   UNL A   1      32.952  24.639  25.939  1.00  0.00    -0.054 SA
ATOM     23  S   UNL A   1      33.666  22.010  27.184  1.00  0.00    -0.052 S 
ATOM     24  C   UNL A   1      33.627  26.327  23.865  1.00  0.00     0.031 C 
BRANCH  24  25
ATOM     25  C   UNL A   1      32.908  27.505  24.364  1.00  0.00    -0.006 A 
ATOM     26  C   UNL A   1      33.671  28.445  25.073  1.00  0.00     0.010 A 
ATOM     27  C   UNL A   1      31.537  27.743  24.174  1.00  0.00     0.048 A 
ATOM     28  C   UNL A   1      33.087  29.617  25.554  1.00  0.00     0.001 A 
ATOM     29  C   UNL A   1      30.959  28.927  24.646  1.00  0.00     0.021 A 
ATOM     30  Cl  UNL A   1      30.504  26.596  23.396  1.00  0.00    -0.084 Cl
ATOM     31  C   UNL A   1      31.735  29.863  25.331  1.00  0.00     0.002 A 
ENDBRANCH  24  25
ENDBRANCH  16  17
ENDBRANCH  15  16
ENDBRANCH  14  15
ENDBRANCH  12  14
ENDBRANCH   5  10
ENDBRANCH   2   4
ENDBRANCH   1   2
BRANCH   1  32
ATOM     32  C   UNL A   1      45.963  23.504  25.609  1.00  0.00     0.275 C 
BRANCH  32  33
ATOM     33  C   UNL A   1      45.012  24.572  25.067  1.00  0.00     0.275 C 
BRANCH  33  34
ATOM     34  O   UNL A   1      44.243  25.150  26.139  1.00  0.00    -0.458 OA
BRANCH  34  35
ATOM     35  C   UNL A   1      43.067  25.708  25.774  1.00  0.00     0.338 C 
ATOM     36  O   UNL A   1      42.448  25.533  24.739  1.00  0.00    -0.246 OA
BRANCH  35  37
ATOM     37  C   UNL A   1      42.530  26.488  26.899  1.00  0.00     0.060 A 
ATOM     38  C   UNL A   1      42.725  27.861  26.861  1.00  0.00     0.016 A 
ATOM     39  C   UNL A   1      41.981  25.895  28.030  1.00  0.00     0.016 A 
ATOM     40  C   UNL A   1      42.463  28.654  27.970  1.00  0.00     0.010 A 
ATOM     41  C   UNL A   1      41.626  26.707  29.120  1.00  0.00     0.010 A 
ATOM     42  C   UNL A   1      41.892  28.091  29.115  1.00  0.00    -0.014 A 
BRANCH  42  43
ATOM     43  C   UNL A   1      41.620  28.951  30.304  1.00  0.00     0.031 A 
ATOM     44  C   UNL A   1      42.525  28.887  31.508  1.00  0.00     0.074 A 
ATOM     45  C   UNL A   1      40.587  29.821  30.296  1.00  0.00     0.049 A 
ATOM     46  N   UNL A   1      42.380  29.447  32.682  1.00  0.00    -0.248 NA
ATOM     47  C   UNL A   1      43.747  28.077  31.380  1.00  0.00     0.031 C 
ATOM     48  C   UNL A   1      39.666  30.038  29.176  1.00  0.00     0.029 A 
ATOM     49  N   UNL A   1      40.143  30.697  31.257  1.00  0.00    -0.354 N 
ATOM     50  C   UNL A   1      43.457  29.013  33.447  1.00  0.00     0.074 A 
ATOM     51  C   UNL A   1      44.243  28.136  32.607  1.00  0.00     0.031 C 
ATOM     52  C   UNL A   1      38.798  31.009  29.498  1.00  0.00     0.029 A 
ATOM     53  C   UNL A   1      39.034  31.418  30.877  1.00  0.00     0.049 A 
ATOM     54  H   UNL A   1      40.577  30.799  32.135  1.00  0.00     0.167 HD
ATOM     55  C   UNL A   1      43.762  29.317  34.733  1.00  0.00     0.031 A 
ATOM     56  C   UNL A   1      38.259  32.277  31.568  1.00  0.00     0.031 A 
ATOM     57  C   UNL A   1      42.993  30.217  35.553  1.00  0.00     0.049 A 
ATOM     58  C   UNL A   1      38.586  32.556  33.009  1.00  0.00     0.074 A 
ATOM     59  C   UNL A   1      43.225  30.596  36.865  1.00  0.00     0.029 A 
ATOM     60  N   UNL A   1      41.852  30.890  35.140  1.00  0.00    -0.354 N 
ATOM     61  N   UNL A   1      39.581  32.099  33.731  1.00  0.00    -0.248 NA
ATOM     62  C   UNL A   1      37.678  33.458  33.731  1.00  0.00     0.031 C 
ATOM     63  C   UNL A   1      42.194  31.454  37.262  1.00  0.00     0.029 A 
ATOM     64  C   UNL A   1      41.358  31.664  36.177  1.00  0.00     0.049 A 
ATOM     65  H   UNL A   1      41.454  30.826  34.243  1.00  0.00     0.167 HD
ATOM     66  C   UNL A   1      39.431  32.674  34.986  1.00  0.00     0.074 A 
ATOM     67  C   UNL A   1      38.262  33.527  34.919  1.00  0.00     0.031 C 
ATOM     68  C   UNL A   1      40.192  32.508  36.097  1.00  0.00     0.031 A 
BRANCH  55  69
ATOM     69  C   UNL A   1      44.953  28.628  35.352  1.00  0.00    -0.014 A 
ATOM     70  C   UNL A   1      44.838  27.376  35.984  1.00  0.00     0.010 A 
ATOM     71  C   UNL A   1      46.220  29.234  35.265  1.00  0.00     0.010 A 
ATOM     72  C   UNL A   1      45.960  26.765  36.552  1.00  0.00     0.020 A 
ATOM     73  C   UNL A   1      47.350  28.612  35.805  1.00  0.00     0.020 A 
ATOM     74  C   UNL A   1      47.209  27.388  36.461  1.00  0.00     0.054 A 
BRANCH  74  75
ATOM     75  S   UNL A   1      48.651  26.563  37.190  1.00  0.00     0.124 S 
ATOM     76  O   UNL A   1      48.905  25.494  36.228  1.00  0.00    -0.237 OA
ATOM     77  O   UNL A   1      49.649  27.630  37.222  1.00  0.00    -0.237 OA
ATOM     78  O   UNL A   1      48.174  26.123  38.499  1.00  0.00    -0.744 OA
ENDBRANCH  74  75
ENDBRANCH  55  69
BRANCH  56  79
ATOM     79  C   UNL A   1      37.068  32.894  30.918  1.00  0.00    -0.014 A 
ATOM     80  C   UNL A   1      37.210  33.973  30.029  1.00  0.00     0.010 A 
ATOM     81  C   UNL A   1      35.779  32.393  31.180  1.00  0.00     0.010 A 
ATOM     82  C   UNL A   1      36.086  34.545  29.424  1.00  0.00     0.020 A 
ATOM     83  C   UNL A   1      34.656  32.939  30.552  1.00  0.00     0.020 A 
ATOM     84  C   UNL A   1      34.816  34.021  29.687  1.00  0.00     0.054 A 
BRANCH  84  85
ATOM     85  S   UNL A   1      33.379  34.744  28.848  1.00  0.00     0.124 S 
ATOM     86  O   UNL A   1      33.000  33.680  27.925  1.00  0.00    -0.237 OA
ATOM     87  O   UNL A   1      32.455  34.984  29.952  1.00  0.00    -0.237 OA
ATOM     88  O   UNL A   1      33.918  35.951  28.224  1.00  0.00    -0.744 OA
ENDBRANCH  84  85
ENDBRANCH  56  79
BRANCH  68  89
ATOM     89  C   UNL A   1      39.809  33.300  37.319  1.00  0.00    -0.014 A 
ATOM     90  C   UNL A   1      39.068  32.723  38.365  1.00  0.00     0.010 A 
ATOM     91  C   UNL A   1      40.234  34.638  37.435  1.00  0.00     0.010 A 
ATOM     92  C   UNL A   1      38.724  33.480  39.488  1.00  0.00     0.020 A 
ATOM     93  C   UNL A   1      39.918  35.388  38.570  1.00  0.00     0.020 A 
ATOM     94  C   UNL A   1      39.151  34.809  39.582  1.00  0.00     0.054 A 
BRANCH  94  95
ATOM     95  S   UNL A   1      38.719  35.762  41.064  1.00  0.00     0.124 S 
ATOM     96  O   UNL A   1      39.882  35.537  41.919  1.00  0.00    -0.237 OA
ATOM     97  O   UNL A   1      38.575  37.118  40.543  1.00  0.00    -0.237 OA
ATOM     98  O   UNL A   1      37.479  35.143  41.525  1.00  0.00    -0.744 OA
ENDBRANCH  94  95
ENDBRANCH  68  89
ENDBRANCH  42  43
ENDBRANCH  35  37
ENDBRANCH  34  35
ENDBRANCH  33  34
ENDBRANCH  32  33
ENDBRANCH   1  32
TORSDOF 20
ENDMDL
MODEL 3
REMARK VINA RESULT:     -10.5      1.451      2.497
REMARK SMILES O=C(CCCN1C(=O)/C(=C/c2ccccc2Cl)SC1=S)Nc1cccc(C(=O)OCCOC(=O)c2ccc(-c3c4nc(c(-c5ccc(S(=O)(=O)[O-])cc5)c5ccc([nH]5)c(-c5ccc(S(=O)(=O)[O-])cc5)c5nc(c(-c6ccc(S(=O)(=O)[O-])cc6)c6ccc3[nH]6)C=C5)C=C4)cc2)c1
REMARK SMILES IDX 29 1 27 2 28 3 26 4 22 5 23 6 95 7 24 8 25 9 21 10 1 11 2 12
REMARK SMILES IDX 3 14 4 15 5 16 6 17 7 18 19 19 8 20 9 21 18 22 20 23 10 24
REMARK SMILES IDX 11 25 12 26 16 27 13 28 15 29 17 30 14 31 30 32 31 33 32 34
REMARK SMILES IDX 33 35 34 36 35 37 36 38 94 39 37 40 93 41 38 42 39 43 40 44
REMARK SMILES IDX 87 45 41 46 92 47 86 48 88 49 42 50 91 51 85 52 84 53 43 55
REMARK SMILES IDX 73 56 54 57 72 58 55 59 58 60 71 61 89 62 56 63 57 64 70 66
REMARK SMILES IDX 90 67 59 68 44 69 45 70 53 71 46 72 52 73 47 74 48 75 49 76
REMARK SMILES IDX 50 77 51 78 74 79 75 80 83 81 76 82 82 83 77 84 78 85 79 86
REMARK SMILES IDX 80 87 81 88 60 89 61 90 69 91 62 92 68 93 63 94 64 95 65 96
REMARK SMILES IDX 66 97 67 98
REMARK H PARENT 21 13 88 54 58 65
REMARK Flexibility Score: inf
ROOT
ATOM      1  O   UNL A   1      45.409  23.119  26.543  1.00  0.00    -0.458 OA
ENDROOT
BRANCH   1   2
ATOM      2  C   UNL A   1      44.453  22.388  25.912  1.00  0.00     0.338 C 
ATOM      3  O   UNL A   1      44.615  21.630  24.972  1.00  0.00    -0.246 OA
BRANCH   2   4
ATOM      4  C   UNL A   1      43.169  22.538  26.639  1.00  0.00     0.062 A 
ATOM      5  C   UNL A   1      40.810  23.015  26.630  1.00  0.00     0.042 A 
ATOM      6  C   UNL A   1      40.806  23.087  28.024  1.00  0.00     0.026 A 
ATOM      7  C   UNL A   1      42.000  22.808  25.938  1.00  0.00     0.041 A 
ATOM      8  C   UNL A   1      41.961  22.758  28.729  1.00  0.00     0.003 A 
ATOM      9  C   UNL A   1      43.122  22.422  28.033  1.00  0.00     0.016 A 
BRANCH   5  10
ATOM     10  N   UNL A   1      39.582  23.094  25.957  1.00  0.00    -0.326 N 
ATOM     11  O   UNL A   1      39.094  20.818  25.946  1.00  0.00    -0.275 OA
ATOM     12  C   UNL A   1      38.808  21.982  25.676  1.00  0.00     0.224 C 
ATOM     13  H   UNL A   1      39.257  23.978  25.671  1.00  0.00     0.169 HD
BRANCH  12  14
ATOM     14  C   UNL A   1      37.503  22.291  24.992  1.00  0.00     0.102 C 
BRANCH  14  15
ATOM     15  C   UNL A   1      36.284  21.596  25.601  1.00  0.00     0.032 C 
BRANCH  15  16
ATOM     16  C   UNL A   1      35.015  21.514  24.736  1.00  0.00     0.128 C 
BRANCH  16  17
ATOM     17  N   UNL A   1      34.115  22.674  24.783  1.00  0.00    -0.293 N 
ATOM     18  C   UNL A   1      33.964  23.473  23.662  1.00  0.00     0.266 C 
ATOM     19  C   UNL A   1      33.261  22.960  25.834  1.00  0.00     0.148 C 
ATOM     20  O   UNL A   1      34.447  23.276  22.556  1.00  0.00    -0.268 OA
ATOM     21  C   UNL A   1      33.111  24.643  23.977  1.00  0.00     0.081 C 
ATOM     22  S   UNL A   1      32.312  24.395  25.471  1.00  0.00    -0.054 SA
ATOM     23  S   UNL A   1      33.093  22.134  27.273  1.00  0.00    -0.052 S 
ATOM     24  C   UNL A   1      33.060  25.703  23.161  1.00  0.00     0.031 C 
BRANCH  24  25
ATOM     25  C   UNL A   1      32.212  26.885  23.352  1.00  0.00    -0.006 A 
ATOM     26  C   UNL A   1      31.115  27.011  22.487  1.00  0.00     0.010 A 
ATOM     27  C   UNL A   1      32.426  27.872  24.329  1.00  0.00     0.048 A 
ATOM     28  C   UNL A   1      30.228  28.080  22.614  1.00  0.00     0.001 A 
ATOM     29  C   UNL A   1      31.526  28.934  24.462  1.00  0.00     0.021 A 
ATOM     30  Cl  UNL A   1      33.803  27.847  25.374  1.00  0.00    -0.084 Cl
ATOM     31  C   UNL A   1      30.426  29.034  23.608  1.00  0.00     0.002 A 
ENDBRANCH  24  25
ENDBRANCH  16  17
ENDBRANCH  15  16
ENDBRANCH  14  15
ENDBRANCH  12  14
ENDBRANCH   5  10
ENDBRANCH   2   4
ENDBRANCH   1   2
BRANCH   1  32
ATOM     32  C   UNL A   1      46.183  24.027  25.736  1.00  0.00     0.275 C 
BRANCH  32  33
ATOM     33  C   UNL A   1      45.312  25.171  25.215  1.00  0.00     0.275 C 
BRANCH  33  34
ATOM     34  O   UNL A   1      44.518  25.724  26.281  1.00  0.00    -0.458 OA
BRANCH  34  35
ATOM     35  C   UNL A   1      43.362  26.312  25.899  1.00  0.00     0.338 C 
ATOM     36  O   UNL A   1      42.805  26.230  24.818  1.00  0.00    -0.246 OA
BRANCH  35  37
ATOM     37  C   UNL A   1      42.758  26.991  27.055  1.00  0.00     0.060 A 
ATOM     38  C   UNL A   1      43.136  28.307  27.279  1.00  0.00     0.016 A 
ATOM     39  C   UNL A   1      41.959  26.330  27.981  1.00  0.00     0.016 A 
ATOM     40  C   UNL A   1      42.805  28.957  28.460  1.00  0.00     0.010 A 
ATOM     41  C   UNL A   1      41.542  27.017  29.133  1.00  0.00     0.010 A 
ATOM     42  C   UNL A   1      41.986  28.328  29.402  1.00  0.00    -0.014 A 
BRANCH  42  43
ATOM     43  C   UNL A   1      41.641  29.033  30.670  1.00  0.00     0.031 A 
ATOM     44  C   UNL A   1      40.425  29.923  30.735  1.00  0.00     0.074 A 
ATOM     45  C   UNL A   1      42.389  28.851  31.779  1.00  0.00     0.049 A 
ATOM     46  N   UNL A   1      40.037  30.724  31.695  1.00  0.00    -0.248 NA
ATOM     47  C   UNL A   1      39.536  29.921  29.562  1.00  0.00     0.031 C 
ATOM     48  C   UNL A   1      43.556  27.970  31.882  1.00  0.00     0.029 A 
ATOM     49  N   UNL A   1      42.274  29.387  33.039  1.00  0.00    -0.354 N 
ATOM     50  C   UNL A   1      38.896  31.361  31.221  1.00  0.00     0.074 A 
ATOM     51  C   UNL A   1      38.658  30.860  29.885  1.00  0.00     0.031 C 
ATOM     52  C   UNL A   1      44.021  27.995  33.141  1.00  0.00     0.029 A 
ATOM     53  C   UNL A   1      43.250  28.964  33.911  1.00  0.00     0.049 A 
ATOM     54  H   UNL A   1      41.560  30.016  33.293  1.00  0.00     0.167 HD
ATOM     55  C   UNL A   1      38.117  32.281  31.842  1.00  0.00     0.031 A 
ATOM     56  C   UNL A   1      43.531  29.340  35.175  1.00  0.00     0.031 A 
ATOM     57  C   UNL A   1      38.340  32.751  33.185  1.00  0.00     0.049 A 
ATOM     58  C   UNL A   1      42.687  30.402  35.823  1.00  0.00     0.074 A 
ATOM     59  C   UNL A   1      37.603  33.675  33.907  1.00  0.00     0.029 A 
ATOM     60  N   UNL A   1      39.368  32.326  34.015  1.00  0.00    -0.354 N 
ATOM     61  N   UNL A   1      41.639  31.028  35.342  1.00  0.00    -0.248 NA
ATOM     62  C   UNL A   1      43.069  30.814  37.180  1.00  0.00     0.031 C 
ATOM     63  C   UNL A   1      38.217  33.849  35.152  1.00  0.00     0.029 A 
ATOM     64  C   UNL A   1      39.296  32.985  35.232  1.00  0.00     0.049 A 
ATOM     65  H   UNL A   1      40.047  31.656  33.774  1.00  0.00     0.167 HD
ATOM     66  C   UNL A   1      41.225  31.895  36.346  1.00  0.00     0.074 A 
ATOM     67  C   UNL A   1      42.122  31.696  37.467  1.00  0.00     0.031 C 
ATOM     68  C   UNL A   1      40.196  32.778  36.339  1.00  0.00     0.031 A 
BRANCH  55  69
ATOM     69  C   UNL A   1      36.979  32.882  31.056  1.00  0.00    -0.014 A 
ATOM     70  C   UNL A   1      37.203  33.672  29.914  1.00  0.00     0.010 A 
ATOM     71  C   UNL A   1      35.654  32.617  31.451  1.00  0.00     0.010 A 
ATOM     72  C   UNL A   1      36.127  34.218  29.208  1.00  0.00     0.020 A 
ATOM     73  C   UNL A   1      34.574  33.136  30.732  1.00  0.00     0.020 A 
ATOM     74  C   UNL A   1      34.818  33.949  29.623  1.00  0.00     0.054 A 
BRANCH  74  75
ATOM     75  S   UNL A   1      33.440  34.655  28.678  1.00  0.00     0.124 S 
ATOM     76  O   UNL A   1      32.450  34.898  29.724  1.00  0.00    -0.237 OA
ATOM     77  O   UNL A   1      34.036  35.851  28.087  1.00  0.00    -0.237 OA
ATOM     78  O   UNL A   1      33.094  33.600  27.727  1.00  0.00    -0.744 OA
ENDBRANCH  74  75
ENDBRANCH  55  69
BRANCH  56  79
ATOM     79  C   UNL A   1      44.697  28.745  35.888  1.00  0.00    -0.014 A 
ATOM     80  C   UNL A   1      44.555  27.568  36.643  1.00  0.00     0.010 A 
ATOM     81  C   UNL A   1      45.964  29.352  35.804  1.00  0.00     0.010 A 
ATOM     82  C   UNL A   1      45.656  27.017  37.309  1.00  0.00     0.020 A 
ATOM     83  C   UNL A   1      47.073  28.786  36.439  1.00  0.00     0.020 A 
ATOM     84  C   UNL A   1      46.908  27.628  37.199  1.00  0.00     0.054 A 
BRANCH  84  85
ATOM     85  S   UNL A   1      48.332  26.865  38.026  1.00  0.00     0.124 S 
ATOM     86  O   UNL A   1      48.352  27.569  39.304  1.00  0.00    -0.237 OA
ATOM     87  O   UNL A   1      47.947  25.458  38.084  1.00  0.00    -0.237 OA
ATOM     88  O   UNL A   1      49.448  27.162  37.130  1.00  0.00    -0.744 OA
ENDBRANCH  84  85
ENDBRANCH  56  79
BRANCH  68  89
ATOM     89  C   UNL A   1      39.957  33.566  37.599  1.00  0.00    -0.014 A 
ATOM     90  C   UNL A   1      40.537  34.832  37.796  1.00  0.00     0.010 A 
ATOM     91  C   UNL A   1      39.103  33.042  38.589  1.00  0.00     0.010 A 
ATOM     92  C   UNL A   1      40.300  35.542  38.975  1.00  0.00     0.020 A 
ATOM     93  C   UNL A   1      38.839  33.763  39.756  1.00  0.00     0.020 A 
ATOM     94  C   UNL A   1      39.453  35.003  39.949  1.00  0.00     0.054 A 
BRANCH  94  95
ATOM     95  S   UNL A   1      39.135  35.958  41.457  1.00  0.00     0.124 S 
ATOM     96  O   UNL A   1      39.282  37.332  40.983  1.00  0.00    -0.237 OA
ATOM     97  O   UNL A   1      37.776  35.557  41.811  1.00  0.00    -0.237 OA
ATOM     98  O   UNL A   1      40.173  35.503  42.381  1.00  0.00    -0.744 OA
ENDBRANCH  94  95
ENDBRANCH  68  89
ENDBRANCH  42  43
ENDBRANCH  35  37
ENDBRANCH  34  35
ENDBRANCH  33  34
ENDBRANCH  32  33
ENDBRANCH   1  32
TORSDOF 20
ENDMDL
