MODEL 1
REMARK VINA RESULT:      -9.0      0.000      0.000
REMARK SMILES C[C@@H](C(=O)OCCOC(=O)c1ccc(-c2c3nc(c(-c4ccc(S(=O)(=O)[O-])cc4)c4ccc([nH]4)c(-c4ccc(S(=O)(=O)[O-])cc4)c4nc(c(-c5ccc(S(=O)(=O)[O-])cc5)c5ccc2[nH]5)C=C4)C=C3)cc1)c1ccc(Cc2ccsc2)cc1F
REMARK SMILES IDX 6 1 5 2 3 3 4 4 2 5 1 6 71 7 72 8 82 9 73 10 81 11 83 12
REMARK SMILES IDX 74 13 75 14 76 15 77 16 80 17 78 18 79 19 7 20 8 21 9 22
REMARK SMILES IDX 10 23 11 24 12 25 70 26 13 27 69 28 14 29 15 30 16 31 63 32
REMARK SMILES IDX 17 33 68 34 62 35 64 36 18 37 67 38 61 39 60 40 19 42 49 43
REMARK SMILES IDX 30 44 48 45 31 46 34 47 47 48 65 49 32 50 33 51 46 53 66 54
REMARK SMILES IDX 35 55 20 56 21 57 29 58 22 59 28 60 23 61 24 62 25 63 26 64
REMARK SMILES IDX 27 65 50 66 51 67 59 68 52 69 58 70 53 71 54 72 55 73 56 74
REMARK SMILES IDX 57 75 36 76 37 77 45 78 38 79 44 80 39 81 40 82 41 83 42 84
REMARK SMILES IDX 43 85
REMARK H PARENT 64 41 34 52
REMARK Flexibility Score: inf
ROOT
ATOM      1  C   UNL A   1      40.290  20.028  26.276  1.00  0.00     0.274 C 
ENDROOT
BRANCH   1   2
ATOM      2  O   UNL A   1      41.341  19.435  25.488  1.00  0.00    -0.462 OA
BRANCH   2   3
ATOM      3  C   UNL A   1      42.562  19.344  26.092  1.00  0.00     0.313 C 
ATOM      4  O   UNL A   1      42.719  18.840  27.196  1.00  0.00    -0.252 OA
BRANCH   3   5
ATOM      5  C   UNL A   1      43.679  20.011  25.262  1.00  0.00     0.129 C 
ATOM      6  C   UNL A   1      45.035  19.322  25.474  1.00  0.00     0.025 C 
BRANCH   5   7
ATOM      7  C   UNL A   1      43.725  21.526  25.468  1.00  0.00     0.002 A 
ATOM      8  C   UNL A   1      43.259  22.169  26.623  1.00  0.00     0.008 A 
ATOM      9  C   UNL A   1      44.252  22.345  24.462  1.00  0.00     0.127 A 
ATOM     10  C   UNL A   1      43.323  23.568  26.754  1.00  0.00     0.004 A 
ATOM     11  C   UNL A   1      44.243  23.739  24.557  1.00  0.00     0.043 A 
ATOM     12  F   UNL A   1      44.804  21.788  23.375  1.00  0.00    -0.207 F 
ATOM     13  C   UNL A   1      43.764  24.387  25.709  1.00  0.00    -0.041 A 
BRANCH  13  14
ATOM     14  C   UNL A   1      43.972  25.882  25.828  1.00  0.00     0.072 C 
BRANCH  14  15
ATOM     15  C   UNL A   1      45.407  26.344  25.880  1.00  0.00    -0.033 A 
ATOM     16  C   UNL A   1      46.499  25.903  26.706  1.00  0.00     0.015 A 
ATOM     17  C   UNL A   1      45.894  27.244  24.937  1.00  0.00     0.068 A 
ATOM     18  C   UNL A   1      47.723  26.387  26.299  1.00  0.00     0.065 A 
ATOM     19  S   UNL A   1      47.590  27.422  24.956  1.00  0.00    -0.152 S 
ENDBRANCH  14  15
ENDBRANCH  13  14
ENDBRANCH   5   7
ENDBRANCH   3   5
ENDBRANCH   2   3
ENDBRANCH   1   2
BRANCH   1  20
ATOM     20  C   UNL A   1      39.781  21.332  25.658  1.00  0.00     0.275 C 
BRANCH  20  21
ATOM     21  O   UNL A   1      39.012  22.102  26.599  1.00  0.00    -0.458 OA
BRANCH  21  22
ATOM     22  C   UNL A   1      38.560  23.295  26.146  1.00  0.00     0.338 C 
ATOM     23  O   UNL A   1      37.660  23.489  25.347  1.00  0.00    -0.246 OA
BRANCH  22  24
ATOM     24  C   UNL A   1      39.261  24.389  26.838  1.00  0.00     0.060 A 
ATOM     25  C   UNL A   1      39.040  24.534  28.201  1.00  0.00     0.016 A 
ATOM     26  C   UNL A   1      40.014  25.338  26.147  1.00  0.00     0.016 A 
ATOM     27  C   UNL A   1      39.512  25.654  28.875  1.00  0.00     0.010 A 
ATOM     28  C   UNL A   1      40.543  26.440  26.841  1.00  0.00     0.010 A 
ATOM     29  C   UNL A   1      40.271  26.625  28.209  1.00  0.00    -0.014 A 
BRANCH  29  30
ATOM     30  C   UNL A   1      40.692  27.843  28.962  1.00  0.00     0.031 A 
ATOM     31  C   UNL A   1      42.124  28.000  29.411  1.00  0.00     0.074 A 
ATOM     32  C   UNL A   1      39.831  28.870  29.116  1.00  0.00     0.049 A 
ATOM     33  N   UNL A   1      42.680  28.984  30.072  1.00  0.00    -0.248 NA
ATOM     34  C   UNL A   1      43.057  26.913  29.067  1.00  0.00     0.031 C 
ATOM     35  C   UNL A   1      38.435  28.878  28.670  1.00  0.00     0.029 A 
ATOM     36  N   UNL A   1      40.012  30.127  29.643  1.00  0.00    -0.354 N 
ATOM     37  C   UNL A   1      44.026  28.659  30.183  1.00  0.00     0.074 A 
ATOM     38  C   UNL A   1      44.190  27.341  29.609  1.00  0.00     0.031 C 
ATOM     39  C   UNL A   1      37.912  30.097  28.878  1.00  0.00     0.029 A 
ATOM     40  C   UNL A   1      38.907  30.939  29.532  1.00  0.00     0.049 A 
ATOM     41  H   UNL A   1      40.855  30.419  30.061  1.00  0.00     0.167 HD
ATOM     42  C   UNL A   1      45.050  29.412  30.653  1.00  0.00     0.031 A 
ATOM     43  C   UNL A   1      38.707  32.216  29.920  1.00  0.00     0.031 A 
ATOM     44  C   UNL A   1      44.916  30.749  31.163  1.00  0.00     0.049 A 
ATOM     45  C   UNL A   1      39.820  32.959  30.603  1.00  0.00     0.074 A 
ATOM     46  C   UNL A   1      45.898  31.570  31.692  1.00  0.00     0.029 A 
ATOM     47  N   UNL A   1      43.737  31.476  31.181  1.00  0.00    -0.354 N 
ATOM     48  N   UNL A   1      41.064  32.590  30.789  1.00  0.00    -0.248 NA
ATOM     49  C   UNL A   1      39.497  34.286  31.150  1.00  0.00     0.031 C 
ATOM     50  C   UNL A   1      45.305  32.784  32.060  1.00  0.00     0.029 A 
ATOM     51  C   UNL A   1      43.961  32.730  31.727  1.00  0.00     0.049 A 
ATOM     52  H   UNL A   1      42.867  31.150  30.854  1.00  0.00     0.167 HD
ATOM     53  C   UNL A   1      41.674  33.640  31.464  1.00  0.00     0.074 A 
ATOM     54  C   UNL A   1      40.670  34.670  31.637  1.00  0.00     0.031 C 
ATOM     55  C   UNL A   1      42.951  33.740  31.908  1.00  0.00     0.031 A 
BRANCH  42  56
ATOM     56  C   UNL A   1      46.426  28.806  30.614  1.00  0.00    -0.014 A 
ATOM     57  C   UNL A   1      46.934  28.107  31.722  1.00  0.00     0.010 A 
ATOM     58  C   UNL A   1      47.200  28.902  29.445  1.00  0.00     0.010 A 
ATOM     59  C   UNL A   1      48.211  27.542  31.675  1.00  0.00     0.020 A 
ATOM     60  C   UNL A   1      48.471  28.322  29.388  1.00  0.00     0.020 A 
ATOM     61  C   UNL A   1      48.974  27.660  30.510  1.00  0.00     0.054 A 
BRANCH  61  62
ATOM     62  S   UNL A   1      50.626  26.911  30.473  1.00  0.00     0.124 S 
ATOM     63  O   UNL A   1      51.490  28.090  30.447  1.00  0.00    -0.237 OA
ATOM     64  O   UNL A   1      50.657  26.139  31.713  1.00  0.00    -0.237 OA
ATOM     65  O   UNL A   1      50.621  26.117  29.246  1.00  0.00    -0.744 OA
ENDBRANCH  61  62
ENDBRANCH  42  56
BRANCH  43  66
ATOM     66  C   UNL A   1      37.379  32.862  29.718  1.00  0.00    -0.014 A 
ATOM     67  C   UNL A   1      36.419  32.878  30.745  1.00  0.00     0.010 A 
ATOM     68  C   UNL A   1      37.063  33.452  28.480  1.00  0.00     0.010 A 
ATOM     69  C   UNL A   1      35.165  33.462  30.534  1.00  0.00     0.020 A 
ATOM     70  C   UNL A   1      35.822  34.062  28.275  1.00  0.00     0.020 A 
ATOM     71  C   UNL A   1      34.875  34.050  29.300  1.00  0.00     0.054 A 
BRANCH  71  72
ATOM     72  S   UNL A   1      33.263  34.846  29.054  1.00  0.00     0.124 S 
ATOM     73  O   UNL A   1      33.649  36.170  28.577  1.00  0.00    -0.237 OA
ATOM     74  O   UNL A   1      32.623  33.979  28.068  1.00  0.00    -0.237 OA
ATOM     75  O   UNL A   1      32.661  34.809  30.385  1.00  0.00    -0.744 OA
ENDBRANCH  71  72
ENDBRANCH  43  66
BRANCH  55  76
ATOM     76  C   UNL A   1      43.334  35.003  32.627  1.00  0.00    -0.014 A 
ATOM     77  C   UNL A   1      43.814  36.115  31.912  1.00  0.00     0.010 A 
ATOM     78  C   UNL A   1      43.171  35.100  34.020  1.00  0.00     0.010 A 
ATOM     79  C   UNL A   1      44.145  37.296  32.581  1.00  0.00     0.020 A 
ATOM     80  C   UNL A   1      43.481  36.287  34.690  1.00  0.00     0.020 A 
ATOM     81  C   UNL A   1      43.976  37.375  33.967  1.00  0.00     0.054 A 
BRANCH  81  82
ATOM     82  S   UNL A   1      44.363  38.936  34.807  1.00  0.00     0.124 S 
ATOM     83  O   UNL A   1      43.418  39.859  34.186  1.00  0.00    -0.237 OA
ATOM     84  O   UNL A   1      44.103  38.621  36.211  1.00  0.00    -0.237 OA
ATOM     85  O   UNL A   1      45.768  39.165  34.479  1.00  0.00    -0.744 OA
ENDBRANCH  81  82
ENDBRANCH  55  76
ENDBRANCH  29  30
ENDBRANCH  22  24
ENDBRANCH  21  22
ENDBRANCH  20  21
ENDBRANCH   1  20
TORSDOF 17
ENDMDL
MODEL 2
REMARK VINA RESULT:      -9.0      5.509     12.560
REMARK SMILES C[C@@H](C(=O)OCCOC(=O)c1ccc(-c2c3nc(c(-c4ccc(S(=O)(=O)[O-])cc4)c4ccc([nH]4)c(-c4ccc(S(=O)(=O)[O-])cc4)c4nc(c(-c5ccc(S(=O)(=O)[O-])cc5)c5ccc2[nH]5)C=C4)C=C3)cc1)c1ccc(Cc2ccsc2)cc1F
REMARK SMILES IDX 6 1 5 2 3 3 4 4 2 5 1 6 71 7 72 8 82 9 73 10 81 11 83 12
REMARK SMILES IDX 74 13 75 14 76 15 77 16 80 17 78 18 79 19 7 20 8 21 9 22
REMARK SMILES IDX 10 23 11 24 12 25 70 26 13 27 69 28 14 29 15 30 16 31 63 32
REMARK SMILES IDX 17 33 68 34 62 35 64 36 18 37 67 38 61 39 60 40 19 42 49 43
REMARK SMILES IDX 30 44 48 45 31 46 34 47 47 48 65 49 32 50 33 51 46 53 66 54
REMARK SMILES IDX 35 55 20 56 21 57 29 58 22 59 28 60 23 61 24 62 25 63 26 64
REMARK SMILES IDX 27 65 50 66 51 67 59 68 52 69 58 70 53 71 54 72 55 73 56 74
REMARK SMILES IDX 57 75 36 76 37 77 45 78 38 79 44 80 39 81 40 82 41 83 42 84
REMARK SMILES IDX 43 85
REMARK H PARENT 64 41 34 52
REMARK Flexibility Score: inf
ROOT
ATOM      1  C   UNL A   1      34.561  29.657  26.962  1.00  0.00     0.274 C 
ENDROOT
BRANCH   1   2
ATOM      2  O   UNL A   1      34.296  28.240  26.924  1.00  0.00    -0.462 OA
BRANCH   2   3
ATOM      3  C   UNL A   1      32.981  27.877  26.959  1.00  0.00     0.313 C 
ATOM      4  O   UNL A   1      32.214  28.252  27.836  1.00  0.00    -0.252 OA
BRANCH   3   5
ATOM      5  C   UNL A   1      32.612  26.896  25.827  1.00  0.00     0.129 C 
ATOM      6  C   UNL A   1      33.850  26.443  25.040  1.00  0.00     0.025 C 
BRANCH   5   7
ATOM      7  C   UNL A   1      31.488  27.436  24.940  1.00  0.00     0.002 A 
ATOM      8  C   UNL A   1      31.444  28.749  24.451  1.00  0.00     0.008 A 
ATOM      9  C   UNL A   1      30.425  26.596  24.584  1.00  0.00     0.127 A 
ATOM     10  C   UNL A   1      30.381  29.190  23.643  1.00  0.00     0.004 A 
ATOM     11  C   UNL A   1      29.330  27.055  23.847  1.00  0.00     0.043 A 
ATOM     12  F   UNL A   1      30.455  25.303  24.936  1.00  0.00    -0.207 F 
ATOM     13  C   UNL A   1      29.277  28.375  23.367  1.00  0.00    -0.041 A 
BRANCH  13  14
ATOM     14  C   UNL A   1      28.165  28.745  22.409  1.00  0.00     0.072 C 
BRANCH  14  15
ATOM     15  C   UNL A   1      27.948  30.221  22.189  1.00  0.00    -0.033 A 
ATOM     16  C   UNL A   1      27.776  31.288  23.138  1.00  0.00     0.015 A 
ATOM     17  C   UNL A   1      28.040  30.767  20.913  1.00  0.00     0.068 A 
ATOM     18  C   UNL A   1      27.849  32.542  22.571  1.00  0.00     0.065 A 
ATOM     19  S   UNL A   1      28.070  32.472  20.886  1.00  0.00    -0.152 S 
ENDBRANCH  14  15
ENDBRANCH  13  14
ENDBRANCH   5   7
ENDBRANCH   3   5
ENDBRANCH   2   3
ENDBRANCH   1   2
BRANCH   1  20
ATOM     20  C   UNL A   1      35.086  30.102  28.328  1.00  0.00     0.275 C 
BRANCH  20  21
ATOM     21  O   UNL A   1      36.516  30.268  28.321  1.00  0.00    -0.458 OA
BRANCH  21  22
ATOM     22  C   UNL A   1      37.195  29.518  29.220  1.00  0.00     0.338 C 
ATOM     23  O   UNL A   1      36.792  29.109  30.294  1.00  0.00    -0.246 OA
BRANCH  22  24
ATOM     24  C   UNL A   1      38.515  29.162  28.674  1.00  0.00     0.060 A 
ATOM     25  C   UNL A   1      39.511  28.810  29.576  1.00  0.00     0.016 A 
ATOM     26  C   UNL A   1      38.816  29.301  27.319  1.00  0.00     0.016 A 
ATOM     27  C   UNL A   1      40.823  28.653  29.148  1.00  0.00     0.010 A 
ATOM     28  C   UNL A   1      40.133  29.083  26.878  1.00  0.00     0.010 A 
ATOM     29  C   UNL A   1      41.158  28.786  27.794  1.00  0.00    -0.014 A 
BRANCH  29  30
ATOM     30  C   UNL A   1      42.593  28.679  27.399  1.00  0.00     0.031 A 
ATOM     31  C   UNL A   1      43.548  29.808  27.696  1.00  0.00     0.074 A 
ATOM     32  C   UNL A   1      43.070  27.517  26.906  1.00  0.00     0.049 A 
ATOM     33  N   UNL A   1      44.828  29.899  27.432  1.00  0.00    -0.248 NA
ATOM     34  C   UNL A   1      42.998  30.987  28.386  1.00  0.00     0.031 C 
ATOM     35  C   UNL A   1      42.268  26.321  26.631  1.00  0.00     0.029 A 
ATOM     36  N   UNL A   1      44.352  27.128  26.595  1.00  0.00    -0.354 N 
ATOM     37  C   UNL A   1      45.242  31.116  27.960  1.00  0.00     0.074 A 
ATOM     38  C   UNL A   1      44.061  31.776  28.474  1.00  0.00     0.031 C 
ATOM     39  C   UNL A   1      43.082  25.319  26.262  1.00  0.00     0.029 A 
ATOM     40  C   UNL A   1      44.453  25.812  26.208  1.00  0.00     0.049 A 
ATOM     41  H   UNL A   1      45.126  27.735  26.646  1.00  0.00     0.167 HD
ATOM     42  C   UNL A   1      46.497  31.613  28.076  1.00  0.00     0.031 A 
ATOM     43  C   UNL A   1      45.525  25.080  25.837  1.00  0.00     0.031 A 
ATOM     44  C   UNL A   1      47.689  30.941  27.634  1.00  0.00     0.049 A 
ATOM     45  C   UNL A   1      46.881  25.727  25.808  1.00  0.00     0.074 A 
ATOM     46  C   UNL A   1      48.998  31.390  27.682  1.00  0.00     0.029 A 
ATOM     47  N   UNL A   1      47.724  29.666  27.093  1.00  0.00    -0.354 N 
ATOM     48  N   UNL A   1      47.233  26.921  26.220  1.00  0.00    -0.248 NA
ATOM     49  C   UNL A   1      47.984  24.935  25.244  1.00  0.00     0.031 C 
ATOM     50  C   UNL A   1      49.823  30.397  27.139  1.00  0.00     0.029 A 
ATOM     51  C   UNL A   1      49.029  29.317  26.787  1.00  0.00     0.049 A 
ATOM     52  H   UNL A   1      46.938  29.091  26.949  1.00  0.00     0.167 HD
ATOM     53  C   UNL A   1      48.597  27.020  25.974  1.00  0.00     0.074 A 
ATOM     54  C   UNL A   1      49.013  25.758  25.396  1.00  0.00     0.031 C 
ATOM     55  C   UNL A   1      49.430  28.066  26.199  1.00  0.00     0.031 A 
BRANCH  42  56
ATOM     56  C   UNL A   1      46.648  32.956  28.735  1.00  0.00    -0.014 A 
ATOM     57  C   UNL A   1      46.654  34.135  27.970  1.00  0.00     0.010 A 
ATOM     58  C   UNL A   1      46.745  33.043  30.135  1.00  0.00     0.010 A 
ATOM     59  C   UNL A   1      46.789  35.379  28.591  1.00  0.00     0.020 A 
ATOM     60  C   UNL A   1      46.862  34.286  30.761  1.00  0.00     0.020 A 
ATOM     61  C   UNL A   1      46.899  35.446  29.984  1.00  0.00     0.054 A 
BRANCH  61  62
ATOM     62  S   UNL A   1      47.066  37.075  30.766  1.00  0.00     0.124 S 
ATOM     63  O   UNL A   1      47.872  36.760  31.944  1.00  0.00    -0.237 OA
ATOM     64  O   UNL A   1      47.743  37.858  29.735  1.00  0.00    -0.237 OA
ATOM     65  O   UNL A   1      45.688  37.471  31.043  1.00  0.00    -0.744 OA
ENDBRANCH  61  62
ENDBRANCH  42  56
BRANCH  43  66
ATOM     66  C   UNL A   1      45.355  23.661  25.415  1.00  0.00    -0.014 A 
ATOM     67  C   UNL A   1      45.546  22.608  26.326  1.00  0.00     0.010 A 
ATOM     68  C   UNL A   1      45.017  23.357  24.083  1.00  0.00     0.010 A 
ATOM     69  C   UNL A   1      45.414  21.278  25.911  1.00  0.00     0.020 A 
ATOM     70  C   UNL A   1      44.855  22.032  23.671  1.00  0.00     0.020 A 
ATOM     71  C   UNL A   1      45.069  20.999  24.586  1.00  0.00     0.054 A 
BRANCH  71  72
ATOM     72  S   UNL A   1      44.852  19.272  24.071  1.00  0.00     0.124 S 
ATOM     73  O   UNL A   1      46.187  18.724  24.282  1.00  0.00    -0.237 OA
ATOM     74  O   UNL A   1      43.818  18.792  24.984  1.00  0.00    -0.237 OA
ATOM     75  O   UNL A   1      44.433  19.386  22.675  1.00  0.00    -0.744 OA
ENDBRANCH  71  72
ENDBRANCH  43  66
BRANCH  55  76
ATOM     76  C   UNL A   1      50.873  27.892  25.817  1.00  0.00    -0.014 A 
ATOM     77  C   UNL A   1      51.777  27.272  26.698  1.00  0.00     0.010 A 
ATOM     78  C   UNL A   1      51.323  28.308  24.551  1.00  0.00     0.010 A 
ATOM     79  C   UNL A   1      53.111  27.090  26.329  1.00  0.00     0.020 A 
ATOM     80  C   UNL A   1      52.653  28.107  24.170  1.00  0.00     0.020 A 
ATOM     81  C   UNL A   1      53.542  27.509  25.066  1.00  0.00     0.054 A 
BRANCH  81  82
ATOM     82  S   UNL A   1      55.268  27.215  24.589  1.00  0.00     0.124 S 
ATOM     83  O   UNL A   1      55.130  26.767  23.206  1.00  0.00    -0.237 OA
ATOM     84  O   UNL A   1      55.881  28.530  24.765  1.00  0.00    -0.237 OA
ATOM     85  O   UNL A   1      55.718  26.195  25.534  1.00  0.00    -0.744 OA
ENDBRANCH  81  82
ENDBRANCH  55  76
ENDBRANCH  29  30
ENDBRANCH  22  24
ENDBRANCH  21  22
ENDBRANCH  20  21
ENDBRANCH   1  20
TORSDOF 17
ENDMDL
MODEL 3
REMARK VINA RESULT:      -8.9      4.226     11.864
REMARK SMILES C[C@@H](C(=O)OCCOC(=O)c1ccc(-c2c3nc(c(-c4ccc(S(=O)(=O)[O-])cc4)c4ccc([nH]4)c(-c4ccc(S(=O)(=O)[O-])cc4)c4nc(c(-c5ccc(S(=O)(=O)[O-])cc5)c5ccc2[nH]5)C=C4)C=C3)cc1)c1ccc(Cc2ccsc2)cc1F
REMARK SMILES IDX 6 1 5 2 3 3 4 4 2 5 1 6 71 7 72 8 82 9 73 10 81 11 83 12
REMARK SMILES IDX 74 13 75 14 76 15 77 16 80 17 78 18 79 19 7 20 8 21 9 22
REMARK SMILES IDX 10 23 11 24 12 25 70 26 13 27 69 28 14 29 15 30 16 31 63 32
REMARK SMILES IDX 17 33 68 34 62 35 64 36 18 37 67 38 61 39 60 40 19 42 49 43
REMARK SMILES IDX 30 44 48 45 31 46 34 47 47 48 65 49 32 50 33 51 46 53 66 54
REMARK SMILES IDX 35 55 20 56 21 57 29 58 22 59 28 60 23 61 24 62 25 63 26 64
REMARK SMILES IDX 27 65 50 66 51 67 59 68 52 69 58 70 53 71 54 72 55 73 56 74
REMARK SMILES IDX 57 75 36 76 37 77 45 78 38 79 44 80 39 81 40 82 41 83 42 84
REMARK SMILES IDX 43 85
REMARK H PARENT 64 41 34 52
REMARK Flexibility Score: inf
ROOT
ATOM      1  C   UNL A   1      34.689  33.036  32.191  1.00  0.00     0.274 C 
ENDROOT
BRANCH   1   2
ATOM      2  O   UNL A   1      34.312  32.669  30.848  1.00  0.00    -0.462 OA
BRANCH   2   3
ATOM      3  C   UNL A   1      34.104  33.704  29.983  1.00  0.00     0.313 C 
ATOM      4  O   UNL A   1      33.396  34.665  30.257  1.00  0.00    -0.252 OA
BRANCH   3   5
ATOM      5  C   UNL A   1      34.793  33.479  28.621  1.00  0.00     0.129 C 
ATOM      6  C   UNL A   1      34.469  34.603  27.626  1.00  0.00     0.025 C 
BRANCH   5   7
ATOM      7  C   UNL A   1      34.530  32.078  28.066  1.00  0.00     0.002 A 
ATOM      8  C   UNL A   1      33.262  31.614  27.690  1.00  0.00     0.008 A 
ATOM      9  C   UNL A   1      35.596  31.181  27.919  1.00  0.00     0.127 A 
ATOM     10  C   UNL A   1      33.080  30.312  27.190  1.00  0.00     0.004 A 
ATOM     11  C   UNL A   1      35.405  29.862  27.497  1.00  0.00     0.043 A 
ATOM     12  F   UNL A   1      36.847  31.593  28.167  1.00  0.00    -0.207 F 
ATOM     13  C   UNL A   1      34.132  29.391  27.133  1.00  0.00    -0.041 A 
BRANCH  13  14
ATOM     14  C   UNL A   1      34.031  28.023  26.494  1.00  0.00     0.072 C 
BRANCH  14  15
ATOM     15  C   UNL A   1      33.240  27.951  25.212  1.00  0.00    -0.033 A 
ATOM     16  C   UNL A   1      31.903  27.481  24.967  1.00  0.00     0.015 A 
ATOM     17  C   UNL A   1      33.736  28.522  24.043  1.00  0.00     0.068 A 
ATOM     18  C   UNL A   1      31.433  27.799  23.711  1.00  0.00     0.065 A 
ATOM     19  S   UNL A   1      32.596  28.618  22.778  1.00  0.00    -0.152 S 
ENDBRANCH  14  15
ENDBRANCH  13  14
ENDBRANCH   5   7
ENDBRANCH   3   5
ENDBRANCH   2   3
ENDBRANCH   1   2
BRANCH   1  20
ATOM     20  C   UNL A   1      35.956  32.308  32.646  1.00  0.00     0.275 C 
BRANCH  20  21
ATOM     21  O   UNL A   1      36.797  31.955  31.533  1.00  0.00    -0.458 OA
BRANCH  21  22
ATOM     22  C   UNL A   1      37.058  30.634  31.395  1.00  0.00     0.338 C 
ATOM     23  O   UNL A   1      36.261  29.714  31.448  1.00  0.00    -0.246 OA
BRANCH  22  24
ATOM     24  C   UNL A   1      38.480  30.440  31.067  1.00  0.00     0.060 A 
ATOM     25  C   UNL A   1      38.867  30.628  29.747  1.00  0.00     0.016 A 
ATOM     26  C   UNL A   1      39.393  29.952  32.002  1.00  0.00     0.016 A 
ATOM     27  C   UNL A   1      40.146  30.274  29.333  1.00  0.00     0.010 A 
ATOM     28  C   UNL A   1      40.705  29.651  31.594  1.00  0.00     0.010 A 
ATOM     29  C   UNL A   1      41.086  29.781  30.246  1.00  0.00    -0.014 A 
BRANCH  29  30
ATOM     30  C   UNL A   1      42.420  29.349  29.736  1.00  0.00     0.031 A 
ATOM     31  C   UNL A   1      42.616  27.947  29.215  1.00  0.00     0.074 A 
ATOM     32  C   UNL A   1      43.415  30.251  29.606  1.00  0.00     0.049 A 
ATOM     33  N   UNL A   1      43.696  27.389  28.730  1.00  0.00    -0.248 NA
ATOM     34  C   UNL A   1      41.442  27.056  29.231  1.00  0.00     0.031 C 
ATOM     35  C   UNL A   1      43.341  31.659  30.010  1.00  0.00     0.029 A 
ATOM     36  N   UNL A   1      44.668  30.138  29.051  1.00  0.00    -0.354 N 
ATOM     37  C   UNL A   1      43.325  26.106  28.345  1.00  0.00     0.074 A 
ATOM     38  C   UNL A   1      41.944  25.931  28.741  1.00  0.00     0.031 C 
ATOM     39  C   UNL A   1      44.463  32.288  29.627  1.00  0.00     0.029 A 
ATOM     40  C   UNL A   1      45.367  31.322  29.013  1.00  0.00     0.049 A 
ATOM     41  H   UNL A   1      45.032  29.287  28.712  1.00  0.00     0.167 HD
ATOM     42  C   UNL A   1      44.039  25.180  27.661  1.00  0.00     0.031 A 
ATOM     43  C   UNL A   1      46.601  31.605  28.548  1.00  0.00     0.031 A 
ATOM     44  C   UNL A   1      45.388  25.363  27.199  1.00  0.00     0.049 A 
ATOM     45  C   UNL A   1      47.433  30.502  27.955  1.00  0.00     0.074 A 
ATOM     46  C   UNL A   1      46.197  24.461  26.528  1.00  0.00     0.029 A 
ATOM     47  N   UNL A   1      46.118  26.534  27.329  1.00  0.00    -0.354 N 
ATOM     48  N   UNL A   1      47.093  29.263  27.693  1.00  0.00    -0.248 NA
ATOM     49  C   UNL A   1      48.826  30.830  27.614  1.00  0.00     0.031 C 
ATOM     50  C   UNL A   1      47.430  25.077  26.280  1.00  0.00     0.029 A 
ATOM     51  C   UNL A   1      47.374  26.374  26.766  1.00  0.00     0.049 A 
ATOM     52  H   UNL A   1      45.792  27.358  27.757  1.00  0.00     0.167 HD
ATOM     53  C   UNL A   1      48.224  28.666  27.149  1.00  0.00     0.074 A 
ATOM     54  C   UNL A   1      49.253  29.684  27.099  1.00  0.00     0.031 C 
ATOM     55  C   UNL A   1      48.395  27.387  26.735  1.00  0.00     0.031 A 
BRANCH  42  56
ATOM     56  C   UNL A   1      43.356  23.877  27.346  1.00  0.00    -0.014 A 
ATOM     57  C   UNL A   1      42.889  23.606  26.049  1.00  0.00     0.010 A 
ATOM     58  C   UNL A   1      43.217  22.900  28.347  1.00  0.00     0.010 A 
ATOM     59  C   UNL A   1      42.260  22.391  25.764  1.00  0.00     0.020 A 
ATOM     60  C   UNL A   1      42.606  21.676  28.062  1.00  0.00     0.020 A 
ATOM     61  C   UNL A   1      42.117  21.436  26.775  1.00  0.00     0.054 A 
BRANCH  61  62
ATOM     62  S   UNL A   1      41.304  19.864  26.377  1.00  0.00     0.124 S 
ATOM     63  O   UNL A   1      42.130  19.369  25.278  1.00  0.00    -0.237 OA
ATOM     64  O   UNL A   1      41.414  19.120  27.629  1.00  0.00    -0.237 OA
ATOM     65  O   UNL A   1      39.947  20.258  26.006  1.00  0.00    -0.744 OA
ENDBRANCH  61  62
ENDBRANCH  42  56
BRANCH  43  66
ATOM     66  C   UNL A   1      47.151  32.985  28.666  1.00  0.00    -0.014 A 
ATOM     67  C   UNL A   1      46.997  33.916  27.624  1.00  0.00     0.010 A 
ATOM     68  C   UNL A   1      47.851  33.369  29.825  1.00  0.00     0.010 A 
ATOM     69  C   UNL A   1      47.543  35.200  27.734  1.00  0.00     0.020 A 
ATOM     70  C   UNL A   1      48.372  34.660  29.951  1.00  0.00     0.020 A 
ATOM     71  C   UNL A   1      48.227  35.563  28.897  1.00  0.00     0.054 A 
BRANCH  71  72
ATOM     72  S   UNL A   1      48.888  37.247  29.048  1.00  0.00     0.124 S 
ATOM     73  O   UNL A   1      47.851  37.910  29.831  1.00  0.00    -0.237 OA
ATOM     74  O   UNL A   1      50.160  37.031  29.734  1.00  0.00    -0.237 OA
ATOM     75  O   UNL A   1      49.007  37.688  27.660  1.00  0.00    -0.744 OA
ENDBRANCH  71  72
ENDBRANCH  43  66
BRANCH  55  76
ATOM     76  C   UNL A   1      49.747  27.014  26.195  1.00  0.00    -0.014 A 
ATOM     77  C   UNL A   1      50.768  26.580  27.060  1.00  0.00     0.010 A 
ATOM     78  C   UNL A   1      49.989  27.050  24.810  1.00  0.00     0.010 A 
ATOM     79  C   UNL A   1      52.015  26.209  26.551  1.00  0.00     0.020 A 
ATOM     80  C   UNL A   1      51.229  26.659  24.296  1.00  0.00     0.020 A 
ATOM     81  C   UNL A   1      52.238  26.251  25.171  1.00  0.00     0.054 A 
BRANCH  81  82
ATOM     82  S   UNL A   1      53.849  25.715  24.529  1.00  0.00     0.124 S 
ATOM     83  O   UNL A   1      54.775  26.343  25.468  1.00  0.00    -0.237 OA
ATOM     84  O   UNL A   1      53.762  24.259  24.612  1.00  0.00    -0.237 OA
ATOM     85  O   UNL A   1      53.875  26.253  23.171  1.00  0.00    -0.744 OA
ENDBRANCH  81  82
ENDBRANCH  55  76
ENDBRANCH  29  30
ENDBRANCH  22  24
ENDBRANCH  21  22
ENDBRANCH  20  21
ENDBRANCH   1  20
TORSDOF 17
ENDMDL
