MODEL 1
REMARK VINA RESULT:     -12.3      0.000      0.000
REMARK SMILES COc1ccc(NC(=O)[C@H]2[C@@H](C(=O)OCCOC(=O)c3ccc(-c4c5nc(c(-c6ccc(S(=O)(=O)[O-])cc6)c6ccc([nH]6)c(-c6ccc(S(=O)(=O)[O-])cc6)c6nc(c(-c7ccc(S(=O)(=O)[O-])cc7)c7ccc4[nH]7)C=C6)C=C5)cc3)[C@H]3C=C[C@@H]2C3)c(C)c1
REMARK SMILES IDX 15 1 14 2 12 3 13 4 11 5 10 6 83 7 80 8 82 9 84 10 81 11
REMARK SMILES IDX 8 12 7 13 9 15 6 16 3 17 4 18 87 19 5 20 85 21 86 22 2 23
REMARK SMILES IDX 1 24 16 25 17 26 18 27 19 28 20 29 21 30 79 31 22 32 78 33
REMARK SMILES IDX 23 34 24 35 25 36 72 37 26 38 77 39 71 40 73 41 27 42 76 43
REMARK SMILES IDX 70 44 69 45 28 47 58 48 39 49 57 50 40 51 43 52 56 53 74 54
REMARK SMILES IDX 41 55 42 56 55 58 75 59 44 60 29 61 30 62 38 63 31 64 37 65
REMARK SMILES IDX 32 66 33 67 34 68 35 69 36 70 59 71 60 72 68 73 61 74 67 75
REMARK SMILES IDX 62 76 63 77 64 78 65 79 66 80 45 81 46 82 54 83 47 84 53 85
REMARK SMILES IDX 48 86 49 87 50 88 51 89 52 90
REMARK H PARENT 7 14 73 46 43 57
REMARK Flexibility Score: inf
ROOT
ATOM      1  C   UNL A   1      37.824  21.761  24.804  1.00  0.00     0.274 C 
ENDROOT
BRANCH   1   2
ATOM      2  O   UNL A   1      37.064  22.996  24.680  1.00  0.00    -0.462 OA
BRANCH   2   3
ATOM      3  C   UNL A   1      35.838  22.869  24.045  1.00  0.00     0.310 C 
ATOM      4  O   UNL A   1      35.709  22.978  22.855  1.00  0.00    -0.252 OA
BRANCH   3   5
ATOM      5  C   UNL A   1      34.670  22.800  25.054  1.00  0.00     0.119 C 
ATOM      6  C   UNL A   1      33.131  22.567  24.707  1.00  0.00     0.100 C 
ATOM      7  C   UNL A   1      32.493  23.942  24.989  1.00  0.00     0.025 C 
ATOM      8  C   UNL A   1      34.588  24.215  25.737  1.00  0.00     0.027 C 
ATOM      9  C   UNL A   1      33.122  25.035  24.166  1.00  0.00    -0.027 C 
ATOM     10  C   UNL A   1      33.178  24.230  26.335  1.00  0.00     0.017 C 
ATOM     11  C   UNL A   1      34.345  25.260  24.668  1.00  0.00    -0.027 C 
BRANCH   6  12
ATOM     12  C   UNL A   1      32.530  21.744  23.576  1.00  0.00     0.228 C 
ATOM     13  N   UNL A   1      31.830  20.575  23.809  1.00  0.00    -0.326 N 
ATOM     14  H   UNL A   1      30.853  20.594  23.934  1.00  0.00     0.169 HD
ATOM     15  O   UNL A   1      32.888  21.935  22.418  1.00  0.00    -0.274 OA
BRANCH  13  16
ATOM     16  C   UNL A   1      32.547  19.334  23.864  1.00  0.00     0.044 A 
ATOM     17  C   UNL A   1      34.085  16.982  24.093  1.00  0.00     0.119 A 
ATOM     18  C   UNL A   1      33.982  17.849  25.166  1.00  0.00     0.048 A 
ATOM     19  C   UNL A   1      33.464  17.301  22.889  1.00  0.00     0.052 A 
ATOM     20  C   UNL A   1      33.213  19.001  25.050  1.00  0.00     0.030 A 
ATOM     21  C   UNL A   1      32.661  18.458  22.760  1.00  0.00    -0.024 A 
ATOM     22  C   UNL A   1      32.082  18.677  21.388  1.00  0.00     0.047 C 
BRANCH  17  23
ATOM     23  O   UNL A   1      34.798  15.816  24.147  1.00  0.00    -0.497 OA
ATOM     24  C   UNL A   1      35.494  15.684  25.386  1.00  0.00     0.278 C 
ENDBRANCH  17  23
ENDBRANCH  13  16
ENDBRANCH   6  12
ENDBRANCH   3   5
ENDBRANCH   2   3
ENDBRANCH   1   2
BRANCH   1  25
ATOM     25  C   UNL A   1      38.941  21.815  25.881  1.00  0.00     0.275 C 
BRANCH  25  26
ATOM     26  O   UNL A   1      38.872  22.885  26.842  1.00  0.00    -0.458 OA
BRANCH  26  27
ATOM     27  C   UNL A   1      40.037  23.569  27.003  1.00  0.00     0.338 C 
ATOM     28  O   UNL A   1      41.108  23.195  26.549  1.00  0.00    -0.246 OA
BRANCH  27  29
ATOM     29  C   UNL A   1      39.612  24.951  27.349  1.00  0.00     0.060 A 
ATOM     30  C   UNL A   1      39.020  25.112  28.593  1.00  0.00     0.016 A 
ATOM     31  C   UNL A   1      40.206  26.045  26.707  1.00  0.00     0.016 A 
ATOM     32  C   UNL A   1      39.200  26.310  29.281  1.00  0.00     0.010 A 
ATOM     33  C   UNL A   1      40.407  27.221  27.412  1.00  0.00     0.010 A 
ATOM     34  C   UNL A   1      39.941  27.336  28.727  1.00  0.00    -0.014 A 
BRANCH  34  35
ATOM     35  C   UNL A   1      39.910  28.651  29.346  1.00  0.00     0.031 A 
ATOM     36  C   UNL A   1      38.876  29.698  29.105  1.00  0.00     0.074 A 
ATOM     37  C   UNL A   1      41.066  28.899  29.995  1.00  0.00     0.049 A 
ATOM     38  N   UNL A   1      39.147  30.965  29.056  1.00  0.00    -0.248 NA
ATOM     39  C   UNL A   1      37.465  29.434  28.805  1.00  0.00     0.031 C 
ATOM     40  C   UNL A   1      41.378  29.928  30.958  1.00  0.00     0.029 A 
ATOM     41  N   UNL A   1      42.300  28.275  29.731  1.00  0.00    -0.354 N 
ATOM     42  C   UNL A   1      37.938  31.639  29.090  1.00  0.00     0.074 A 
ATOM     43  C   UNL A   1      36.944  30.668  28.721  1.00  0.00     0.031 C 
ATOM     44  C   UNL A   1      42.717  30.027  31.048  1.00  0.00     0.029 A 
ATOM     45  C   UNL A   1      43.301  29.200  29.995  1.00  0.00     0.049 A 
ATOM     46  H   UNL A   1      42.430  27.352  29.416  1.00  0.00     0.167 HD
ATOM     47  C   UNL A   1      37.853  32.860  29.690  1.00  0.00     0.031 A 
ATOM     48  C   UNL A   1      44.227  29.585  29.071  1.00  0.00     0.031 A 
ATOM     49  C   UNL A   1      39.143  33.234  30.244  1.00  0.00     0.049 A 
ATOM     50  C   UNL A   1      44.187  31.086  28.899  1.00  0.00     0.074 A 
ATOM     51  C   UNL A   1      39.677  33.065  31.511  1.00  0.00     0.029 A 
ATOM     52  N   UNL A   1      40.192  33.533  29.403  1.00  0.00    -0.354 N 
ATOM     53  N   UNL A   1      43.119  31.800  29.127  1.00  0.00    -0.248 NA
ATOM     54  C   UNL A   1      45.314  31.904  28.459  1.00  0.00     0.031 C 
ATOM     55  C   UNL A   1      41.067  33.317  31.434  1.00  0.00     0.029 A 
ATOM     56  C   UNL A   1      41.363  33.632  30.122  1.00  0.00     0.049 A 
ATOM     57  H   UNL A   1      40.117  33.659  28.428  1.00  0.00     0.167 HD
ATOM     58  C   UNL A   1      43.436  33.130  29.050  1.00  0.00     0.074 A 
ATOM     59  C   UNL A   1      44.790  33.144  28.530  1.00  0.00     0.031 C 
ATOM     60  C   UNL A   1      42.565  34.094  29.461  1.00  0.00     0.031 A 
BRANCH  47  61
ATOM     61  C   UNL A   1      36.569  33.527  30.146  1.00  0.00    -0.014 A 
ATOM     62  C   UNL A   1      35.676  34.005  29.159  1.00  0.00     0.010 A 
ATOM     63  C   UNL A   1      36.190  33.741  31.483  1.00  0.00     0.010 A 
ATOM     64  C   UNL A   1      34.536  34.754  29.468  1.00  0.00     0.020 A 
ATOM     65  C   UNL A   1      35.043  34.500  31.810  1.00  0.00     0.020 A 
ATOM     66  C   UNL A   1      34.239  35.023  30.797  1.00  0.00     0.054 A 
BRANCH  66  67
ATOM     67  S   UNL A   1      32.807  36.077  31.153  1.00  0.00     0.124 S 
ATOM     68  O   UNL A   1      32.035  35.255  32.083  1.00  0.00    -0.237 OA
ATOM     69  O   UNL A   1      33.422  37.268  31.731  1.00  0.00    -0.237 OA
ATOM     70  O   UNL A   1      32.186  36.273  29.844  1.00  0.00    -0.744 OA
ENDBRANCH  66  67
ENDBRANCH  47  61
BRANCH  48  71
ATOM     71  C   UNL A   1      44.534  28.601  27.983  1.00  0.00    -0.014 A 
ATOM     72  C   UNL A   1      45.368  27.497  28.260  1.00  0.00     0.010 A 
ATOM     73  C   UNL A   1      43.785  28.569  26.798  1.00  0.00     0.010 A 
ATOM     74  C   UNL A   1      45.367  26.362  27.436  1.00  0.00     0.020 A 
ATOM     75  C   UNL A   1      43.806  27.448  25.946  1.00  0.00     0.020 A 
ATOM     76  C   UNL A   1      44.560  26.330  26.297  1.00  0.00     0.054 A 
BRANCH  76  77
ATOM     77  S   UNL A   1      44.359  24.741  25.427  1.00  0.00     0.124 S 
ATOM     78  O   UNL A   1      45.543  24.708  24.570  1.00  0.00    -0.237 OA
ATOM     79  O   UNL A   1      44.364  23.785  26.534  1.00  0.00    -0.237 OA
ATOM     80  O   UNL A   1      43.087  24.873  24.723  1.00  0.00    -0.744 OA
ENDBRANCH  76  77
ENDBRANCH  48  71
BRANCH  60  81
ATOM     81  C   UNL A   1      42.723  35.585  29.349  1.00  0.00    -0.014 A 
ATOM     82  C   UNL A   1      42.149  36.378  28.351  1.00  0.00     0.010 A 
ATOM     83  C   UNL A   1      43.589  36.233  30.269  1.00  0.00     0.010 A 
ATOM     84  C   UNL A   1      42.361  37.765  28.333  1.00  0.00     0.020 A 
ATOM     85  C   UNL A   1      43.824  37.603  30.249  1.00  0.00     0.020 A 
ATOM     86  C   UNL A   1      43.182  38.368  29.293  1.00  0.00     0.054 A 
BRANCH  86  87
ATOM     87  S   UNL A   1      43.407  40.160  29.276  1.00  0.00     0.124 S 
ATOM     88  O   UNL A   1      44.602  40.334  30.097  1.00  0.00    -0.237 OA
ATOM     89  O   UNL A   1      43.578  40.427  27.850  1.00  0.00    -0.237 OA
ATOM     90  O   UNL A   1      42.172  40.678  29.860  1.00  0.00    -0.744 OA
ENDBRANCH  86  87
ENDBRANCH  60  81
ENDBRANCH  34  35
ENDBRANCH  27  29
ENDBRANCH  26  27
ENDBRANCH  25  26
ENDBRANCH   1  25
TORSDOF 17
ENDMDL
MODEL 2
REMARK VINA RESULT:     -12.0      1.551      3.741
REMARK SMILES COc1ccc(NC(=O)[C@H]2[C@@H](C(=O)OCCOC(=O)c3ccc(-c4c5nc(c(-c6ccc(S(=O)(=O)[O-])cc6)c6ccc([nH]6)c(-c6ccc(S(=O)(=O)[O-])cc6)c6nc(c(-c7ccc(S(=O)(=O)[O-])cc7)c7ccc4[nH]7)C=C6)C=C5)cc3)[C@H]3C=C[C@@H]2C3)c(C)c1
REMARK SMILES IDX 15 1 14 2 12 3 13 4 11 5 10 6 83 7 80 8 82 9 84 10 81 11
REMARK SMILES IDX 8 12 7 13 9 15 6 16 3 17 4 18 87 19 5 20 85 21 86 22 2 23
REMARK SMILES IDX 1 24 16 25 17 26 18 27 19 28 20 29 21 30 79 31 22 32 78 33
REMARK SMILES IDX 23 34 24 35 25 36 72 37 26 38 77 39 71 40 73 41 27 42 76 43
REMARK SMILES IDX 70 44 69 45 28 47 58 48 39 49 57 50 40 51 43 52 56 53 74 54
REMARK SMILES IDX 41 55 42 56 55 58 75 59 44 60 29 61 30 62 38 63 31 64 37 65
REMARK SMILES IDX 32 66 33 67 34 68 35 69 36 70 59 71 60 72 68 73 61 74 67 75
REMARK SMILES IDX 62 76 63 77 64 78 65 79 66 80 45 81 46 82 54 83 47 84 53 85
REMARK SMILES IDX 48 86 49 87 50 88 51 89 52 90
REMARK H PARENT 7 14 73 46 43 57
REMARK Flexibility Score: inf
ROOT
ATOM      1  C   UNL A   1      37.923  21.393  24.877  1.00  0.00     0.274 C 
ENDROOT
BRANCH   1   2
ATOM      2  O   UNL A   1      36.518  21.759  24.974  1.00  0.00    -0.462 OA
BRANCH   2   3
ATOM      3  C   UNL A   1      35.632  20.694  24.944  1.00  0.00     0.310 C 
ATOM      4  O   UNL A   1      35.991  19.549  25.006  1.00  0.00    -0.252 OA
BRANCH   3   5
ATOM      5  C   UNL A   1      34.194  21.148  24.603  1.00  0.00     0.119 C 
ATOM      6  C   UNL A   1      33.703  22.648  24.375  1.00  0.00     0.100 C 
ATOM      7  C   UNL A   1      32.846  22.934  25.624  1.00  0.00     0.025 C 
ATOM      8  C   UNL A   1      33.299  20.748  25.833  1.00  0.00     0.027 C 
ATOM      9  C   UNL A   1      33.631  22.759  26.898  1.00  0.00    -0.027 C 
ATOM     10  C   UNL A   1      32.051  21.618  25.650  1.00  0.00     0.017 C 
ATOM     11  C   UNL A   1      33.828  21.445  27.070  1.00  0.00    -0.027 C 
BRANCH   6  12
ATOM     12  C   UNL A   1      34.479  23.817  23.784  1.00  0.00     0.228 C 
ATOM     13  N   UNL A   1      34.362  25.102  24.279  1.00  0.00    -0.326 N 
ATOM     14  H   UNL A   1      34.970  25.422  24.985  1.00  0.00     0.169 HD
ATOM     15  O   UNL A   1      35.007  23.711  22.681  1.00  0.00    -0.274 OA
BRANCH  13  16
ATOM     16  C   UNL A   1      33.344  25.963  23.750  1.00  0.00     0.044 A 
ATOM     17  C   UNL A   1      31.382  27.581  22.530  1.00  0.00     0.119 A 
ATOM     18  C   UNL A   1      31.632  26.309  22.045  1.00  0.00     0.048 A 
ATOM     19  C   UNL A   1      32.136  28.070  23.593  1.00  0.00     0.052 A 
ATOM     20  C   UNL A   1      32.592  25.513  22.657  1.00  0.00     0.030 A 
ATOM     21  C   UNL A   1      33.103  27.267  24.241  1.00  0.00    -0.024 A 
ATOM     22  C   UNL A   1      33.852  27.951  25.352  1.00  0.00     0.047 C 
BRANCH  17  23
ATOM     23  O   UNL A   1      30.431  28.405  21.996  1.00  0.00    -0.497 OA
ATOM     24  C   UNL A   1      29.283  28.496  22.839  1.00  0.00     0.278 C 
ENDBRANCH  17  23
ENDBRANCH  13  16
ENDBRANCH   6  12
ENDBRANCH   3   5
ENDBRANCH   2   3
ENDBRANCH   1   2
BRANCH   1  25
ATOM     25  C   UNL A   1      38.784  21.877  26.075  1.00  0.00     0.275 C 
BRANCH  25  26
ATOM     26  O   UNL A   1      38.687  23.269  26.429  1.00  0.00    -0.458 OA
BRANCH  26  27
ATOM     27  C   UNL A   1      39.727  23.732  27.175  1.00  0.00     0.338 C 
ATOM     28  O   UNL A   1      40.851  23.256  27.135  1.00  0.00    -0.246 OA
BRANCH  27  29
ATOM     29  C   UNL A   1      39.320  25.106  27.569  1.00  0.00     0.060 A 
ATOM     30  C   UNL A   1      38.867  25.256  28.871  1.00  0.00     0.016 A 
ATOM     31  C   UNL A   1      39.820  26.211  26.868  1.00  0.00     0.016 A 
ATOM     32  C   UNL A   1      39.101  26.456  29.538  1.00  0.00     0.010 A 
ATOM     33  C   UNL A   1      40.078  27.389  27.550  1.00  0.00     0.010 A 
ATOM     34  C   UNL A   1      39.758  27.495  28.908  1.00  0.00    -0.014 A 
BRANCH  34  35
ATOM     35  C   UNL A   1      39.774  28.809  29.530  1.00  0.00     0.031 A 
ATOM     36  C   UNL A   1      38.739  29.867  29.347  1.00  0.00     0.074 A 
ATOM     37  C   UNL A   1      40.966  29.045  30.117  1.00  0.00     0.049 A 
ATOM     38  N   UNL A   1      39.019  31.131  29.286  1.00  0.00    -0.248 NA
ATOM     39  C   UNL A   1      37.311  29.617  29.124  1.00  0.00     0.031 C 
ATOM     40  C   UNL A   1      41.339  30.069  31.062  1.00  0.00     0.029 A 
ATOM     41  N   UNL A   1      42.178  28.410  29.784  1.00  0.00    -0.354 N 
ATOM     42  C   UNL A   1      37.820  31.817  29.386  1.00  0.00     0.074 A 
ATOM     43  C   UNL A   1      36.799  30.857  29.070  1.00  0.00     0.031 C 
ATOM     44  C   UNL A   1      42.682  30.155  31.080  1.00  0.00     0.029 A 
ATOM     45  C   UNL A   1      43.200  29.324  29.995  1.00  0.00     0.049 A 
ATOM     46  H   UNL A   1      42.281  27.486  29.461  1.00  0.00     0.167 HD
ATOM     47  C   UNL A   1      37.780  33.037  29.993  1.00  0.00     0.031 A 
ATOM     48  C   UNL A   1      44.079  29.703  29.023  1.00  0.00     0.031 A 
ATOM     49  C   UNL A   1      39.101  33.398  30.476  1.00  0.00     0.049 A 
ATOM     50  C   UNL A   1      44.045  31.204  28.856  1.00  0.00     0.074 A 
ATOM     51  C   UNL A   1      39.702  33.221  31.712  1.00  0.00     0.029 A 
ATOM     52  N   UNL A   1      40.107  33.689  29.580  1.00  0.00    -0.354 N 
ATOM     53  N   UNL A   1      42.997  31.928  29.143  1.00  0.00    -0.248 NA
ATOM     54  C   UNL A   1      45.153  32.012  28.357  1.00  0.00     0.031 C 
ATOM     55  C   UNL A   1      41.088  33.459  31.561  1.00  0.00     0.029 A 
ATOM     56  C   UNL A   1      41.315  33.774  30.235  1.00  0.00     0.049 A 
ATOM     57  H   UNL A   1      39.980  33.817  28.611  1.00  0.00     0.167 HD
ATOM     58  C   UNL A   1      43.322  33.254  29.051  1.00  0.00     0.074 A 
ATOM     59  C   UNL A   1      44.646  33.256  28.458  1.00  0.00     0.031 C 
ATOM     60  C   UNL A   1      42.485  34.227  29.510  1.00  0.00     0.031 A 
BRANCH  47  61
ATOM     61  C   UNL A   1      36.530  33.716  30.518  1.00  0.00    -0.014 A 
ATOM     62  C   UNL A   1      35.449  33.912  29.627  1.00  0.00     0.010 A 
ATOM     63  C   UNL A   1      36.352  34.199  31.827  1.00  0.00     0.010 A 
ATOM     64  C   UNL A   1      34.309  34.646  29.970  1.00  0.00     0.020 A 
ATOM     65  C   UNL A   1      35.206  34.946  32.186  1.00  0.00     0.020 A 
ATOM     66  C   UNL A   1      34.205  35.186  31.244  1.00  0.00     0.054 A 
BRANCH  66  67
ATOM     67  S   UNL A   1      32.756  36.211  31.619  1.00  0.00     0.124 S 
ATOM     68  O   UNL A   1      33.355  37.375  32.269  1.00  0.00    -0.237 OA
ATOM     69  O   UNL A   1      32.187  36.455  30.297  1.00  0.00    -0.237 OA
ATOM     70  O   UNL A   1      31.950  35.364  32.495  1.00  0.00    -0.744 OA
ENDBRANCH  66  67
ENDBRANCH  47  61
BRANCH  48  71
ATOM     71  C   UNL A   1      44.317  28.718  27.919  1.00  0.00    -0.014 A 
ATOM     72  C   UNL A   1      45.198  27.636  28.130  1.00  0.00     0.010 A 
ATOM     73  C   UNL A   1      43.472  28.659  26.801  1.00  0.00     0.010 A 
ATOM     74  C   UNL A   1      45.155  26.495  27.315  1.00  0.00     0.020 A 
ATOM     75  C   UNL A   1      43.448  27.533  25.957  1.00  0.00     0.020 A 
ATOM     76  C   UNL A   1      44.256  26.435  26.249  1.00  0.00     0.054 A 
BRANCH  76  77
ATOM     77  S   UNL A   1      44.020  24.835  25.407  1.00  0.00     0.124 S 
ATOM     78  O   UNL A   1      44.047  23.894  26.525  1.00  0.00    -0.237 OA
ATOM     79  O   UNL A   1      42.714  25.015  24.774  1.00  0.00    -0.237 OA
ATOM     80  O   UNL A   1      45.151  24.740  24.489  1.00  0.00    -0.744 OA
ENDBRANCH  76  77
ENDBRANCH  48  71
BRANCH  60  81
ATOM     81  C   UNL A   1      42.651  35.716  29.392  1.00  0.00    -0.014 A 
ATOM     82  C   UNL A   1      43.319  36.523  30.318  1.00  0.00     0.010 A 
ATOM     83  C   UNL A   1      42.009  36.373  28.309  1.00  0.00     0.010 A 
ATOM     84  C   UNL A   1      43.415  37.908  30.117  1.00  0.00     0.020 A 
ATOM     85  C   UNL A   1      42.079  37.746  28.110  1.00  0.00     0.020 A 
ATOM     86  C   UNL A   1      42.811  38.506  29.005  1.00  0.00     0.054 A 
BRANCH  86  87
ATOM     87  S   UNL A   1      42.983  40.285  28.744  1.00  0.00     0.124 S 
ATOM     88  O   UNL A   1      41.825  40.593  27.910  1.00  0.00    -0.237 OA
ATOM     89  O   UNL A   1      42.929  40.795  30.112  1.00  0.00    -0.237 OA
ATOM     90  O   UNL A   1      44.278  40.421  28.082  1.00  0.00    -0.744 OA
ENDBRANCH  86  87
ENDBRANCH  60  81
ENDBRANCH  34  35
ENDBRANCH  27  29
ENDBRANCH  26  27
ENDBRANCH  25  26
ENDBRANCH   1  25
TORSDOF 17
ENDMDL
MODEL 3
REMARK VINA RESULT:     -11.8      1.764      4.042
REMARK SMILES COc1ccc(NC(=O)[C@H]2[C@@H](C(=O)OCCOC(=O)c3ccc(-c4c5nc(c(-c6ccc(S(=O)(=O)[O-])cc6)c6ccc([nH]6)c(-c6ccc(S(=O)(=O)[O-])cc6)c6nc(c(-c7ccc(S(=O)(=O)[O-])cc7)c7ccc4[nH]7)C=C6)C=C5)cc3)[C@H]3C=C[C@@H]2C3)c(C)c1
REMARK SMILES IDX 15 1 14 2 12 3 13 4 11 5 10 6 83 7 80 8 82 9 84 10 81 11
REMARK SMILES IDX 8 12 7 13 9 15 6 16 3 17 4 18 87 19 5 20 85 21 86 22 2 23
REMARK SMILES IDX 1 24 16 25 17 26 18 27 19 28 20 29 21 30 79 31 22 32 78 33
REMARK SMILES IDX 23 34 24 35 25 36 72 37 26 38 77 39 71 40 73 41 27 42 76 43
REMARK SMILES IDX 70 44 69 45 28 47 58 48 39 49 57 50 40 51 43 52 56 53 74 54
REMARK SMILES IDX 41 55 42 56 55 58 75 59 44 60 29 61 30 62 38 63 31 64 37 65
REMARK SMILES IDX 32 66 33 67 34 68 35 69 36 70 59 71 60 72 68 73 61 74 67 75
REMARK SMILES IDX 62 76 63 77 64 78 65 79 66 80 45 81 46 82 54 83 47 84 53 85
REMARK SMILES IDX 48 86 49 87 50 88 51 89 52 90
REMARK H PARENT 7 14 73 46 43 57
REMARK Flexibility Score: inf
ROOT
ATOM      1  C   UNL A   1      36.914  22.954  25.339  1.00  0.00     0.274 C 
ENDROOT
BRANCH   1   2
ATOM      2  O   UNL A   1      36.006  23.411  26.381  1.00  0.00    -0.462 OA
BRANCH   2   3
ATOM      3  C   UNL A   1      34.768  22.787  26.395  1.00  0.00     0.310 C 
ATOM      4  O   UNL A   1      34.475  21.945  27.200  1.00  0.00    -0.252 OA
BRANCH   3   5
ATOM      5  C   UNL A   1      33.931  23.137  25.144  1.00  0.00     0.119 C 
ATOM      6  C   UNL A   1      32.368  23.451  25.107  1.00  0.00     0.100 C 
ATOM      7  C   UNL A   1      31.774  22.211  24.410  1.00  0.00     0.025 C 
ATOM      8  C   UNL A   1      33.981  21.874  24.208  1.00  0.00     0.027 C 
ATOM      9  C   UNL A   1      32.101  20.939  25.147  1.00  0.00    -0.027 C 
ATOM     10  C   UNL A   1      32.794  22.094  23.265  1.00  0.00     0.017 C 
ATOM     11  C   UNL A   1      33.404  20.689  24.955  1.00  0.00    -0.027 C 
BRANCH   6  12
ATOM     12  C   UNL A   1      31.513  24.123  26.174  1.00  0.00     0.228 C 
ATOM     13  N   UNL A   1      30.576  25.090  25.863  1.00  0.00    -0.326 N 
ATOM     14  H   UNL A   1      29.642  24.839  25.675  1.00  0.00     0.169 HD
ATOM     15  O   UNL A   1      31.824  24.034  27.358  1.00  0.00    -0.274 OA
BRANCH  13  16
ATOM     16  C   UNL A   1      30.983  26.465  25.821  1.00  0.00     0.044 A 
ATOM     17  C   UNL A   1      31.703  29.190  25.916  1.00  0.00     0.119 A 
ATOM     18  C   UNL A   1      31.707  28.431  27.073  1.00  0.00     0.048 A 
ATOM     19  C   UNL A   1      31.298  28.612  24.717  1.00  0.00     0.052 A 
ATOM     20  C   UNL A   1      31.362  27.086  27.017  1.00  0.00     0.030 A 
ATOM     21  C   UNL A   1      30.963  27.240  24.638  1.00  0.00    -0.024 A 
ATOM     22  C   UNL A   1      30.519  26.774  23.277  1.00  0.00     0.047 C 
BRANCH  17  23
ATOM     23  O   UNL A   1      32.062  30.509  25.894  1.00  0.00    -0.497 OA
ATOM     24  C   UNL A   1      32.730  30.892  27.095  1.00  0.00     0.278 C 
ENDBRANCH  17  23
ENDBRANCH  13  16
ENDBRANCH   6  12
ENDBRANCH   3   5
ENDBRANCH   2   3
ENDBRANCH   1   2
BRANCH   1  25
ATOM     25  C   UNL A   1      38.228  22.329  25.878  1.00  0.00     0.275 C 
BRANCH  25  26
ATOM     26  O   UNL A   1      39.405  23.159  25.853  1.00  0.00    -0.458 OA
BRANCH  26  27
ATOM     27  C   UNL A   1      39.951  23.393  27.077  1.00  0.00     0.338 C 
ATOM     28  O   UNL A   1      40.879  22.746  27.538  1.00  0.00    -0.246 OA
BRANCH  27  29
ATOM     29  C   UNL A   1      39.542  24.784  27.407  1.00  0.00     0.060 A 
ATOM     30  C   UNL A   1      38.939  24.964  28.643  1.00  0.00     0.016 A 
ATOM     31  C   UNL A   1      40.157  25.865  26.763  1.00  0.00     0.016 A 
ATOM     32  C   UNL A   1      39.128  26.165  29.324  1.00  0.00     0.010 A 
ATOM     33  C   UNL A   1      40.367  27.044  27.460  1.00  0.00     0.010 A 
ATOM     34  C   UNL A   1      39.889  27.176  28.768  1.00  0.00    -0.014 A 
BRANCH  34  35
ATOM     35  C   UNL A   1      39.870  28.496  29.376  1.00  0.00     0.031 A 
ATOM     36  C   UNL A   1      38.857  29.558  29.111  1.00  0.00     0.074 A 
ATOM     37  C   UNL A   1      41.020  28.731  30.042  1.00  0.00     0.049 A 
ATOM     38  N   UNL A   1      39.149  30.820  29.056  1.00  0.00    -0.248 NA
ATOM     39  C   UNL A   1      37.446  29.314  28.791  1.00  0.00     0.031 C 
ATOM     40  C   UNL A   1      41.333  29.763  31.001  1.00  0.00     0.029 A 
ATOM     41  N   UNL A   1      42.248  28.086  29.802  1.00  0.00    -0.354 N 
ATOM     42  C   UNL A   1      37.951  31.513  29.065  1.00  0.00     0.074 A 
ATOM     43  C   UNL A   1      36.947  30.556  28.689  1.00  0.00     0.031 C 
ATOM     44  C   UNL A   1      42.672  29.841  31.111  1.00  0.00     0.029 A 
ATOM     45  C   UNL A   1      43.259  28.996  30.074  1.00  0.00     0.049 A 
ATOM     46  H   UNL A   1      42.367  27.157  29.497  1.00  0.00     0.167 HD
ATOM     47  C   UNL A   1      37.876  32.741  29.655  1.00  0.00     0.031 A 
ATOM     48  C   UNL A   1      44.205  29.359  29.162  1.00  0.00     0.031 A 
ATOM     49  C   UNL A   1      39.163  33.099  30.225  1.00  0.00     0.049 A 
ATOM     50  C   UNL A   1      44.193  30.858  28.977  1.00  0.00     0.074 A 
ATOM     51  C   UNL A   1      39.675  32.932  31.502  1.00  0.00     0.029 A 
ATOM     52  N   UNL A   1      40.230  33.374  29.398  1.00  0.00    -0.354 N 
ATOM     53  N   UNL A   1      43.133  31.592  29.183  1.00  0.00    -0.248 NA
ATOM     54  C   UNL A   1      45.339  31.654  28.548  1.00  0.00     0.031 C 
ATOM     55  C   UNL A   1      41.070  33.160  31.445  1.00  0.00     0.029 A 
ATOM     56  C   UNL A   1      41.391  33.460  30.135  1.00  0.00     0.049 A 
ATOM     57  H   UNL A   1      40.172  33.493  28.422  1.00  0.00     0.167 HD
ATOM     58  C   UNL A   1      43.472  32.915  29.099  1.00  0.00     0.074 A 
ATOM     59  C   UNL A   1      44.834  32.903  28.601  1.00  0.00     0.031 C 
ATOM     60  C   UNL A   1      42.611  33.897  29.489  1.00  0.00     0.031 A 
BRANCH  47  61
ATOM     61  C   UNL A   1      36.597  33.432  30.085  1.00  0.00    -0.014 A 
ATOM     62  C   UNL A   1      35.760  33.977  29.082  1.00  0.00     0.010 A 
ATOM     63  C   UNL A   1      36.170  33.608  31.413  1.00  0.00     0.010 A 
ATOM     64  C   UNL A   1      34.633  34.751  29.376  1.00  0.00     0.020 A 
ATOM     65  C   UNL A   1      35.035  34.391  31.724  1.00  0.00     0.020 A 
ATOM     66  C   UNL A   1      34.290  34.979  30.701  1.00  0.00     0.054 A 
BRANCH  66  67
ATOM     67  S   UNL A   1      32.879  36.065  31.040  1.00  0.00     0.124 S 
ATOM     68  O   UNL A   1      32.272  36.213  29.719  1.00  0.00    -0.237 OA
ATOM     69  O   UNL A   1      32.102  35.290  32.003  1.00  0.00    -0.237 OA
ATOM     70  O   UNL A   1      33.495  37.279  31.574  1.00  0.00    -0.744 OA
ENDBRANCH  66  67
ENDBRANCH  47  61
BRANCH  48  71
ATOM     71  C   UNL A   1      44.513  28.361  28.087  1.00  0.00    -0.014 A 
ATOM     72  C   UNL A   1      45.305  27.233  28.391  1.00  0.00     0.010 A 
ATOM     73  C   UNL A   1      43.799  28.346  26.880  1.00  0.00     0.010 A 
ATOM     74  C   UNL A   1      45.293  26.094  27.572  1.00  0.00     0.020 A 
ATOM     75  C   UNL A   1      43.809  27.221  26.034  1.00  0.00     0.020 A 
ATOM     76  C   UNL A   1      44.518  26.082  26.411  1.00  0.00     0.054 A 
BRANCH  76  77
ATOM     77  S   UNL A   1      44.293  24.496  25.540  1.00  0.00     0.124 S 
ATOM     78  O   UNL A   1      43.064  24.732  24.786  1.00  0.00    -0.237 OA
ATOM     79  O   UNL A   1      45.513  24.415  24.736  1.00  0.00    -0.237 OA
ATOM     80  O   UNL A   1      44.185  23.509  26.610  1.00  0.00    -0.744 OA
ENDBRANCH  76  77
ENDBRANCH  48  71
BRANCH  60  81
ATOM     81  C   UNL A   1      42.795  35.385  29.368  1.00  0.00    -0.014 A 
ATOM     82  C   UNL A   1      43.324  36.209  30.364  1.00  0.00     0.010 A 
ATOM     83  C   UNL A   1      42.316  36.019  28.191  1.00  0.00     0.010 A 
ATOM     84  C   UNL A   1      43.451  37.591  30.152  1.00  0.00     0.020 A 
ATOM     85  C   UNL A   1      42.417  37.389  27.977  1.00  0.00     0.020 A 
ATOM     86  C   UNL A   1      43.013  38.166  28.954  1.00  0.00     0.054 A 
BRANCH  86  87
ATOM     87  S   UNL A   1      43.224  39.940  28.686  1.00  0.00     0.124 S 
ATOM     88  O   UNL A   1      42.300  40.516  29.659  1.00  0.00    -0.237 OA
ATOM     89  O   UNL A   1      44.643  40.121  28.981  1.00  0.00    -0.237 OA
ATOM     90  O   UNL A   1      42.852  40.133  27.286  1.00  0.00    -0.744 OA
ENDBRANCH  86  87
ENDBRANCH  60  81
ENDBRANCH  34  35
ENDBRANCH  27  29
ENDBRANCH  26  27
ENDBRANCH  25  26
ENDBRANCH   1  25
TORSDOF 17
ENDMDL
