MODEL 1
REMARK VINA RESULT:     -11.4      0.000      0.000
REMARK SMILES Cc1cccc([C@H]([NH3+])[C@H](O)C(=O)OCCOC(=O)c2ccc(-c3c4nc(c(-c5ccc(S(=O)(=O)[O-])cc5)c5ccc([nH]5)c(-c5ccc(S(=O)(=O)[O-])cc5)c5nc(c(-c6ccc(S(=O)(=O)[O-])cc6)c6ccc3[nH]6)C=C5)C=C4)cc2)c1
REMARK SMILES IDX 15 1 14 2 13 3 11 4 12 5 9 6 7 7 6 8 1 9 2 10 3 11 79 12
REMARK SMILES IDX 4 13 5 14 8 15 10 19 16 21 17 22 18 23 19 24 20 25 78 26
REMARK SMILES IDX 21 27 77 28 22 29 23 30 24 31 71 32 25 33 76 34 70 35 72 36
REMARK SMILES IDX 26 37 75 38 69 39 68 40 27 42 57 43 38 44 56 45 39 46 42 47
REMARK SMILES IDX 55 48 73 49 40 50 41 51 54 53 74 54 43 55 28 56 29 57 37 58
REMARK SMILES IDX 30 59 36 60 31 61 32 62 33 63 34 64 35 65 58 66 59 67 67 68
REMARK SMILES IDX 60 69 66 70 61 71 62 72 63 73 64 74 65 75 44 76 45 77 53 78
REMARK SMILES IDX 46 79 52 80 47 81 48 82 49 83 50 84 51 85
REMARK H PARENT 8 16 8 17 8 18 10 20 72 41 42 52
REMARK Flexibility Score: inf
ROOT
ATOM      1  C   UNL A   1      37.390  23.038  25.511  1.00  0.00     0.275 C 
ENDROOT
BRANCH   1   2
ATOM      2  C   UNL A   1      35.986  22.898  26.128  1.00  0.00     0.274 C 
BRANCH   2   3
ATOM      3  O   UNL A   1      34.990  23.072  25.105  1.00  0.00    -0.460 OA
BRANCH   3   4
ATOM      4  C   UNL A   1      33.698  22.956  25.537  1.00  0.00     0.341 C 
ATOM      5  O   UNL A   1      32.948  23.897  25.675  1.00  0.00    -0.249 OA
BRANCH   4   6
ATOM      6  C   UNL A   1      33.359  21.465  25.756  1.00  0.00     0.287 C 
BRANCH   6   7
ATOM      7  C   UNL A   1      32.453  20.874  24.625  1.00  0.00     0.252 C 
BRANCH   7   8
ATOM      8  C   UNL A   1      32.824  19.501  24.064  1.00  0.00     0.013 A 
ATOM      9  C   UNL A   1      35.161  16.595  24.954  1.00  0.00     0.044 C 
ATOM     10  C   UNL A   1      34.183  17.458  24.213  1.00  0.00    -0.051 A 
ATOM     11  C   UNL A   1      33.606  16.989  23.031  1.00  0.00     0.003 A 
ATOM     12  C   UNL A   1      33.800  18.713  24.711  1.00  0.00     0.013 A 
ATOM     13  C   UNL A   1      32.655  17.756  22.367  1.00  0.00     0.001 A 
ATOM     14  C   UNL A   1      32.260  18.990  22.886  1.00  0.00     0.010 A 
ENDBRANCH   7   8
BRANCH   7  15
ATOM     15  N   UNL A   1      32.318  21.857  23.518  1.00  0.00    -0.349 N 
ATOM     16  H   UNL A   1      33.206  22.341  23.383  1.00  0.00     0.345 HD
ATOM     17  H   UNL A   1      31.594  22.537  23.753  1.00  0.00     0.345 HD
ATOM     18  H   UNL A   1      32.061  21.370  22.659  1.00  0.00     0.345 HD
ENDBRANCH   7  15
ENDBRANCH   6   7
BRANCH   6  19
ATOM     19  O   UNL A   1      32.882  21.201  27.077  1.00  0.00    -0.376 OA
ATOM     20  H   UNL A   1      33.512  20.626  27.539  1.00  0.00     0.212 HD
ENDBRANCH   6  19
ENDBRANCH   4   6
ENDBRANCH   3   4
ENDBRANCH   2   3
ENDBRANCH   1   2
BRANCH   1  21
ATOM     21  O   UNL A   1      38.218  24.095  26.049  1.00  0.00    -0.458 OA
BRANCH  21  22
ATOM     22  C   UNL A   1      39.235  23.716  26.875  1.00  0.00     0.338 C 
ATOM     23  O   UNL A   1      39.794  22.632  26.823  1.00  0.00    -0.246 OA
BRANCH  22  24
ATOM     24  C   UNL A   1      39.775  24.950  27.521  1.00  0.00     0.060 A 
ATOM     25  C   UNL A   1      40.397  25.930  26.735  1.00  0.00     0.016 A 
ATOM     26  C   UNL A   1      39.349  25.263  28.813  1.00  0.00     0.016 A 
ATOM     27  C   UNL A   1      40.434  27.261  27.171  1.00  0.00     0.010 A 
ATOM     28  C   UNL A   1      39.317  26.579  29.210  1.00  0.00     0.010 A 
ATOM     29  C   UNL A   1      39.838  27.590  28.389  1.00  0.00    -0.014 A 
BRANCH  29  30
ATOM     30  C   UNL A   1      39.903  28.902  29.031  1.00  0.00     0.031 A 
ATOM     31  C   UNL A   1      38.901  29.981  28.874  1.00  0.00     0.074 A 
ATOM     32  C   UNL A   1      40.927  29.016  29.903  1.00  0.00     0.049 A 
ATOM     33  N   UNL A   1      39.101  31.213  29.209  1.00  0.00    -0.248 NA
ATOM     34  C   UNL A   1      37.590  29.778  28.277  1.00  0.00     0.031 C 
ATOM     35  C   UNL A   1      41.155  30.004  30.940  1.00  0.00     0.029 A 
ATOM     36  N   UNL A   1      42.125  28.293  29.843  1.00  0.00    -0.354 N 
ATOM     37  C   UNL A   1      37.888  31.877  29.145  1.00  0.00     0.074 A 
ATOM     38  C   UNL A   1      37.008  30.971  28.452  1.00  0.00     0.031 C 
ATOM     39  C   UNL A   1      42.477  30.041  31.192  1.00  0.00     0.029 A 
ATOM     40  C   UNL A   1      43.123  29.199  30.188  1.00  0.00     0.049 A 
ATOM     41  H   UNL A   1      42.237  27.344  29.606  1.00  0.00     0.167 HD
ATOM     42  C   UNL A   1      37.726  33.052  29.820  1.00  0.00     0.031 A 
ATOM     43  C   UNL A   1      44.063  29.615  29.288  1.00  0.00     0.031 A 
ATOM     44  C   UNL A   1      38.995  33.491  30.394  1.00  0.00     0.049 A 
ATOM     45  C   UNL A   1      44.045  31.115  29.168  1.00  0.00     0.074 A 
ATOM     46  C   UNL A   1      39.537  33.346  31.659  1.00  0.00     0.029 A 
ATOM     47  N   UNL A   1      40.029  33.883  29.553  1.00  0.00    -0.354 N 
ATOM     48  N   UNL A   1      42.968  31.847  29.266  1.00  0.00    -0.248 NA
ATOM     49  C   UNL A   1      45.260  31.897  28.984  1.00  0.00     0.031 C 
ATOM     50  C   UNL A   1      40.939  33.526  31.545  1.00  0.00     0.029 A 
ATOM     51  C   UNL A   1      41.233  33.830  30.225  1.00  0.00     0.049 A 
ATOM     52  H   UNL A   1      39.918  34.157  28.614  1.00  0.00     0.167 HD
ATOM     53  C   UNL A   1      43.339  33.165  29.291  1.00  0.00     0.074 A 
ATOM     54  C   UNL A   1      44.776  33.148  29.064  1.00  0.00     0.031 C 
ATOM     55  C   UNL A   1      42.475  34.185  29.561  1.00  0.00     0.031 A 
BRANCH  42  56
ATOM     56  C   UNL A   1      36.391  33.656  30.228  1.00  0.00    -0.014 A 
ATOM     57  C   UNL A   1      35.547  34.196  29.230  1.00  0.00     0.010 A 
ATOM     58  C   UNL A   1      35.940  33.806  31.553  1.00  0.00     0.010 A 
ATOM     59  C   UNL A   1      34.387  34.928  29.537  1.00  0.00     0.020 A 
ATOM     60  C   UNL A   1      34.789  34.549  31.877  1.00  0.00     0.020 A 
ATOM     61  C   UNL A   1      34.030  35.127  30.866  1.00  0.00     0.054 A 
BRANCH  61  62
ATOM     62  S   UNL A   1      32.589  36.158  31.252  1.00  0.00     0.124 S 
ATOM     63  O   UNL A   1      33.202  37.349  31.836  1.00  0.00    -0.237 OA
ATOM     64  O   UNL A   1      31.972  36.347  29.943  1.00  0.00    -0.237 OA
ATOM     65  O   UNL A   1      31.817  35.342  32.188  1.00  0.00    -0.744 OA
ENDBRANCH  61  62
ENDBRANCH  42  56
BRANCH  43  66
ATOM     66  C   UNL A   1      44.331  28.682  28.149  1.00  0.00    -0.014 A 
ATOM     67  C   UNL A   1      44.990  27.460  28.421  1.00  0.00     0.010 A 
ATOM     68  C   UNL A   1      43.666  28.822  26.918  1.00  0.00     0.010 A 
ATOM     69  C   UNL A   1      44.884  26.373  27.545  1.00  0.00     0.020 A 
ATOM     70  C   UNL A   1      43.576  27.739  26.027  1.00  0.00     0.020 A 
ATOM     71  C   UNL A   1      44.151  26.510  26.367  1.00  0.00     0.054 A 
BRANCH  71  72
ATOM     72  S   UNL A   1      43.803  25.014  25.389  1.00  0.00     0.124 S 
ATOM     73  O   UNL A   1      43.521  24.027  26.425  1.00  0.00    -0.237 OA
ATOM     74  O   UNL A   1      42.656  25.435  24.586  1.00  0.00    -0.237 OA
ATOM     75  O   UNL A   1      45.037  24.812  24.635  1.00  0.00    -0.744 OA
ENDBRANCH  71  72
ENDBRANCH  43  66
BRANCH  55  76
ATOM     76  C   UNL A   1      42.785  35.643  29.361  1.00  0.00    -0.014 A 
ATOM     77  C   UNL A   1      42.202  36.420  28.347  1.00  0.00     0.010 A 
ATOM     78  C   UNL A   1      43.586  36.317  30.312  1.00  0.00     0.010 A 
ATOM     79  C   UNL A   1      42.473  37.787  28.235  1.00  0.00     0.020 A 
ATOM     80  C   UNL A   1      43.826  37.690  30.237  1.00  0.00     0.020 A 
ATOM     81  C   UNL A   1      43.290  38.412  29.178  1.00  0.00     0.054 A 
BRANCH  81  82
ATOM     82  S   UNL A   1      43.586  40.191  29.053  1.00  0.00     0.124 S 
ATOM     83  O   UNL A   1      44.789  40.237  28.227  1.00  0.00    -0.237 OA
ATOM     84  O   UNL A   1      42.368  40.682  28.413  1.00  0.00    -0.237 OA
ATOM     85  O   UNL A   1      43.762  40.607  30.443  1.00  0.00    -0.744 OA
ENDBRANCH  81  82
ENDBRANCH  55  76
ENDBRANCH  29  30
ENDBRANCH  22  24
ENDBRANCH  21  22
ENDBRANCH   1  21
TORSDOF 18
ENDMDL
MODEL 2
REMARK VINA RESULT:     -11.3      5.649     11.975
REMARK SMILES Cc1cccc([C@H]([NH3+])[C@H](O)C(=O)OCCOC(=O)c2ccc(-c3c4nc(c(-c5ccc(S(=O)(=O)[O-])cc5)c5ccc([nH]5)c(-c5ccc(S(=O)(=O)[O-])cc5)c5nc(c(-c6ccc(S(=O)(=O)[O-])cc6)c6ccc3[nH]6)C=C5)C=C4)cc2)c1
REMARK SMILES IDX 15 1 14 2 13 3 11 4 12 5 9 6 7 7 6 8 1 9 2 10 3 11 79 12
REMARK SMILES IDX 4 13 5 14 8 15 10 19 16 21 17 22 18 23 19 24 20 25 78 26
REMARK SMILES IDX 21 27 77 28 22 29 23 30 24 31 71 32 25 33 76 34 70 35 72 36
REMARK SMILES IDX 26 37 75 38 69 39 68 40 27 42 57 43 38 44 56 45 39 46 42 47
REMARK SMILES IDX 55 48 73 49 40 50 41 51 54 53 74 54 43 55 28 56 29 57 37 58
REMARK SMILES IDX 30 59 36 60 31 61 32 62 33 63 34 64 35 65 58 66 59 67 67 68
REMARK SMILES IDX 60 69 66 70 61 71 62 72 63 73 64 74 65 75 44 76 45 77 53 78
REMARK SMILES IDX 46 79 52 80 47 81 48 82 49 83 50 84 51 85
REMARK H PARENT 8 16 8 17 8 18 10 20 72 41 42 52
REMARK Flexibility Score: inf
ROOT
ATOM      1  C   UNL A   1      33.855  31.160  27.646  1.00  0.00     0.275 C 
ENDROOT
BRANCH   1   2
ATOM      2  C   UNL A   1      32.770  30.135  27.269  1.00  0.00     0.274 C 
BRANCH   2   3
ATOM      3  O   UNL A   1      32.437  30.273  25.878  1.00  0.00    -0.460 OA
BRANCH   3   4
ATOM      4  C   UNL A   1      32.217  29.094  25.220  1.00  0.00     0.341 C 
ATOM      5  O   UNL A   1      31.663  28.139  25.719  1.00  0.00    -0.249 OA
BRANCH   4   6
ATOM      6  C   UNL A   1      32.728  29.210  23.767  1.00  0.00     0.287 C 
BRANCH   6   7
ATOM      7  C   UNL A   1      31.792  28.501  22.733  1.00  0.00     0.252 C 
BRANCH   7   8
ATOM      8  C   UNL A   1      30.332  28.950  22.673  1.00  0.00     0.013 A 
ATOM      9  C   UNL A   1      28.355  32.093  21.718  1.00  0.00     0.044 C 
ATOM     10  C   UNL A   1      28.686  30.721  22.224  1.00  0.00    -0.051 A 
ATOM     11  C   UNL A   1      27.657  29.861  22.614  1.00  0.00     0.003 A 
ATOM     12  C   UNL A   1      30.013  30.265  22.271  1.00  0.00     0.013 A 
ATOM     13  C   UNL A   1      27.949  28.566  23.029  1.00  0.00     0.001 A 
ATOM     14  C   UNL A   1      29.269  28.114  23.045  1.00  0.00     0.010 A 
ENDBRANCH   7   8
BRANCH   7  15
ATOM     15  N   UNL A   1      31.864  27.026  22.912  1.00  0.00    -0.349 N 
ATOM     16  H   UNL A   1      32.573  26.803  23.611  1.00  0.00     0.345 HD
ATOM     17  H   UNL A   1      32.114  26.588  22.024  1.00  0.00     0.345 HD
ATOM     18  H   UNL A   1      30.958  26.676  23.222  1.00  0.00     0.345 HD
ENDBRANCH   7  15
ENDBRANCH   6   7
BRANCH   6  19
ATOM     19  O   UNL A   1      34.106  28.852  23.642  1.00  0.00    -0.376 OA
ATOM     20  H   UNL A   1      34.628  29.644  23.439  1.00  0.00     0.212 HD
ENDBRANCH   6  19
ENDBRANCH   4   6
ENDBRANCH   3   4
ENDBRANCH   2   3
ENDBRANCH   1   2
BRANCH   1  21
ATOM     21  O   UNL A   1      35.224  30.745  27.429  1.00  0.00    -0.458 OA
BRANCH  21  22
ATOM     22  C   UNL A   1      36.077  30.877  28.484  1.00  0.00     0.338 C 
ATOM     23  O   UNL A   1      35.833  31.525  29.489  1.00  0.00    -0.246 OA
BRANCH  22  24
ATOM     24  C   UNL A   1      37.111  29.805  28.363  1.00  0.00     0.060 A 
ATOM     25  C   UNL A   1      38.048  29.857  27.322  1.00  0.00     0.016 A 
ATOM     26  C   UNL A   1      37.344  28.982  29.467  1.00  0.00     0.016 A 
ATOM     27  C   UNL A   1      39.291  29.227  27.463  1.00  0.00     0.010 A 
ATOM     28  C   UNL A   1      38.590  28.425  29.640  1.00  0.00     0.010 A 
ATOM     29  C   UNL A   1      39.579  28.559  28.653  1.00  0.00    -0.014 A 
BRANCH  29  30
ATOM     30  C   UNL A   1      40.775  27.754  28.899  1.00  0.00     0.031 A 
ATOM     31  C   UNL A   1      40.951  26.340  28.497  1.00  0.00     0.074 A 
ATOM     32  C   UNL A   1      41.790  28.463  29.438  1.00  0.00     0.049 A 
ATOM     33  N   UNL A   1      41.878  25.565  28.955  1.00  0.00    -0.248 NA
ATOM     34  C   UNL A   1      40.065  25.652  27.571  1.00  0.00     0.031 C 
ATOM     35  C   UNL A   1      43.198  28.131  29.545  1.00  0.00     0.029 A 
ATOM     36  N   UNL A   1      41.645  29.617  30.218  1.00  0.00    -0.354 N 
ATOM     37  C   UNL A   1      41.885  24.409  28.193  1.00  0.00     0.074 A 
ATOM     38  C   UNL A   1      40.668  24.467  27.425  1.00  0.00     0.031 C 
ATOM     39  C   UNL A   1      43.714  28.842  30.565  1.00  0.00     0.029 A 
ATOM     40  C   UNL A   1      42.594  29.502  31.230  1.00  0.00     0.049 A 
ATOM     41  H   UNL A   1      41.007  30.354  30.080  1.00  0.00     0.167 HD
ATOM     42  C   UNL A   1      42.994  23.612  28.187  1.00  0.00     0.031 A 
ATOM     43  C   UNL A   1      42.236  29.335  32.538  1.00  0.00     0.031 A 
ATOM     44  C   UNL A   1      43.967  24.082  29.169  1.00  0.00     0.049 A 
ATOM     45  C   UNL A   1      42.861  28.084  33.096  1.00  0.00     0.074 A 
ATOM     46  C   UNL A   1      45.084  24.890  29.051  1.00  0.00     0.029 A 
ATOM     47  N   UNL A   1      43.668  24.001  30.524  1.00  0.00    -0.354 N 
ATOM     48  N   UNL A   1      43.067  26.995  32.405  1.00  0.00    -0.248 NA
ATOM     49  C   UNL A   1      43.348  27.999  34.466  1.00  0.00     0.031 C 
ATOM     50  C   UNL A   1      45.377  25.404  30.339  1.00  0.00     0.029 A 
ATOM     51  C   UNL A   1      44.471  24.865  31.239  1.00  0.00     0.049 A 
ATOM     52  H   UNL A   1      42.982  23.412  30.915  1.00  0.00     0.167 HD
ATOM     53  C   UNL A   1      43.810  26.132  33.166  1.00  0.00     0.074 A 
ATOM     54  C   UNL A   1      43.919  26.784  34.462  1.00  0.00     0.031 C 
ATOM     55  C   UNL A   1      44.349  24.976  32.682  1.00  0.00     0.031 A 
BRANCH  42  56
ATOM     56  C   UNL A   1      43.345  22.602  27.105  1.00  0.00    -0.014 A 
ATOM     57  C   UNL A   1      42.595  21.407  27.011  1.00  0.00     0.010 A 
ATOM     58  C   UNL A   1      44.432  22.711  26.217  1.00  0.00     0.010 A 
ATOM     59  C   UNL A   1      42.964  20.348  26.164  1.00  0.00     0.020 A 
ATOM     60  C   UNL A   1      44.823  21.653  25.373  1.00  0.00     0.020 A 
ATOM     61  C   UNL A   1      44.099  20.467  25.369  1.00  0.00     0.054 A 
BRANCH  61  62
ATOM     62  S   UNL A   1      44.623  19.056  24.356  1.00  0.00     0.124 S 
ATOM     63  O   UNL A   1      43.654  18.027  24.726  1.00  0.00    -0.237 OA
ATOM     64  O   UNL A   1      44.501  19.576  22.998  1.00  0.00    -0.237 OA
ATOM     65  O   UNL A   1      45.993  18.799  24.798  1.00  0.00    -0.744 OA
ENDBRANCH  61  62
ENDBRANCH  42  56
BRANCH  43  66
ATOM     66  C   UNL A   1      40.875  29.835  32.911  1.00  0.00    -0.014 A 
ATOM     67  C   UNL A   1      40.421  29.626  34.234  1.00  0.00     0.010 A 
ATOM     68  C   UNL A   1      40.200  30.776  32.113  1.00  0.00     0.010 A 
ATOM     69  C   UNL A   1      39.404  30.418  34.781  1.00  0.00     0.020 A 
ATOM     70  C   UNL A   1      39.164  31.558  32.654  1.00  0.00     0.020 A 
ATOM     71  C   UNL A   1      38.803  31.401  33.996  1.00  0.00     0.054 A 
BRANCH  71  72
ATOM     72  S   UNL A   1      37.686  32.588  34.806  1.00  0.00     0.124 S 
ATOM     73  O   UNL A   1      37.486  31.979  36.116  1.00  0.00    -0.237 OA
ATOM     74  O   UNL A   1      38.481  33.814  34.792  1.00  0.00    -0.237 OA
ATOM     75  O   UNL A   1      36.519  32.604  33.927  1.00  0.00    -0.744 OA
ENDBRANCH  71  72
ENDBRANCH  43  66
BRANCH  55  76
ATOM     76  C   UNL A   1      44.956  23.895  33.534  1.00  0.00    -0.014 A 
ATOM     77  C   UNL A   1      46.240  23.988  34.093  1.00  0.00     0.010 A 
ATOM     78  C   UNL A   1      44.161  22.789  33.918  1.00  0.00     0.010 A 
ATOM     79  C   UNL A   1      46.741  22.984  34.928  1.00  0.00     0.020 A 
ATOM     80  C   UNL A   1      44.634  21.806  34.788  1.00  0.00     0.020 A 
ATOM     81  C   UNL A   1      45.936  21.896  35.265  1.00  0.00     0.054 A 
BRANCH  81  82
ATOM     82  S   UNL A   1      46.577  20.634  36.391  1.00  0.00     0.124 S 
ATOM     83  O   UNL A   1      48.017  20.865  36.310  1.00  0.00    -0.237 OA
ATOM     84  O   UNL A   1      45.957  20.988  37.666  1.00  0.00    -0.237 OA
ATOM     85  O   UNL A   1      46.106  19.381  35.804  1.00  0.00    -0.744 OA
ENDBRANCH  81  82
ENDBRANCH  55  76
ENDBRANCH  29  30
ENDBRANCH  22  24
ENDBRANCH  21  22
ENDBRANCH   1  21
TORSDOF 18
ENDMDL
MODEL 3
REMARK VINA RESULT:     -11.2      5.089     11.512
REMARK SMILES Cc1cccc([C@H]([NH3+])[C@H](O)C(=O)OCCOC(=O)c2ccc(-c3c4nc(c(-c5ccc(S(=O)(=O)[O-])cc5)c5ccc([nH]5)c(-c5ccc(S(=O)(=O)[O-])cc5)c5nc(c(-c6ccc(S(=O)(=O)[O-])cc6)c6ccc3[nH]6)C=C5)C=C4)cc2)c1
REMARK SMILES IDX 15 1 14 2 13 3 11 4 12 5 9 6 7 7 6 8 1 9 2 10 3 11 79 12
REMARK SMILES IDX 4 13 5 14 8 15 10 19 16 21 17 22 18 23 19 24 20 25 78 26
REMARK SMILES IDX 21 27 77 28 22 29 23 30 24 31 71 32 25 33 76 34 70 35 72 36
REMARK SMILES IDX 26 37 75 38 69 39 68 40 27 42 57 43 38 44 56 45 39 46 42 47
REMARK SMILES IDX 55 48 73 49 40 50 41 51 54 53 74 54 43 55 28 56 29 57 37 58
REMARK SMILES IDX 30 59 36 60 31 61 32 62 33 63 34 64 35 65 58 66 59 67 67 68
REMARK SMILES IDX 60 69 66 70 61 71 62 72 63 73 64 74 65 75 44 76 45 77 53 78
REMARK SMILES IDX 46 79 52 80 47 81 48 82 49 83 50 84 51 85
REMARK H PARENT 8 16 8 17 8 18 10 20 72 41 42 52
REMARK Flexibility Score: inf
ROOT
ATOM      1  C   UNL A   1      34.127  30.438  27.102  1.00  0.00     0.275 C 
ENDROOT
BRANCH   1   2
ATOM      2  C   UNL A   1      32.593  30.384  27.221  1.00  0.00     0.274 C 
BRANCH   2   3
ATOM      3  O   UNL A   1      32.010  30.293  25.910  1.00  0.00    -0.460 OA
BRANCH   3   4
ATOM      4  C   UNL A   1      31.572  29.046  25.561  1.00  0.00     0.341 C 
ATOM      5  O   UNL A   1      31.431  28.137  26.350  1.00  0.00    -0.249 OA
BRANCH   4   6
ATOM      6  C   UNL A   1      31.248  29.016  24.051  1.00  0.00     0.287 C 
BRANCH   6   7
ATOM      7  C   UNL A   1      32.485  28.642  23.169  1.00  0.00     0.252 C 
BRANCH   7   8
ATOM      8  C   UNL A   1      32.878  27.167  23.087  1.00  0.00     0.013 A 
ATOM      9  C   UNL A   1      34.896  24.636  25.143  1.00  0.00     0.044 C 
ATOM     10  C   UNL A   1      34.096  25.252  24.034  1.00  0.00    -0.051 A 
ATOM     11  C   UNL A   1      33.699  24.466  22.949  1.00  0.00     0.003 A 
ATOM     12  C   UNL A   1      33.696  26.596  24.087  1.00  0.00     0.013 A 
ATOM     13  C   UNL A   1      32.908  25.011  21.945  1.00  0.00     0.001 A 
ATOM     14  C   UNL A   1      32.492  26.341  22.022  1.00  0.00     0.010 A 
ENDBRANCH   7   8
BRANCH   7  15
ATOM     15  N   UNL A   1      33.661  29.460  23.571  1.00  0.00    -0.349 N 
ATOM     16  H   UNL A   1      33.485  30.440  23.346  1.00  0.00     0.345 HD
ATOM     17  H   UNL A   1      34.487  29.139  23.065  1.00  0.00     0.345 HD
ATOM     18  H   UNL A   1      33.817  29.364  24.574  1.00  0.00     0.345 HD
ENDBRANCH   7  15
ENDBRANCH   6   7
BRANCH   6  19
ATOM     19  O   UNL A   1      30.562  30.191  23.616  1.00  0.00    -0.376 OA
ATOM     20  H   UNL A   1      30.463  30.169  22.651  1.00  0.00     0.212 HD
ENDBRANCH   6  19
ENDBRANCH   4   6
ENDBRANCH   3   4
ENDBRANCH   2   3
ENDBRANCH   1   2
BRANCH   1  21
ATOM     21  O   UNL A   1      34.860  30.451  28.350  1.00  0.00    -0.458 OA
BRANCH  21  22
ATOM     22  C   UNL A   1      36.088  31.045  28.332  1.00  0.00     0.338 C 
ATOM     23  O   UNL A   1      36.295  32.201  28.662  1.00  0.00    -0.246 OA
BRANCH  22  24
ATOM     24  C   UNL A   1      37.112  29.961  28.248  1.00  0.00     0.060 A 
ATOM     25  C   UNL A   1      38.019  29.942  27.180  1.00  0.00     0.016 A 
ATOM     26  C   UNL A   1      37.372  29.205  29.393  1.00  0.00     0.016 A 
ATOM     27  C   UNL A   1      39.262  29.313  27.324  1.00  0.00     0.010 A 
ATOM     28  C   UNL A   1      38.619  28.651  29.565  1.00  0.00     0.010 A 
ATOM     29  C   UNL A   1      39.581  28.717  28.544  1.00  0.00    -0.014 A 
BRANCH  29  30
ATOM     30  C   UNL A   1      40.779  27.920  28.805  1.00  0.00     0.031 A 
ATOM     31  C   UNL A   1      40.965  26.504  28.415  1.00  0.00     0.074 A 
ATOM     32  C   UNL A   1      41.786  28.638  29.346  1.00  0.00     0.049 A 
ATOM     33  N   UNL A   1      41.892  25.737  28.886  1.00  0.00    -0.248 NA
ATOM     34  C   UNL A   1      40.089  25.805  27.488  1.00  0.00     0.031 C 
ATOM     35  C   UNL A   1      43.195  28.315  29.466  1.00  0.00     0.029 A 
ATOM     36  N   UNL A   1      41.629  29.797  30.116  1.00  0.00    -0.354 N 
ATOM     37  C   UNL A   1      41.911  24.576  28.133  1.00  0.00     0.074 A 
ATOM     38  C   UNL A   1      40.700  24.621  27.355  1.00  0.00     0.031 C 
ATOM     39  C   UNL A   1      43.699  29.036  30.484  1.00  0.00     0.029 A 
ATOM     40  C   UNL A   1      42.571  29.695  31.137  1.00  0.00     0.049 A 
ATOM     41  H   UNL A   1      40.988  30.530  29.968  1.00  0.00     0.167 HD
ATOM     42  C   UNL A   1      43.024  23.785  28.141  1.00  0.00     0.031 A 
ATOM     43  C   UNL A   1      42.204  29.536  32.443  1.00  0.00     0.031 A 
ATOM     44  C   UNL A   1      43.987  24.267  29.127  1.00  0.00     0.049 A 
ATOM     45  C   UNL A   1      42.831  28.292  33.015  1.00  0.00     0.074 A 
ATOM     46  C   UNL A   1      45.101  25.080  29.010  1.00  0.00     0.029 A 
ATOM     47  N   UNL A   1      43.678  24.194  30.479  1.00  0.00    -0.354 N 
ATOM     48  N   UNL A   1      43.048  27.200  32.333  1.00  0.00    -0.248 NA
ATOM     49  C   UNL A   1      43.308  28.220  34.389  1.00  0.00     0.031 C 
ATOM     50  C   UNL A   1      45.382  25.605  30.297  1.00  0.00     0.029 A 
ATOM     51  C   UNL A   1      44.471  25.068  31.194  1.00  0.00     0.049 A 
ATOM     52  H   UNL A   1      42.993  23.605  30.870  1.00  0.00     0.167 HD
ATOM     53  C   UNL A   1      43.790  26.346  33.106  1.00  0.00     0.074 A 
ATOM     54  C   UNL A   1      43.886  27.008  34.398  1.00  0.00     0.031 C 
ATOM     55  C   UNL A   1      44.338  25.189  32.635  1.00  0.00     0.031 A 
BRANCH  42  56
ATOM     56  C   UNL A   1      43.389  22.768  27.070  1.00  0.00    -0.014 A 
ATOM     57  C   UNL A   1      42.608  21.596  26.940  1.00  0.00     0.010 A 
ATOM     58  C   UNL A   1      44.512  22.848  26.226  1.00  0.00     0.010 A 
ATOM     59  C   UNL A   1      42.979  20.529  26.103  1.00  0.00     0.020 A 
ATOM     60  C   UNL A   1      44.906  21.782  25.394  1.00  0.00     0.020 A 
ATOM     61  C   UNL A   1      44.148  20.617  25.355  1.00  0.00     0.054 A 
BRANCH  61  62
ATOM     62  S   UNL A   1      44.671  19.195  24.358  1.00  0.00     0.124 S 
ATOM     63  O   UNL A   1      46.068  19.032  24.751  1.00  0.00    -0.237 OA
ATOM     64  O   UNL A   1      43.764  18.142  24.804  1.00  0.00    -0.237 OA
ATOM     65  O   UNL A   1      44.468  19.642  22.980  1.00  0.00    -0.744 OA
ENDBRANCH  61  62
ENDBRANCH  42  56
BRANCH  43  66
ATOM     66  C   UNL A   1      40.838  30.032  32.801  1.00  0.00    -0.014 A 
ATOM     67  C   UNL A   1      40.261  29.595  34.016  1.00  0.00     0.010 A 
ATOM     68  C   UNL A   1      40.275  31.149  32.159  1.00  0.00     0.010 A 
ATOM     69  C   UNL A   1      39.235  30.321  34.631  1.00  0.00     0.020 A 
ATOM     70  C   UNL A   1      39.230  31.869  32.763  1.00  0.00     0.020 A 
ATOM     71  C   UNL A   1      38.746  31.472  34.014  1.00  0.00     0.054 A 
BRANCH  71  72
ATOM     72  S   UNL A   1      37.613  32.541  34.957  1.00  0.00     0.124 S 
ATOM     73  O   UNL A   1      37.529  31.848  36.238  1.00  0.00    -0.237 OA
ATOM     74  O   UNL A   1      38.332  33.813  34.971  1.00  0.00    -0.237 OA
ATOM     75  O   UNL A   1      36.395  32.535  34.149  1.00  0.00    -0.744 OA
ENDBRANCH  71  72
ENDBRANCH  43  66
BRANCH  55  76
ATOM     76  C   UNL A   1      44.944  24.117  33.500  1.00  0.00    -0.014 A 
ATOM     77  C   UNL A   1      44.270  22.934  33.841  1.00  0.00     0.010 A 
ATOM     78  C   UNL A   1      46.303  24.220  33.878  1.00  0.00     0.010 A 
ATOM     79  C   UNL A   1      44.894  21.937  34.598  1.00  0.00     0.020 A 
ATOM     80  C   UNL A   1      46.950  23.211  34.593  1.00  0.00     0.020 A 
ATOM     81  C   UNL A   1      46.229  22.086  34.974  1.00  0.00     0.054 A 
BRANCH  81  82
ATOM     82  S   UNL A   1      47.041  20.763  35.903  1.00  0.00     0.124 S 
ATOM     83  O   UNL A   1      46.393  19.573  35.357  1.00  0.00    -0.237 OA
ATOM     84  O   UNL A   1      48.448  20.929  35.548  1.00  0.00    -0.237 OA
ATOM     85  O   UNL A   1      46.716  21.073  37.294  1.00  0.00    -0.744 OA
ENDBRANCH  81  82
ENDBRANCH  55  76
ENDBRANCH  29  30
ENDBRANCH  22  24
ENDBRANCH  21  22
ENDBRANCH   1  21
TORSDOF 18
ENDMDL
