MODEL 1
REMARK VINA RESULT:      -9.2      0.000      0.000
REMARK SMILES CCC[N@@H+](C1CC1)[C@@H]1CC[C@]([NH2+]C2CC2)(C(=O)OCCOC(=O)c2ccc(-c3c4nc(c(-c5ccc(S(=O)(=O)[O-])cc5)c5ccc([nH]5)c(-c5ccc(S(=O)(=O)[O-])cc5)c5nc(c(-c6ccc(S(=O)(=O)[O-])cc6)c6ccc3[nH]6)C=C5)C=C4)cc2)C1
REMARK SMILES IDX 19 1 18 2 16 3 17 4 11 5 8 6 9 7 84 8 10 9 4 10 3 12 2 13
REMARK SMILES IDX 1 14 5 15 6 16 7 17 12 18 13 21 14 22 15 23 20 24 21 25
REMARK SMILES IDX 22 26 23 27 24 28 25 29 83 30 26 31 82 32 27 33 28 34 29 35
REMARK SMILES IDX 76 36 30 37 81 38 75 39 77 40 31 41 80 42 74 43 73 44 32 46
REMARK SMILES IDX 62 47 43 48 61 49 44 50 47 51 60 52 78 53 45 54 46 55 59 57
REMARK SMILES IDX 79 58 48 59 33 60 34 61 42 62 35 63 41 64 36 65 37 66 38 67
REMARK SMILES IDX 39 68 40 69 63 70 64 71 72 72 65 73 71 74 66 75 67 76 68 77
REMARK SMILES IDX 69 78 70 79 49 80 50 81 58 82 51 83 57 84 52 85 53 86 54 87
REMARK SMILES IDX 55 88 56 89
REMARK H PARENT 4 11 12 19 12 20 77 45 47 56
REMARK Flexibility Score: inf
ROOT
ATOM      1  C   UNL A   1      31.694  31.312  26.845  1.00  0.00     0.274 C 
ENDROOT
BRANCH   1   2
ATOM      2  O   UNL A   1      32.470  30.782  25.752  1.00  0.00    -0.457 OA
BRANCH   2   3
ATOM      3  C   UNL A   1      32.158  29.513  25.342  1.00  0.00     0.368 C 
ATOM      4  O   UNL A   1      31.067  29.194  24.882  1.00  0.00    -0.245 OA
BRANCH   3   5
ATOM      5  C   UNL A   1      33.313  28.509  25.625  1.00  0.00     0.200 C 
ATOM      6  C   UNL A   1      33.828  26.189  24.978  1.00  0.00     0.191 C 
ATOM      7  C   UNL A   1      32.767  26.170  26.094  1.00  0.00     0.072 C 
ATOM      8  C   UNL A   1      33.533  27.591  24.403  1.00  0.00     0.146 C 
ATOM      9  C   UNL A   1      32.826  27.559  26.735  1.00  0.00     0.087 C 
BRANCH   6  10
ATOM     10  N   UNL A   1      33.805  25.063  24.002  1.00  0.00    -0.330 N 
ATOM     11  H   UNL A   1      32.987  24.534  24.304  1.00  0.00     0.348 HD
BRANCH  10  12
ATOM     12  C   UNL A   1      33.705  25.579  22.600  1.00  0.00     0.262 C 
BRANCH  12  13
ATOM     13  C   UNL A   1      32.498  25.099  21.788  1.00  0.00     0.058 C 
ATOM     14  C   UNL A   1      32.574  25.505  20.319  1.00  0.00     0.010 C 
ENDBRANCH  12  13
ENDBRANCH  10  12
BRANCH  10  15
ATOM     15  C   UNL A   1      34.968  24.114  24.025  1.00  0.00     0.184 C 
ATOM     16  C   UNL A   1      35.723  23.763  25.277  1.00  0.00     0.071 C 
ATOM     17  C   UNL A   1      34.933  22.710  24.545  1.00  0.00     0.071 C 
ENDBRANCH  10  15
ENDBRANCH   6  10
BRANCH   5  18
ATOM     18  N   UNL A   1      34.542  29.266  25.994  1.00  0.00    -0.329 N 
ATOM     19  H   UNL A   1      34.369  30.248  25.783  1.00  0.00     0.347 HD
ATOM     20  H   UNL A   1      35.287  28.826  25.453  1.00  0.00     0.347 HD
BRANCH  18  21
ATOM     21  C   UNL A   1      34.997  29.190  27.381  1.00  0.00     0.183 C 
ATOM     22  C   UNL A   1      36.465  29.336  27.679  1.00  0.00     0.071 C 
ATOM     23  C   UNL A   1      35.516  30.437  28.041  1.00  0.00     0.071 C 
ENDBRANCH  18  21
ENDBRANCH   5  18
ENDBRANCH   3   5
ENDBRANCH   2   3
ENDBRANCH   1   2
BRANCH   1  24
ATOM     24  C   UNL A   1      31.997  32.797  27.029  1.00  0.00     0.275 C 
BRANCH  24  25
ATOM     25  O   UNL A   1      33.265  32.938  27.689  1.00  0.00    -0.458 OA
BRANCH  25  26
ATOM     26  C   UNL A   1      33.383  33.981  28.540  1.00  0.00     0.338 C 
ATOM     27  O   UNL A   1      32.697  34.996  28.547  1.00  0.00    -0.246 OA
BRANCH  26  28
ATOM     28  C   UNL A   1      34.498  33.744  29.485  1.00  0.00     0.060 A 
ATOM     29  C   UNL A   1      35.743  34.338  29.293  1.00  0.00     0.016 A 
ATOM     30  C   UNL A   1      34.324  32.846  30.539  1.00  0.00     0.016 A 
ATOM     31  C   UNL A   1      36.826  33.955  30.090  1.00  0.00     0.010 A 
ATOM     32  C   UNL A   1      35.398  32.531  31.385  1.00  0.00     0.010 A 
ATOM     33  C   UNL A   1      36.690  33.029  31.137  1.00  0.00    -0.014 A 
BRANCH  33  34
ATOM     34  C   UNL A   1      37.884  32.514  31.892  1.00  0.00     0.031 A 
ATOM     35  C   UNL A   1      38.823  31.505  31.253  1.00  0.00     0.074 A 
ATOM     36  C   UNL A   1      38.199  32.967  33.127  1.00  0.00     0.049 A 
ATOM     37  N   UNL A   1      39.778  30.795  31.805  1.00  0.00    -0.248 NA
ATOM     38  C   UNL A   1      38.662  31.250  29.813  1.00  0.00     0.031 C 
ATOM     39  C   UNL A   1      37.465  33.982  33.882  1.00  0.00     0.029 A 
ATOM     40  N   UNL A   1      39.252  32.646  33.957  1.00  0.00    -0.354 N 
ATOM     41  C   UNL A   1      40.266  29.958  30.805  1.00  0.00     0.074 A 
ATOM     42  C   UNL A   1      39.516  30.258  29.607  1.00  0.00     0.031 C 
ATOM     43  C   UNL A   1      38.135  34.269  35.007  1.00  0.00     0.029 A 
ATOM     44  C   UNL A   1      39.277  33.371  35.126  1.00  0.00     0.049 A 
ATOM     45  H   UNL A   1      39.924  31.962  33.732  1.00  0.00     0.167 HD
ATOM     46  C   UNL A   1      41.242  29.018  30.873  1.00  0.00     0.031 A 
ATOM     47  C   UNL A   1      40.086  33.301  36.203  1.00  0.00     0.031 A 
ATOM     48  C   UNL A   1      42.049  28.757  32.037  1.00  0.00     0.049 A 
ATOM     49  C   UNL A   1      41.151  32.243  36.270  1.00  0.00     0.074 A 
ATOM     50  C   UNL A   1      43.039  27.802  32.202  1.00  0.00     0.029 A 
ATOM     51  N   UNL A   1      41.987  29.475  33.220  1.00  0.00    -0.354 N 
ATOM     52  N   UNL A   1      41.490  31.358  35.366  1.00  0.00    -0.248 NA
ATOM     53  C   UNL A   1      41.914  32.150  37.524  1.00  0.00     0.031 C 
ATOM     54  C   UNL A   1      43.559  27.926  33.496  1.00  0.00     0.029 A 
ATOM     55  C   UNL A   1      42.922  28.986  34.118  1.00  0.00     0.049 A 
ATOM     56  H   UNL A   1      41.371  30.222  33.396  1.00  0.00     0.167 HD
ATOM     57  C   UNL A   1      42.495  30.593  35.947  1.00  0.00     0.074 A 
ATOM     58  C   UNL A   1      42.735  31.141  37.265  1.00  0.00     0.031 C 
ATOM     59  C   UNL A   1      43.147  29.521  35.435  1.00  0.00     0.031 A 
BRANCH  46  60
ATOM     60  C   UNL A   1      41.464  28.153  29.660  1.00  0.00    -0.014 A 
ATOM     61  C   UNL A   1      42.504  28.407  28.749  1.00  0.00     0.010 A 
ATOM     62  C   UNL A   1      40.641  27.028  29.464  1.00  0.00     0.010 A 
ATOM     63  C   UNL A   1      42.696  27.570  27.646  1.00  0.00     0.020 A 
ATOM     64  C   UNL A   1      40.845  26.174  28.376  1.00  0.00     0.020 A 
ATOM     65  C   UNL A   1      41.862  26.461  27.464  1.00  0.00     0.054 A 
BRANCH  65  66
ATOM     66  S   UNL A   1      42.148  25.370  26.042  1.00  0.00     0.124 S 
ATOM     67  O   UNL A   1      43.601  25.232  26.057  1.00  0.00    -0.237 OA
ATOM     68  O   UNL A   1      41.399  24.168  26.400  1.00  0.00    -0.237 OA
ATOM     69  O   UNL A   1      41.605  26.123  24.913  1.00  0.00    -0.744 OA
ENDBRANCH  65  66
ENDBRANCH  46  60
BRANCH  47  70
ATOM     70  C   UNL A   1      39.868  34.227  37.349  1.00  0.00    -0.014 A 
ATOM     71  C   UNL A   1      39.066  33.842  38.437  1.00  0.00     0.010 A 
ATOM     72  C   UNL A   1      40.494  35.487  37.372  1.00  0.00     0.010 A 
ATOM     73  C   UNL A   1      38.904  34.696  39.533  1.00  0.00     0.020 A 
ATOM     74  C   UNL A   1      40.360  36.329  38.477  1.00  0.00     0.020 A 
ATOM     75  C   UNL A   1      39.560  35.930  39.549  1.00  0.00     0.054 A 
BRANCH  75  76
ATOM     76  S   UNL A   1      39.427  36.985  41.020  1.00  0.00     0.124 S 
ATOM     77  O   UNL A   1      38.623  36.159  41.914  1.00  0.00    -0.237 OA
ATOM     78  O   UNL A   1      40.822  37.168  41.413  1.00  0.00    -0.237 OA
ATOM     79  O   UNL A   1      38.770  38.188  40.515  1.00  0.00    -0.744 OA
ENDBRANCH  75  76
ENDBRANCH  47  70
BRANCH  59  80
ATOM     80  C   UNL A   1      44.192  28.872  36.300  1.00  0.00    -0.014 A 
ATOM     81  C   UNL A   1      45.491  29.404  36.385  1.00  0.00     0.010 A 
ATOM     82  C   UNL A   1      43.864  27.734  37.059  1.00  0.00     0.010 A 
ATOM     83  C   UNL A   1      46.455  28.787  37.187  1.00  0.00     0.020 A 
ATOM     84  C   UNL A   1      44.821  27.127  37.878  1.00  0.00     0.020 A 
ATOM     85  C   UNL A   1      46.116  27.649  37.924  1.00  0.00     0.054 A 
BRANCH  85  86
ATOM     86  S   UNL A   1      47.377  26.876  38.975  1.00  0.00     0.124 S 
ATOM     87  O   UNL A   1      48.400  27.915  39.034  1.00  0.00    -0.237 OA
ATOM     88  O   UNL A   1      46.655  26.633  40.221  1.00  0.00    -0.237 OA
ATOM     89  O   UNL A   1      47.753  25.673  38.236  1.00  0.00    -0.744 OA
ENDBRANCH  85  86
ENDBRANCH  59  80
ENDBRANCH  33  34
ENDBRANCH  26  28
ENDBRANCH  25  26
ENDBRANCH  24  25
ENDBRANCH   1  24
TORSDOF 20
ENDMDL
MODEL 2
REMARK VINA RESULT:      -9.1      6.234     12.589
REMARK SMILES CCC[N@@H+](C1CC1)[C@@H]1CC[C@]([NH2+]C2CC2)(C(=O)OCCOC(=O)c2ccc(-c3c4nc(c(-c5ccc(S(=O)(=O)[O-])cc5)c5ccc([nH]5)c(-c5ccc(S(=O)(=O)[O-])cc5)c5nc(c(-c6ccc(S(=O)(=O)[O-])cc6)c6ccc3[nH]6)C=C5)C=C4)cc2)C1
REMARK SMILES IDX 19 1 18 2 16 3 17 4 11 5 8 6 9 7 84 8 10 9 4 10 3 12 2 13
REMARK SMILES IDX 1 14 5 15 6 16 7 17 12 18 13 21 14 22 15 23 20 24 21 25
REMARK SMILES IDX 22 26 23 27 24 28 25 29 83 30 26 31 82 32 27 33 28 34 29 35
REMARK SMILES IDX 76 36 30 37 81 38 75 39 77 40 31 41 80 42 74 43 73 44 32 46
REMARK SMILES IDX 62 47 43 48 61 49 44 50 47 51 60 52 78 53 45 54 46 55 59 57
REMARK SMILES IDX 79 58 48 59 33 60 34 61 42 62 35 63 41 64 36 65 37 66 38 67
REMARK SMILES IDX 39 68 40 69 63 70 64 71 72 72 65 73 71 74 66 75 67 76 68 77
REMARK SMILES IDX 69 78 70 79 49 80 50 81 58 82 51 83 57 84 52 85 53 86 54 87
REMARK SMILES IDX 55 88 56 89
REMARK H PARENT 4 11 12 19 12 20 77 45 47 56
REMARK Flexibility Score: inf
ROOT
ATOM      1  C   UNL A   1      34.913  32.496  27.728  1.00  0.00     0.274 C 
ENDROOT
BRANCH   1   2
ATOM      2  O   UNL A   1      35.293  33.536  28.651  1.00  0.00    -0.457 OA
BRANCH   2   3
ATOM      3  C   UNL A   1      34.335  33.943  29.540  1.00  0.00     0.368 C 
ATOM      4  O   UNL A   1      33.176  34.193  29.226  1.00  0.00    -0.245 OA
BRANCH   3   5
ATOM      5  C   UNL A   1      34.916  34.152  30.968  1.00  0.00     0.200 C 
ATOM      6  C   UNL A   1      36.722  33.136  32.300  1.00  0.00     0.191 C 
ATOM      7  C   UNL A   1      35.506  32.192  32.310  1.00  0.00     0.072 C 
ATOM      8  C   UNL A   1      36.434  33.870  30.972  1.00  0.00     0.146 C 
ATOM      9  C   UNL A   1      34.319  33.052  31.865  1.00  0.00     0.087 C 
BRANCH   6  10
ATOM     10  N   UNL A   1      38.068  32.509  32.423  1.00  0.00    -0.330 N 
ATOM     11  H   UNL A   1      38.649  33.301  32.703  1.00  0.00     0.348 HD
BRANCH  10  12
ATOM     12  C   UNL A   1      38.046  31.396  33.425  1.00  0.00     0.262 C 
BRANCH  12  13
ATOM     13  C   UNL A   1      38.307  31.793  34.881  1.00  0.00     0.058 C 
ATOM     14  C   UNL A   1      39.525  32.700  35.038  1.00  0.00     0.010 C 
ENDBRANCH  12  13
ENDBRANCH  10  12
BRANCH  10  15
ATOM     15  C   UNL A   1      38.678  31.945  31.173  1.00  0.00     0.184 C 
ATOM     16  C   UNL A   1      39.759  32.642  30.393  1.00  0.00     0.071 C 
ATOM     17  C   UNL A   1      40.038  31.326  31.071  1.00  0.00     0.071 C 
ENDBRANCH  10  15
ENDBRANCH   6  10
BRANCH   5  18
ATOM     18  N   UNL A   1      34.596  35.530  31.432  1.00  0.00    -0.329 N 
ATOM     19  H   UNL A   1      34.020  35.967  30.713  1.00  0.00     0.347 HD
ATOM     20  H   UNL A   1      35.504  35.966  31.592  1.00  0.00     0.347 HD
BRANCH  18  21
ATOM     21  C   UNL A   1      33.889  35.673  32.703  1.00  0.00     0.183 C 
ATOM     22  C   UNL A   1      33.863  37.017  33.380  1.00  0.00     0.071 C 
ATOM     23  C   UNL A   1      32.620  36.479  32.740  1.00  0.00     0.071 C 
ENDBRANCH  18  21
ENDBRANCH   5  18
ENDBRANCH   3   5
ENDBRANCH   2   3
ENDBRANCH   1   2
BRANCH   1  24
ATOM     24  C   UNL A   1      34.974  31.136  28.417  1.00  0.00     0.275 C 
BRANCH  24  25
ATOM     25  O   UNL A   1      36.252  30.536  28.154  1.00  0.00    -0.458 OA
BRANCH  25  26
ATOM     26  C   UNL A   1      36.700  29.656  29.078  1.00  0.00     0.338 C 
ATOM     27  O   UNL A   1      36.110  29.301  30.092  1.00  0.00    -0.246 OA
BRANCH  26  28
ATOM     28  C   UNL A   1      38.049  29.171  28.709  1.00  0.00     0.060 A 
ATOM     29  C   UNL A   1      38.811  28.415  29.596  1.00  0.00     0.016 A 
ATOM     30  C   UNL A   1      38.601  29.549  27.484  1.00  0.00     0.016 A 
ATOM     31  C   UNL A   1      40.146  28.128  29.297  1.00  0.00     0.010 A 
ATOM     32  C   UNL A   1      39.916  29.185  27.158  1.00  0.00     0.010 A 
ATOM     33  C   UNL A   1      40.739  28.523  28.087  1.00  0.00    -0.014 A 
BRANCH  33  34
ATOM     34  C   UNL A   1      42.211  28.340  27.836  1.00  0.00     0.031 A 
ATOM     35  C   UNL A   1      43.203  29.409  28.260  1.00  0.00     0.074 A 
ATOM     36  C   UNL A   1      42.707  27.208  27.287  1.00  0.00     0.049 A 
ATOM     37  N   UNL A   1      44.473  29.530  27.953  1.00  0.00    -0.248 NA
ATOM     38  C   UNL A   1      42.705  30.487  29.128  1.00  0.00     0.031 C 
ATOM     39  C   UNL A   1      41.928  26.040  26.875  1.00  0.00     0.029 A 
ATOM     40  N   UNL A   1      44.007  26.843  27.008  1.00  0.00    -0.354 N 
ATOM     41  C   UNL A   1      44.895  30.731  28.518  1.00  0.00     0.074 A 
ATOM     42  C   UNL A   1      43.752  31.295  29.200  1.00  0.00     0.031 C 
ATOM     43  C   UNL A   1      42.762  25.062  26.493  1.00  0.00     0.029 A 
ATOM     44  C   UNL A   1      44.129  25.568  26.504  1.00  0.00     0.049 A 
ATOM     45  H   UNL A   1      44.776  27.439  27.158  1.00  0.00     0.167 HD
ATOM     46  C   UNL A   1      46.116  31.320  28.468  1.00  0.00     0.031 A 
ATOM     47  C   UNL A   1      45.201  24.887  26.050  1.00  0.00     0.031 A 
ATOM     48  C   UNL A   1      47.282  30.739  27.856  1.00  0.00     0.049 A 
ATOM     49  C   UNL A   1      46.542  25.559  25.986  1.00  0.00     0.074 A 
ATOM     50  C   UNL A   1      48.551  31.281  27.734  1.00  0.00     0.029 A 
ATOM     51  N   UNL A   1      47.336  29.473  27.298  1.00  0.00    -0.354 N 
ATOM     52  N   UNL A   1      46.881  26.760  26.386  1.00  0.00    -0.248 NA
ATOM     53  C   UNL A   1      47.637  24.796  25.368  1.00  0.00     0.031 C 
ATOM     54  C   UNL A   1      49.366  30.351  27.078  1.00  0.00     0.029 A 
ATOM     55  C   UNL A   1      48.614  29.215  26.833  1.00  0.00     0.049 A 
ATOM     56  H   UNL A   1      46.576  28.849  27.240  1.00  0.00     0.167 HD
ATOM     57  C   UNL A   1      48.223  26.902  26.055  1.00  0.00     0.074 A 
ATOM     58  C   UNL A   1      48.645  25.653  25.455  1.00  0.00     0.031 C 
ATOM     59  C   UNL A   1      49.028  27.980  26.221  1.00  0.00     0.031 A 
BRANCH  46  60
ATOM     60  C   UNL A   1      46.248  32.703  29.053  1.00  0.00    -0.014 A 
ATOM     61  C   UNL A   1      46.564  32.908  30.407  1.00  0.00     0.010 A 
ATOM     62  C   UNL A   1      46.104  33.819  28.206  1.00  0.00     0.010 A 
ATOM     63  C   UNL A   1      46.702  34.205  30.910  1.00  0.00     0.020 A 
ATOM     64  C   UNL A   1      46.266  35.116  28.700  1.00  0.00     0.020 A 
ATOM     65  C   UNL A   1      46.548  35.301  30.054  1.00  0.00     0.054 A 
BRANCH  65  66
ATOM     66  S   UNL A   1      46.760  36.975  30.723  1.00  0.00     0.124 S 
ATOM     67  O   UNL A   1      45.852  36.959  31.866  1.00  0.00    -0.237 OA
ATOM     68  O   UNL A   1      48.184  37.012  31.054  1.00  0.00    -0.237 OA
ATOM     69  O   UNL A   1      46.360  37.843  29.619  1.00  0.00    -0.744 OA
ENDBRANCH  65  66
ENDBRANCH  46  60
BRANCH  47  70
ATOM     70  C   UNL A   1      45.028  23.495  25.547  1.00  0.00    -0.014 A 
ATOM     71  C   UNL A   1      45.004  23.232  24.166  1.00  0.00     0.010 A 
ATOM     72  C   UNL A   1      44.925  22.422  26.451  1.00  0.00     0.010 A 
ATOM     73  C   UNL A   1      44.892  21.918  23.699  1.00  0.00     0.020 A 
ATOM     74  C   UNL A   1      44.844  21.107  25.989  1.00  0.00     0.020 A 
ATOM     75  C   UNL A   1      44.821  20.864  24.614  1.00  0.00     0.054 A 
BRANCH  75  76
ATOM     76  S   UNL A   1      44.780  19.157  23.998  1.00  0.00     0.124 S 
ATOM     77  O   UNL A   1      44.462  19.351  22.588  1.00  0.00    -0.237 OA
ATOM     78  O   UNL A   1      46.131  18.679  24.282  1.00  0.00    -0.237 OA
ATOM     79  O   UNL A   1      43.729  18.534  24.800  1.00  0.00    -0.744 OA
ENDBRANCH  75  76
ENDBRANCH  47  70
BRANCH  59  80
ATOM     80  C   UNL A   1      50.452  27.856  25.754  1.00  0.00    -0.014 A 
ATOM     81  C   UNL A   1      51.456  27.386  26.618  1.00  0.00     0.010 A 
ATOM     82  C   UNL A   1      50.785  28.186  24.428  1.00  0.00     0.010 A 
ATOM     83  C   UNL A   1      52.777  27.282  26.174  1.00  0.00     0.020 A 
ATOM     84  C   UNL A   1      52.102  28.064  23.974  1.00  0.00     0.020 A 
ATOM     85  C   UNL A   1      53.093  27.628  24.857  1.00  0.00     0.054 A 
BRANCH  85  86
ATOM     86  S   UNL A   1      54.811  27.466  24.294  1.00  0.00     0.124 S 
ATOM     87  O   UNL A   1      54.749  26.259  23.474  1.00  0.00    -0.237 OA
ATOM     88  O   UNL A   1      55.031  28.711  23.564  1.00  0.00    -0.237 OA
ATOM     89  O   UNL A   1      55.570  27.336  25.536  1.00  0.00    -0.744 OA
ENDBRANCH  85  86
ENDBRANCH  59  80
ENDBRANCH  33  34
ENDBRANCH  26  28
ENDBRANCH  25  26
ENDBRANCH  24  25
ENDBRANCH   1  24
TORSDOF 20
ENDMDL
MODEL 3
REMARK VINA RESULT:      -9.0      6.584     11.727
REMARK SMILES CCC[N@@H+](C1CC1)[C@@H]1CC[C@]([NH2+]C2CC2)(C(=O)OCCOC(=O)c2ccc(-c3c4nc(c(-c5ccc(S(=O)(=O)[O-])cc5)c5ccc([nH]5)c(-c5ccc(S(=O)(=O)[O-])cc5)c5nc(c(-c6ccc(S(=O)(=O)[O-])cc6)c6ccc3[nH]6)C=C5)C=C4)cc2)C1
REMARK SMILES IDX 19 1 18 2 16 3 17 4 11 5 8 6 9 7 84 8 10 9 4 10 3 12 2 13
REMARK SMILES IDX 1 14 5 15 6 16 7 17 12 18 13 21 14 22 15 23 20 24 21 25
REMARK SMILES IDX 22 26 23 27 24 28 25 29 83 30 26 31 82 32 27 33 28 34 29 35
REMARK SMILES IDX 76 36 30 37 81 38 75 39 77 40 31 41 80 42 74 43 73 44 32 46
REMARK SMILES IDX 62 47 43 48 61 49 44 50 47 51 60 52 78 53 45 54 46 55 59 57
REMARK SMILES IDX 79 58 48 59 33 60 34 61 42 62 35 63 41 64 36 65 37 66 38 67
REMARK SMILES IDX 39 68 40 69 63 70 64 71 72 72 65 73 71 74 66 75 67 76 68 77
REMARK SMILES IDX 69 78 70 79 49 80 50 81 58 82 51 83 57 84 52 85 53 86 54 87
REMARK SMILES IDX 55 88 56 89
REMARK H PARENT 4 11 12 19 12 20 77 45 47 56
REMARK Flexibility Score: inf
ROOT
ATOM      1  C   UNL A   1      33.672  29.711  26.418  1.00  0.00     0.274 C 
ENDROOT
BRANCH   1   2
ATOM      2  O   UNL A   1      32.876  28.673  25.814  1.00  0.00    -0.457 OA
BRANCH   2   3
ATOM      3  C   UNL A   1      33.002  28.518  24.459  1.00  0.00     0.368 C 
ATOM      4  O   UNL A   1      33.456  29.379  23.714  1.00  0.00    -0.245 OA
BRANCH   3   5
ATOM      5  C   UNL A   1      32.405  27.167  23.970  1.00  0.00     0.200 C 
ATOM      6  C   UNL A   1      33.273  24.893  23.588  1.00  0.00     0.191 C 
ATOM      7  C   UNL A   1      33.695  25.790  22.411  1.00  0.00     0.072 C 
ATOM      8  C   UNL A   1      33.115  25.986  24.667  1.00  0.00     0.146 C 
ATOM      9  C   UNL A   1      32.780  27.017  22.484  1.00  0.00     0.087 C 
BRANCH   6  10
ATOM     10  N   UNL A   1      34.174  23.757  23.933  1.00  0.00    -0.330 N 
ATOM     11  H   UNL A   1      34.963  23.912  23.305  1.00  0.00     0.348 HD
BRANCH  10  12
ATOM     12  C   UNL A   1      34.543  23.795  25.383  1.00  0.00     0.262 C 
BRANCH  12  13
ATOM     13  C   UNL A   1      36.035  23.942  25.697  1.00  0.00     0.058 C 
ATOM     14  C   UNL A   1      36.891  22.880  25.013  1.00  0.00     0.010 C 
ENDBRANCH  12  13
ENDBRANCH  10  12
BRANCH  10  15
ATOM     15  C   UNL A   1      33.666  22.372  23.657  1.00  0.00     0.184 C 
ATOM     16  C   UNL A   1      32.369  21.844  24.204  1.00  0.00     0.071 C 
ATOM     17  C   UNL A   1      32.550  22.026  22.720  1.00  0.00     0.071 C 
ENDBRANCH  10  15
ENDBRANCH   6  10
BRANCH   5  18
ATOM     18  N   UNL A   1      30.935  27.164  24.211  1.00  0.00    -0.329 N 
ATOM     19  H   UNL A   1      30.744  27.854  24.936  1.00  0.00     0.347 HD
ATOM     20  H   UNL A   1      30.716  26.198  24.455  1.00  0.00     0.347 HD
BRANCH  18  21
ATOM     21  C   UNL A   1      30.060  27.467  23.080  1.00  0.00     0.183 C 
ATOM     22  C   UNL A   1      28.658  27.944  23.345  1.00  0.00     0.071 C 
ATOM     23  C   UNL A   1      29.685  28.899  22.818  1.00  0.00     0.071 C 
ENDBRANCH  18  21
ENDBRANCH   5  18
ENDBRANCH   3   5
ENDBRANCH   2   3
ENDBRANCH   1   2
BRANCH   1  24
ATOM     24  C   UNL A   1      34.482  29.141  27.580  1.00  0.00     0.275 C 
BRANCH  24  25
ATOM     25  O   UNL A   1      35.826  29.642  27.504  1.00  0.00    -0.458 OA
BRANCH  25  26
ATOM     26  C   UNL A   1      36.561  29.553  28.635  1.00  0.00     0.338 C 
ATOM     27  O   UNL A   1      36.189  29.831  29.769  1.00  0.00    -0.246 OA
BRANCH  26  28
ATOM     28  C   UNL A   1      37.928  29.081  28.319  1.00  0.00     0.060 A 
ATOM     29  C   UNL A   1      38.657  28.320  29.230  1.00  0.00     0.016 A 
ATOM     30  C   UNL A   1      38.529  29.475  27.122  1.00  0.00     0.016 A 
ATOM     31  C   UNL A   1      40.006  28.045  28.984  1.00  0.00     0.010 A 
ATOM     32  C   UNL A   1      39.859  29.123  26.848  1.00  0.00     0.010 A 
ATOM     33  C   UNL A   1      40.647  28.456  27.804  1.00  0.00    -0.014 A 
BRANCH  33  34
ATOM     34  C   UNL A   1      42.129  28.285  27.614  1.00  0.00     0.031 A 
ATOM     35  C   UNL A   1      43.093  29.371  28.062  1.00  0.00     0.074 A 
ATOM     36  C   UNL A   1      42.657  27.151  27.102  1.00  0.00     0.049 A 
ATOM     37  N   UNL A   1      44.373  29.501  27.804  1.00  0.00    -0.248 NA
ATOM     38  C   UNL A   1      42.550  30.455  28.895  1.00  0.00     0.031 C 
ATOM     39  C   UNL A   1      41.907  25.970  26.676  1.00  0.00     0.029 A 
ATOM     40  N   UNL A   1      43.970  26.796  26.879  1.00  0.00    -0.354 N 
ATOM     41  C   UNL A   1      44.760  30.714  28.367  1.00  0.00     0.074 A 
ATOM     42  C   UNL A   1      43.586  31.275  28.997  1.00  0.00     0.031 C 
ATOM     43  C   UNL A   1      42.764  24.995  26.341  1.00  0.00     0.029 A 
ATOM     44  C   UNL A   1      44.125  25.516  26.398  1.00  0.00     0.049 A 
ATOM     45  H   UNL A   1      44.727  27.402  27.050  1.00  0.00     0.167 HD
ATOM     46  C   UNL A   1      45.976  31.315  28.357  1.00  0.00     0.031 A 
ATOM     47  C   UNL A   1      45.221  24.840  25.997  1.00  0.00     0.031 A 
ATOM     48  C   UNL A   1      47.171  30.738  27.800  1.00  0.00     0.049 A 
ATOM     49  C   UNL A   1      46.557  25.525  25.976  1.00  0.00     0.074 A 
ATOM     50  C   UNL A   1      48.439  31.291  27.721  1.00  0.00     0.029 A 
ATOM     51  N   UNL A   1      47.259  29.465  27.262  1.00  0.00    -0.354 N 
ATOM     52  N   UNL A   1      46.868  26.735  26.372  1.00  0.00    -0.248 NA
ATOM     53  C   UNL A   1      47.683  24.765  25.412  1.00  0.00     0.031 C 
ATOM     54  C   UNL A   1      49.288  30.361  27.110  1.00  0.00     0.029 A 
ATOM     55  C   UNL A   1      48.558  29.214  26.852  1.00  0.00     0.049 A 
ATOM     56  H   UNL A   1      46.509  28.832  27.184  1.00  0.00     0.167 HD
ATOM     57  C   UNL A   1      48.220  26.886  26.092  1.00  0.00     0.074 A 
ATOM     58  C   UNL A   1      48.678  25.634  25.527  1.00  0.00     0.031 C 
ATOM     59  C   UNL A   1      49.007  27.975  26.274  1.00  0.00     0.031 A 
BRANCH  46  60
ATOM     60  C   UNL A   1      46.071  32.707  28.927  1.00  0.00    -0.014 A 
ATOM     61  C   UNL A   1      45.805  33.846  28.148  1.00  0.00     0.010 A 
ATOM     62  C   UNL A   1      46.382  32.866  30.291  1.00  0.00     0.010 A 
ATOM     63  C   UNL A   1      45.880  35.122  28.716  1.00  0.00     0.020 A 
ATOM     64  C   UNL A   1      46.434  34.138  30.868  1.00  0.00     0.020 A 
ATOM     65  C   UNL A   1      46.198  35.260  30.072  1.00  0.00     0.054 A 
BRANCH  65  66
ATOM     66  S   UNL A   1      46.261  36.923  30.794  1.00  0.00     0.124 S 
ATOM     67  O   UNL A   1      47.463  37.474  30.175  1.00  0.00    -0.237 OA
ATOM     68  O   UNL A   1      45.000  37.516  30.352  1.00  0.00    -0.237 OA
ATOM     69  O   UNL A   1      46.357  36.674  32.231  1.00  0.00    -0.744 OA
ENDBRANCH  65  66
ENDBRANCH  46  60
BRANCH  47  70
ATOM     70  C   UNL A   1      45.082  23.439  25.507  1.00  0.00    -0.014 A 
ATOM     71  C   UNL A   1      44.807  23.179  24.153  1.00  0.00     0.010 A 
ATOM     72  C   UNL A   1      45.262  22.358  26.389  1.00  0.00     0.010 A 
ATOM     73  C   UNL A   1      44.727  21.863  23.688  1.00  0.00     0.020 A 
ATOM     74  C   UNL A   1      45.214  21.043  25.923  1.00  0.00     0.020 A 
ATOM     75  C   UNL A   1      44.940  20.803  24.575  1.00  0.00     0.054 A 
BRANCH  75  76
ATOM     76  S   UNL A   1      44.937  19.102  23.942  1.00  0.00     0.124 S 
ATOM     77  O   UNL A   1      46.301  18.670  24.228  1.00  0.00    -0.237 OA
ATOM     78  O   UNL A   1      43.892  18.464  24.737  1.00  0.00    -0.237 OA
ATOM     79  O   UNL A   1      44.614  19.270  22.527  1.00  0.00    -0.744 OA
ENDBRANCH  75  76
ENDBRANCH  47  70
BRANCH  59  80
ATOM     80  C   UNL A   1      50.450  27.859  25.865  1.00  0.00    -0.014 A 
ATOM     81  C   UNL A   1      50.869  28.247  24.581  1.00  0.00     0.010 A 
ATOM     82  C   UNL A   1      51.402  27.385  26.785  1.00  0.00     0.010 A 
ATOM     83  C   UNL A   1      52.212  28.128  24.211  1.00  0.00     0.020 A 
ATOM     84  C   UNL A   1      52.749  27.284  26.425  1.00  0.00     0.020 A 
ATOM     85  C   UNL A   1      53.142  27.641  25.133  1.00  0.00     0.054 A 
BRANCH  85  86
ATOM     86  S   UNL A   1      54.884  27.514  24.638  1.00  0.00     0.124 S 
ATOM     87  O   UNL A   1      55.041  26.074  24.449  1.00  0.00    -0.237 OA
ATOM     88  O   UNL A   1      54.934  28.317  23.419  1.00  0.00    -0.237 OA
ATOM     89  O   UNL A   1      55.608  28.075  25.776  1.00  0.00    -0.744 OA
ENDBRANCH  85  86
ENDBRANCH  59  80
ENDBRANCH  33  34
ENDBRANCH  26  28
ENDBRANCH  25  26
ENDBRANCH  24  25
ENDBRANCH   1  24
TORSDOF 20
ENDMDL
