MODEL 1
REMARK VINA RESULT:     -10.1      0.000      0.000
REMARK SMILES C[C@@H](C(=O)OCCOC(=O)c1ccc(-c2c3nc(c(-c4ccc(S(=O)(=O)[O-])cc4)c4ccc([nH]4)c(-c4ccc(S(=O)(=O)[O-])cc4)c4nc(c(-c5ccc(S(=O)(=O)[O-])cc5)c5ccc2[nH]5)C=C4)C=C3)cc1)c1ccc(NC2CCCC2)cc1F
REMARK SMILES IDX 6 1 5 2 3 3 4 4 2 5 1 6 71 7 72 8 82 9 73 10 81 11 83 12
REMARK SMILES IDX 74 13 75 14 76 16 77 17 80 18 78 19 79 20 7 21 8 22 9 23
REMARK SMILES IDX 10 24 11 25 12 26 70 27 13 28 69 29 14 30 15 31 16 32 63 33
REMARK SMILES IDX 17 34 68 35 62 36 64 37 18 38 67 39 61 40 60 41 19 43 49 44
REMARK SMILES IDX 30 45 48 46 31 47 34 48 47 49 65 50 32 51 33 52 46 54 66 55
REMARK SMILES IDX 35 56 20 57 21 58 29 59 22 60 28 61 23 62 24 63 25 64 26 65
REMARK SMILES IDX 27 66 50 67 51 68 59 69 52 70 58 71 53 72 54 73 55 74 56 75
REMARK SMILES IDX 57 76 36 77 37 78 45 79 38 80 44 81 39 82 40 83 41 84 42 85
REMARK SMILES IDX 43 86
REMARK H PARENT 75 15 64 42 34 53
REMARK Flexibility Score: inf
ROOT
ATOM      1  C   UNL A   1      36.336  20.895  25.297  1.00  0.00     0.274 C 
ENDROOT
BRANCH   1   2
ATOM      2  O   UNL A   1      35.041  21.008  24.674  1.00  0.00    -0.462 OA
BRANCH   2   3
ATOM      3  C   UNL A   1      34.004  21.218  25.537  1.00  0.00     0.313 C 
ATOM      4  O   UNL A   1      32.974  20.555  25.512  1.00  0.00    -0.252 OA
BRANCH   3   5
ATOM      5  C   UNL A   1      34.247  22.448  26.439  1.00  0.00     0.129 C 
ATOM      6  C   UNL A   1      33.853  22.133  27.883  1.00  0.00     0.025 C 
BRANCH   5   7
ATOM      7  C   UNL A   1      33.581  23.679  25.826  1.00  0.00     0.002 A 
ATOM      8  C   UNL A   1      32.420  24.168  26.450  1.00  0.00     0.010 A 
ATOM      9  C   UNL A   1      34.146  24.458  24.812  1.00  0.00     0.129 A 
ATOM     10  C   UNL A   1      31.985  25.470  26.214  1.00  0.00     0.026 A 
ATOM     11  C   UNL A   1      33.695  25.753  24.554  1.00  0.00     0.065 A 
ATOM     12  F   UNL A   1      35.215  24.031  24.126  1.00  0.00    -0.207 F 
ATOM     13  C   UNL A   1      32.675  26.305  25.334  1.00  0.00     0.037 A 
BRANCH  13  14
ATOM     14  N   UNL A   1      32.577  27.691  25.453  1.00  0.00    -0.382 N 
ATOM     15  H   UNL A   1      32.172  28.229  24.733  1.00  0.00     0.160 HD
BRANCH  14  16
ATOM     16  C   UNL A   1      33.090  28.336  26.678  1.00  0.00     0.079 C 
ATOM     17  C   UNL A   1      34.515  28.867  26.528  1.00  0.00     0.025 C 
ATOM     18  C   UNL A   1      32.254  29.512  27.204  1.00  0.00     0.025 C 
ATOM     19  C   UNL A   1      34.586  30.111  27.406  1.00  0.00     0.002 C 
ATOM     20  C   UNL A   1      33.189  30.698  27.380  1.00  0.00     0.002 C 
ENDBRANCH  14  16
ENDBRANCH  13  14
ENDBRANCH   5   7
ENDBRANCH   3   5
ENDBRANCH   2   3
ENDBRANCH   1   2
BRANCH   1  21
ATOM     21  C   UNL A   1      37.379  21.851  24.706  1.00  0.00     0.275 C 
BRANCH  21  22
ATOM     22  O   UNL A   1      37.722  22.948  25.578  1.00  0.00    -0.458 OA
BRANCH  22  23
ATOM     23  C   UNL A   1      38.956  22.888  26.135  1.00  0.00     0.338 C 
ATOM     24  O   UNL A   1      39.746  21.955  26.005  1.00  0.00    -0.246 OA
BRANCH  23  25
ATOM     25  C   UNL A   1      39.297  24.121  26.892  1.00  0.00     0.060 A 
ATOM     26  C   UNL A   1      40.077  25.083  26.242  1.00  0.00     0.016 A 
ATOM     27  C   UNL A   1      38.918  24.334  28.223  1.00  0.00     0.016 A 
ATOM     28  C   UNL A   1      40.448  26.258  26.906  1.00  0.00     0.010 A 
ATOM     29  C   UNL A   1      39.312  25.509  28.897  1.00  0.00     0.010 A 
ATOM     30  C   UNL A   1      40.070  26.493  28.242  1.00  0.00    -0.014 A 
BRANCH  30  31
ATOM     31  C   UNL A   1      40.494  27.773  28.896  1.00  0.00     0.031 A 
ATOM     32  C   UNL A   1      41.952  28.013  29.162  1.00  0.00     0.074 A 
ATOM     33  C   UNL A   1      39.624  28.779  29.132  1.00  0.00     0.049 A 
ATOM     34  N   UNL A   1      42.550  29.111  29.545  1.00  0.00    -0.248 NA
ATOM     35  C   UNL A   1      42.851  26.864  28.972  1.00  0.00     0.031 C 
ATOM     36  C   UNL A   1      38.190  28.705  28.904  1.00  0.00     0.029 A 
ATOM     37  N   UNL A   1      39.817  30.083  29.538  1.00  0.00    -0.354 N 
ATOM     38  C   UNL A   1      43.894  28.786  29.654  1.00  0.00     0.074 A 
ATOM     39  C   UNL A   1      44.027  27.397  29.262  1.00  0.00     0.031 C 
ATOM     40  C   UNL A   1      37.658  29.930  29.014  1.00  0.00     0.029 A 
ATOM     41  C   UNL A   1      38.682  30.864  29.455  1.00  0.00     0.049 A 
ATOM     42  H   UNL A   1      40.684  30.425  29.857  1.00  0.00     0.167 HD
ATOM     43  C   UNL A   1      44.918  29.554  30.097  1.00  0.00     0.031 A 
ATOM     44  C   UNL A   1      38.462  32.172  29.715  1.00  0.00     0.031 A 
ATOM     45  C   UNL A   1      44.774  30.894  30.603  1.00  0.00     0.049 A 
ATOM     46  C   UNL A   1      39.601  32.986  30.262  1.00  0.00     0.074 A 
ATOM     47  C   UNL A   1      45.733  31.697  31.196  1.00  0.00     0.029 A 
ATOM     48  N   UNL A   1      43.592  31.621  30.603  1.00  0.00    -0.354 N 
ATOM     49  N   UNL A   1      40.860  32.645  30.395  1.00  0.00    -0.248 NA
ATOM     50  C   UNL A   1      39.287  34.341  30.737  1.00  0.00     0.031 C 
ATOM     51  C   UNL A   1      45.116  32.884  31.611  1.00  0.00     0.029 A 
ATOM     52  C   UNL A   1      43.789  32.848  31.216  1.00  0.00     0.049 A 
ATOM     53  H   UNL A   1      42.739  31.309  30.224  1.00  0.00     0.167 HD
ATOM     54  C   UNL A   1      41.487  33.735  30.984  1.00  0.00     0.074 A 
ATOM     55  C   UNL A   1      40.479  34.766  31.137  1.00  0.00     0.031 C 
ATOM     56  C   UNL A   1      42.777  33.860  31.381  1.00  0.00     0.031 A 
BRANCH  43  57
ATOM     57  C   UNL A   1      46.257  28.880  30.185  1.00  0.00    -0.014 A 
ATOM     58  C   UNL A   1      46.666  28.201  31.347  1.00  0.00     0.010 A 
ATOM     59  C   UNL A   1      47.142  28.982  29.097  1.00  0.00     0.010 A 
ATOM     60  C   UNL A   1      47.959  27.677  31.433  1.00  0.00     0.020 A 
ATOM     61  C   UNL A   1      48.425  28.441  29.172  1.00  0.00     0.020 A 
ATOM     62  C   UNL A   1      48.833  27.811  30.349  1.00  0.00     0.054 A 
BRANCH  62  63
ATOM     63  S   UNL A   1      50.514  27.145  30.490  1.00  0.00     0.124 S 
ATOM     64  O   UNL A   1      50.295  25.722  30.243  1.00  0.00    -0.237 OA
ATOM     65  O   UNL A   1      51.233  27.861  29.440  1.00  0.00    -0.237 OA
ATOM     66  O   UNL A   1      50.908  27.486  31.854  1.00  0.00    -0.744 OA
ENDBRANCH  62  63
ENDBRANCH  43  57
BRANCH  44  67
ATOM     67  C   UNL A   1      37.105  32.780  29.515  1.00  0.00    -0.014 A 
ATOM     68  C   UNL A   1      36.225  32.972  30.598  1.00  0.00     0.010 A 
ATOM     69  C   UNL A   1      36.688  33.201  28.236  1.00  0.00     0.010 A 
ATOM     70  C   UNL A   1      34.978  33.587  30.410  1.00  0.00     0.020 A 
ATOM     71  C   UNL A   1      35.470  33.859  28.051  1.00  0.00     0.020 A 
ATOM     72  C   UNL A   1      34.617  34.043  29.140  1.00  0.00     0.054 A 
BRANCH  72  73
ATOM     73  S   UNL A   1      33.049  34.937  28.929  1.00  0.00     0.124 S 
ATOM     74  O   UNL A   1      32.356  34.111  27.947  1.00  0.00    -0.237 OA
ATOM     75  O   UNL A   1      32.491  34.921  30.279  1.00  0.00    -0.237 OA
ATOM     76  O   UNL A   1      33.471  36.254  28.455  1.00  0.00    -0.744 OA
ENDBRANCH  72  73
ENDBRANCH  44  67
BRANCH  56  77
ATOM     77  C   UNL A   1      43.168  35.166  32.015  1.00  0.00    -0.014 A 
ATOM     78  C   UNL A   1      42.948  35.405  33.384  1.00  0.00     0.010 A 
ATOM     79  C   UNL A   1      43.772  36.165  31.232  1.00  0.00     0.010 A 
ATOM     80  C   UNL A   1      43.279  36.639  33.949  1.00  0.00     0.020 A 
ATOM     81  C   UNL A   1      44.126  37.392  31.797  1.00  0.00     0.020 A 
ATOM     82  C   UNL A   1      43.859  37.629  33.148  1.00  0.00     0.054 A 
BRANCH  82  83
ATOM     83  S   UNL A   1      44.283  39.224  33.899  1.00  0.00     0.124 S 
ATOM     84  O   UNL A   1      45.258  39.756  32.950  1.00  0.00    -0.237 OA
ATOM     85  O   UNL A   1      42.997  39.917  33.934  1.00  0.00    -0.237 OA
ATOM     86  O   UNL A   1      44.822  38.859  35.207  1.00  0.00    -0.744 OA
ENDBRANCH  82  83
ENDBRANCH  56  77
ENDBRANCH  30  31
ENDBRANCH  23  25
ENDBRANCH  22  23
ENDBRANCH  21  22
ENDBRANCH   1  21
TORSDOF 17
ENDMDL
MODEL 2
REMARK VINA RESULT:      -9.8      2.839      8.408
REMARK SMILES C[C@@H](C(=O)OCCOC(=O)c1ccc(-c2c3nc(c(-c4ccc(S(=O)(=O)[O-])cc4)c4ccc([nH]4)c(-c4ccc(S(=O)(=O)[O-])cc4)c4nc(c(-c5ccc(S(=O)(=O)[O-])cc5)c5ccc2[nH]5)C=C4)C=C3)cc1)c1ccc(NC2CCCC2)cc1F
REMARK SMILES IDX 6 1 5 2 3 3 4 4 2 5 1 6 71 7 72 8 82 9 73 10 81 11 83 12
REMARK SMILES IDX 74 13 75 14 76 16 77 17 80 18 78 19 79 20 7 21 8 22 9 23
REMARK SMILES IDX 10 24 11 25 12 26 70 27 13 28 69 29 14 30 15 31 16 32 63 33
REMARK SMILES IDX 17 34 68 35 62 36 64 37 18 38 67 39 61 40 60 41 19 43 49 44
REMARK SMILES IDX 30 45 48 46 31 47 34 48 47 49 65 50 32 51 33 52 46 54 66 55
REMARK SMILES IDX 35 56 20 57 21 58 29 59 22 60 28 61 23 62 24 63 25 64 26 65
REMARK SMILES IDX 27 66 50 67 51 68 59 69 52 70 58 71 53 72 54 73 55 74 56 75
REMARK SMILES IDX 57 76 36 77 37 78 45 79 38 80 44 81 39 82 40 83 41 84 42 85
REMARK SMILES IDX 43 86
REMARK H PARENT 75 15 64 42 34 53
REMARK Flexibility Score: inf
ROOT
ATOM      1  C   UNL A   1      31.669  28.249  26.433  1.00  0.00     0.274 C 
ENDROOT
BRANCH   1   2
ATOM      2  O   UNL A   1      31.335  26.949  26.957  1.00  0.00    -0.462 OA
BRANCH   2   3
ATOM      3  C   UNL A   1      30.546  26.187  26.143  1.00  0.00     0.313 C 
ATOM      4  O   UNL A   1      29.694  25.419  26.575  1.00  0.00    -0.252 OA
BRANCH   3   5
ATOM      5  C   UNL A   1      30.945  26.327  24.659  1.00  0.00     0.129 C 
ATOM      6  C   UNL A   1      29.700  26.324  23.772  1.00  0.00     0.025 C 
BRANCH   5   7
ATOM      7  C   UNL A   1      32.010  25.287  24.309  1.00  0.00     0.002 A 
ATOM      8  C   UNL A   1      33.344  25.724  24.233  1.00  0.00     0.010 A 
ATOM      9  C   UNL A   1      31.777  23.911  24.248  1.00  0.00     0.129 A 
ATOM     10  C   UNL A   1      34.393  24.811  24.314  1.00  0.00     0.026 A 
ATOM     11  C   UNL A   1      32.827  22.993  24.299  1.00  0.00     0.065 A 
ATOM     12  F   UNL A   1      30.530  23.419  24.249  1.00  0.00    -0.207 F 
ATOM     13  C   UNL A   1      34.142  23.445  24.442  1.00  0.00     0.037 A 
BRANCH  13  14
ATOM     14  N   UNL A   1      35.099  22.602  25.005  1.00  0.00    -0.382 N 
ATOM     15  H   UNL A   1      34.830  21.781  25.480  1.00  0.00     0.160 HD
BRANCH  14  16
ATOM     16  C   UNL A   1      36.525  22.962  24.875  1.00  0.00     0.079 C 
ATOM     17  C   UNL A   1      37.030  23.847  26.014  1.00  0.00     0.025 C 
ATOM     18  C   UNL A   1      37.501  21.778  24.797  1.00  0.00     0.025 C 
ATOM     19  C   UNL A   1      38.489  23.459  26.222  1.00  0.00     0.002 C 
ATOM     20  C   UNL A   1      38.567  21.989  25.859  1.00  0.00     0.002 C 
ENDBRANCH  14  16
ENDBRANCH  13  14
ENDBRANCH   5   7
ENDBRANCH   3   5
ENDBRANCH   2   3
ENDBRANCH   1   2
BRANCH   1  21
ATOM     21  C   UNL A   1      32.438  29.126  27.429  1.00  0.00     0.275 C 
BRANCH  21  22
ATOM     22  O   UNL A   1      33.872  29.037  27.294  1.00  0.00    -0.458 OA
BRANCH  22  23
ATOM     23  C   UNL A   1      34.561  30.149  27.643  1.00  0.00     0.338 C 
ATOM     24  O   UNL A   1      34.117  31.295  27.617  1.00  0.00    -0.246 OA
BRANCH  23  25
ATOM     25  C   UNL A   1      35.930  29.837  28.132  1.00  0.00     0.060 A 
ATOM     26  C   UNL A   1      36.985  29.962  27.223  1.00  0.00     0.016 A 
ATOM     27  C   UNL A   1      36.198  29.384  29.430  1.00  0.00     0.016 A 
ATOM     28  C   UNL A   1      38.296  29.665  27.614  1.00  0.00     0.010 A 
ATOM     29  C   UNL A   1      37.516  29.064  29.815  1.00  0.00     0.010 A 
ATOM     30  C   UNL A   1      38.585  29.215  28.916  1.00  0.00    -0.014 A 
BRANCH  30  31
ATOM     31  C   UNL A   1      40.008  28.918  29.278  1.00  0.00     0.031 A 
ATOM     32  C   UNL A   1      40.625  27.625  28.827  1.00  0.00     0.074 A 
ATOM     33  C   UNL A   1      40.801  29.833  29.877  1.00  0.00     0.049 A 
ATOM     34  N   UNL A   1      41.877  27.251  28.870  1.00  0.00    -0.248 NA
ATOM     35  C   UNL A   1      39.709  26.626  28.257  1.00  0.00     0.031 C 
ATOM     36  C   UNL A   1      40.354  31.135  30.347  1.00  0.00     0.029 A 
ATOM     37  N   UNL A   1      42.157  29.851  30.126  1.00  0.00    -0.354 N 
ATOM     38  C   UNL A   1      41.902  25.968  28.343  1.00  0.00     0.074 A 
ATOM     39  C   UNL A   1      40.544  25.643  27.955  1.00  0.00     0.031 C 
ATOM     40  C   UNL A   1      41.420  31.879  30.674  1.00  0.00     0.029 A 
ATOM     41  C   UNL A   1      42.625  31.071  30.571  1.00  0.00     0.049 A 
ATOM     42  H   UNL A   1      42.738  29.066  29.998  1.00  0.00     0.167 HD
ATOM     43  C   UNL A   1      42.948  25.113  28.244  1.00  0.00     0.031 A 
ATOM     44  C   UNL A   1      43.865  31.506  30.884  1.00  0.00     0.031 A 
ATOM     45  C   UNL A   1      44.272  25.382  28.738  1.00  0.00     0.049 A 
ATOM     46  C   UNL A   1      44.997  30.519  30.823  1.00  0.00     0.074 A 
ATOM     47  C   UNL A   1      45.357  24.525  28.802  1.00  0.00     0.029 A 
ATOM     48  N   UNL A   1      44.688  26.590  29.280  1.00  0.00    -0.354 N 
ATOM     49  N   UNL A   1      44.989  29.293  30.357  1.00  0.00    -0.248 NA
ATOM     50  C   UNL A   1      46.292  30.951  31.369  1.00  0.00     0.031 C 
ATOM     51  C   UNL A   1      46.409  25.195  29.439  1.00  0.00     0.029 A 
ATOM     52  C   UNL A   1      46.001  26.490  29.711  1.00  0.00     0.049 A 
ATOM     53  H   UNL A   1      44.131  27.399  29.348  1.00  0.00     0.167 HD
ATOM     54  C   UNL A   1      46.270  28.800  30.568  1.00  0.00     0.074 A 
ATOM     55  C   UNL A   1      47.041  29.876  31.159  1.00  0.00     0.031 C 
ATOM     56  C   UNL A   1      46.755  27.560  30.315  1.00  0.00     0.031 A 
BRANCH  43  57
ATOM     57  C   UNL A   1      42.632  23.747  27.707  1.00  0.00    -0.014 A 
ATOM     58  C   UNL A   1      42.012  22.766  28.502  1.00  0.00     0.010 A 
ATOM     59  C   UNL A   1      43.021  23.426  26.394  1.00  0.00     0.010 A 
ATOM     60  C   UNL A   1      41.830  21.473  28.004  1.00  0.00     0.020 A 
ATOM     61  C   UNL A   1      42.822  22.142  25.887  1.00  0.00     0.020 A 
ATOM     62  C   UNL A   1      42.246  21.167  26.703  1.00  0.00     0.054 A 
BRANCH  62  63
ATOM     63  S   UNL A   1      42.023  19.477  26.085  1.00  0.00     0.124 S 
ATOM     64  O   UNL A   1      40.578  19.422  25.878  1.00  0.00    -0.237 OA
ATOM     65  O   UNL A   1      42.832  19.470  24.870  1.00  0.00    -0.237 OA
ATOM     66  O   UNL A   1      42.528  18.642  27.171  1.00  0.00    -0.744 OA
ENDBRANCH  62  63
ENDBRANCH  43  57
BRANCH  44  67
ATOM     67  C   UNL A   1      44.096  32.919  31.331  1.00  0.00    -0.014 A 
ATOM     68  C   UNL A   1      44.274  33.959  30.398  1.00  0.00     0.010 A 
ATOM     69  C   UNL A   1      44.112  33.245  32.702  1.00  0.00     0.010 A 
ATOM     70  C   UNL A   1      44.439  35.286  30.824  1.00  0.00     0.020 A 
ATOM     71  C   UNL A   1      44.225  34.571  33.131  1.00  0.00     0.020 A 
ATOM     72  C   UNL A   1      44.395  35.585  32.188  1.00  0.00     0.054 A 
BRANCH  72  73
ATOM     73  S   UNL A   1      44.498  37.318  32.721  1.00  0.00     0.124 S 
ATOM     74  O   UNL A   1      45.598  37.278  33.678  1.00  0.00    -0.237 OA
ATOM     75  O   UNL A   1      44.770  38.020  31.470  1.00  0.00    -0.237 OA
ATOM     76  O   UNL A   1      43.178  37.576  33.295  1.00  0.00    -0.744 OA
ENDBRANCH  72  73
ENDBRANCH  44  67
BRANCH  56  77
ATOM     77  C   UNL A   1      48.194  27.308  30.672  1.00  0.00    -0.014 A 
ATOM     78  C   UNL A   1      48.555  26.844  31.951  1.00  0.00     0.010 A 
ATOM     79  C   UNL A   1      49.197  27.530  29.713  1.00  0.00     0.010 A 
ATOM     80  C   UNL A   1      49.900  26.655  32.280  1.00  0.00     0.020 A 
ATOM     81  C   UNL A   1      50.541  27.319  30.031  1.00  0.00     0.020 A 
ATOM     82  C   UNL A   1      50.885  26.902  31.319  1.00  0.00     0.054 A 
BRANCH  82  83
ATOM     83  S   UNL A   1      52.625  26.649  31.765  1.00  0.00     0.124 S 
ATOM     84  O   UNL A   1      52.757  25.199  31.657  1.00  0.00    -0.237 OA
ATOM     85  O   UNL A   1      53.334  27.422  30.748  1.00  0.00    -0.237 OA
ATOM     86  O   UNL A   1      52.716  27.185  33.121  1.00  0.00    -0.744 OA
ENDBRANCH  82  83
ENDBRANCH  56  77
ENDBRANCH  30  31
ENDBRANCH  23  25
ENDBRANCH  22  23
ENDBRANCH  21  22
ENDBRANCH   1  21
TORSDOF 17
ENDMDL
MODEL 3
REMARK VINA RESULT:      -9.8      2.921      8.662
REMARK SMILES C[C@@H](C(=O)OCCOC(=O)c1ccc(-c2c3nc(c(-c4ccc(S(=O)(=O)[O-])cc4)c4ccc([nH]4)c(-c4ccc(S(=O)(=O)[O-])cc4)c4nc(c(-c5ccc(S(=O)(=O)[O-])cc5)c5ccc2[nH]5)C=C4)C=C3)cc1)c1ccc(NC2CCCC2)cc1F
REMARK SMILES IDX 6 1 5 2 3 3 4 4 2 5 1 6 71 7 72 8 82 9 73 10 81 11 83 12
REMARK SMILES IDX 74 13 75 14 76 16 77 17 80 18 78 19 79 20 7 21 8 22 9 23
REMARK SMILES IDX 10 24 11 25 12 26 70 27 13 28 69 29 14 30 15 31 16 32 63 33
REMARK SMILES IDX 17 34 68 35 62 36 64 37 18 38 67 39 61 40 60 41 19 43 49 44
REMARK SMILES IDX 30 45 48 46 31 47 34 48 47 49 65 50 32 51 33 52 46 54 66 55
REMARK SMILES IDX 35 56 20 57 21 58 29 59 22 60 28 61 23 62 24 63 25 64 26 65
REMARK SMILES IDX 27 66 50 67 51 68 59 69 52 70 58 71 53 72 54 73 55 74 56 75
REMARK SMILES IDX 57 76 36 77 37 78 45 79 38 80 44 81 39 82 40 83 41 84 42 85
REMARK SMILES IDX 43 86
REMARK H PARENT 75 15 64 42 34 53
REMARK Flexibility Score: inf
ROOT
ATOM      1  C   UNL A   1      31.737  28.333  26.132  1.00  0.00     0.274 C 
ENDROOT
BRANCH   1   2
ATOM      2  O   UNL A   1      31.775  26.929  26.460  1.00  0.00    -0.462 OA
BRANCH   2   3
ATOM      3  C   UNL A   1      31.775  26.088  25.384  1.00  0.00     0.313 C 
ATOM      4  O   UNL A   1      30.757  25.801  24.766  1.00  0.00    -0.252 OA
BRANCH   3   5
ATOM      5  C   UNL A   1      33.168  25.470  25.137  1.00  0.00     0.129 C 
ATOM      6  C   UNL A   1      33.843  26.142  23.941  1.00  0.00     0.025 C 
BRANCH   5   7
ATOM      7  C   UNL A   1      33.052  23.948  25.061  1.00  0.00     0.002 A 
ATOM      8  C   UNL A   1      33.406  23.329  23.850  1.00  0.00     0.010 A 
ATOM      9  C   UNL A   1      32.804  23.120  26.160  1.00  0.00     0.129 A 
ATOM     10  C   UNL A   1      33.707  21.969  23.810  1.00  0.00     0.026 A 
ATOM     11  C   UNL A   1      33.077  21.752  26.115  1.00  0.00     0.065 A 
ATOM     12  F   UNL A   1      32.399  23.629  27.331  1.00  0.00    -0.207 F 
ATOM     13  C   UNL A   1      33.635  21.189  24.965  1.00  0.00     0.037 A 
BRANCH  13  14
ATOM     14  N   UNL A   1      34.375  20.011  25.067  1.00  0.00    -0.382 N 
ATOM     15  H   UNL A   1      35.327  20.036  25.321  1.00  0.00     0.160 HD
BRANCH  14  16
ATOM     16  C   UNL A   1      33.704  18.726  24.787  1.00  0.00     0.079 C 
ATOM     17  C   UNL A   1      32.693  18.810  23.645  1.00  0.00     0.025 C 
ATOM     18  C   UNL A   1      34.637  17.557  24.440  1.00  0.00     0.025 C 
ATOM     19  C   UNL A   1      32.732  17.449  22.959  1.00  0.00     0.002 C 
ATOM     20  C   UNL A   1      34.156  16.958  23.128  1.00  0.00     0.002 C 
ENDBRANCH  14  16
ENDBRANCH  13  14
ENDBRANCH   5   7
ENDBRANCH   3   5
ENDBRANCH   2   3
ENDBRANCH   1   2
BRANCH   1  21
ATOM     21  C   UNL A   1      32.231  29.235  27.269  1.00  0.00     0.275 C 
BRANCH  21  22
ATOM     22  O   UNL A   1      33.617  29.027  27.615  1.00  0.00    -0.458 OA
BRANCH  22  23
ATOM     23  C   UNL A   1      34.373  30.148  27.698  1.00  0.00     0.338 C 
ATOM     24  O   UNL A   1      33.974  31.288  27.472  1.00  0.00    -0.246 OA
BRANCH  23  25
ATOM     25  C   UNL A   1      35.757  29.865  28.159  1.00  0.00     0.060 A 
ATOM     26  C   UNL A   1      36.786  29.970  27.218  1.00  0.00     0.016 A 
ATOM     27  C   UNL A   1      36.063  29.455  29.463  1.00  0.00     0.016 A 
ATOM     28  C   UNL A   1      38.110  29.698  27.584  1.00  0.00     0.010 A 
ATOM     29  C   UNL A   1      37.395  29.161  29.823  1.00  0.00     0.010 A 
ATOM     30  C   UNL A   1      38.438  29.293  28.892  1.00  0.00    -0.014 A 
BRANCH  30  31
ATOM     31  C   UNL A   1      39.873  29.021  29.224  1.00  0.00     0.031 A 
ATOM     32  C   UNL A   1      40.495  27.727  28.785  1.00  0.00     0.074 A 
ATOM     33  C   UNL A   1      40.668  29.958  29.785  1.00  0.00     0.049 A 
ATOM     34  N   UNL A   1      41.753  27.369  28.805  1.00  0.00    -0.248 NA
ATOM     35  C   UNL A   1      39.579  26.704  28.258  1.00  0.00     0.031 C 
ATOM     36  C   UNL A   1      40.216  31.264  30.239  1.00  0.00     0.029 A 
ATOM     37  N   UNL A   1      42.030  29.998  30.000  1.00  0.00    -0.354 N 
ATOM     38  C   UNL A   1      41.782  26.076  28.304  1.00  0.00     0.074 A 
ATOM     39  C   UNL A   1      40.418  25.726  27.956  1.00  0.00     0.031 C 
ATOM     40  C   UNL A   1      41.280  32.028  30.524  1.00  0.00     0.029 A 
ATOM     41  C   UNL A   1      42.492  31.233  30.409  1.00  0.00     0.049 A 
ATOM     42  H   UNL A   1      42.618  29.218  29.874  1.00  0.00     0.167 HD
ATOM     43  C   UNL A   1      42.835  25.232  28.197  1.00  0.00     0.031 A 
ATOM     44  C   UNL A   1      43.735  31.689  30.682  1.00  0.00     0.031 A 
ATOM     45  C   UNL A   1      44.168  25.528  28.653  1.00  0.00     0.049 A 
ATOM     46  C   UNL A   1      44.877  30.716  30.613  1.00  0.00     0.074 A 
ATOM     47  C   UNL A   1      45.265  24.685  28.708  1.00  0.00     0.029 A 
ATOM     48  N   UNL A   1      44.581  26.752  29.159  1.00  0.00    -0.354 N 
ATOM     49  N   UNL A   1      44.874  29.480  30.173  1.00  0.00    -0.248 NA
ATOM     50  C   UNL A   1      46.179  31.174  31.118  1.00  0.00     0.031 C 
ATOM     51  C   UNL A   1      46.324  25.382  29.305  1.00  0.00     0.029 A 
ATOM     52  C   UNL A   1      45.906  26.677  29.560  1.00  0.00     0.049 A 
ATOM     53  H   UNL A   1      44.016  27.555  29.225  1.00  0.00     0.167 HD
ATOM     54  C   UNL A   1      46.166  29.008  30.363  1.00  0.00     0.074 A 
ATOM     55  C   UNL A   1      46.937  30.105  30.912  1.00  0.00     0.031 C 
ATOM     56  C   UNL A   1      46.660  27.768  30.123  1.00  0.00     0.031 A 
BRANCH  43  57
ATOM     57  C   UNL A   1      42.524  23.851  27.696  1.00  0.00    -0.014 A 
ATOM     58  C   UNL A   1      42.041  22.846  28.553  1.00  0.00     0.010 A 
ATOM     59  C   UNL A   1      42.780  23.544  26.347  1.00  0.00     0.010 A 
ATOM     60  C   UNL A   1      41.863  21.544  28.076  1.00  0.00     0.020 A 
ATOM     61  C   UNL A   1      42.584  22.251  25.864  1.00  0.00     0.020 A 
ATOM     62  C   UNL A   1      42.147  21.253  26.737  1.00  0.00     0.054 A 
BRANCH  62  63
ATOM     63  S   UNL A   1      41.934  19.553  26.145  1.00  0.00     0.124 S 
ATOM     64  O   UNL A   1      42.494  18.778  27.249  1.00  0.00    -0.237 OA
ATOM     65  O   UNL A   1      40.487  19.450  25.977  1.00  0.00    -0.237 OA
ATOM     66  O   UNL A   1      42.705  19.518  24.905  1.00  0.00    -0.744 OA
ENDBRANCH  62  63
ENDBRANCH  43  57
BRANCH  44  67
ATOM     67  C   UNL A   1      43.958  33.114  31.095  1.00  0.00    -0.014 A 
ATOM     68  C   UNL A   1      44.311  34.099  30.151  1.00  0.00     0.010 A 
ATOM     69  C   UNL A   1      43.792  33.508  32.437  1.00  0.00     0.010 A 
ATOM     70  C   UNL A   1      44.469  35.439  30.537  1.00  0.00     0.020 A 
ATOM     71  C   UNL A   1      43.898  34.848  32.818  1.00  0.00     0.020 A 
ATOM     72  C   UNL A   1      44.242  35.807  31.866  1.00  0.00     0.054 A 
BRANCH  72  73
ATOM     73  S   UNL A   1      44.340  37.561  32.331  1.00  0.00     0.124 S 
ATOM     74  O   UNL A   1      43.435  37.625  33.472  1.00  0.00    -0.237 OA
ATOM     75  O   UNL A   1      45.758  37.730  32.635  1.00  0.00    -0.237 OA
ATOM     76  O   UNL A   1      43.883  38.256  31.129  1.00  0.00    -0.744 OA
ENDBRANCH  72  73
ENDBRANCH  44  67
BRANCH  56  77
ATOM     77  C   UNL A   1      48.110  27.542  30.450  1.00  0.00    -0.014 A 
ATOM     78  C   UNL A   1      49.109  27.689  29.470  1.00  0.00     0.010 A 
ATOM     79  C   UNL A   1      48.480  27.185  31.758  1.00  0.00     0.010 A 
ATOM     80  C   UNL A   1      50.447  27.435  29.780  1.00  0.00     0.020 A 
ATOM     81  C   UNL A   1      49.819  26.951  32.079  1.00  0.00     0.020 A 
ATOM     82  C   UNL A   1      50.792  27.058  31.082  1.00  0.00     0.054 A 
BRANCH  82  83
ATOM     83  S   UNL A   1      52.535  26.734  31.466  1.00  0.00     0.124 S 
ATOM     84  O   UNL A   1      52.556  25.278  31.573  1.00  0.00    -0.237 OA
ATOM     85  O   UNL A   1      53.230  27.289  30.307  1.00  0.00    -0.237 OA
ATOM     86  O   UNL A   1      52.753  27.455  32.718  1.00  0.00    -0.744 OA
ENDBRANCH  82  83
ENDBRANCH  56  77
ENDBRANCH  30  31
ENDBRANCH  23  25
ENDBRANCH  22  23
ENDBRANCH  21  22
ENDBRANCH   1  21
TORSDOF 17
ENDMDL
