MODEL 1
REMARK VINA RESULT:      -9.4      0.000      0.000
REMARK SMILES COc1ccc(-c2nc(NCC(=O)OCCOC(=O)c3ccc(-c4c5nc(c(-c6ccc(S(=O)(=O)[O-])cc6)c6ccc([nH]6)c(-c6ccc(S(=O)(=O)[O-])cc6)c6nc(c(-c7ccc(S(=O)(=O)[O-])cc7)c7ccc4[nH]7)C=C6)C=C5)cc3)sc2-c2ccc(OC)cc2)cc1
REMARK SMILES IDX 15 1 14 2 12 3 13 4 11 5 10 6 9 8 7 9 8 10 81 11 80 12 6 13
REMARK SMILES IDX 3 14 4 15 91 16 5 17 90 18 2 19 1 20 82 21 83 22 89 23 84 24
REMARK SMILES IDX 88 25 85 26 86 27 87 28 16 29 17 30 18 31 19 32 20 33 21 34
REMARK SMILES IDX 79 35 22 36 78 37 23 38 24 39 25 40 72 41 26 42 77 43 71 44
REMARK SMILES IDX 73 45 27 46 76 47 70 48 69 49 28 51 58 52 39 53 57 54 40 55
REMARK SMILES IDX 43 56 56 57 74 58 41 59 42 60 55 62 75 63 44 64 29 65 30 66
REMARK SMILES IDX 38 67 31 68 37 69 32 70 33 71 34 72 35 73 36 74 59 75 60 76
REMARK SMILES IDX 68 77 61 78 67 79 62 80 63 81 64 82 65 83 66 84 45 85 46 86
REMARK SMILES IDX 54 87 47 88 53 89 48 90 49 91 50 92 51 93 52 94
REMARK H PARENT 10 7 73 50 43 61
REMARK Flexibility Score: inf
ROOT
ATOM      1  C   UNL A   1      33.608  34.137  28.543  1.00  0.00     0.274 C 
ENDROOT
BRANCH   1   2
ATOM      2  O   UNL A   1      34.263  34.564  29.748  1.00  0.00    -0.461 OA
BRANCH   2   3
ATOM      3  C   UNL A   1      33.503  35.278  30.627  1.00  0.00     0.325 C 
ATOM      4  O   UNL A   1      32.552  35.984  30.313  1.00  0.00    -0.250 OA
BRANCH   3   5
ATOM      5  C   UNL A   1      33.998  35.141  32.059  1.00  0.00     0.238 C 
BRANCH   5   6
ATOM      6  N   UNL A   1      35.388  35.546  32.231  1.00  0.00    -0.351 N 
ATOM      7  H   UNL A   1      35.659  36.426  31.882  1.00  0.00     0.163 HD
BRANCH   6   8
ATOM      8  C   UNL A   1      36.324  34.790  32.838  1.00  0.00     0.184 A 
ATOM      9  C   UNL A   1      37.566  33.972  34.493  1.00  0.00     0.091 A 
ATOM     10  N   UNL A   1      36.670  34.957  34.095  1.00  0.00    -0.220 NA
ATOM     11  C   UNL A   1      37.850  33.013  33.530  1.00  0.00     0.064 A 
ATOM     12  S   UNL A   1      37.148  33.500  32.049  1.00  0.00    -0.096 S 
BRANCH   9  13
ATOM     13  C   UNL A   1      38.056  33.901  35.863  1.00  0.00     0.002 A 
ATOM     14  C   UNL A   1      38.835  34.000  38.553  1.00  0.00     0.118 A 
ATOM     15  C   UNL A   1      37.795  33.160  38.161  1.00  0.00     0.047 A 
ATOM     16  C   UNL A   1      39.542  34.729  37.595  1.00  0.00     0.047 A 
ATOM     17  C   UNL A   1      37.401  33.115  36.821  1.00  0.00     0.014 A 
ATOM     18  C   UNL A   1      39.155  34.676  36.252  1.00  0.00     0.014 A 
BRANCH  14  19
ATOM     19  O   UNL A   1      39.130  34.018  39.891  1.00  0.00    -0.497 OA
ATOM     20  C   UNL A   1      38.615  32.889  40.593  1.00  0.00     0.278 C 
ENDBRANCH  14  19
ENDBRANCH   9  13
BRANCH  11  21
ATOM     21  C   UNL A   1      38.512  31.709  33.600  1.00  0.00    -0.006 A 
ATOM     22  C   UNL A   1      39.820  31.572  34.078  1.00  0.00     0.013 A 
ATOM     23  C   UNL A   1      37.856  30.574  33.103  1.00  0.00     0.013 A 
ATOM     24  C   UNL A   1      40.459  30.331  34.038  1.00  0.00     0.047 A 
ATOM     25  C   UNL A   1      38.494  29.330  33.074  1.00  0.00     0.047 A 
ATOM     26  C   UNL A   1      39.802  29.206  33.537  1.00  0.00     0.118 A 
BRANCH  26  27
ATOM     27  O   UNL A   1      40.543  28.057  33.540  1.00  0.00    -0.497 OA
ATOM     28  C   UNL A   1      41.944  28.204  33.348  1.00  0.00     0.278 C 
ENDBRANCH  26  27
ENDBRANCH  11  21
ENDBRANCH   6   8
ENDBRANCH   5   6
ENDBRANCH   3   5
ENDBRANCH   2   3
ENDBRANCH   1   2
BRANCH   1  29
ATOM     29  C   UNL A   1      34.376  32.995  27.870  1.00  0.00     0.275 C 
BRANCH  29  30
ATOM     30  O   UNL A   1      34.099  31.717  28.473  1.00  0.00    -0.458 OA
BRANCH  30  31
ATOM     31  C   UNL A   1      34.385  30.637  27.705  1.00  0.00     0.338 C 
ATOM     32  O   UNL A   1      33.703  30.178  26.804  1.00  0.00    -0.246 OA
BRANCH  31  33
ATOM     33  C   UNL A   1      35.750  30.164  27.998  1.00  0.00     0.060 A 
ATOM     34  C   UNL A   1      36.018  29.705  29.292  1.00  0.00     0.016 A 
ATOM     35  C   UNL A   1      36.766  30.219  27.042  1.00  0.00     0.016 A 
ATOM     36  C   UNL A   1      37.302  29.297  29.638  1.00  0.00     0.010 A 
ATOM     37  C   UNL A   1      38.058  29.813  27.393  1.00  0.00     0.010 A 
ATOM     38  C   UNL A   1      38.334  29.358  28.695  1.00  0.00    -0.014 A 
BRANCH  38  39
ATOM     39  C   UNL A   1      39.712  28.985  29.091  1.00  0.00     0.031 A 
ATOM     40  C   UNL A   1      40.572  29.976  29.821  1.00  0.00     0.074 A 
ATOM     41  C   UNL A   1      40.177  27.752  28.817  1.00  0.00     0.049 A 
ATOM     42  N   UNL A   1      41.822  29.867  30.193  1.00  0.00    -0.248 NA
ATOM     43  C   UNL A   1      39.944  31.257  30.181  1.00  0.00     0.031 C 
ATOM     44  C   UNL A   1      39.415  26.687  28.161  1.00  0.00     0.029 A 
ATOM     45  N   UNL A   1      41.405  27.186  29.056  1.00  0.00    -0.354 N 
ATOM     46  C   UNL A   1      42.137  31.070  30.812  1.00  0.00     0.074 A 
ATOM     47  C   UNL A   1      40.952  31.900  30.754  1.00  0.00     0.031 C 
ATOM     48  C   UNL A   1      40.192  25.596  28.053  1.00  0.00     0.029 A 
ATOM     49  C   UNL A   1      41.518  25.900  28.586  1.00  0.00     0.049 A 
ATOM     50  H   UNL A   1      42.134  27.657  29.520  1.00  0.00     0.167 HD
ATOM     51  C   UNL A   1      43.309  31.449  31.376  1.00  0.00     0.031 A 
ATOM     52  C   UNL A   1      42.578  25.070  28.561  1.00  0.00     0.031 A 
ATOM     53  C   UNL A   1      44.484  30.620  31.426  1.00  0.00     0.049 A 
ATOM     54  C   UNL A   1      43.889  25.537  29.131  1.00  0.00     0.074 A 
ATOM     55  C   UNL A   1      45.720  30.911  31.978  1.00  0.00     0.029 A 
ATOM     56  N   UNL A   1      44.571  29.337  30.905  1.00  0.00    -0.354 N 
ATOM     57  N   UNL A   1      44.174  26.681  29.706  1.00  0.00    -0.248 NA
ATOM     58  C   UNL A   1      45.021  24.605  29.047  1.00  0.00     0.031 C 
ATOM     59  C   UNL A   1      46.567  29.820  31.748  1.00  0.00     0.029 A 
ATOM     60  C   UNL A   1      45.844  28.831  31.101  1.00  0.00     0.049 A 
ATOM     61  H   UNL A   1      43.835  28.857  30.461  1.00  0.00     0.167 HD
ATOM     62  C   UNL A   1      45.514  26.599  30.070  1.00  0.00     0.074 A 
ATOM     63  C   UNL A   1      45.978  25.288  29.661  1.00  0.00     0.031 C 
ATOM     64  C   UNL A   1      46.289  27.524  30.687  1.00  0.00     0.031 A 
BRANCH  51  65
ATOM     65  C   UNL A   1      43.389  32.840  31.943  1.00  0.00    -0.014 A 
ATOM     66  C   UNL A   1      42.975  33.119  33.258  1.00  0.00     0.010 A 
ATOM     67  C   UNL A   1      43.916  33.880  31.157  1.00  0.00     0.010 A 
ATOM     68  C   UNL A   1      43.051  34.421  33.762  1.00  0.00     0.020 A 
ATOM     69  C   UNL A   1      44.015  35.178  31.665  1.00  0.00     0.020 A 
ATOM     70  C   UNL A   1      43.565  35.444  32.959  1.00  0.00     0.054 A 
BRANCH  70  71
ATOM     71  S   UNL A   1      43.664  37.123  33.639  1.00  0.00     0.124 S 
ATOM     72  O   UNL A   1      43.606  37.940  32.430  1.00  0.00    -0.237 OA
ATOM     73  O   UNL A   1      42.487  37.192  34.500  1.00  0.00    -0.237 OA
ATOM     74  O   UNL A   1      44.946  37.137  34.340  1.00  0.00    -0.744 OA
ENDBRANCH  70  71
ENDBRANCH  51  65
BRANCH  52  75
ATOM     75  C   UNL A   1      42.448  23.722  27.941  1.00  0.00    -0.014 A 
ATOM     76  C   UNL A   1      42.535  23.562  26.548  1.00  0.00     0.010 A 
ATOM     77  C   UNL A   1      42.253  22.588  28.750  1.00  0.00     0.010 A 
ATOM     78  C   UNL A   1      42.419  22.291  25.974  1.00  0.00     0.020 A 
ATOM     79  C   UNL A   1      42.163  21.314  28.183  1.00  0.00     0.020 A 
ATOM     80  C   UNL A   1      42.237  21.175  26.796  1.00  0.00     0.054 A 
BRANCH  80  81
ATOM     81  S   UNL A   1      42.150  19.529  26.038  1.00  0.00     0.124 S 
ATOM     82  O   UNL A   1      43.121  19.642  24.955  1.00  0.00    -0.237 OA
ATOM     83  O   UNL A   1      42.532  18.651  27.142  1.00  0.00    -0.237 OA
ATOM     84  O   UNL A   1      40.754  19.420  25.621  1.00  0.00    -0.744 OA
ENDBRANCH  80  81
ENDBRANCH  52  75
BRANCH  64  85
ATOM     85  C   UNL A   1      47.713  27.146  30.986  1.00  0.00    -0.014 A 
ATOM     86  C   UNL A   1      48.093  26.700  32.263  1.00  0.00     0.010 A 
ATOM     87  C   UNL A   1      48.670  27.178  29.955  1.00  0.00     0.010 A 
ATOM     88  C   UNL A   1      49.414  26.312  32.511  1.00  0.00     0.020 A 
ATOM     89  C   UNL A   1      49.985  26.768  30.193  1.00  0.00     0.020 A 
ATOM     90  C   UNL A   1      50.351  26.348  31.473  1.00  0.00     0.054 A 
BRANCH  90  91
ATOM     91  S   UNL A   1      52.043  25.786  31.803  1.00  0.00     0.124 S 
ATOM     92  O   UNL A   1      52.738  26.184  30.582  1.00  0.00    -0.237 OA
ATOM     93  O   UNL A   1      52.405  26.534  33.004  1.00  0.00    -0.237 OA
ATOM     94  O   UNL A   1      51.898  24.344  31.995  1.00  0.00    -0.744 OA
ENDBRANCH  90  91
ENDBRANCH  64  85
ENDBRANCH  38  39
ENDBRANCH  31  33
ENDBRANCH  30  31
ENDBRANCH  29  30
ENDBRANCH   1  29
TORSDOF 20
ENDMDL
MODEL 2
REMARK VINA RESULT:      -9.1      4.576     12.565
REMARK SMILES COc1ccc(-c2nc(NCC(=O)OCCOC(=O)c3ccc(-c4c5nc(c(-c6ccc(S(=O)(=O)[O-])cc6)c6ccc([nH]6)c(-c6ccc(S(=O)(=O)[O-])cc6)c6nc(c(-c7ccc(S(=O)(=O)[O-])cc7)c7ccc4[nH]7)C=C6)C=C5)cc3)sc2-c2ccc(OC)cc2)cc1
REMARK SMILES IDX 15 1 14 2 12 3 13 4 11 5 10 6 9 8 7 9 8 10 81 11 80 12 6 13
REMARK SMILES IDX 3 14 4 15 91 16 5 17 90 18 2 19 1 20 82 21 83 22 89 23 84 24
REMARK SMILES IDX 88 25 85 26 86 27 87 28 16 29 17 30 18 31 19 32 20 33 21 34
REMARK SMILES IDX 79 35 22 36 78 37 23 38 24 39 25 40 72 41 26 42 77 43 71 44
REMARK SMILES IDX 73 45 27 46 76 47 70 48 69 49 28 51 58 52 39 53 57 54 40 55
REMARK SMILES IDX 43 56 56 57 74 58 41 59 42 60 55 62 75 63 44 64 29 65 30 66
REMARK SMILES IDX 38 67 31 68 37 69 32 70 33 71 34 72 35 73 36 74 59 75 60 76
REMARK SMILES IDX 68 77 61 78 67 79 62 80 63 81 64 82 65 83 66 84 45 85 46 86
REMARK SMILES IDX 54 87 47 88 53 89 48 90 49 91 50 92 51 93 52 94
REMARK H PARENT 10 7 73 50 43 61
REMARK Flexibility Score: inf
ROOT
ATOM      1  C   UNL A   1      43.802  22.522  25.567  1.00  0.00     0.274 C 
ENDROOT
BRANCH   1   2
ATOM      2  O   UNL A   1      42.554  21.885  25.248  1.00  0.00    -0.461 OA
BRANCH   2   3
ATOM      3  C   UNL A   1      42.173  20.862  26.063  1.00  0.00     0.325 C 
ATOM      4  O   UNL A   1      42.845  19.860  26.286  1.00  0.00    -0.250 OA
BRANCH   3   5
ATOM      5  C   UNL A   1      40.782  21.073  26.641  1.00  0.00     0.238 C 
BRANCH   5   6
ATOM      6  N   UNL A   1      40.054  22.168  26.010  1.00  0.00    -0.351 N 
ATOM      7  H   UNL A   1      40.567  22.957  25.723  1.00  0.00     0.163 HD
BRANCH   6   8
ATOM      8  C   UNL A   1      38.724  22.164  25.796  1.00  0.00     0.184 A 
ATOM      9  C   UNL A   1      36.708  21.348  25.329  1.00  0.00     0.091 A 
ATOM     10  N   UNL A   1      38.077  21.112  25.345  1.00  0.00    -0.220 NA
ATOM     11  C   UNL A   1      36.318  22.581  25.836  1.00  0.00     0.064 A 
ATOM     12  S   UNL A   1      37.716  23.522  26.121  1.00  0.00    -0.096 S 
BRANCH   9  13
ATOM     13  C   UNL A   1      35.764  20.313  24.925  1.00  0.00     0.002 A 
ATOM     14  C   UNL A   1      33.906  18.274  24.434  1.00  0.00     0.118 A 
ATOM     15  C   UNL A   1      33.495  19.605  24.432  1.00  0.00     0.047 A 
ATOM     16  C   UNL A   1      35.256  17.962  24.598  1.00  0.00     0.047 A 
ATOM     17  C   UNL A   1      34.418  20.623  24.684  1.00  0.00     0.014 A 
ATOM     18  C   UNL A   1      36.185  18.981  24.840  1.00  0.00     0.014 A 
BRANCH  14  19
ATOM     19  O   UNL A   1      32.930  17.337  24.223  1.00  0.00    -0.497 OA
ATOM     20  C   UNL A   1      32.567  16.629  25.406  1.00  0.00     0.278 C 
ENDBRANCH  14  19
ENDBRANCH   9  13
BRANCH  11  21
ATOM     21  C   UNL A   1      35.014  23.118  26.231  1.00  0.00    -0.006 A 
ATOM     22  C   UNL A   1      34.253  22.532  27.249  1.00  0.00     0.013 A 
ATOM     23  C   UNL A   1      34.469  24.197  25.521  1.00  0.00     0.013 A 
ATOM     24  C   UNL A   1      32.971  23.006  27.533  1.00  0.00     0.047 A 
ATOM     25  C   UNL A   1      33.189  24.676  25.814  1.00  0.00     0.047 A 
ATOM     26  C   UNL A   1      32.432  24.078  26.820  1.00  0.00     0.118 A 
BRANCH  26  27
ATOM     27  O   UNL A   1      31.163  24.434  27.186  1.00  0.00    -0.497 OA
ATOM     28  C   UNL A   1      30.251  24.705  26.130  1.00  0.00     0.278 C 
ENDBRANCH  26  27
ENDBRANCH  11  21
ENDBRANCH   6   8
ENDBRANCH   5   6
ENDBRANCH   3   5
ENDBRANCH   2   3
ENDBRANCH   1   2
BRANCH   1  29
ATOM     29  C   UNL A   1      43.612  24.023  25.807  1.00  0.00     0.275 C 
BRANCH  29  30
ATOM     30  O   UNL A   1      42.290  24.340  26.281  1.00  0.00    -0.458 OA
BRANCH  30  31
ATOM     31  C   UNL A   1      41.861  25.598  26.012  1.00  0.00     0.338 C 
ATOM     32  O   UNL A   1      41.456  26.019  24.941  1.00  0.00    -0.246 OA
BRANCH  31  33
ATOM     33  C   UNL A   1      41.788  26.378  27.260  1.00  0.00     0.060 A 
ATOM     34  C   UNL A   1      40.811  26.022  28.196  1.00  0.00     0.016 A 
ATOM     35  C   UNL A   1      42.623  27.472  27.491  1.00  0.00     0.016 A 
ATOM     36  C   UNL A   1      40.663  26.757  29.368  1.00  0.00     0.010 A 
ATOM     37  C   UNL A   1      42.469  28.214  28.668  1.00  0.00     0.010 A 
ATOM     38  C   UNL A   1      41.483  27.865  29.608  1.00  0.00    -0.014 A 
BRANCH  38  39
ATOM     39  C   UNL A   1      41.274  28.682  30.826  1.00  0.00     0.031 A 
ATOM     40  C   UNL A   1      40.166  29.694  30.864  1.00  0.00     0.074 A 
ATOM     41  C   UNL A   1      42.063  28.495  31.901  1.00  0.00     0.049 A 
ATOM     42  N   UNL A   1      39.863  30.550  31.806  1.00  0.00    -0.248 NA
ATOM     43  C   UNL A   1      39.282  29.750  29.689  1.00  0.00     0.031 C 
ATOM     44  C   UNL A   1      43.137  27.504  32.000  1.00  0.00     0.029 A 
ATOM     45  N   UNL A   1      42.083  29.132  33.116  1.00  0.00    -0.354 N 
ATOM     46  C   UNL A   1      38.767  31.260  31.332  1.00  0.00     0.074 A 
ATOM     47  C   UNL A   1      38.467  30.744  30.013  1.00  0.00     0.031 C 
ATOM     48  C   UNL A   1      43.708  27.599  33.212  1.00  0.00     0.029 A 
ATOM     49  C   UNL A   1      43.076  28.686  33.955  1.00  0.00     0.049 A 
ATOM     50  H   UNL A   1      41.447  29.842  33.363  1.00  0.00     0.167 HD
ATOM     51  C   UNL A   1      38.076  32.253  31.940  1.00  0.00     0.031 A 
ATOM     52  C   UNL A   1      43.453  29.123  35.172  1.00  0.00     0.031 A 
ATOM     53  C   UNL A   1      38.383  32.763  33.250  1.00  0.00     0.049 A 
ATOM     54  C   UNL A   1      42.714  30.273  35.799  1.00  0.00     0.074 A 
ATOM     55  C   UNL A   1      37.741  33.766  33.956  1.00  0.00     0.029 A 
ATOM     56  N   UNL A   1      39.421  32.311  34.052  1.00  0.00    -0.354 N 
ATOM     57  N   UNL A   1      41.685  30.940  35.334  1.00  0.00    -0.248 NA
ATOM     58  C   UNL A   1      43.188  30.731  37.112  1.00  0.00     0.031 C 
ATOM     59  C   UNL A   1      38.421  33.951  35.166  1.00  0.00     0.029 A 
ATOM     60  C   UNL A   1      39.452  33.029  35.236  1.00  0.00     0.049 A 
ATOM     61  H   UNL A   1      40.043  31.586  33.815  1.00  0.00     0.167 HD
ATOM     62  C   UNL A   1      41.376  31.886  36.307  1.00  0.00     0.074 A 
ATOM     63  C   UNL A   1      42.320  31.694  37.390  1.00  0.00     0.031 C 
ATOM     64  C   UNL A   1      40.399  32.825  36.303  1.00  0.00     0.031 A 
BRANCH  51  65
ATOM     65  C   UNL A   1      36.946  32.884  31.172  1.00  0.00    -0.014 A 
ATOM     66  C   UNL A   1      35.607  32.704  31.562  1.00  0.00     0.010 A 
ATOM     67  C   UNL A   1      37.233  33.697  30.061  1.00  0.00     0.010 A 
ATOM     68  C   UNL A   1      34.573  33.293  30.828  1.00  0.00     0.020 A 
ATOM     69  C   UNL A   1      36.203  34.306  29.339  1.00  0.00     0.020 A 
ATOM     70  C   UNL A   1      34.877  34.086  29.717  1.00  0.00     0.054 A 
BRANCH  70  71
ATOM     71  S   UNL A   1      33.519  34.849  28.789  1.00  0.00     0.124 S 
ATOM     72  O   UNL A   1      34.134  36.088  28.319  1.00  0.00    -0.237 OA
ATOM     73  O   UNL A   1      33.237  33.857  27.755  1.00  0.00    -0.237 OA
ATOM     74  O   UNL A   1      32.467  35.017  29.789  1.00  0.00    -0.744 OA
ENDBRANCH  70  71
ENDBRANCH  51  65
BRANCH  52  75
ATOM     75  C   UNL A   1      44.611  28.488  35.859  1.00  0.00    -0.014 A 
ATOM     76  C   UNL A   1      45.917  28.967  35.657  1.00  0.00     0.010 A 
ATOM     77  C   UNL A   1      44.406  27.408  36.737  1.00  0.00     0.010 A 
ATOM     78  C   UNL A   1      46.998  28.369  36.313  1.00  0.00     0.020 A 
ATOM     79  C   UNL A   1      45.480  26.826  37.414  1.00  0.00     0.020 A 
ATOM     80  C   UNL A   1      46.772  27.305  37.190  1.00  0.00     0.054 A 
BRANCH  80  81
ATOM     81  S   UNL A   1      48.180  26.583  38.077  1.00  0.00     0.124 S 
ATOM     82  O   UNL A   1      48.372  25.322  37.369  1.00  0.00    -0.237 OA
ATOM     83  O   UNL A   1      49.225  27.584  37.882  1.00  0.00    -0.237 OA
ATOM     84  O   UNL A   1      47.693  26.463  39.450  1.00  0.00    -0.744 OA
ENDBRANCH  80  81
ENDBRANCH  52  75
BRANCH  64  85
ATOM     85  C   UNL A   1      40.279  33.703  37.518  1.00  0.00    -0.014 A 
ATOM     86  C   UNL A   1      39.497  33.316  38.619  1.00  0.00     0.010 A 
ATOM     87  C   UNL A   1      41.011  34.903  37.581  1.00  0.00     0.010 A 
ATOM     88  C   UNL A   1      39.432  34.126  39.757  1.00  0.00     0.020 A 
ATOM     89  C   UNL A   1      40.966  35.703  38.726  1.00  0.00     0.020 A 
ATOM     90  C   UNL A   1      40.167  35.314  39.803  1.00  0.00     0.054 A 
BRANCH  90  91
ATOM     91  S   UNL A   1      40.113  36.320  41.312  1.00  0.00     0.124 S 
ATOM     92  O   UNL A   1      40.888  37.494  40.921  1.00  0.00    -0.237 OA
ATOM     93  O   UNL A   1      38.682  36.545  41.498  1.00  0.00    -0.237 OA
ATOM     94  O   UNL A   1      40.739  35.466  42.320  1.00  0.00    -0.744 OA
ENDBRANCH  90  91
ENDBRANCH  64  85
ENDBRANCH  38  39
ENDBRANCH  31  33
ENDBRANCH  30  31
ENDBRANCH  29  30
ENDBRANCH   1  29
TORSDOF 20
ENDMDL
MODEL 3
REMARK VINA RESULT:      -8.1      0.910      8.469
REMARK SMILES COc1ccc(-c2nc(NCC(=O)OCCOC(=O)c3ccc(-c4c5nc(c(-c6ccc(S(=O)(=O)[O-])cc6)c6ccc([nH]6)c(-c6ccc(S(=O)(=O)[O-])cc6)c6nc(c(-c7ccc(S(=O)(=O)[O-])cc7)c7ccc4[nH]7)C=C6)C=C5)cc3)sc2-c2ccc(OC)cc2)cc1
REMARK SMILES IDX 15 1 14 2 12 3 13 4 11 5 10 6 9 8 7 9 8 10 81 11 80 12 6 13
REMARK SMILES IDX 3 14 4 15 91 16 5 17 90 18 2 19 1 20 82 21 83 22 89 23 84 24
REMARK SMILES IDX 88 25 85 26 86 27 87 28 16 29 17 30 18 31 19 32 20 33 21 34
REMARK SMILES IDX 79 35 22 36 78 37 23 38 24 39 25 40 72 41 26 42 77 43 71 44
REMARK SMILES IDX 73 45 27 46 76 47 70 48 69 49 28 51 58 52 39 53 57 54 40 55
REMARK SMILES IDX 43 56 56 57 74 58 41 59 42 60 55 62 75 63 44 64 29 65 30 66
REMARK SMILES IDX 38 67 31 68 37 69 32 70 33 71 34 72 35 73 36 74 59 75 60 76
REMARK SMILES IDX 68 77 61 78 67 79 62 80 63 81 64 82 65 83 66 84 45 85 46 86
REMARK SMILES IDX 54 87 47 88 53 89 48 90 49 91 50 92 51 93 52 94
REMARK H PARENT 10 7 73 50 43 61
REMARK Flexibility Score: inf
ROOT
ATOM      1  C   UNL A   1      33.145  33.569  27.938  1.00  0.00     0.274 C 
ENDROOT
BRANCH   1   2
ATOM      2  O   UNL A   1      34.395  34.165  28.319  1.00  0.00    -0.461 OA
BRANCH   2   3
ATOM      3  C   UNL A   1      34.663  34.200  29.655  1.00  0.00     0.325 C 
ATOM      4  O   UNL A   1      33.816  34.311  30.534  1.00  0.00    -0.250 OA
BRANCH   3   5
ATOM      5  C   UNL A   1      36.156  34.135  29.945  1.00  0.00     0.238 C 
BRANCH   5   6
ATOM      6  N   UNL A   1      36.508  34.632  31.270  1.00  0.00    -0.351 N 
ATOM      7  H   UNL A   1      36.397  35.594  31.447  1.00  0.00     0.163 HD
BRANCH   6   8
ATOM      8  C   UNL A   1      36.977  33.855  32.266  1.00  0.00     0.184 A 
ATOM      9  C   UNL A   1      38.201  32.288  33.264  1.00  0.00     0.091 A 
ATOM     10  N   UNL A   1      37.784  32.838  32.058  1.00  0.00    -0.220 NA
ATOM     11  C   UNL A   1      37.744  32.945  34.399  1.00  0.00     0.064 A 
ATOM     12  S   UNL A   1      36.602  34.125  33.925  1.00  0.00    -0.096 S 
BRANCH   9  13
ATOM     13  C   UNL A   1      39.149  31.183  33.306  1.00  0.00     0.002 A 
ATOM     14  C   UNL A   1      40.888  29.014  33.663  1.00  0.00     0.118 A 
ATOM     15  C   UNL A   1      39.642  28.817  33.072  1.00  0.00     0.047 A 
ATOM     16  C   UNL A   1      41.303  30.303  34.002  1.00  0.00     0.047 A 
ATOM     17  C   UNL A   1      38.771  29.895  32.900  1.00  0.00     0.014 A 
ATOM     18  C   UNL A   1      40.436  31.386  33.819  1.00  0.00     0.014 A 
BRANCH  14  19
ATOM     19  O   UNL A   1      41.663  27.898  33.836  1.00  0.00    -0.497 OA
ATOM     20  C   UNL A   1      42.706  27.785  32.872  1.00  0.00     0.278 C 
ENDBRANCH  14  19
ENDBRANCH   9  13
BRANCH  11  21
ATOM     21  C   UNL A   1      38.131  32.865  35.809  1.00  0.00    -0.006 A 
ATOM     22  C   UNL A   1      37.806  31.757  36.600  1.00  0.00     0.013 A 
ATOM     23  C   UNL A   1      38.771  33.957  36.412  1.00  0.00     0.013 A 
ATOM     24  C   UNL A   1      38.100  31.754  37.965  1.00  0.00     0.047 A 
ATOM     25  C   UNL A   1      39.073  33.948  37.777  1.00  0.00     0.047 A 
ATOM     26  C   UNL A   1      38.733  32.847  38.561  1.00  0.00     0.118 A 
BRANCH  26  27
ATOM     27  O   UNL A   1      38.950  32.724  39.905  1.00  0.00    -0.497 OA
ATOM     28  C   UNL A   1      39.026  33.933  40.649  1.00  0.00     0.278 C 
ENDBRANCH  26  27
ENDBRANCH  11  21
ENDBRANCH   6   8
ENDBRANCH   5   6
ENDBRANCH   3   5
ENDBRANCH   2   3
ENDBRANCH   1   2
BRANCH   1  29
ATOM     29  C   UNL A   1      33.337  32.117  27.490  1.00  0.00     0.275 C 
BRANCH  29  30
ATOM     30  O   UNL A   1      34.282  31.409  28.315  1.00  0.00    -0.458 OA
BRANCH  30  31
ATOM     31  C   UNL A   1      34.504  30.117  27.969  1.00  0.00     0.338 C 
ATOM     32  O   UNL A   1      33.713  29.354  27.440  1.00  0.00    -0.246 OA
BRANCH  31  33
ATOM     33  C   UNL A   1      35.926  29.785  28.170  1.00  0.00     0.060 A 
ATOM     34  C   UNL A   1      36.320  29.349  29.439  1.00  0.00     0.016 A 
ATOM     35  C   UNL A   1      36.868  29.947  27.153  1.00  0.00     0.016 A 
ATOM     36  C   UNL A   1      37.659  29.072  29.700  1.00  0.00     0.010 A 
ATOM     37  C   UNL A   1      38.215  29.673  27.418  1.00  0.00     0.010 A 
ATOM     38  C   UNL A   1      38.617  29.242  28.695  1.00  0.00    -0.014 A 
BRANCH  38  39
ATOM     39  C   UNL A   1      40.049  29.010  29.000  1.00  0.00     0.031 A 
ATOM     40  C   UNL A   1      40.675  27.685  28.673  1.00  0.00     0.074 A 
ATOM     41  C   UNL A   1      40.786  29.996  29.545  1.00  0.00     0.049 A 
ATOM     42  N   UNL A   1      41.888  27.263  28.921  1.00  0.00    -0.248 NA
ATOM     43  C   UNL A   1      39.826  26.708  27.973  1.00  0.00     0.031 C 
ATOM     44  C   UNL A   1      40.300  31.341  29.856  1.00  0.00     0.029 A 
ATOM     45  N   UNL A   1      42.102  30.016  29.934  1.00  0.00    -0.354 N 
ATOM     46  C   UNL A   1      41.944  25.965  28.428  1.00  0.00     0.074 A 
ATOM     47  C   UNL A   1      40.639  25.665  27.878  1.00  0.00     0.031 C 
ATOM     48  C   UNL A   1      41.306  32.057  30.387  1.00  0.00     0.029 A 
ATOM     49  C   UNL A   1      42.489  31.208  30.497  1.00  0.00     0.049 A 
ATOM     50  H   UNL A   1      42.709  29.250  29.822  1.00  0.00     0.167 HD
ATOM     51  C   UNL A   1      42.989  25.103  28.436  1.00  0.00     0.031 A 
ATOM     52  C   UNL A   1      43.657  31.568  31.064  1.00  0.00     0.031 A 
ATOM     53  C   UNL A   1      44.282  25.408  28.987  1.00  0.00     0.049 A 
ATOM     54  C   UNL A   1      44.781  30.570  31.122  1.00  0.00     0.074 A 
ATOM     55  C   UNL A   1      45.406  24.603  29.041  1.00  0.00     0.029 A 
ATOM     56  N   UNL A   1      44.624  26.613  29.583  1.00  0.00    -0.354 N 
ATOM     57  N   UNL A   1      44.816  29.343  30.659  1.00  0.00    -0.248 NA
ATOM     58  C   UNL A   1      46.021  31.002  31.782  1.00  0.00     0.031 C 
ATOM     59  C   UNL A   1      46.414  25.306  29.712  1.00  0.00     0.029 A 
ATOM     60  C   UNL A   1      45.934  26.567  30.028  1.00  0.00     0.049 A 
ATOM     61  H   UNL A   1      44.023  27.387  29.676  1.00  0.00     0.167 HD
ATOM     62  C   UNL A   1      46.088  28.863  30.954  1.00  0.00     0.074 A 
ATOM     63  C   UNL A   1      46.794  29.937  31.624  1.00  0.00     0.031 C 
ATOM     64  C   UNL A   1      46.621  27.645  30.693  1.00  0.00     0.031 A 
BRANCH  51  65
ATOM     65  C   UNL A   1      42.758  23.729  27.867  1.00  0.00    -0.014 A 
ATOM     66  C   UNL A   1      42.249  22.685  28.660  1.00  0.00     0.010 A 
ATOM     67  C   UNL A   1      43.025  23.488  26.507  1.00  0.00     0.010 A 
ATOM     68  C   UNL A   1      42.050  21.414  28.113  1.00  0.00     0.020 A 
ATOM     69  C   UNL A   1      42.805  22.225  25.951  1.00  0.00     0.020 A 
ATOM     70  C   UNL A   1      42.335  21.190  26.762  1.00  0.00     0.054 A 
BRANCH  70  71
ATOM     71  S   UNL A   1      42.058  19.536  26.072  1.00  0.00     0.124 S 
ATOM     72  O   UNL A   1      40.616  19.544  25.843  1.00  0.00    -0.237 OA
ATOM     73  O   UNL A   1      42.884  19.546  24.868  1.00  0.00    -0.237 OA
ATOM     74  O   UNL A   1      42.516  18.638  27.130  1.00  0.00    -0.744 OA
ENDBRANCH  70  71
ENDBRANCH  51  65
BRANCH  52  75
ATOM     75  C   UNL A   1      43.806  32.927  31.653  1.00  0.00    -0.014 A 
ATOM     76  C   UNL A   1      44.267  34.001  30.873  1.00  0.00     0.010 A 
ATOM     77  C   UNL A   1      43.470  33.154  33.000  1.00  0.00     0.010 A 
ATOM     78  C   UNL A   1      44.397  35.276  31.432  1.00  0.00     0.020 A 
ATOM     79  C   UNL A   1      43.573  34.432  33.555  1.00  0.00     0.020 A 
ATOM     80  C   UNL A   1      44.046  35.484  32.769  1.00  0.00     0.054 A 
BRANCH  80  81
ATOM     81  S   UNL A   1      44.164  37.157  33.459  1.00  0.00     0.124 S 
ATOM     82  O   UNL A   1      42.816  37.368  33.978  1.00  0.00    -0.237 OA
ATOM     83  O   UNL A   1      45.213  37.013  34.465  1.00  0.00    -0.237 OA
ATOM     84  O   UNL A   1      44.527  37.977  32.306  1.00  0.00    -0.744 OA
ENDBRANCH  80  81
ENDBRANCH  52  75
BRANCH  64  85
ATOM     85  C   UNL A   1      48.048  27.411  31.106  1.00  0.00    -0.014 A 
ATOM     86  C   UNL A   1      49.115  27.764  30.262  1.00  0.00     0.010 A 
ATOM     87  C   UNL A   1      48.324  26.890  32.383  1.00  0.00     0.010 A 
ATOM     88  C   UNL A   1      50.437  27.579  30.680  1.00  0.00     0.020 A 
ATOM     89  C   UNL A   1      49.644  26.726  32.814  1.00  0.00     0.020 A 
ATOM     90  C   UNL A   1      50.692  27.061  31.954  1.00  0.00     0.054 A 
BRANCH  90  91
ATOM     91  S   UNL A   1      52.413  26.884  32.498  1.00  0.00     0.124 S 
ATOM     92  O   UNL A   1      52.250  26.458  33.885  1.00  0.00    -0.237 OA
ATOM     93  O   UNL A   1      52.937  25.870  31.586  1.00  0.00    -0.237 OA
ATOM     94  O   UNL A   1      52.973  28.222  32.319  1.00  0.00    -0.744 OA
ENDBRANCH  90  91
ENDBRANCH  64  85
ENDBRANCH  38  39
ENDBRANCH  31  33
ENDBRANCH  30  31
ENDBRANCH  29  30
ENDBRANCH   1  29
TORSDOF 20
ENDMDL
