MODEL 1
REMARK VINA RESULT:     -10.0      0.000      0.000
REMARK SMILES COc1cc(Br)c(OC)c(C(=O)N2CCC[C@@H]2C(=O)OCCOC(=O)c2ccc(-c3c4nc(c(-c5ccc(S(=O)(=O)[O-])cc5)c5ccc([nH]5)c(-c5ccc(S(=O)(=O)[O-])cc5)c5nc(c(-c6ccc(S(=O)(=O)[O-])cc6)c6ccc3[nH]6)C=C5)C=C4)cc2)c1
REMARK SMILES IDX 21 1 20 2 18 3 19 4 17 5 13 6 14 7 15 8 16 9 11 10 12 11
REMARK SMILES IDX 10 12 3 13 4 14 86 15 5 16 6 17 7 18 2 19 1 20 8 21 9 22
REMARK SMILES IDX 22 23 23 24 24 25 25 26 26 27 27 28 85 29 28 30 84 31 29 32
REMARK SMILES IDX 30 33 31 34 78 35 32 36 83 37 77 38 79 39 33 40 82 41 76 42
REMARK SMILES IDX 75 43 34 45 64 46 45 47 63 48 46 49 49 50 62 51 80 52 47 53
REMARK SMILES IDX 48 54 61 56 81 57 50 58 35 59 36 60 44 61 37 62 43 63 38 64
REMARK SMILES IDX 39 65 40 66 41 67 42 68 65 69 66 70 74 71 67 72 73 73 68 74
REMARK SMILES IDX 69 75 70 76 71 77 72 78 51 79 52 80 60 81 53 82 59 83 54 84
REMARK SMILES IDX 55 85 56 86 57 87 58 88
REMARK H PARENT 79 44 49 55
REMARK Flexibility Score: inf
ROOT
ATOM      1  C   UNL A   1      31.585  28.380  26.539  1.00  0.00     0.274 C 
ENDROOT
BRANCH   1   2
ATOM      2  O   UNL A   1      31.372  27.665  25.309  1.00  0.00    -0.461 OA
BRANCH   2   3
ATOM      3  C   UNL A   1      30.994  26.364  25.450  1.00  0.00     0.328 C 
ATOM      4  O   UNL A   1      30.391  25.934  26.427  1.00  0.00    -0.250 OA
BRANCH   3   5
ATOM      5  C   UNL A   1      31.488  25.460  24.311  1.00  0.00     0.195 C 
ATOM      6  N   UNL A   1      32.941  25.492  24.208  1.00  0.00    -0.325 N 
ATOM      7  C   UNL A   1      33.316  25.258  22.830  1.00  0.00     0.121 C 
ATOM      8  C   UNL A   1      32.241  25.998  22.061  1.00  0.00     0.024 C 
ATOM      9  C   UNL A   1      30.978  25.772  22.895  1.00  0.00     0.039 C 
BRANCH   6  10
ATOM     10  C   UNL A   1      33.717  25.002  25.252  1.00  0.00     0.258 C 
ATOM     11  O   UNL A   1      34.169  25.742  26.112  1.00  0.00    -0.269 OA
BRANCH  10  12
ATOM     12  C   UNL A   1      34.058  23.535  25.142  1.00  0.00     0.086 A 
ATOM     13  C   UNL A   1      33.248  21.242  25.126  1.00  0.00     0.121 A 
ATOM     14  C   UNL A   1      34.527  20.775  24.876  1.00  0.00     0.066 A 
ATOM     15  C   UNL A   1      33.003  22.603  25.209  1.00  0.00     0.064 A 
ATOM     16  C   UNL A   1      35.593  21.679  24.796  1.00  0.00     0.064 A 
ATOM     17  Br  UNL A   1      37.310  20.881  24.608  1.00  0.00    -0.047 Br
ATOM     18  C   UNL A   1      35.376  23.068  24.932  1.00  0.00     0.146 A 
BRANCH  13  19
ATOM     19  O   UNL A   1      32.191  20.391  25.292  1.00  0.00    -0.497 OA
ATOM     20  C   UNL A   1      32.427  19.170  24.583  1.00  0.00     0.278 C 
ENDBRANCH  13  19
BRANCH  18  21
ATOM     21  O   UNL A   1      36.409  23.964  25.023  1.00  0.00    -0.495 OA
ATOM     22  C   UNL A   1      37.213  23.874  26.198  1.00  0.00     0.278 C 
ENDBRANCH  18  21
ENDBRANCH  10  12
ENDBRANCH   6  10
ENDBRANCH   3   5
ENDBRANCH   2   3
ENDBRANCH   1   2
BRANCH   1  23
ATOM     23  C   UNL A   1      32.801  29.307  26.444  1.00  0.00     0.275 C 
BRANCH  23  24
ATOM     24  O   UNL A   1      33.733  29.100  27.522  1.00  0.00    -0.458 OA
BRANCH  24  25
ATOM     25  C   UNL A   1      34.438  30.197  27.890  1.00  0.00     0.338 C 
ATOM     26  O   UNL A   1      34.003  31.313  28.112  1.00  0.00    -0.246 OA
BRANCH  25  27
ATOM     27  C   UNL A   1      35.841  29.830  28.131  1.00  0.00     0.060 A 
ATOM     28  C   UNL A   1      36.208  29.454  29.424  1.00  0.00     0.016 A 
ATOM     29  C   UNL A   1      36.799  29.932  27.123  1.00  0.00     0.016 A 
ATOM     30  C   UNL A   1      37.536  29.165  29.721  1.00  0.00     0.010 A 
ATOM     31  C   UNL A   1      38.134  29.638  27.420  1.00  0.00     0.010 A 
ATOM     32  C   UNL A   1      38.510  29.252  28.719  1.00  0.00    -0.014 A 
BRANCH  32  33
ATOM     33  C   UNL A   1      39.921  28.933  29.038  1.00  0.00     0.031 A 
ATOM     34  C   UNL A   1      40.814  29.976  29.645  1.00  0.00     0.074 A 
ATOM     35  C   UNL A   1      40.390  27.696  28.786  1.00  0.00     0.049 A 
ATOM     36  N   UNL A   1      42.095  29.919  29.891  1.00  0.00    -0.248 NA
ATOM     37  C   UNL A   1      40.180  31.249  30.026  1.00  0.00     0.031 C 
ATOM     38  C   UNL A   1      39.599  26.584  28.257  1.00  0.00     0.029 A 
ATOM     39  N   UNL A   1      41.647  27.169  28.939  1.00  0.00    -0.354 N 
ATOM     40  C   UNL A   1      42.432  31.152  30.436  1.00  0.00     0.074 A 
ATOM     41  C   UNL A   1      41.218  31.941  30.477  1.00  0.00     0.031 C 
ATOM     42  C   UNL A   1      40.389  25.506  28.129  1.00  0.00     0.029 A 
ATOM     43  C   UNL A   1      41.751  25.868  28.510  1.00  0.00     0.049 A 
ATOM     44  H   UNL A   1      42.402  27.675  29.319  1.00  0.00     0.167 HD
ATOM     45  C   UNL A   1      43.644  31.584  30.860  1.00  0.00     0.031 A 
ATOM     46  C   UNL A   1      42.828  25.069  28.396  1.00  0.00     0.031 A 
ATOM     47  C   UNL A   1      44.845  30.792  30.810  1.00  0.00     0.049 A 
ATOM     48  C   UNL A   1      44.178  25.604  28.784  1.00  0.00     0.074 A 
ATOM     49  C   UNL A   1      46.120  31.135  31.223  1.00  0.00     0.029 A 
ATOM     50  N   UNL A   1      44.921  29.500  30.312  1.00  0.00    -0.354 N 
ATOM     51  N   UNL A   1      44.484  26.778  29.285  1.00  0.00    -0.248 NA
ATOM     52  C   UNL A   1      45.328  24.715  28.576  1.00  0.00     0.031 C 
ATOM     53  C   UNL A   1      46.977  30.069  30.926  1.00  0.00     0.029 A 
ATOM     54  C   UNL A   1      46.227  29.044  30.374  1.00  0.00     0.049 A 
ATOM     55  H   UNL A   1      44.158  28.983  29.966  1.00  0.00     0.167 HD
ATOM     56  C   UNL A   1      45.863  26.766  29.456  1.00  0.00     0.074 A 
ATOM     57  C   UNL A   1      46.328  25.463  29.026  1.00  0.00     0.031 C 
ATOM     58  C   UNL A   1      46.672  27.749  29.924  1.00  0.00     0.031 A 
BRANCH  45  59
ATOM     59  C   UNL A   1      43.739  32.997  31.369  1.00  0.00    -0.014 A 
ATOM     60  C   UNL A   1      43.515  33.304  32.722  1.00  0.00     0.010 A 
ATOM     61  C   UNL A   1      44.090  34.031  30.481  1.00  0.00     0.010 A 
ATOM     62  C   UNL A   1      43.606  34.624  33.172  1.00  0.00     0.020 A 
ATOM     63  C   UNL A   1      44.203  35.350  30.930  1.00  0.00     0.020 A 
ATOM     64  C   UNL A   1      43.943  35.640  32.271  1.00  0.00     0.054 A 
BRANCH  64  65
ATOM     65  S   UNL A   1      44.064  37.345  32.881  1.00  0.00     0.124 S 
ATOM     66  O   UNL A   1      42.985  37.390  33.864  1.00  0.00    -0.237 OA
ATOM     67  O   UNL A   1      45.416  37.395  33.431  1.00  0.00    -0.237 OA
ATOM     68  O   UNL A   1      43.852  38.157  31.685  1.00  0.00    -0.744 OA
ENDBRANCH  64  65
ENDBRANCH  45  59
BRANCH  46  69
ATOM     69  C   UNL A   1      42.676  23.700  27.834  1.00  0.00    -0.014 A 
ATOM     70  C   UNL A   1      42.388  22.609  28.670  1.00  0.00     0.010 A 
ATOM     71  C   UNL A   1      42.796  23.488  26.448  1.00  0.00     0.010 A 
ATOM     72  C   UNL A   1      42.231  21.328  28.130  1.00  0.00     0.020 A 
ATOM     73  C   UNL A   1      42.615  22.216  25.902  1.00  0.00     0.020 A 
ATOM     74  C   UNL A   1      42.343  21.139  26.749  1.00  0.00     0.054 A 
BRANCH  74  75
ATOM     75  S   UNL A   1      42.076  19.482  26.061  1.00  0.00     0.124 S 
ATOM     76  O   UNL A   1      42.912  19.513  24.864  1.00  0.00    -0.237 OA
ATOM     77  O   UNL A   1      42.542  18.611  27.136  1.00  0.00    -0.237 OA
ATOM     78  O   UNL A   1      40.635  19.442  25.817  1.00  0.00    -0.744 OA
ENDBRANCH  74  75
ENDBRANCH  46  69
BRANCH  58  79
ATOM     79  C   UNL A   1      48.144  27.449  29.995  1.00  0.00    -0.014 A 
ATOM     80  C   UNL A   1      49.019  27.900  28.991  1.00  0.00     0.010 A 
ATOM     81  C   UNL A   1      48.664  26.755  31.102  1.00  0.00     0.010 A 
ATOM     82  C   UNL A   1      50.389  27.643  29.083  1.00  0.00     0.020 A 
ATOM     83  C   UNL A   1      50.037  26.515  31.207  1.00  0.00     0.020 A 
ATOM     84  C   UNL A   1      50.889  26.952  30.190  1.00  0.00     0.054 A 
BRANCH  84  85
ATOM     85  S   UNL A   1      52.677  26.674  30.312  1.00  0.00     0.124 S 
ATOM     86  O   UNL A   1      53.164  27.995  30.705  1.00  0.00    -0.237 OA
ATOM     87  O   UNL A   1      52.774  25.639  31.338  1.00  0.00    -0.237 OA
ATOM     88  O   UNL A   1      53.054  26.246  28.967  1.00  0.00    -0.744 OA
ENDBRANCH  84  85
ENDBRANCH  58  79
ENDBRANCH  32  33
ENDBRANCH  25  27
ENDBRANCH  24  25
ENDBRANCH  23  24
ENDBRANCH   1  23
TORSDOF 18
ENDMDL
MODEL 2
REMARK VINA RESULT:      -9.9      3.879      6.422
REMARK SMILES COc1cc(Br)c(OC)c(C(=O)N2CCC[C@@H]2C(=O)OCCOC(=O)c2ccc(-c3c4nc(c(-c5ccc(S(=O)(=O)[O-])cc5)c5ccc([nH]5)c(-c5ccc(S(=O)(=O)[O-])cc5)c5nc(c(-c6ccc(S(=O)(=O)[O-])cc6)c6ccc3[nH]6)C=C5)C=C4)cc2)c1
REMARK SMILES IDX 21 1 20 2 18 3 19 4 17 5 13 6 14 7 15 8 16 9 11 10 12 11
REMARK SMILES IDX 10 12 3 13 4 14 86 15 5 16 6 17 7 18 2 19 1 20 8 21 9 22
REMARK SMILES IDX 22 23 23 24 24 25 25 26 26 27 27 28 85 29 28 30 84 31 29 32
REMARK SMILES IDX 30 33 31 34 78 35 32 36 83 37 77 38 79 39 33 40 82 41 76 42
REMARK SMILES IDX 75 43 34 45 64 46 45 47 63 48 46 49 49 50 62 51 80 52 47 53
REMARK SMILES IDX 48 54 61 56 81 57 50 58 35 59 36 60 44 61 37 62 43 63 38 64
REMARK SMILES IDX 39 65 40 66 41 67 42 68 65 69 66 70 74 71 67 72 73 73 68 74
REMARK SMILES IDX 69 75 70 76 71 77 72 78 51 79 52 80 60 81 53 82 59 83 54 84
REMARK SMILES IDX 55 85 56 86 57 87 58 88
REMARK H PARENT 79 44 49 55
REMARK Flexibility Score: inf
ROOT
ATOM      1  C   UNL A   1      34.117  33.389  28.801  1.00  0.00     0.274 C 
ENDROOT
BRANCH   1   2
ATOM      2  O   UNL A   1      34.644  32.766  29.986  1.00  0.00    -0.461 OA
BRANCH   2   3
ATOM      3  C   UNL A   1      35.354  33.587  30.809  1.00  0.00     0.328 C 
ATOM      4  O   UNL A   1      34.849  34.483  31.474  1.00  0.00    -0.250 OA
BRANCH   3   5
ATOM      5  C   UNL A   1      36.869  33.349  30.745  1.00  0.00     0.195 C 
ATOM      6  N   UNL A   1      37.542  33.944  31.892  1.00  0.00    -0.325 N 
ATOM      7  C   UNL A   1      38.883  34.324  31.501  1.00  0.00     0.121 C 
ATOM      8  C   UNL A   1      38.689  34.823  30.084  1.00  0.00     0.024 C 
ATOM      9  C   UNL A   1      37.616  33.891  29.516  1.00  0.00     0.039 C 
BRANCH   6  10
ATOM     10  C   UNL A   1      37.281  33.464  33.171  1.00  0.00     0.258 C 
ATOM     11  O   UNL A   1      36.603  34.100  33.964  1.00  0.00    -0.269 OA
BRANCH  10  12
ATOM     12  C   UNL A   1      38.013  32.191  33.522  1.00  0.00     0.086 A 
ATOM     13  C   UNL A   1      38.071  29.763  33.396  1.00  0.00     0.121 A 
ATOM     14  C   UNL A   1      39.300  29.744  34.035  1.00  0.00     0.066 A 
ATOM     15  C   UNL A   1      37.456  30.968  33.097  1.00  0.00     0.064 A 
ATOM     16  C   UNL A   1      39.880  30.945  34.460  1.00  0.00     0.064 A 
ATOM     17  Br  UNL A   1      41.487  30.750  35.461  1.00  0.00    -0.047 Br
ATOM     18  C   UNL A   1      39.246  32.182  34.216  1.00  0.00     0.146 A 
BRANCH  13  19
ATOM     19  O   UNL A   1      37.431  28.611  33.035  1.00  0.00    -0.497 OA
ATOM     20  C   UNL A   1      38.371  27.669  32.510  1.00  0.00     0.278 C 
ENDBRANCH  13  19
BRANCH  18  21
ATOM     21  O   UNL A   1      39.699  33.357  34.757  1.00  0.00    -0.495 OA
ATOM     22  C   UNL A   1      39.362  33.585  36.125  1.00  0.00     0.278 C 
ENDBRANCH  18  21
ENDBRANCH  10  12
ENDBRANCH   6  10
ENDBRANCH   3   5
ENDBRANCH   2   3
ENDBRANCH   1   2
BRANCH   1  23
ATOM     23  C   UNL A   1      33.484  32.358  27.861  1.00  0.00     0.275 C 
BRANCH  23  24
ATOM     24  O   UNL A   1      34.471  31.585  27.152  1.00  0.00    -0.458 OA
BRANCH  24  25
ATOM     25  C   UNL A   1      34.539  30.278  27.503  1.00  0.00     0.338 C 
ATOM     26  O   UNL A   1      33.681  29.427  27.347  1.00  0.00    -0.246 OA
BRANCH  25  27
ATOM     27  C   UNL A   1      35.887  29.964  27.997  1.00  0.00     0.060 A 
ATOM     28  C   UNL A   1      36.955  30.073  27.105  1.00  0.00     0.016 A 
ATOM     29  C   UNL A   1      36.091  29.492  29.293  1.00  0.00     0.016 A 
ATOM     30  C   UNL A   1      38.240  29.719  27.501  1.00  0.00     0.010 A 
ATOM     31  C   UNL A   1      37.384  29.140  29.694  1.00  0.00     0.010 A 
ATOM     32  C   UNL A   1      38.466  29.253  28.802  1.00  0.00    -0.014 A 
BRANCH  32  33
ATOM     33  C   UNL A   1      39.838  28.888  29.223  1.00  0.00     0.031 A 
ATOM     34  C   UNL A   1      40.691  29.879  29.961  1.00  0.00     0.074 A 
ATOM     35  C   UNL A   1      40.309  27.658  28.944  1.00  0.00     0.049 A 
ATOM     36  N   UNL A   1      41.945  29.782  30.314  1.00  0.00    -0.248 NA
ATOM     37  C   UNL A   1      40.047  31.141  30.357  1.00  0.00     0.031 C 
ATOM     38  C   UNL A   1      39.550  26.592  28.287  1.00  0.00     0.029 A 
ATOM     39  N   UNL A   1      41.540  27.098  29.175  1.00  0.00    -0.354 N 
ATOM     40  C   UNL A   1      42.252  30.977  30.954  1.00  0.00     0.074 A 
ATOM     41  C   UNL A   1      41.052  31.787  30.934  1.00  0.00     0.031 C 
ATOM     42  C   UNL A   1      40.331  25.508  28.167  1.00  0.00     0.029 A 
ATOM     43  C   UNL A   1      41.660  25.821  28.684  1.00  0.00     0.049 A 
ATOM     44  H   UNL A   1      42.266  27.567  29.646  1.00  0.00     0.167 HD
ATOM     45  C   UNL A   1      43.428  31.360  31.504  1.00  0.00     0.031 A 
ATOM     46  C   UNL A   1      42.731  25.007  28.619  1.00  0.00     0.031 A 
ATOM     47  C   UNL A   1      44.618  30.549  31.514  1.00  0.00     0.049 A 
ATOM     48  C   UNL A   1      44.050  25.493  29.151  1.00  0.00     0.074 A 
ATOM     49  C   UNL A   1      45.857  30.843  32.054  1.00  0.00     0.029 A 
ATOM     50  N   UNL A   1      44.717  29.284  30.953  1.00  0.00    -0.354 N 
ATOM     51  N   UNL A   1      44.329  26.631  29.742  1.00  0.00    -0.248 NA
ATOM     52  C   UNL A   1      45.200  24.594  28.993  1.00  0.00     0.031 C 
ATOM     53  C   UNL A   1      46.720  29.778  31.773  1.00  0.00     0.029 A 
ATOM     54  C   UNL A   1      46.005  28.799  31.102  1.00  0.00     0.049 A 
ATOM     55  H   UNL A   1      43.979  28.802  30.514  1.00  0.00     0.167 HD
ATOM     56  C   UNL A   1      45.687  26.582  30.030  1.00  0.00     0.074 A 
ATOM     57  C   UNL A   1      46.168  25.296  29.570  1.00  0.00     0.031 C 
ATOM     58  C   UNL A   1      46.467  27.522  30.621  1.00  0.00     0.031 A 
BRANCH  45  59
ATOM     59  C   UNL A   1      43.500  32.742  32.097  1.00  0.00    -0.014 A 
ATOM     60  C   UNL A   1      43.096  32.992  33.420  1.00  0.00     0.010 A 
ATOM     61  C   UNL A   1      44.013  33.802  31.326  1.00  0.00     0.010 A 
ATOM     62  C   UNL A   1      43.169  34.284  33.950  1.00  0.00     0.020 A 
ATOM     63  C   UNL A   1      44.108  35.091  31.858  1.00  0.00     0.020 A 
ATOM     64  C   UNL A   1      43.669  35.326  33.162  1.00  0.00     0.054 A 
BRANCH  64  65
ATOM     65  S   UNL A   1      43.763  36.992  33.875  1.00  0.00     0.124 S 
ATOM     66  O   UNL A   1      42.436  37.141  34.469  1.00  0.00    -0.237 OA
ATOM     67  O   UNL A   1      44.866  36.875  34.825  1.00  0.00    -0.237 OA
ATOM     68  O   UNL A   1      44.028  37.849  32.721  1.00  0.00    -0.744 OA
ENDBRANCH  64  65
ENDBRANCH  45  59
BRANCH  46  69
ATOM     69  C   UNL A   1      42.607  23.674  27.970  1.00  0.00    -0.014 A 
ATOM     70  C   UNL A   1      43.013  23.483  26.639  1.00  0.00     0.010 A 
ATOM     71  C   UNL A   1      42.101  22.579  28.697  1.00  0.00     0.010 A 
ATOM     72  C   UNL A   1      42.907  22.222  26.043  1.00  0.00     0.020 A 
ATOM     73  C   UNL A   1      42.018  21.314  28.113  1.00  0.00     0.020 A 
ATOM     74  C   UNL A   1      42.412  21.144  26.784  1.00  0.00     0.054 A 
BRANCH  74  75
ATOM     75  S   UNL A   1      42.339  19.504  26.013  1.00  0.00     0.124 S 
ATOM     76  O   UNL A   1      42.809  18.640  27.092  1.00  0.00    -0.237 OA
ATOM     77  O   UNL A   1      40.925  19.375  25.669  1.00  0.00    -0.237 OA
ATOM     78  O   UNL A   1      43.241  19.624  24.869  1.00  0.00    -0.744 OA
ENDBRANCH  74  75
ENDBRANCH  46  69
BRANCH  58  79
ATOM     79  C   UNL A   1      47.923  27.189  30.801  1.00  0.00    -0.014 A 
ATOM     80  C   UNL A   1      48.441  26.892  32.074  1.00  0.00     0.010 A 
ATOM     81  C   UNL A   1      48.769  27.120  29.680  1.00  0.00     0.010 A 
ATOM     82  C   UNL A   1      49.787  26.553  32.225  1.00  0.00     0.020 A 
ATOM     83  C   UNL A   1      50.111  26.760  29.825  1.00  0.00     0.020 A 
ATOM     84  C   UNL A   1      50.614  26.490  31.100  1.00  0.00     0.054 A 
BRANCH  84  85
ATOM     85  S   UNL A   1      52.347  25.997  31.315  1.00  0.00     0.124 S 
ATOM     86  O   UNL A   1      52.816  26.963  32.305  1.00  0.00    -0.237 OA
ATOM     87  O   UNL A   1      52.234  24.619  31.787  1.00  0.00    -0.237 OA
ATOM     88  O   UNL A   1      52.918  26.147  29.979  1.00  0.00    -0.744 OA
ENDBRANCH  84  85
ENDBRANCH  58  79
ENDBRANCH  32  33
ENDBRANCH  25  27
ENDBRANCH  24  25
ENDBRANCH  23  24
ENDBRANCH   1  23
TORSDOF 18
ENDMDL
MODEL 3
REMARK VINA RESULT:      -9.7      4.817     10.521
REMARK SMILES COc1cc(Br)c(OC)c(C(=O)N2CCC[C@@H]2C(=O)OCCOC(=O)c2ccc(-c3c4nc(c(-c5ccc(S(=O)(=O)[O-])cc5)c5ccc([nH]5)c(-c5ccc(S(=O)(=O)[O-])cc5)c5nc(c(-c6ccc(S(=O)(=O)[O-])cc6)c6ccc3[nH]6)C=C5)C=C4)cc2)c1
REMARK SMILES IDX 21 1 20 2 18 3 19 4 17 5 13 6 14 7 15 8 16 9 11 10 12 11
REMARK SMILES IDX 10 12 3 13 4 14 86 15 5 16 6 17 7 18 2 19 1 20 8 21 9 22
REMARK SMILES IDX 22 23 23 24 24 25 25 26 26 27 27 28 85 29 28 30 84 31 29 32
REMARK SMILES IDX 30 33 31 34 78 35 32 36 83 37 77 38 79 39 33 40 82 41 76 42
REMARK SMILES IDX 75 43 34 45 64 46 45 47 63 48 46 49 49 50 62 51 80 52 47 53
REMARK SMILES IDX 48 54 61 56 81 57 50 58 35 59 36 60 44 61 37 62 43 63 38 64
REMARK SMILES IDX 39 65 40 66 41 67 42 68 65 69 66 70 74 71 67 72 73 73 68 74
REMARK SMILES IDX 69 75 70 76 71 77 72 78 51 79 52 80 60 81 53 82 59 83 54 84
REMARK SMILES IDX 55 85 56 86 57 87 58 88
REMARK H PARENT 79 44 49 55
REMARK Flexibility Score: inf
ROOT
ATOM      1  C   UNL A   1      36.966  23.946  25.693  1.00  0.00     0.274 C 
ENDROOT
BRANCH   1   2
ATOM      2  O   UNL A   1      35.954  22.969  25.999  1.00  0.00    -0.461 OA
BRANCH   2   3
ATOM      3  C   UNL A   1      35.544  22.208  24.947  1.00  0.00     0.328 C 
ATOM      4  O   UNL A   1      36.312  21.620  24.194  1.00  0.00    -0.250 OA
BRANCH   3   5
ATOM      5  C   UNL A   1      34.025  22.239  24.729  1.00  0.00     0.195 C 
ATOM      6  N   UNL A   1      33.515  23.603  24.784  1.00  0.00    -0.325 N 
ATOM      7  C   UNL A   1      32.151  23.573  25.268  1.00  0.00     0.121 C 
ATOM      8  C   UNL A   1      32.192  22.476  26.312  1.00  0.00     0.024 C 
ATOM      9  C   UNL A   1      33.156  21.447  25.719  1.00  0.00     0.039 C 
BRANCH   6  10
ATOM     10  C   UNL A   1      33.910  24.527  23.823  1.00  0.00     0.258 C 
ATOM     11  O   UNL A   1      34.670  24.218  22.917  1.00  0.00    -0.269 OA
BRANCH  10  12
ATOM     12  C   UNL A   1      33.440  25.938  24.081  1.00  0.00     0.086 A 
ATOM     13  C   UNL A   1      33.659  27.955  25.421  1.00  0.00     0.121 A 
ATOM     14  C   UNL A   1      32.724  28.602  24.630  1.00  0.00     0.066 A 
ATOM     15  C   UNL A   1      34.051  26.660  25.125  1.00  0.00     0.064 A 
ATOM     16  C   UNL A   1      32.107  27.911  23.580  1.00  0.00     0.064 A 
ATOM     17  Br  UNL A   1      30.733  28.875  22.683  1.00  0.00    -0.047 Br
ATOM     18  C   UNL A   1      32.451  26.572  23.293  1.00  0.00     0.146 A 
BRANCH  13  19
ATOM     19  O   UNL A   1      34.228  28.564  26.505  1.00  0.00    -0.497 OA
ATOM     20  C   UNL A   1      33.374  29.606  26.988  1.00  0.00     0.278 C 
ENDBRANCH  13  19
BRANCH  18  21
ATOM     21  O   UNL A   1      31.756  25.817  22.385  1.00  0.00    -0.495 OA
ATOM     22  C   UNL A   1      32.297  25.770  21.066  1.00  0.00     0.278 C 
ENDBRANCH  18  21
ENDBRANCH  10  12
ENDBRANCH   6  10
ENDBRANCH   3   5
ENDBRANCH   2   3
ENDBRANCH   1   2
BRANCH   1  23
ATOM     23  C   UNL A   1      38.269  23.655  26.445  1.00  0.00     0.275 C 
BRANCH  23  24
ATOM     24  O   UNL A   1      39.305  24.605  26.134  1.00  0.00    -0.458 OA
BRANCH  24  25
ATOM     25  C   UNL A   1      40.386  24.564  26.950  1.00  0.00     0.338 C 
ATOM     26  O   UNL A   1      41.354  23.830  26.856  1.00  0.00    -0.246 OA
BRANCH  25  27
ATOM     27  C   UNL A   1      40.311  25.656  27.931  1.00  0.00     0.060 A 
ATOM     28  C   UNL A   1      41.370  26.563  27.988  1.00  0.00     0.016 A 
ATOM     29  C   UNL A   1      39.254  25.742  28.838  1.00  0.00     0.016 A 
ATOM     30  C   UNL A   1      41.382  27.571  28.946  1.00  0.00     0.010 A 
ATOM     31  C   UNL A   1      39.262  26.759  29.799  1.00  0.00     0.010 A 
ATOM     32  C   UNL A   1      40.325  27.679  29.857  1.00  0.00    -0.014 A 
BRANCH  32  33
ATOM     33  C   UNL A   1      40.336  28.762  30.868  1.00  0.00     0.031 A 
ATOM     34  C   UNL A   1      41.303  28.716  32.016  1.00  0.00     0.074 A 
ATOM     35  C   UNL A   1      39.476  29.791  30.742  1.00  0.00     0.049 A 
ATOM     36  N   UNL A   1      41.389  29.509  33.050  1.00  0.00    -0.248 NA
ATOM     37  C   UNL A   1      42.305  27.639  31.994  1.00  0.00     0.031 C 
ATOM     38  C   UNL A   1      38.535  29.974  29.635  1.00  0.00     0.029 A 
ATOM     39  N   UNL A   1      39.253  30.874  31.553  1.00  0.00    -0.354 N 
ATOM     40  C   UNL A   1      42.438  29.019  33.818  1.00  0.00     0.074 A 
ATOM     41  C   UNL A   1      42.954  27.852  33.131  1.00  0.00     0.031 C 
ATOM     42  C   UNL A   1      37.835  31.102  29.837  1.00  0.00     0.029 A 
ATOM     43  C   UNL A   1      38.237  31.687  31.113  1.00  0.00     0.049 A 
ATOM     44  H   UNL A   1      39.772  31.051  32.371  1.00  0.00     0.167 HD
ATOM     45  C   UNL A   1      42.922  29.497  34.988  1.00  0.00     0.031 A 
ATOM     46  C   UNL A   1      37.663  32.760  31.691  1.00  0.00     0.031 A 
ATOM     47  C   UNL A   1      42.399  30.655  35.665  1.00  0.00     0.049 A 
ATOM     48  C   UNL A   1      38.156  33.214  33.035  1.00  0.00     0.074 A 
ATOM     49  C   UNL A   1      42.826  31.226  36.851  1.00  0.00     0.029 A 
ATOM     50  N   UNL A   1      41.329  31.416  35.218  1.00  0.00    -0.354 N 
ATOM     51  N   UNL A   1      39.141  32.732  33.756  1.00  0.00    -0.248 NA
ATOM     52  C   UNL A   1      37.451  34.346  33.652  1.00  0.00     0.031 C 
ATOM     53  C   UNL A   1      41.980  32.301  37.147  1.00  0.00     0.029 A 
ATOM     54  C   UNL A   1      41.058  32.429  36.121  1.00  0.00     0.049 A 
ATOM     55  H   UNL A   1      40.835  31.258  34.381  1.00  0.00     0.167 HD
ATOM     56  C   UNL A   1      39.176  33.505  34.911  1.00  0.00     0.074 A 
ATOM     57  C   UNL A   1      38.130  34.499  34.782  1.00  0.00     0.031 C 
ATOM     58  C   UNL A   1      40.000  33.398  35.983  1.00  0.00     0.031 A 
BRANCH  45  59
ATOM     59  C   UNL A   1      44.048  28.737  35.637  1.00  0.00    -0.014 A 
ATOM     60  C   UNL A   1      45.392  29.053  35.375  1.00  0.00     0.010 A 
ATOM     61  C   UNL A   1      43.752  27.709  36.552  1.00  0.00     0.010 A 
ATOM     62  C   UNL A   1      46.421  28.332  35.987  1.00  0.00     0.020 A 
ATOM     63  C   UNL A   1      44.777  26.998  37.182  1.00  0.00     0.020 A 
ATOM     64  C   UNL A   1      46.106  27.304  36.883  1.00  0.00     0.054 A 
BRANCH  64  65
ATOM     65  S   UNL A   1      47.459  26.388  37.673  1.00  0.00     0.124 S 
ATOM     66  O   UNL A   1      47.357  25.083  37.024  1.00  0.00    -0.237 OA
ATOM     67  O   UNL A   1      48.635  27.177  37.313  1.00  0.00    -0.237 OA
ATOM     68  O   UNL A   1      47.110  26.408  39.091  1.00  0.00    -0.744 OA
ENDBRANCH  64  65
ENDBRANCH  45  59
BRANCH  46  69
ATOM     69  C   UNL A   1      36.518  33.434  31.022  1.00  0.00    -0.014 A 
ATOM     70  C   UNL A   1      35.318  33.665  31.714  1.00  0.00     0.010 A 
ATOM     71  C   UNL A   1      36.636  33.871  29.689  1.00  0.00     0.010 A 
ATOM     72  C   UNL A   1      34.253  34.315  31.082  1.00  0.00     0.020 A 
ATOM     73  C   UNL A   1      35.584  34.542  29.063  1.00  0.00     0.020 A 
ATOM     74  C   UNL A   1      34.392  34.751  29.760  1.00  0.00     0.054 A 
BRANCH  74  75
ATOM     75  S   UNL A   1      33.022  35.644  28.978  1.00  0.00     0.124 S 
ATOM     76  O   UNL A   1      33.725  36.671  28.215  1.00  0.00    -0.237 OA
ATOM     77  O   UNL A   1      32.371  34.603  28.187  1.00  0.00    -0.237 OA
ATOM     78  O   UNL A   1      32.240  36.133  30.112  1.00  0.00    -0.744 OA
ENDBRANCH  74  75
ENDBRANCH  46  69
BRANCH  58  79
ATOM     79  C   UNL A   1      39.800  34.384  37.101  1.00  0.00    -0.014 A 
ATOM     80  C   UNL A   1      38.997  34.061  38.209  1.00  0.00     0.010 A 
ATOM     81  C   UNL A   1      40.463  35.623  37.069  1.00  0.00     0.010 A 
ATOM     82  C   UNL A   1      38.843  34.971  39.257  1.00  0.00     0.020 A 
ATOM     83  C   UNL A   1      40.328  36.527  38.125  1.00  0.00     0.020 A 
ATOM     84  C   UNL A   1      39.510  36.199  39.208  1.00  0.00     0.054 A 
BRANCH  84  85
ATOM     85  S   UNL A   1      39.335  37.344  40.604  1.00  0.00     0.124 S 
ATOM     86  O   UNL A   1      40.701  37.839  40.764  1.00  0.00    -0.237 OA
ATOM     87  O   UNL A   1      38.369  38.319  40.104  1.00  0.00    -0.237 OA
ATOM     88  O   UNL A   1      38.849  36.496  41.690  1.00  0.00    -0.744 OA
ENDBRANCH  84  85
ENDBRANCH  58  79
ENDBRANCH  32  33
ENDBRANCH  25  27
ENDBRANCH  24  25
ENDBRANCH  23  24
ENDBRANCH   1  23
TORSDOF 18
ENDMDL
