MODEL 1
REMARK VINA RESULT:     -10.6      0.000      0.000
REMARK SMILES CC[C@@H]1CCCN(S(=O)(=O)c2cc(C(=O)OCCOC(=O)c3ccc(-c4c5nc(c(-c6ccc(S(=O)(=O)[O-])cc6)c6ccc([nH]6)c(-c6ccc(S(=O)(=O)[O-])cc6)c6nc(c(-c7ccc(S(=O)(=O)[O-])cc7)c7ccc4[nH]7)C=C6)C=C5)cc3)ccc2F)C1
REMARK SMILES IDX 17 1 16 2 14 3 15 4 13 5 11 6 12 7 84 8 83 9 85 10 82 11
REMARK SMILES IDX 8 12 9 13 10 14 7 15 3 16 4 17 86 18 5 19 6 20 2 21 1 22
REMARK SMILES IDX 18 23 19 24 20 25 21 26 22 27 23 28 81 29 24 30 80 31 25 32
REMARK SMILES IDX 26 33 27 34 74 35 28 36 79 37 73 38 75 39 29 40 78 41 72 42
REMARK SMILES IDX 71 43 30 45 60 46 41 47 59 48 42 49 45 50 58 51 76 52 43 53
REMARK SMILES IDX 44 54 57 56 77 57 46 58 31 59 32 60 40 61 33 62 39 63 34 64
REMARK SMILES IDX 35 65 36 66 37 67 38 68 61 69 62 70 70 71 63 72 69 73 64 74
REMARK SMILES IDX 65 75 66 76 67 77 68 78 47 79 48 80 56 81 49 82 55 83 50 84
REMARK SMILES IDX 51 85 52 86 53 87 54 88
REMARK H PARENT 75 44 45 55
REMARK Flexibility Score: inf
ROOT
ATOM      1  C   UNL A   1      31.667  29.527  26.145  1.00  0.00     0.275 C 
ENDROOT
BRANCH   1   2
ATOM      2  O   UNL A   1      32.052  28.463  25.250  1.00  0.00    -0.458 OA
BRANCH   2   3
ATOM      3  C   UNL A   1      32.842  27.487  25.765  1.00  0.00     0.338 C 
ATOM      4  O   UNL A   1      33.970  27.617  26.205  1.00  0.00    -0.246 OA
BRANCH   3   5
ATOM      5  C   UNL A   1      32.088  26.207  25.825  1.00  0.00     0.061 A 
ATOM      6  C   UNL A   1      32.123  23.778  25.889  1.00  0.00     0.119 A 
ATOM      7  C   UNL A   1      32.786  24.997  25.688  1.00  0.00     0.040 A 
ATOM      8  C   UNL A   1      30.758  23.769  26.133  1.00  0.00     0.143 A 
ATOM      9  C   UNL A   1      30.044  24.966  26.192  1.00  0.00     0.041 A 
ATOM     10  F   UNL A   1      30.081  22.625  26.298  1.00  0.00    -0.206 F 
ATOM     11  C   UNL A   1      30.709  26.188  26.063  1.00  0.00     0.019 A 
BRANCH   6  12
ATOM     12  S   UNL A   1      33.074  22.300  26.116  1.00  0.00     0.246 S 
ATOM     13  O   UNL A   1      32.442  21.224  25.378  1.00  0.00    -0.207 OA
ATOM     14  O   UNL A   1      33.293  22.174  27.537  1.00  0.00    -0.207 OA
BRANCH  12  15
ATOM     15  N   UNL A   1      34.594  22.621  25.386  1.00  0.00    -0.197 NA
ATOM     16  C   UNL A   1      37.087  22.400  25.627  1.00  0.00     0.004 C 
ATOM     17  C   UNL A   1      37.175  22.154  24.114  1.00  0.00     0.006 C 
ATOM     18  C   UNL A   1      35.712  21.980  26.164  1.00  0.00     0.106 C 
ATOM     19  C   UNL A   1      35.995  22.745  23.357  1.00  0.00     0.017 C 
ATOM     20  C   UNL A   1      34.671  22.270  23.944  1.00  0.00     0.102 C 
BRANCH  16  21
ATOM     21  C   UNL A   1      37.550  23.817  26.042  1.00  0.00     0.001 C 
ATOM     22  C   UNL A   1      38.849  23.936  26.826  1.00  0.00     0.004 C 
ENDBRANCH  16  21
ENDBRANCH  12  15
ENDBRANCH   6  12
ENDBRANCH   3   5
ENDBRANCH   2   3
ENDBRANCH   1   2
BRANCH   1  23
ATOM     23  C   UNL A   1      32.763  30.589  26.241  1.00  0.00     0.275 C 
BRANCH  23  24
ATOM     24  O   UNL A   1      33.346  30.573  27.556  1.00  0.00    -0.458 OA
BRANCH  24  25
ATOM     25  C   UNL A   1      34.126  31.634  27.864  1.00  0.00     0.338 C 
ATOM     26  O   UNL A   1      33.782  32.800  27.971  1.00  0.00    -0.246 OA
BRANCH  25  27
ATOM     27  C   UNL A   1      35.485  31.168  28.171  1.00  0.00     0.060 A 
ATOM     28  C   UNL A   1      35.635  29.849  28.578  1.00  0.00     0.016 A 
ATOM     29  C   UNL A   1      36.568  32.042  28.224  1.00  0.00     0.016 A 
ATOM     30  C   UNL A   1      36.832  29.421  29.140  1.00  0.00     0.010 A 
ATOM     31  C   UNL A   1      37.803  31.583  28.710  1.00  0.00     0.010 A 
ATOM     32  C   UNL A   1      37.937  30.280  29.227  1.00  0.00    -0.014 A 
BRANCH  32  33
ATOM     33  C   UNL A   1      39.172  29.820  29.936  1.00  0.00     0.031 A 
ATOM     34  C   UNL A   1      39.554  30.417  31.271  1.00  0.00     0.074 A 
ATOM     35  C   UNL A   1      39.917  28.810  29.437  1.00  0.00     0.049 A 
ATOM     36  N   UNL A   1      40.629  30.212  31.994  1.00  0.00    -0.248 NA
ATOM     37  C   UNL A   1      38.617  31.383  31.865  1.00  0.00     0.031 C 
ATOM     38  C   UNL A   1      39.649  28.092  28.188  1.00  0.00     0.029 A 
ATOM     39  N   UNL A   1      41.037  28.188  29.936  1.00  0.00    -0.354 N 
ATOM     40  C   UNL A   1      40.523  31.063  33.090  1.00  0.00     0.074 A 
ATOM     41  C   UNL A   1      39.287  31.797  32.931  1.00  0.00     0.031 C 
ATOM     42  C   UNL A   1      40.529  27.088  28.058  1.00  0.00     0.029 A 
ATOM     43  C   UNL A   1      41.483  27.142  29.161  1.00  0.00     0.049 A 
ATOM     44  H   UNL A   1      41.479  28.465  30.772  1.00  0.00     0.167 HD
ATOM     45  C   UNL A   1      41.373  31.220  34.135  1.00  0.00     0.031 A 
ATOM     46  C   UNL A   1      42.549  26.330  29.298  1.00  0.00     0.031 A 
ATOM     47  C   UNL A   1      42.573  30.448  34.330  1.00  0.00     0.049 A 
ATOM     48  C   UNL A   1      43.482  26.527  30.459  1.00  0.00     0.074 A 
ATOM     49  C   UNL A   1      43.494  30.534  35.361  1.00  0.00     0.029 A 
ATOM     50  N   UNL A   1      43.006  29.430  33.494  1.00  0.00    -0.354 N 
ATOM     51  N   UNL A   1      43.401  27.388  31.445  1.00  0.00    -0.248 NA
ATOM     52  C   UNL A   1      44.660  25.650  30.519  1.00  0.00     0.031 C 
ATOM     53  C   UNL A   1      44.505  29.595  35.129  1.00  0.00     0.029 A 
ATOM     54  C   UNL A   1      44.185  28.887  33.981  1.00  0.00     0.049 A 
ATOM     55  H   UNL A   1      42.545  29.137  32.676  1.00  0.00     0.167 HD
ATOM     56  C   UNL A   1      44.510  27.149  32.247  1.00  0.00     0.074 A 
ATOM     57  C   UNL A   1      45.232  26.046  31.647  1.00  0.00     0.031 C 
ATOM     58  C   UNL A   1      44.899  27.792  33.376  1.00  0.00     0.031 A 
BRANCH  45  59
ATOM     59  C   UNL A   1      41.058  32.305  35.135  1.00  0.00    -0.014 A 
ATOM     60  C   UNL A   1      41.547  33.614  34.987  1.00  0.00     0.010 A 
ATOM     61  C   UNL A   1      40.221  32.007  36.228  1.00  0.00     0.010 A 
ATOM     62  C   UNL A   1      41.239  34.596  35.937  1.00  0.00     0.020 A 
ATOM     63  C   UNL A   1      39.889  32.992  37.162  1.00  0.00     0.020 A 
ATOM     64  C   UNL A   1      40.416  34.276  37.020  1.00  0.00     0.054 A 
BRANCH  64  65
ATOM     65  S   UNL A   1      40.018  35.570  38.230  1.00  0.00     0.124 S 
ATOM     66  O   UNL A   1      41.239  35.621  39.031  1.00  0.00    -0.237 OA
ATOM     67  O   UNL A   1      39.772  36.736  37.386  1.00  0.00    -0.237 OA
ATOM     68  O   UNL A   1      38.842  35.048  38.922  1.00  0.00    -0.744 OA
ENDBRANCH  64  65
ENDBRANCH  45  59
BRANCH  46  69
ATOM     69  C   UNL A   1      42.816  25.277  28.277  1.00  0.00    -0.014 A 
ATOM     70  C   UNL A   1      43.575  25.563  27.129  1.00  0.00     0.010 A 
ATOM     71  C   UNL A   1      42.318  23.973  28.459  1.00  0.00     0.010 A 
ATOM     72  C   UNL A   1      43.823  24.567  26.178  1.00  0.00     0.020 A 
ATOM     73  C   UNL A   1      42.590  22.968  27.529  1.00  0.00     0.020 A 
ATOM     74  C   UNL A   1      43.332  23.275  26.386  1.00  0.00     0.054 A 
BRANCH  74  75
ATOM     75  S   UNL A   1      43.717  21.979  25.175  1.00  0.00     0.124 S 
ATOM     76  O   UNL A   1      43.560  22.690  23.911  1.00  0.00    -0.237 OA
ATOM     77  O   UNL A   1      45.087  21.611  25.528  1.00  0.00    -0.237 OA
ATOM     78  O   UNL A   1      42.716  20.950  25.446  1.00  0.00    -0.744 OA
ENDBRANCH  74  75
ENDBRANCH  46  69
BRANCH  58  79
ATOM     79  C   UNL A   1      46.147  27.293  34.055  1.00  0.00    -0.014 A 
ATOM     80  C   UNL A   1      47.415  27.799  33.716  1.00  0.00     0.010 A 
ATOM     81  C   UNL A   1      46.045  26.314  35.059  1.00  0.00     0.010 A 
ATOM     82  C   UNL A   1      48.563  27.298  34.337  1.00  0.00     0.020 A 
ATOM     83  C   UNL A   1      47.189  25.830  35.700  1.00  0.00     0.020 A 
ATOM     84  C   UNL A   1      48.443  26.310  35.319  1.00  0.00     0.054 A 
BRANCH  84  85
ATOM     85  S   UNL A   1      49.946  25.680  36.117  1.00  0.00     0.124 S 
ATOM     86  O   UNL A   1      49.400  24.739  37.091  1.00  0.00    -0.237 OA
ATOM     87  O   UNL A   1      50.676  25.080  35.004  1.00  0.00    -0.237 OA
ATOM     88  O   UNL A   1      50.563  26.877  36.685  1.00  0.00    -0.744 OA
ENDBRANCH  84  85
ENDBRANCH  58  79
ENDBRANCH  32  33
ENDBRANCH  25  27
ENDBRANCH  24  25
ENDBRANCH  23  24
ENDBRANCH   1  23
TORSDOF 17
ENDMDL
MODEL 2
REMARK VINA RESULT:     -10.5      2.343      2.965
REMARK SMILES CC[C@@H]1CCCN(S(=O)(=O)c2cc(C(=O)OCCOC(=O)c3ccc(-c4c5nc(c(-c6ccc(S(=O)(=O)[O-])cc6)c6ccc([nH]6)c(-c6ccc(S(=O)(=O)[O-])cc6)c6nc(c(-c7ccc(S(=O)(=O)[O-])cc7)c7ccc4[nH]7)C=C6)C=C5)cc3)ccc2F)C1
REMARK SMILES IDX 17 1 16 2 14 3 15 4 13 5 11 6 12 7 84 8 83 9 85 10 82 11
REMARK SMILES IDX 8 12 9 13 10 14 7 15 3 16 4 17 86 18 5 19 6 20 2 21 1 22
REMARK SMILES IDX 18 23 19 24 20 25 21 26 22 27 23 28 81 29 24 30 80 31 25 32
REMARK SMILES IDX 26 33 27 34 74 35 28 36 79 37 73 38 75 39 29 40 78 41 72 42
REMARK SMILES IDX 71 43 30 45 60 46 41 47 59 48 42 49 45 50 58 51 76 52 43 53
REMARK SMILES IDX 44 54 57 56 77 57 46 58 31 59 32 60 40 61 33 62 39 63 34 64
REMARK SMILES IDX 35 65 36 66 37 67 38 68 61 69 62 70 70 71 63 72 69 73 64 74
REMARK SMILES IDX 65 75 66 76 67 77 68 78 47 79 48 80 56 81 49 82 55 83 50 84
REMARK SMILES IDX 51 85 52 86 53 87 54 88
REMARK H PARENT 75 44 45 55
REMARK Flexibility Score: inf
ROOT
ATOM      1  C   UNL A   1      32.132  30.049  26.517  1.00  0.00     0.275 C 
ENDROOT
BRANCH   1   2
ATOM      2  O   UNL A   1      31.400  28.958  25.921  1.00  0.00    -0.458 OA
BRANCH   2   3
ATOM      3  C   UNL A   1      31.227  27.849  26.685  1.00  0.00     0.338 C 
ATOM      4  O   UNL A   1      31.079  27.811  27.893  1.00  0.00    -0.246 OA
BRANCH   3   5
ATOM      5  C   UNL A   1      31.134  26.647  25.815  1.00  0.00     0.061 A 
ATOM      6  C   UNL A   1      31.523  24.266  25.515  1.00  0.00     0.119 A 
ATOM      7  C   UNL A   1      31.724  25.447  26.244  1.00  0.00     0.040 A 
ATOM      8  C   UNL A   1      30.816  24.306  24.322  1.00  0.00     0.143 A 
ATOM      9  C   UNL A   1      30.295  25.511  23.850  1.00  0.00     0.041 A 
ATOM     10  F   UNL A   1      30.629  23.207  23.579  1.00  0.00    -0.206 F 
ATOM     11  C   UNL A   1      30.431  26.678  24.606  1.00  0.00     0.019 A 
BRANCH   6  12
ATOM     12  S   UNL A   1      31.916  22.708  26.262  1.00  0.00     0.246 S 
ATOM     13  O   UNL A   1      31.004  21.704  25.747  1.00  0.00    -0.207 OA
ATOM     14  O   UNL A   1      32.000  22.950  27.682  1.00  0.00    -0.207 OA
BRANCH  12  15
ATOM     15  N   UNL A   1      33.494  22.324  25.709  1.00  0.00    -0.197 NA
ATOM     16  C   UNL A   1      35.941  22.870  25.908  1.00  0.00     0.004 C 
ATOM     17  C   UNL A   1      36.251  21.376  25.735  1.00  0.00     0.006 C 
ATOM     18  C   UNL A   1      34.538  23.066  26.500  1.00  0.00     0.106 C 
ATOM     19  C   UNL A   1      35.146  20.632  25.000  1.00  0.00     0.017 C 
ATOM     20  C   UNL A   1      33.792  20.869  25.656  1.00  0.00     0.102 C 
BRANCH  16  21
ATOM     21  C   UNL A   1      36.242  23.706  24.640  1.00  0.00     0.001 C 
ATOM     22  C   UNL A   1      36.518  22.953  23.346  1.00  0.00     0.004 C 
ENDBRANCH  16  21
ENDBRANCH  12  15
ENDBRANCH   6  12
ENDBRANCH   3   5
ENDBRANCH   2   3
ENDBRANCH   1   2
BRANCH   1  23
ATOM     23  C   UNL A   1      33.621  29.718  26.622  1.00  0.00     0.275 C 
BRANCH  23  24
ATOM     24  O   UNL A   1      34.372  30.918  26.877  1.00  0.00    -0.458 OA
BRANCH  24  25
ATOM     25  C   UNL A   1      34.838  31.060  28.138  1.00  0.00     0.338 C 
ATOM     26  O   UNL A   1      34.302  31.643  29.066  1.00  0.00    -0.246 OA
BRANCH  25  27
ATOM     27  C   UNL A   1      36.085  30.296  28.286  1.00  0.00     0.060 A 
ATOM     28  C   UNL A   1      36.332  29.704  29.518  1.00  0.00     0.016 A 
ATOM     29  C   UNL A   1      37.070  30.296  27.302  1.00  0.00     0.016 A 
ATOM     30  C   UNL A   1      37.595  29.205  29.814  1.00  0.00     0.010 A 
ATOM     31  C   UNL A   1      38.318  29.712  27.573  1.00  0.00     0.010 A 
ATOM     32  C   UNL A   1      38.616  29.207  28.853  1.00  0.00    -0.014 A 
BRANCH  32  33
ATOM     33  C   UNL A   1      39.991  28.763  29.241  1.00  0.00     0.031 A 
ATOM     34  C   UNL A   1      40.850  29.629  30.136  1.00  0.00     0.074 A 
ATOM     35  C   UNL A   1      40.456  27.552  28.868  1.00  0.00     0.049 A 
ATOM     36  N   UNL A   1      42.095  29.456  30.509  1.00  0.00    -0.248 NA
ATOM     37  C   UNL A   1      40.236  30.856  30.670  1.00  0.00     0.031 C 
ATOM     38  C   UNL A   1      39.728  26.576  28.051  1.00  0.00     0.029 A 
ATOM     39  N   UNL A   1      41.642  26.916  29.153  1.00  0.00    -0.354 N 
ATOM     40  C   UNL A   1      42.428  30.576  31.266  1.00  0.00     0.074 A 
ATOM     41  C   UNL A   1      41.259  31.427  31.289  1.00  0.00     0.031 C 
ATOM     42  C   UNL A   1      40.447  25.448  27.965  1.00  0.00     0.029 A 
ATOM     43  C   UNL A   1      41.727  25.644  28.637  1.00  0.00     0.049 A 
ATOM     44  H   UNL A   1      42.363  27.333  29.680  1.00  0.00     0.167 HD
ATOM     45  C   UNL A   1      43.597  30.871  31.888  1.00  0.00     0.031 A 
ATOM     46  C   UNL A   1      42.725  24.738  28.673  1.00  0.00     0.031 A 
ATOM     47  C   UNL A   1      44.742  29.998  31.921  1.00  0.00     0.049 A 
ATOM     48  C   UNL A   1      44.014  25.089  29.360  1.00  0.00     0.074 A 
ATOM     49  C   UNL A   1      45.968  30.210  32.530  1.00  0.00     0.029 A 
ATOM     50  N   UNL A   1      44.797  28.737  31.346  1.00  0.00    -0.354 N 
ATOM     51  N   UNL A   1      44.332  26.185  30.007  1.00  0.00    -0.248 NA
ATOM     52  C   UNL A   1      45.085  24.084  29.312  1.00  0.00     0.031 C 
ATOM     53  C   UNL A   1      46.778  29.094  32.290  1.00  0.00     0.029 A 
ATOM     54  C   UNL A   1      46.038  28.165  31.577  1.00  0.00     0.049 A 
ATOM     55  H   UNL A   1      44.063  28.312  30.846  1.00  0.00     0.167 HD
ATOM     56  C   UNL A   1      45.635  25.996  30.451  1.00  0.00     0.074 A 
ATOM     57  C   UNL A   1      46.037  24.672  30.023  1.00  0.00     0.031 C 
ATOM     58  C   UNL A   1      46.430  26.848  31.145  1.00  0.00     0.031 A 
BRANCH  45  59
ATOM     59  C   UNL A   1      43.714  32.220  32.552  1.00  0.00    -0.014 A 
ATOM     60  C   UNL A   1      43.413  32.406  33.912  1.00  0.00     0.010 A 
ATOM     61  C   UNL A   1      44.172  33.317  31.797  1.00  0.00     0.010 A 
ATOM     62  C   UNL A   1      43.527  33.673  34.495  1.00  0.00     0.020 A 
ATOM     63  C   UNL A   1      44.315  34.578  32.383  1.00  0.00     0.020 A 
ATOM     64  C   UNL A   1      43.973  34.751  33.725  1.00  0.00     0.054 A 
BRANCH  64  65
ATOM     65  S   UNL A   1      44.129  36.382  34.508  1.00  0.00     0.124 S 
ATOM     66  O   UNL A   1      45.580  36.547  34.574  1.00  0.00    -0.237 OA
ATOM     67  O   UNL A   1      43.440  37.260  33.566  1.00  0.00    -0.237 OA
ATOM     68  O   UNL A   1      43.464  36.213  35.798  1.00  0.00    -0.744 OA
ENDBRANCH  64  65
ENDBRANCH  45  59
BRANCH  46  69
ATOM     69  C   UNL A   1      42.557  23.421  27.996  1.00  0.00    -0.014 A 
ATOM     70  C   UNL A   1      43.282  23.113  26.832  1.00  0.00     0.010 A 
ATOM     71  C   UNL A   1      41.674  22.461  28.524  1.00  0.00     0.010 A 
ATOM     72  C   UNL A   1      43.121  21.872  26.204  1.00  0.00     0.020 A 
ATOM     73  C   UNL A   1      41.534  21.210  27.920  1.00  0.00     0.020 A 
ATOM     74  C   UNL A   1      42.250  20.928  26.755  1.00  0.00     0.054 A 
BRANCH  74  75
ATOM     75  S   UNL A   1      42.101  19.300  25.965  1.00  0.00     0.124 S 
ATOM     76  O   UNL A   1      40.661  19.198  25.751  1.00  0.00    -0.237 OA
ATOM     77  O   UNL A   1      42.911  19.457  24.759  1.00  0.00    -0.237 OA
ATOM     78  O   UNL A   1      42.654  18.387  26.962  1.00  0.00    -0.744 OA
ENDBRANCH  74  75
ENDBRANCH  46  69
BRANCH  58  79
ATOM     79  C   UNL A   1      47.805  26.357  31.513  1.00  0.00    -0.014 A 
ATOM     80  C   UNL A   1      48.906  26.561  30.662  1.00  0.00     0.010 A 
ATOM     81  C   UNL A   1      47.999  25.696  32.739  1.00  0.00     0.010 A 
ATOM     82  C   UNL A   1      50.168  26.070  31.010  1.00  0.00     0.020 A 
ATOM     83  C   UNL A   1      49.264  25.226  33.102  1.00  0.00     0.020 A 
ATOM     84  C   UNL A   1      50.336  25.396  32.225  1.00  0.00     0.054 A 
BRANCH  84  85
ATOM     85  S   UNL A   1      51.984  24.773  32.659  1.00  0.00     0.124 S 
ATOM     86  O   UNL A   1      52.136  25.251  34.031  1.00  0.00    -0.237 OA
ATOM     87  O   UNL A   1      51.833  23.329  32.510  1.00  0.00    -0.237 OA
ATOM     88  O   UNL A   1      52.863  25.406  31.678  1.00  0.00    -0.744 OA
ENDBRANCH  84  85
ENDBRANCH  58  79
ENDBRANCH  32  33
ENDBRANCH  25  27
ENDBRANCH  24  25
ENDBRANCH  23  24
ENDBRANCH   1  23
TORSDOF 17
ENDMDL
MODEL 3
REMARK VINA RESULT:     -10.5      4.468      9.900
REMARK SMILES CC[C@@H]1CCCN(S(=O)(=O)c2cc(C(=O)OCCOC(=O)c3ccc(-c4c5nc(c(-c6ccc(S(=O)(=O)[O-])cc6)c6ccc([nH]6)c(-c6ccc(S(=O)(=O)[O-])cc6)c6nc(c(-c7ccc(S(=O)(=O)[O-])cc7)c7ccc4[nH]7)C=C6)C=C5)cc3)ccc2F)C1
REMARK SMILES IDX 17 1 16 2 14 3 15 4 13 5 11 6 12 7 84 8 83 9 85 10 82 11
REMARK SMILES IDX 8 12 9 13 10 14 7 15 3 16 4 17 86 18 5 19 6 20 2 21 1 22
REMARK SMILES IDX 18 23 19 24 20 25 21 26 22 27 23 28 81 29 24 30 80 31 25 32
REMARK SMILES IDX 26 33 27 34 74 35 28 36 79 37 73 38 75 39 29 40 78 41 72 42
REMARK SMILES IDX 71 43 30 45 60 46 41 47 59 48 42 49 45 50 58 51 76 52 43 53
REMARK SMILES IDX 44 54 57 56 77 57 46 58 31 59 32 60 40 61 33 62 39 63 34 64
REMARK SMILES IDX 35 65 36 66 37 67 38 68 61 69 62 70 70 71 63 72 69 73 64 74
REMARK SMILES IDX 65 75 66 76 67 77 68 78 47 79 48 80 56 81 49 82 55 83 50 84
REMARK SMILES IDX 51 85 52 86 53 87 54 88
REMARK H PARENT 75 44 45 55
REMARK Flexibility Score: inf
ROOT
ATOM      1  C   UNL A   1      36.058  22.602  25.846  1.00  0.00     0.275 C 
ENDROOT
BRANCH   1   2
ATOM      2  O   UNL A   1      34.752  22.028  25.626  1.00  0.00    -0.458 OA
BRANCH   2   3
ATOM      3  C   UNL A   1      33.688  22.860  25.761  1.00  0.00     0.338 C 
ATOM      4  O   UNL A   1      33.123  23.161  26.797  1.00  0.00    -0.246 OA
BRANCH   3   5
ATOM      5  C   UNL A   1      33.351  23.465  24.445  1.00  0.00     0.061 A 
ATOM      6  C   UNL A   1      32.716  25.431  23.165  1.00  0.00     0.119 A 
ATOM      7  C   UNL A   1      32.897  24.792  24.400  1.00  0.00     0.040 A 
ATOM      8  C   UNL A   1      32.900  24.719  21.989  1.00  0.00     0.143 A 
ATOM      9  C   UNL A   1      33.274  23.376  22.028  1.00  0.00     0.041 A 
ATOM     10  F   UNL A   1      32.705  25.282  20.790  1.00  0.00    -0.206 F 
ATOM     11  C   UNL A   1      33.525  22.752  23.253  1.00  0.00     0.019 A 
BRANCH   6  12
ATOM     12  S   UNL A   1      32.542  27.194  23.117  1.00  0.00     0.246 S 
ATOM     13  O   UNL A   1      31.230  27.516  22.593  1.00  0.00    -0.207 OA
ATOM     14  O   UNL A   1      33.727  27.699  22.466  1.00  0.00    -0.207 OA
BRANCH  12  15
ATOM     15  N   UNL A   1      32.598  27.701  24.756  1.00  0.00    -0.197 NA
ATOM     16  C   UNL A   1      33.343  29.513  26.332  1.00  0.00     0.004 C 
ATOM     17  C   UNL A   1      32.072  29.267  27.157  1.00  0.00     0.006 C 
ATOM     18  C   UNL A   1      33.123  29.108  24.868  1.00  0.00     0.106 C 
ATOM     19  C   UNL A   1      31.516  27.864  26.969  1.00  0.00     0.017 C 
ATOM     20  C   UNL A   1      31.316  27.544  25.493  1.00  0.00     0.102 C 
BRANCH  16  21
ATOM     21  C   UNL A   1      34.619  28.935  26.990  1.00  0.00     0.001 C 
ATOM     22  C   UNL A   1      35.438  29.860  27.879  1.00  0.00     0.004 C 
ENDBRANCH  16  21
ENDBRANCH  12  15
ENDBRANCH   6  12
ENDBRANCH   3   5
ENDBRANCH   2   3
ENDBRANCH   1   2
BRANCH   1  23
ATOM     23  C   UNL A   1      37.152  21.542  25.723  1.00  0.00     0.275 C 
BRANCH  23  24
ATOM     24  O   UNL A   1      38.388  22.160  25.322  1.00  0.00    -0.458 OA
BRANCH  24  25
ATOM     25  C   UNL A   1      39.438  21.961  26.152  1.00  0.00     0.338 C 
ATOM     26  O   UNL A   1      40.101  20.945  26.278  1.00  0.00    -0.246 OA
BRANCH  25  27
ATOM     27  C   UNL A   1      39.761  23.219  26.839  1.00  0.00     0.060 A 
ATOM     28  C   UNL A   1      39.441  24.406  26.192  1.00  0.00     0.016 A 
ATOM     29  C   UNL A   1      40.512  23.245  28.012  1.00  0.00     0.016 A 
ATOM     30  C   UNL A   1      39.957  25.613  26.648  1.00  0.00     0.010 A 
ATOM     31  C   UNL A   1      40.957  24.476  28.520  1.00  0.00     0.010 A 
ATOM     32  C   UNL A   1      40.732  25.673  27.814  1.00  0.00    -0.014 A 
BRANCH  32  33
ATOM     33  C   UNL A   1      41.360  26.972  28.213  1.00  0.00     0.031 A 
ATOM     34  C   UNL A   1      42.834  27.211  27.981  1.00  0.00     0.074 A 
ATOM     35  C   UNL A   1      40.607  27.977  28.711  1.00  0.00     0.049 A 
ATOM     36  N   UNL A   1      43.574  28.233  28.338  1.00  0.00    -0.248 NA
ATOM     37  C   UNL A   1      43.580  26.160  27.271  1.00  0.00     0.031 C 
ATOM     38  C   UNL A   1      39.161  27.923  28.942  1.00  0.00     0.029 A 
ATOM     39  N   UNL A   1      40.948  29.257  29.081  1.00  0.00    -0.354 N 
ATOM     40  C   UNL A   1      44.874  27.921  27.949  1.00  0.00     0.074 A 
ATOM     41  C   UNL A   1      44.824  26.609  27.342  1.00  0.00     0.031 C 
ATOM     42  C   UNL A   1      38.732  29.128  29.342  1.00  0.00     0.029 A 
ATOM     43  C   UNL A   1      39.878  30.020  29.487  1.00  0.00     0.049 A 
ATOM     44  H   UNL A   1      41.873  29.596  29.057  1.00  0.00     0.167 HD
ATOM     45  C   UNL A   1      46.006  28.656  28.082  1.00  0.00     0.031 A 
ATOM     46  C   UNL A   1      39.816  31.284  29.950  1.00  0.00     0.031 A 
ATOM     47  C   UNL A   1      46.050  29.988  28.629  1.00  0.00     0.049 A 
ATOM     48  C   UNL A   1      41.084  32.078  30.096  1.00  0.00     0.074 A 
ATOM     49  C   UNL A   1      47.150  30.812  28.799  1.00  0.00     0.029 A 
ATOM     50  N   UNL A   1      44.946  30.703  29.068  1.00  0.00    -0.354 N 
ATOM     51  N   UNL A   1      42.312  31.734  29.790  1.00  0.00    -0.248 NA
ATOM     52  C   UNL A   1      40.958  33.428  30.664  1.00  0.00     0.031 C 
ATOM     53  C   UNL A   1      46.718  32.011  29.378  1.00  0.00     0.029 A 
ATOM     54  C   UNL A   1      45.341  31.954  29.518  1.00  0.00     0.049 A 
ATOM     55  H   UNL A   1      44.020  30.371  29.063  1.00  0.00     0.167 HD
ATOM     56  C   UNL A   1      43.103  32.829  30.119  1.00  0.00     0.074 A 
ATOM     57  C   UNL A   1      42.212  33.855  30.620  1.00  0.00     0.031 C 
ATOM     58  C   UNL A   1      44.448  32.967  30.019  1.00  0.00     0.031 A 
BRANCH  45  59
ATOM     59  C   UNL A   1      47.307  28.017  27.667  1.00  0.00    -0.014 A 
ATOM     60  C   UNL A   1      48.099  27.291  28.573  1.00  0.00     0.010 A 
ATOM     61  C   UNL A   1      47.723  28.119  26.325  1.00  0.00     0.010 A 
ATOM     62  C   UNL A   1      49.304  26.715  28.155  1.00  0.00     0.020 A 
ATOM     63  C   UNL A   1      48.911  27.520  25.898  1.00  0.00     0.020 A 
ATOM     64  C   UNL A   1      49.704  26.838  26.821  1.00  0.00     0.054 A 
BRANCH  64  65
ATOM     65  S   UNL A   1      51.263  26.067  26.299  1.00  0.00     0.124 S 
ATOM     66  O   UNL A   1      51.190  26.195  24.845  1.00  0.00    -0.237 OA
ATOM     67  O   UNL A   1      52.269  26.900  26.952  1.00  0.00    -0.237 OA
ATOM     68  O   UNL A   1      51.163  24.702  26.809  1.00  0.00    -0.744 OA
ENDBRANCH  64  65
ENDBRANCH  45  59
BRANCH  46  69
ATOM     69  C   UNL A   1      38.504  31.865  30.350  1.00  0.00    -0.014 A 
ATOM     70  C   UNL A   1      37.984  31.649  31.639  1.00  0.00     0.010 A 
ATOM     71  C   UNL A   1      37.771  32.652  29.442  1.00  0.00     0.010 A 
ATOM     72  C   UNL A   1      36.752  32.201  32.007  1.00  0.00     0.020 A 
ATOM     73  C   UNL A   1      36.557  33.232  29.816  1.00  0.00     0.020 A 
ATOM     74  C   UNL A   1      36.048  32.992  31.094  1.00  0.00     0.054 A 
BRANCH  74  75
ATOM     75  S   UNL A   1      34.484  33.754  31.609  1.00  0.00     0.124 S 
ATOM     76  O   UNL A   1      33.811  33.960  30.331  1.00  0.00    -0.237 OA
ATOM     77  O   UNL A   1      33.901  32.729  32.473  1.00  0.00    -0.237 OA
ATOM     78  O   UNL A   1      34.908  34.970  32.299  1.00  0.00    -0.744 OA
ENDBRANCH  74  75
ENDBRANCH  46  69
BRANCH  58  79
ATOM     79  C   UNL A   1      45.034  34.292  30.432  1.00  0.00    -0.014 A 
ATOM     80  C   UNL A   1      45.262  35.314  29.493  1.00  0.00     0.010 A 
ATOM     81  C   UNL A   1      45.344  34.521  31.784  1.00  0.00     0.010 A 
ATOM     82  C   UNL A   1      45.836  36.524  29.893  1.00  0.00     0.020 A 
ATOM     83  C   UNL A   1      45.894  35.739  32.191  1.00  0.00     0.020 A 
ATOM     84  C   UNL A   1      46.156  36.726  31.239  1.00  0.00     0.054 A 
BRANCH  84  85
ATOM     85  S   UNL A   1      46.893  38.307  31.737  1.00  0.00     0.124 S 
ATOM     86  O   UNL A   1      46.094  38.658  32.908  1.00  0.00    -0.237 OA
ATOM     87  O   UNL A   1      48.281  37.946  32.010  1.00  0.00    -0.237 OA
ATOM     88  O   UNL A   1      46.696  39.163  30.569  1.00  0.00    -0.744 OA
ENDBRANCH  84  85
ENDBRANCH  58  79
ENDBRANCH  32  33
ENDBRANCH  25  27
ENDBRANCH  24  25
ENDBRANCH  23  24
ENDBRANCH   1  23
TORSDOF 17
ENDMDL
