MODEL 1
REMARK VINA RESULT:     -11.6      0.000      0.000
REMARK SMILES CCCCc1ncc(C[N@H+]2C[C@@H]3c4ccccc4OC[C@]3(C(=O)OCCOC(=O)c3ccc(-c4c5nc(c(-c6ccc(S(=O)(=O)[O-])cc6)c6ccc([nH]6)c(-c6ccc(S(=O)(=O)[O-])cc6)c6nc(c(-c7ccc(S(=O)(=O)[O-])cc7)c7ccc4[nH]7)C=C6)C=C5)cc3)C2)[nH]1
REMARK SMILES IDX 25 1 24 2 22 3 23 4 21 5 10 6 11 7 90 8 12 10 13 11 20 12
REMARK SMILES IDX 14 13 18 14 19 15 15 16 17 17 16 18 9 19 8 20 5 21 6 22
REMARK SMILES IDX 91 23 7 24 4 26 3 27 2 28 1 29 26 30 27 31 28 32 29 33 30 34
REMARK SMILES IDX 31 35 89 36 32 37 88 38 33 39 34 40 35 41 82 42 36 43 87 44
REMARK SMILES IDX 81 45 83 46 37 47 86 48 80 49 79 50 38 52 68 53 49 54 67 55
REMARK SMILES IDX 50 56 53 57 66 58 84 59 51 60 52 61 65 63 85 64 54 65 39 66
REMARK SMILES IDX 40 67 48 68 41 69 47 70 42 71 43 72 44 73 45 74 46 75 69 76
REMARK SMILES IDX 70 77 78 78 71 79 77 80 72 81 73 82 74 83 75 84 76 85 55 86
REMARK SMILES IDX 56 87 64 88 57 89 63 90 58 91 59 92 60 93 61 94 62 95
REMARK H PARENT 10 9 91 25 83 51 53 62
REMARK Flexibility Score: inf
ROOT
ATOM      1  C   UNL A   1      35.290  23.782  24.200  1.00  0.00     0.274 C 
ENDROOT
BRANCH   1   2
ATOM      2  O   UNL A   1      33.978  24.309  24.492  1.00  0.00    -0.461 OA
BRANCH   2   3
ATOM      3  C   UNL A   1      33.180  24.726  23.458  1.00  0.00     0.322 C 
ATOM      4  O   UNL A   1      33.506  24.742  22.283  1.00  0.00    -0.251 OA
BRANCH   3   5
ATOM      5  C   UNL A   1      31.841  25.175  24.034  1.00  0.00     0.162 C 
ATOM      6  N   UNL A   1      30.244  23.876  25.345  1.00  0.00    -0.328 N 
ATOM      7  C   UNL A   1      30.486  25.155  26.007  1.00  0.00     0.272 C 
ATOM      8  C   UNL A   1      31.008  23.874  24.099  1.00  0.00     0.286 C 
ATOM      9  H   UNL A   1      29.251  23.796  25.128  1.00  0.00     0.348 HD
ATOM     10  C   UNL A   1      31.848  25.642  25.491  1.00  0.00     0.105 C 
ATOM     11  C   UNL A   1      31.933  27.124  25.683  1.00  0.00     0.004 A 
ATOM     12  C   UNL A   1      31.288  26.242  23.064  1.00  0.00     0.255 C 
ATOM     13  C   UNL A   1      32.328  27.668  26.916  1.00  0.00     0.008 A 
ATOM     14  C   UNL A   1      31.468  27.975  24.689  1.00  0.00     0.123 A 
ATOM     15  O   UNL A   1      30.864  27.509  23.564  1.00  0.00    -0.492 OA
ATOM     16  C   UNL A   1      32.288  29.047  27.126  1.00  0.00     0.001 A 
ATOM     17  C   UNL A   1      31.462  29.356  24.883  1.00  0.00     0.047 A 
ATOM     18  C   UNL A   1      31.877  29.895  26.100  1.00  0.00     0.004 A 
BRANCH   6  19
ATOM     19  C   UNL A   1      30.407  22.689  26.185  1.00  0.00     0.319 C 
BRANCH  19  20
ATOM     20  C   UNL A   1      31.744  22.036  26.153  1.00  0.00     0.090 A 
ATOM     21  C   UNL A   1      33.412  20.676  25.599  1.00  0.00     0.106 A 
ATOM     22  N   UNL A   1      33.885  21.423  26.573  1.00  0.00    -0.241 NA
ATOM     23  N   UNL A   1      32.109  21.014  25.314  1.00  0.00    -0.341 N 
ATOM     24  C   UNL A   1      32.867  22.266  26.920  1.00  0.00     0.140 A 
ATOM     25  H   UNL A   1      31.539  20.594  24.629  1.00  0.00     0.168 HD
BRANCH  21  26
ATOM     26  C   UNL A   1      34.138  19.591  24.879  1.00  0.00     0.075 C 
BRANCH  26  27
ATOM     27  C   UNL A   1      33.184  18.589  24.223  1.00  0.00     0.008 C 
BRANCH  27  28
ATOM     28  C   UNL A   1      33.668  17.134  24.210  1.00  0.00    -0.003 C 
ATOM     29  C   UNL A   1      34.170  16.672  22.852  1.00  0.00     0.004 C 
ENDBRANCH  27  28
ENDBRANCH  26  27
ENDBRANCH  21  26
ENDBRANCH  19  20
ENDBRANCH   6  19
ENDBRANCH   3   5
ENDBRANCH   2   3
ENDBRANCH   1   2
BRANCH   1  30
ATOM     30  C   UNL A   1      36.065  23.725  25.516  1.00  0.00     0.275 C 
BRANCH  30  31
ATOM     31  O   UNL A   1      37.447  23.901  25.180  1.00  0.00    -0.458 OA
BRANCH  31  32
ATOM     32  C   UNL A   1      38.362  23.281  25.956  1.00  0.00     0.338 C 
ATOM     33  O   UNL A   1      38.559  22.078  26.042  1.00  0.00    -0.246 OA
BRANCH  32  34
ATOM     34  C   UNL A   1      39.061  24.331  26.725  1.00  0.00     0.060 A 
ATOM     35  C   UNL A   1      38.846  24.429  28.097  1.00  0.00     0.016 A 
ATOM     36  C   UNL A   1      39.892  25.253  26.075  1.00  0.00     0.016 A 
ATOM     37  C   UNL A   1      39.370  25.522  28.789  1.00  0.00     0.010 A 
ATOM     38  C   UNL A   1      40.480  26.295  26.783  1.00  0.00     0.010 A 
ATOM     39  C   UNL A   1      40.167  26.479  28.132  1.00  0.00    -0.014 A 
BRANCH  39  40
ATOM     40  C   UNL A   1      40.609  27.705  28.842  1.00  0.00     0.031 A 
ATOM     41  C   UNL A   1      42.049  27.856  29.266  1.00  0.00     0.074 A 
ATOM     42  C   UNL A   1      39.724  28.695  29.060  1.00  0.00     0.049 A 
ATOM     43  N   UNL A   1      42.647  28.901  29.778  1.00  0.00    -0.248 NA
ATOM     44  C   UNL A   1      42.931  26.685  29.112  1.00  0.00     0.031 C 
ATOM     45  C   UNL A   1      38.301  28.632  28.728  1.00  0.00     0.029 A 
ATOM     46  N   UNL A   1      39.894  29.956  29.576  1.00  0.00    -0.354 N 
ATOM     47  C   UNL A   1      43.965  28.514  30.000  1.00  0.00     0.074 A 
ATOM     48  C   UNL A   1      44.068  27.123  29.632  1.00  0.00     0.031 C 
ATOM     49  C   UNL A   1      37.741  29.826  28.977  1.00  0.00     0.029 A 
ATOM     50  C   UNL A   1      38.756  30.727  29.521  1.00  0.00     0.049 A 
ATOM     51  H   UNL A   1      40.747  30.277  29.948  1.00  0.00     0.167 HD
ATOM     52  C   UNL A   1      45.003  29.265  30.437  1.00  0.00     0.031 A 
ATOM     53  C   UNL A   1      38.556  32.021  29.844  1.00  0.00     0.031 A 
ATOM     54  C   UNL A   1      44.889  30.658  30.776  1.00  0.00     0.049 A 
ATOM     55  C   UNL A   1      39.724  32.841  30.318  1.00  0.00     0.074 A 
ATOM     56  C   UNL A   1      45.886  31.522  31.189  1.00  0.00     0.029 A 
ATOM     57  N   UNL A   1      43.712  31.390  30.732  1.00  0.00    -0.354 N 
ATOM     58  N   UNL A   1      40.976  32.476  30.457  1.00  0.00    -0.248 NA
ATOM     59  C   UNL A   1      39.463  34.244  30.665  1.00  0.00     0.031 C 
ATOM     60  C   UNL A   1      45.302  32.761  31.452  1.00  0.00     0.029 A 
ATOM     61  C   UNL A   1      43.953  32.691  31.132  1.00  0.00     0.049 A 
ATOM     62  H   UNL A   1      42.835  31.036  30.457  1.00  0.00     0.167 HD
ATOM     63  C   UNL A   1      41.657  33.607  30.893  1.00  0.00     0.074 A 
ATOM     64  C   UNL A   1      40.680  34.674  30.978  1.00  0.00     0.031 C 
ATOM     65  C   UNL A   1      42.970  33.745  31.198  1.00  0.00     0.031 A 
BRANCH  52  66
ATOM     66  C   UNL A   1      46.363  28.621  30.543  1.00  0.00    -0.014 A 
ATOM     67  C   UNL A   1      47.218  28.586  29.426  1.00  0.00     0.010 A 
ATOM     68  C   UNL A   1      46.748  27.944  31.715  1.00  0.00     0.010 A 
ATOM     69  C   UNL A   1      48.417  27.868  29.467  1.00  0.00     0.020 A 
ATOM     70  C   UNL A   1      47.961  27.250  31.772  1.00  0.00     0.020 A 
ATOM     71  C   UNL A   1      48.777  27.197  30.639  1.00  0.00     0.054 A 
BRANCH  71  72
ATOM     72  S   UNL A   1      50.324  26.250  30.671  1.00  0.00     0.124 S 
ATOM     73  O   UNL A   1      51.264  27.211  31.237  1.00  0.00    -0.237 OA
ATOM     74  O   UNL A   1      49.987  25.115  31.529  1.00  0.00    -0.237 OA
ATOM     75  O   UNL A   1      50.546  25.909  29.267  1.00  0.00    -0.744 OA
ENDBRANCH  71  72
ENDBRANCH  52  66
BRANCH  53  76
ATOM     76  C   UNL A   1      37.202  32.613  29.647  1.00  0.00    -0.014 A 
ATOM     77  C   UNL A   1      36.837  33.158  28.401  1.00  0.00     0.010 A 
ATOM     78  C   UNL A   1      36.315  32.736  30.731  1.00  0.00     0.010 A 
ATOM     79  C   UNL A   1      35.643  33.869  28.258  1.00  0.00     0.020 A 
ATOM     80  C   UNL A   1      35.103  33.421  30.583  1.00  0.00     0.020 A 
ATOM     81  C   UNL A   1      34.792  34.011  29.356  1.00  0.00     0.054 A 
BRANCH  81  82
ATOM     82  S   UNL A   1      33.282  35.000  29.165  1.00  0.00     0.124 S 
ATOM     83  O   UNL A   1      33.817  36.271  28.683  1.00  0.00    -0.237 OA
ATOM     84  O   UNL A   1      32.517  34.230  28.189  1.00  0.00    -0.237 OA
ATOM     85  O   UNL A   1      32.718  35.028  30.513  1.00  0.00    -0.744 OA
ENDBRANCH  81  82
ENDBRANCH  53  76
BRANCH  65  86
ATOM     86  C   UNL A   1      43.465  35.089  31.662  1.00  0.00    -0.014 A 
ATOM     87  C   UNL A   1      43.319  35.453  33.014  1.00  0.00     0.010 A 
ATOM     88  C   UNL A   1      43.881  36.055  30.730  1.00  0.00     0.010 A 
ATOM     89  C   UNL A   1      43.520  36.775  33.415  1.00  0.00     0.020 A 
ATOM     90  C   UNL A   1      44.110  37.373  31.134  1.00  0.00     0.020 A 
ATOM     91  C   UNL A   1      43.895  37.731  32.467  1.00  0.00     0.054 A 
BRANCH  91  92
ATOM     92  S   UNL A   1      44.057  39.460  32.989  1.00  0.00     0.124 S 
ATOM     93  O   UNL A   1      44.527  40.108  31.768  1.00  0.00    -0.237 OA
ATOM     94  O   UNL A   1      42.696  39.801  33.398  1.00  0.00    -0.237 OA
ATOM     95  O   UNL A   1      45.030  39.400  34.077  1.00  0.00    -0.744 OA
ENDBRANCH  91  92
ENDBRANCH  65  86
ENDBRANCH  39  40
ENDBRANCH  32  34
ENDBRANCH  31  32
ENDBRANCH  30  31
ENDBRANCH   1  30
TORSDOF 19
ENDMDL
MODEL 2
REMARK VINA RESULT:     -11.4      2.839      9.042
REMARK SMILES CCCCc1ncc(C[N@H+]2C[C@@H]3c4ccccc4OC[C@]3(C(=O)OCCOC(=O)c3ccc(-c4c5nc(c(-c6ccc(S(=O)(=O)[O-])cc6)c6ccc([nH]6)c(-c6ccc(S(=O)(=O)[O-])cc6)c6nc(c(-c7ccc(S(=O)(=O)[O-])cc7)c7ccc4[nH]7)C=C6)C=C5)cc3)C2)[nH]1
REMARK SMILES IDX 25 1 24 2 22 3 23 4 21 5 10 6 11 7 90 8 12 10 13 11 20 12
REMARK SMILES IDX 14 13 18 14 19 15 15 16 17 17 16 18 9 19 8 20 5 21 6 22
REMARK SMILES IDX 91 23 7 24 4 26 3 27 2 28 1 29 26 30 27 31 28 32 29 33 30 34
REMARK SMILES IDX 31 35 89 36 32 37 88 38 33 39 34 40 35 41 82 42 36 43 87 44
REMARK SMILES IDX 81 45 83 46 37 47 86 48 80 49 79 50 38 52 68 53 49 54 67 55
REMARK SMILES IDX 50 56 53 57 66 58 84 59 51 60 52 61 65 63 85 64 54 65 39 66
REMARK SMILES IDX 40 67 48 68 41 69 47 70 42 71 43 72 44 73 45 74 46 75 69 76
REMARK SMILES IDX 70 77 78 78 71 79 77 80 72 81 73 82 74 83 75 84 76 85 55 86
REMARK SMILES IDX 56 87 64 88 57 89 63 90 58 91 59 92 60 93 61 94 62 95
REMARK H PARENT 10 9 91 25 83 51 53 62
REMARK Flexibility Score: inf
ROOT
ATOM      1  C   UNL A   1      32.074  28.830  26.126  1.00  0.00     0.274 C 
ENDROOT
BRANCH   1   2
ATOM      2  O   UNL A   1      33.066  28.702  25.086  1.00  0.00    -0.461 OA
BRANCH   2   3
ATOM      3  C   UNL A   1      33.295  27.469  24.528  1.00  0.00     0.322 C 
ATOM      4  O   UNL A   1      33.907  26.560  25.064  1.00  0.00    -0.251 OA
BRANCH   3   5
ATOM      5  C   UNL A   1      32.674  27.448  23.136  1.00  0.00     0.162 C 
ATOM      6  N   UNL A   1      32.691  25.638  21.498  1.00  0.00    -0.328 N 
ATOM      7  C   UNL A   1      31.329  26.147  21.643  1.00  0.00     0.272 C 
ATOM      8  C   UNL A   1      33.557  26.451  22.349  1.00  0.00     0.286 C 
ATOM      9  H   UNL A   1      32.983  25.744  20.527  1.00  0.00     0.348 HD
ATOM     10  C   UNL A   1      31.281  26.826  23.019  1.00  0.00     0.105 C 
ATOM     11  C   UNL A   1      30.146  27.801  23.035  1.00  0.00     0.004 A 
ATOM     12  C   UNL A   1      32.728  28.901  22.614  1.00  0.00     0.255 C 
ATOM     13  C   UNL A   1      28.837  27.378  23.318  1.00  0.00     0.008 A 
ATOM     14  C   UNL A   1      30.354  29.107  22.611  1.00  0.00     0.123 A 
ATOM     15  O   UNL A   1      31.547  29.521  22.108  1.00  0.00    -0.492 OA
ATOM     16  C   UNL A   1      27.767  28.267  23.212  1.00  0.00     0.001 A 
ATOM     17  C   UNL A   1      29.292  30.008  22.539  1.00  0.00     0.047 A 
ATOM     18  C   UNL A   1      27.997  29.591  22.845  1.00  0.00     0.004 A 
BRANCH   6  19
ATOM     19  C   UNL A   1      32.844  24.190  21.644  1.00  0.00     0.319 C 
BRANCH  19  20
ATOM     20  C   UNL A   1      33.206  23.699  23.001  1.00  0.00     0.090 A 
ATOM     21  C   UNL A   1      34.374  22.858  24.695  1.00  0.00     0.106 A 
ATOM     22  N   UNL A   1      33.166  23.061  25.175  1.00  0.00    -0.241 NA
ATOM     23  N   UNL A   1      34.441  23.229  23.372  1.00  0.00    -0.341 N 
ATOM     24  C   UNL A   1      32.440  23.581  24.141  1.00  0.00     0.140 A 
ATOM     25  H   UNL A   1      35.236  23.168  22.794  1.00  0.00     0.168 HD
BRANCH  21  26
ATOM     26  C   UNL A   1      35.539  22.293  25.434  1.00  0.00     0.075 C 
BRANCH  26  27
ATOM     27  C   UNL A   1      36.310  23.366  26.210  1.00  0.00     0.008 C 
BRANCH  27  28
ATOM     28  C   UNL A   1      37.801  23.475  25.873  1.00  0.00    -0.003 C 
ATOM     29  C   UNL A   1      38.475  22.131  25.649  1.00  0.00     0.004 C 
ENDBRANCH  27  28
ENDBRANCH  26  27
ENDBRANCH  21  26
ENDBRANCH  19  20
ENDBRANCH   6  19
ENDBRANCH   3   5
ENDBRANCH   2   3
ENDBRANCH   1   2
BRANCH   1  30
ATOM     30  C   UNL A   1      32.801  29.257  27.401  1.00  0.00     0.275 C 
BRANCH  30  31
ATOM     31  O   UNL A   1      33.819  30.181  26.997  1.00  0.00    -0.458 OA
BRANCH  31  32
ATOM     32  C   UNL A   1      34.437  30.893  27.963  1.00  0.00     0.338 C 
ATOM     33  O   UNL A   1      34.025  31.909  28.504  1.00  0.00    -0.246 OA
BRANCH  32  34
ATOM     34  C   UNL A   1      35.736  30.241  28.219  1.00  0.00     0.060 A 
ATOM     35  C   UNL A   1      36.032  29.787  29.502  1.00  0.00     0.016 A 
ATOM     36  C   UNL A   1      36.687  30.125  27.196  1.00  0.00     0.016 A 
ATOM     37  C   UNL A   1      37.320  29.328  29.780  1.00  0.00     0.010 A 
ATOM     38  C   UNL A   1      37.944  29.593  27.457  1.00  0.00     0.010 A 
ATOM     39  C   UNL A   1      38.295  29.255  28.766  1.00  0.00    -0.014 A 
BRANCH  39  40
ATOM     40  C   UNL A   1      39.696  28.893  29.096  1.00  0.00     0.031 A 
ATOM     41  C   UNL A   1      40.529  29.806  29.961  1.00  0.00     0.074 A 
ATOM     42  C   UNL A   1      40.197  27.724  28.654  1.00  0.00     0.049 A 
ATOM     43  N   UNL A   1      41.721  29.600  30.460  1.00  0.00    -0.248 NA
ATOM     44  C   UNL A   1      39.964  31.124  30.302  1.00  0.00     0.031 C 
ATOM     45  C   UNL A   1      39.490  26.791  27.777  1.00  0.00     0.029 A 
ATOM     46  N   UNL A   1      41.395  27.105  28.909  1.00  0.00    -0.354 N 
ATOM     47  C   UNL A   1      42.041  30.752  31.171  1.00  0.00     0.074 A 
ATOM     48  C   UNL A   1      40.953  31.681  30.986  1.00  0.00     0.031 C 
ATOM     49  C   UNL A   1      40.234  25.685  27.627  1.00  0.00     0.029 A 
ATOM     50  C   UNL A   1      41.485  25.844  28.365  1.00  0.00     0.049 A 
ATOM     51  H   UNL A   1      42.118  27.522  29.431  1.00  0.00     0.167 HD
ATOM     52  C   UNL A   1      43.129  30.996  31.938  1.00  0.00     0.031 A 
ATOM     53  C   UNL A   1      42.452  24.910  28.471  1.00  0.00     0.031 A 
ATOM     54  C   UNL A   1      44.193  30.049  32.131  1.00  0.00     0.049 A 
ATOM     55  C   UNL A   1      43.649  25.197  29.336  1.00  0.00     0.074 A 
ATOM     56  C   UNL A   1      45.321  30.180  32.920  1.00  0.00     0.029 A 
ATOM     57  N   UNL A   1      44.257  28.796  31.539  1.00  0.00    -0.354 N 
ATOM     58  N   UNL A   1      43.902  26.266  30.054  1.00  0.00    -0.248 NA
ATOM     59  C   UNL A   1      44.681  24.156  29.420  1.00  0.00     0.031 C 
ATOM     60  C   UNL A   1      46.096  29.031  32.760  1.00  0.00     0.029 A 
ATOM     61  C   UNL A   1      45.416  28.152  31.928  1.00  0.00     0.049 A 
ATOM     62  H   UNL A   1      43.578  28.422  30.932  1.00  0.00     0.167 HD
ATOM     63  C   UNL A   1      45.115  26.021  30.688  1.00  0.00     0.074 A 
ATOM     64  C   UNL A   1      45.537  24.696  30.282  1.00  0.00     0.031 C 
ATOM     65  C   UNL A   1      45.814  26.825  31.524  1.00  0.00     0.031 A 
BRANCH  52  66
ATOM     66  C   UNL A   1      43.219  32.319  32.659  1.00  0.00    -0.014 A 
ATOM     67  C   UNL A   1      42.628  32.475  33.926  1.00  0.00     0.010 A 
ATOM     68  C   UNL A   1      43.787  33.443  32.031  1.00  0.00     0.010 A 
ATOM     69  C   UNL A   1      42.577  33.730  34.539  1.00  0.00     0.020 A 
ATOM     70  C   UNL A   1      43.767  34.694  32.654  1.00  0.00     0.020 A 
ATOM     71  C   UNL A   1      43.141  34.834  33.895  1.00  0.00     0.054 A 
BRANCH  71  72
ATOM     72  S   UNL A   1      43.049  36.462  34.693  1.00  0.00     0.124 S 
ATOM     73  O   UNL A   1      43.153  37.370  33.557  1.00  0.00    -0.237 OA
ATOM     74  O   UNL A   1      41.746  36.420  35.353  1.00  0.00    -0.237 OA
ATOM     75  O   UNL A   1      44.194  36.462  35.602  1.00  0.00    -0.744 OA
ENDBRANCH  71  72
ENDBRANCH  52  66
BRANCH  53  76
ATOM     76  C   UNL A   1      42.265  23.598  27.790  1.00  0.00    -0.014 A 
ATOM     77  C   UNL A   1      41.394  22.633  28.331  1.00  0.00     0.010 A 
ATOM     78  C   UNL A   1      43.038  23.263  26.665  1.00  0.00     0.010 A 
ATOM     79  C   UNL A   1      41.347  21.341  27.800  1.00  0.00     0.020 A 
ATOM     80  C   UNL A   1      42.970  21.980  26.111  1.00  0.00     0.020 A 
ATOM     81  C   UNL A   1      42.149  21.018  26.704  1.00  0.00     0.054 A 
BRANCH  81  82
ATOM     82  S   UNL A   1      42.124  19.315  26.078  1.00  0.00     0.124 S 
ATOM     83  O   UNL A   1      42.950  19.426  24.878  1.00  0.00    -0.237 OA
ATOM     84  O   UNL A   1      42.714  18.560  27.179  1.00  0.00    -0.237 OA
ATOM     85  O   UNL A   1      40.706  19.058  25.839  1.00  0.00    -0.744 OA
ENDBRANCH  81  82
ENDBRANCH  53  76
BRANCH  65  86
ATOM     86  C   UNL A   1      47.122  26.326  32.078  1.00  0.00    -0.014 A 
ATOM     87  C   UNL A   1      48.296  26.459  31.312  1.00  0.00     0.010 A 
ATOM     88  C   UNL A   1      47.150  25.552  33.250  1.00  0.00     0.010 A 
ATOM     89  C   UNL A   1      49.459  25.777  31.675  1.00  0.00     0.020 A 
ATOM     90  C   UNL A   1      48.320  24.890  33.632  1.00  0.00     0.020 A 
ATOM     91  C   UNL A   1      49.456  24.979  32.823  1.00  0.00     0.054 A 
BRANCH  91  92
ATOM     92  S   UNL A   1      50.945  24.025  33.225  1.00  0.00     0.124 S 
ATOM     93  O   UNL A   1      50.577  23.399  34.492  1.00  0.00    -0.237 OA
ATOM     94  O   UNL A   1      51.061  23.117  32.085  1.00  0.00    -0.237 OA
ATOM     95  O   UNL A   1      51.990  25.042  33.311  1.00  0.00    -0.744 OA
ENDBRANCH  91  92
ENDBRANCH  65  86
ENDBRANCH  39  40
ENDBRANCH  32  34
ENDBRANCH  31  32
ENDBRANCH  30  31
ENDBRANCH   1  30
TORSDOF 19
ENDMDL
MODEL 3
REMARK VINA RESULT:     -11.2      4.291      9.244
REMARK SMILES CCCCc1ncc(C[N@H+]2C[C@@H]3c4ccccc4OC[C@]3(C(=O)OCCOC(=O)c3ccc(-c4c5nc(c(-c6ccc(S(=O)(=O)[O-])cc6)c6ccc([nH]6)c(-c6ccc(S(=O)(=O)[O-])cc6)c6nc(c(-c7ccc(S(=O)(=O)[O-])cc7)c7ccc4[nH]7)C=C6)C=C5)cc3)C2)[nH]1
REMARK SMILES IDX 25 1 24 2 22 3 23 4 21 5 10 6 11 7 90 8 12 10 13 11 20 12
REMARK SMILES IDX 14 13 18 14 19 15 15 16 17 17 16 18 9 19 8 20 5 21 6 22
REMARK SMILES IDX 91 23 7 24 4 26 3 27 2 28 1 29 26 30 27 31 28 32 29 33 30 34
REMARK SMILES IDX 31 35 89 36 32 37 88 38 33 39 34 40 35 41 82 42 36 43 87 44
REMARK SMILES IDX 81 45 83 46 37 47 86 48 80 49 79 50 38 52 68 53 49 54 67 55
REMARK SMILES IDX 50 56 53 57 66 58 84 59 51 60 52 61 65 63 85 64 54 65 39 66
REMARK SMILES IDX 40 67 48 68 41 69 47 70 42 71 43 72 44 73 45 74 46 75 69 76
REMARK SMILES IDX 70 77 78 78 71 79 77 80 72 81 73 82 74 83 75 84 76 85 55 86
REMARK SMILES IDX 56 87 64 88 57 89 63 90 58 91 59 92 60 93 61 94 62 95
REMARK H PARENT 10 9 91 25 83 51 53 62
REMARK Flexibility Score: inf
ROOT
ATOM      1  C   UNL A   1      31.981  28.636  27.399  1.00  0.00     0.274 C 
ENDROOT
BRANCH   1   2
ATOM      2  O   UNL A   1      31.684  27.837  26.234  1.00  0.00    -0.461 OA
BRANCH   2   3
ATOM      3  C   UNL A   1      32.717  27.280  25.524  1.00  0.00     0.322 C 
ATOM      4  O   UNL A   1      33.771  26.897  26.004  1.00  0.00    -0.251 OA
BRANCH   3   5
ATOM      5  C   UNL A   1      32.325  27.245  24.051  1.00  0.00     0.162 C 
ATOM      6  N   UNL A   1      32.636  25.433  22.445  1.00  0.00    -0.328 N 
ATOM      7  C   UNL A   1      31.259  25.916  22.370  1.00  0.00     0.272 C 
ATOM      8  C   UNL A   1      33.341  26.265  23.419  1.00  0.00     0.286 C 
ATOM      9  H   UNL A   1      33.077  25.544  21.532  1.00  0.00     0.348 HD
ATOM     10  C   UNL A   1      30.981  26.595  23.718  1.00  0.00     0.105 C 
ATOM     11  C   UNL A   1      29.839  27.548  23.549  1.00  0.00     0.004 A 
ATOM     12  C   UNL A   1      32.433  28.698  23.538  1.00  0.00     0.255 C 
ATOM     13  C   UNL A   1      28.510  27.100  23.623  1.00  0.00     0.008 A 
ATOM     14  C   UNL A   1      30.087  28.857  23.158  1.00  0.00     0.123 A 
ATOM     15  O   UNL A   1      31.336  29.294  22.849  1.00  0.00    -0.492 OA
ATOM     16  C   UNL A   1      27.453  27.968  23.345  1.00  0.00     0.001 A 
ATOM     17  C   UNL A   1      29.032  29.738  22.914  1.00  0.00     0.047 A 
ATOM     18  C   UNL A   1      27.714  29.295  23.013  1.00  0.00     0.004 A 
BRANCH   6  19
ATOM     19  C   UNL A   1      32.792  23.989  22.619  1.00  0.00     0.319 C 
BRANCH  19  20
ATOM     20  C   UNL A   1      33.474  23.545  23.865  1.00  0.00     0.090 A 
ATOM     21  C   UNL A   1      35.059  22.918  25.290  1.00  0.00     0.106 A 
ATOM     22  N   UNL A   1      33.936  22.850  25.972  1.00  0.00    -0.241 NA
ATOM     23  N   UNL A   1      34.823  23.333  24.000  1.00  0.00    -0.341 N 
ATOM     24  C   UNL A   1      32.954  23.238  25.105  1.00  0.00     0.140 A 
ATOM     25  H   UNL A   1      35.502  23.455  23.298  1.00  0.00     0.168 HD
BRANCH  21  26
ATOM     26  C   UNL A   1      36.424  22.587  25.793  1.00  0.00     0.075 C 
BRANCH  26  27
ATOM     27  C   UNL A   1      37.384  23.776  25.688  1.00  0.00     0.008 C 
BRANCH  27  28
ATOM     28  C   UNL A   1      38.677  23.647  26.502  1.00  0.00    -0.003 C 
ATOM     29  C   UNL A   1      39.359  22.297  26.354  1.00  0.00     0.004 C 
ENDBRANCH  27  28
ENDBRANCH  26  27
ENDBRANCH  21  26
ENDBRANCH  19  20
ENDBRANCH   6  19
ENDBRANCH   3   5
ENDBRANCH   2   3
ENDBRANCH   1   2
BRANCH   1  30
ATOM     30  C   UNL A   1      32.000  30.099  26.957  1.00  0.00     0.275 C 
BRANCH  30  31
ATOM     31  O   UNL A   1      33.373  30.429  26.710  1.00  0.00    -0.458 OA
BRANCH  31  32
ATOM     32  C   UNL A   1      33.900  31.466  27.396  1.00  0.00     0.338 C 
ATOM     33  O   UNL A   1      33.395  32.565  27.568  1.00  0.00    -0.246 OA
BRANCH  32  34
ATOM     34  C   UNL A   1      35.233  31.041  27.868  1.00  0.00     0.060 A 
ATOM     35  C   UNL A   1      35.496  29.685  28.039  1.00  0.00     0.016 A 
ATOM     36  C   UNL A   1      36.210  31.993  28.189  1.00  0.00     0.016 A 
ATOM     37  C   UNL A   1      36.693  29.296  28.644  1.00  0.00     0.010 A 
ATOM     38  C   UNL A   1      37.434  31.599  28.718  1.00  0.00     0.010 A 
ATOM     39  C   UNL A   1      37.658  30.253  29.015  1.00  0.00    -0.014 A 
BRANCH  39  40
ATOM     40  C   UNL A   1      38.865  29.846  29.776  1.00  0.00     0.031 A 
ATOM     41  C   UNL A   1      39.033  30.272  31.213  1.00  0.00     0.074 A 
ATOM     42  C   UNL A   1      39.782  29.056  29.186  1.00  0.00     0.049 A 
ATOM     43  N   UNL A   1      39.949  29.910  32.075  1.00  0.00    -0.248 NA
ATOM     44  C   UNL A   1      38.060  31.238  31.755  1.00  0.00     0.031 C 
ATOM     45  C   UNL A   1      39.736  28.623  27.789  1.00  0.00     0.029 A 
ATOM     46  N   UNL A   1      40.904  28.449  29.690  1.00  0.00    -0.354 N 
ATOM     47  C   UNL A   1      39.660  30.596  33.250  1.00  0.00     0.074 A 
ATOM     48  C   UNL A   1      38.527  31.446  32.978  1.00  0.00     0.031 C 
ATOM     49  C   UNL A   1      40.739  27.761  27.567  1.00  0.00     0.029 A 
ATOM     50  C   UNL A   1      41.521  27.608  28.792  1.00  0.00     0.049 A 
ATOM     51  H   UNL A   1      41.236  28.599  30.604  1.00  0.00     0.167 HD
ATOM     52  C   UNL A   1      40.264  30.496  34.457  1.00  0.00     0.031 A 
ATOM     53  C   UNL A   1      42.578  26.784  28.944  1.00  0.00     0.031 A 
ATOM     54  C   UNL A   1      41.377  29.624  34.718  1.00  0.00     0.049 A 
ATOM     55  C   UNL A   1      43.230  26.680  30.296  1.00  0.00     0.074 A 
ATOM     56  C   UNL A   1      42.038  29.415  35.914  1.00  0.00     0.029 A 
ATOM     57  N   UNL A   1      41.986  28.812  33.773  1.00  0.00    -0.354 N 
ATOM     58  N   UNL A   1      42.900  27.286  31.412  1.00  0.00    -0.248 NA
ATOM     59  C   UNL A   1      44.381  25.776  30.418  1.00  0.00     0.031 C 
ATOM     60  C   UNL A   1      43.083  28.522  35.681  1.00  0.00     0.029 A 
ATOM     61  C   UNL A   1      43.030  28.116  34.354  1.00  0.00     0.049 A 
ATOM     62  H   UNL A   1      41.716  28.741  32.828  1.00  0.00     0.167 HD
ATOM     63  C   UNL A   1      43.793  26.827  32.374  1.00  0.00     0.074 A 
ATOM     64  C   UNL A   1      44.667  25.879  31.712  1.00  0.00     0.031 C 
ATOM     65  C   UNL A   1      43.882  27.165  33.682  1.00  0.00     0.031 A 
BRANCH  52  66
ATOM     66  C   UNL A   1      39.723  31.315  35.603  1.00  0.00    -0.014 A 
ATOM     67  C   UNL A   1      40.423  32.451  36.052  1.00  0.00     0.010 A 
ATOM     68  C   UNL A   1      38.584  30.894  36.313  1.00  0.00     0.010 A 
ATOM     69  C   UNL A   1      40.011  33.132  37.201  1.00  0.00     0.020 A 
ATOM     70  C   UNL A   1      38.150  31.591  37.444  1.00  0.00     0.020 A 
ATOM     71  C   UNL A   1      38.881  32.693  37.895  1.00  0.00     0.054 A 
BRANCH  71  72
ATOM     72  S   UNL A   1      38.372  33.574  39.397  1.00  0.00     0.124 S 
ATOM     73  O   UNL A   1      38.750  34.949  39.093  1.00  0.00    -0.237 OA
ATOM     74  O   UNL A   1      36.935  33.310  39.451  1.00  0.00    -0.237 OA
ATOM     75  O   UNL A   1      39.151  32.928  40.453  1.00  0.00    -0.744 OA
ENDBRANCH  71  72
ENDBRANCH  52  66
BRANCH  53  76
ATOM     76  C   UNL A   1      43.015  25.950  27.789  1.00  0.00    -0.014 A 
ATOM     77  C   UNL A   1      42.375  24.727  27.511  1.00  0.00     0.010 A 
ATOM     78  C   UNL A   1      44.142  26.316  27.033  1.00  0.00     0.010 A 
ATOM     79  C   UNL A   1      42.889  23.859  26.544  1.00  0.00     0.020 A 
ATOM     80  C   UNL A   1      44.641  25.464  26.042  1.00  0.00     0.020 A 
ATOM     81  C   UNL A   1      44.030  24.226  25.828  1.00  0.00     0.054 A 
BRANCH  81  82
ATOM     82  S   UNL A   1      44.720  23.052  24.629  1.00  0.00     0.124 S 
ATOM     83  O   UNL A   1      45.733  23.867  23.962  1.00  0.00    -0.237 OA
ATOM     84  O   UNL A   1      45.235  21.986  25.484  1.00  0.00    -0.237 OA
ATOM     85  O   UNL A   1      43.570  22.686  23.806  1.00  0.00    -0.744 OA
ENDBRANCH  81  82
ENDBRANCH  53  76
BRANCH  65  86
ATOM     86  C   UNL A   1      44.956  26.526  34.521  1.00  0.00    -0.014 A 
ATOM     87  C   UNL A   1      44.660  25.363  35.258  1.00  0.00     0.010 A 
ATOM     88  C   UNL A   1      46.179  27.183  34.736  1.00  0.00     0.010 A 
ATOM     89  C   UNL A   1      45.541  24.905  36.240  1.00  0.00     0.020 A 
ATOM     90  C   UNL A   1      47.076  26.712  35.698  1.00  0.00     0.020 A 
ATOM     91  C   UNL A   1      46.734  25.596  36.468  1.00  0.00     0.054 A 
BRANCH  91  92
ATOM     92  S   UNL A   1      47.820  25.043  37.811  1.00  0.00     0.124 S 
ATOM     93  O   UNL A   1      47.072  23.920  38.369  1.00  0.00    -0.237 OA
ATOM     94  O   UNL A   1      49.050  24.691  37.104  1.00  0.00    -0.237 OA
ATOM     95  O   UNL A   1      47.921  26.216  38.675  1.00  0.00    -0.744 OA
ENDBRANCH  91  92
ENDBRANCH  65  86
ENDBRANCH  39  40
ENDBRANCH  32  34
ENDBRANCH  31  32
ENDBRANCH  30  31
ENDBRANCH   1  30
TORSDOF 19
ENDMDL
