MODEL 1
REMARK VINA RESULT:     -12.4      0.000      0.000
REMARK SMILES O=C(Cn1c(=O)[nH]c2ccccc2c1=O)NC[C@H]1CC[C@@H](C(=O)N2CCC(C(=O)OCCOC(=O)c3ccc(-c4c5nc(c(-c6ccc(S(=O)(=O)[O-])cc6)c6ccc([nH]6)c(-c6ccc(S(=O)(=O)[O-])cc6)c6nc(c(-c7ccc(S(=O)(=O)[O-])cc7)c7ccc4[nH]7)C=C6)C=C5)cc3)CC2)CC1
REMARK SMILES IDX 31 1 30 2 28 3 29 4 27 5 22 6 23 7 24 8 25 9 97 10 26 11
REMARK SMILES IDX 96 12 21 13 18 14 19 15 99 16 20 17 98 18 17 19 16 20 1 21
REMARK SMILES IDX 2 22 3 24 4 25 5 26 14 27 6 28 7 29 13 30 15 31 8 32 12 34
REMARK SMILES IDX 9 35 11 36 10 37 32 38 33 39 34 40 35 41 36 42 37 43 95 44
REMARK SMILES IDX 38 45 94 46 39 47 40 48 41 49 88 50 42 51 93 52 87 53 89 54
REMARK SMILES IDX 43 55 92 56 86 57 85 58 44 60 74 61 55 62 73 63 56 64 59 65
REMARK SMILES IDX 72 66 90 67 57 68 58 69 71 71 91 72 60 73 45 74 46 75 54 76
REMARK SMILES IDX 47 77 53 78 48 79 49 80 50 81 51 82 52 83 75 84 76 85 84 86
REMARK SMILES IDX 77 87 83 88 78 89 79 90 80 91 81 92 82 93 61 94 62 95 70 96
REMARK SMILES IDX 63 97 69 98 64 99 65 100 66 101 67 102 68 103
REMARK H PARENT 16 23 7 33 89 59 59 70
REMARK Flexibility Score: inf
ROOT
ATOM      1  C   UNL A   1      34.510  30.592  27.252  1.00  0.00     0.274 C 
ENDROOT
BRANCH   1   2
ATOM      2  O   UNL A   1      33.340  31.320  27.656  1.00  0.00    -0.462 OA
BRANCH   2   3
ATOM      3  C   UNL A   1      32.238  31.127  26.890  1.00  0.00     0.309 C 
ATOM      4  O   UNL A   1      31.310  31.920  26.782  1.00  0.00    -0.252 OA
BRANCH   3   5
ATOM      5  C   UNL A   1      32.243  29.783  26.204  1.00  0.00     0.103 C 
ATOM      6  C   UNL A   1      30.210  26.405  24.678  1.00  0.00     0.225 C 
ATOM      7  O   UNL A   1      29.525  25.837  25.539  1.00  0.00    -0.275 OA
ATOM      8  N   UNL A   1      31.063  27.424  25.040  1.00  0.00    -0.342 N 
ATOM      9  C   UNL A   1      31.803  27.309  26.295  1.00  0.00     0.120 C 
ATOM     10  C   UNL A   1      31.387  28.567  24.213  1.00  0.00     0.120 C 
ATOM     11  C   UNL A   1      31.817  28.607  27.088  1.00  0.00     0.037 C 
ATOM     12  C   UNL A   1      31.355  29.877  24.977  1.00  0.00     0.037 C 
BRANCH   6  13
ATOM     13  C   UNL A   1      30.287  25.763  23.273  1.00  0.00     0.078 C 
ATOM     14  C   UNL A   1      32.966  24.532  22.564  1.00  0.00     0.008 C 
ATOM     15  C   UNL A   1      32.029  23.961  23.642  1.00  0.00     0.006 C 
ATOM     16  C   UNL A   1      32.582  25.921  22.031  1.00  0.00     0.006 C 
ATOM     17  C   UNL A   1      30.558  24.263  23.412  1.00  0.00     0.014 C 
ATOM     18  C   UNL A   1      31.113  26.344  22.129  1.00  0.00     0.014 C 
BRANCH  14  19
ATOM     19  C   UNL A   1      34.410  24.474  23.116  1.00  0.00     0.119 C 
BRANCH  19  20
ATOM     20  N   UNL A   1      34.781  23.253  23.802  1.00  0.00    -0.354 N 
ATOM     21  O   UNL A   1      36.671  22.861  22.557  1.00  0.00    -0.273 OA
ATOM     22  C   UNL A   1      36.028  22.687  23.592  1.00  0.00     0.240 C 
ATOM     23  H   UNL A   1      34.144  22.824  24.419  1.00  0.00     0.163 HD
BRANCH  22  24
ATOM     24  C   UNL A   1      36.516  21.694  24.644  1.00  0.00     0.230 C 
BRANCH  24  25
ATOM     25  N   UNL A   1      37.737  22.048  25.362  1.00  0.00    -0.250 N 
ATOM     26  C   UNL A   1      37.692  23.210  26.117  1.00  0.00     0.329 A 
ATOM     27  C   UNL A   1      38.697  21.056  25.553  1.00  0.00     0.264 A 
ATOM     28  O   UNL A   1      36.773  24.026  26.068  1.00  0.00    -0.248 OA
ATOM     29  N   UNL A   1      38.735  23.430  26.973  1.00  0.00    -0.307 N 
ATOM     30  C   UNL A   1      39.892  21.431  26.320  1.00  0.00     0.064 A 
ATOM     31  O   UNL A   1      38.614  19.912  25.113  1.00  0.00    -0.268 OA
ATOM     32  C   UNL A   1      39.845  22.597  27.073  1.00  0.00     0.055 A 
ATOM     33  H   UNL A   1      38.698  24.225  27.552  1.00  0.00     0.171 HD
ATOM     34  C   UNL A   1      41.031  20.623  26.326  1.00  0.00     0.016 A 
ATOM     35  C   UNL A   1      40.909  22.929  27.908  1.00  0.00     0.027 A 
ATOM     36  C   UNL A   1      42.114  20.973  27.129  1.00  0.00     0.001 A 
ATOM     37  C   UNL A   1      42.043  22.112  27.936  1.00  0.00     0.002 A 
ENDBRANCH  24  25
ENDBRANCH  22  24
ENDBRANCH  19  20
ENDBRANCH  14  19
ENDBRANCH   6  13
ENDBRANCH   3   5
ENDBRANCH   2   3
ENDBRANCH   1   2
BRANCH   1  38
ATOM     38  C   UNL A   1      35.558  30.598  28.366  1.00  0.00     0.275 C 
BRANCH  38  39
ATOM     39  O   UNL A   1      36.527  29.549  28.188  1.00  0.00    -0.458 OA
BRANCH  39  40
ATOM     40  C   UNL A   1      37.268  29.230  29.278  1.00  0.00     0.338 C 
ATOM     41  O   UNL A   1      36.869  28.962  30.394  1.00  0.00    -0.246 OA
BRANCH  40  42
ATOM     42  C   UNL A   1      38.682  29.175  28.878  1.00  0.00     0.060 A 
ATOM     43  C   UNL A   1      39.023  29.317  27.535  1.00  0.00     0.016 A 
ATOM     44  C   UNL A   1      39.671  28.994  29.849  1.00  0.00     0.016 A 
ATOM     45  C   UNL A   1      40.361  29.218  27.159  1.00  0.00     0.010 A 
ATOM     46  C   UNL A   1      41.010  28.915  29.476  1.00  0.00     0.010 A 
ATOM     47  C   UNL A   1      41.363  29.001  28.124  1.00  0.00    -0.014 A 
BRANCH  47  48
ATOM     48  C   UNL A   1      42.779  28.856  27.714  1.00  0.00     0.031 A 
ATOM     49  C   UNL A   1      43.743  29.993  27.913  1.00  0.00     0.074 A 
ATOM     50  C   UNL A   1      43.192  27.690  27.182  1.00  0.00     0.049 A 
ATOM     51  N   UNL A   1      45.030  30.023  27.680  1.00  0.00    -0.248 NA
ATOM     52  C   UNL A   1      43.200  31.255  28.443  1.00  0.00     0.031 C 
ATOM     53  C   UNL A   1      42.331  26.530  26.944  1.00  0.00     0.029 A 
ATOM     54  N   UNL A   1      44.433  27.277  26.768  1.00  0.00    -0.354 N 
ATOM     55  C   UNL A   1      45.451  31.294  28.049  1.00  0.00     0.074 A 
ATOM     56  C   UNL A   1      44.278  32.028  28.467  1.00  0.00     0.031 C 
ATOM     57  C   UNL A   1      43.080  25.519  26.477  1.00  0.00     0.029 A 
ATOM     58  C   UNL A   1      44.462  25.971  26.335  1.00  0.00     0.049 A 
ATOM     59  H   UNL A   1      45.227  27.858  26.780  1.00  0.00     0.167 HD
ATOM     60  C   UNL A   1      46.710  31.790  28.063  1.00  0.00     0.031 A 
ATOM     61  C   UNL A   1      45.486  25.217  25.884  1.00  0.00     0.031 A 
ATOM     62  C   UNL A   1      47.867  31.041  27.644  1.00  0.00     0.049 A 
ATOM     63  C   UNL A   1      46.865  25.817  25.846  1.00  0.00     0.074 A 
ATOM     64  C   UNL A   1      49.191  31.445  27.646  1.00  0.00     0.029 A 
ATOM     65  N   UNL A   1      47.845  29.743  27.156  1.00  0.00    -0.354 N 
ATOM     66  N   UNL A   1      47.257  27.001  26.251  1.00  0.00    -0.248 NA
ATOM     67  C   UNL A   1      47.946  24.983  25.301  1.00  0.00     0.031 C 
ATOM     68  C   UNL A   1      49.957  30.426  27.083  1.00  0.00     0.029 A 
ATOM     69  C   UNL A   1      49.128  29.347  26.817  1.00  0.00     0.049 A 
ATOM     70  H   UNL A   1      47.039  29.187  27.063  1.00  0.00     0.167 HD
ATOM     71  C   UNL A   1      48.629  27.045  26.036  1.00  0.00     0.074 A 
ATOM     72  C   UNL A   1      49.006  25.763  25.477  1.00  0.00     0.031 C 
ATOM     73  C   UNL A   1      49.495  28.059  26.277  1.00  0.00     0.031 A 
BRANCH  60  74
ATOM     74  C   UNL A   1      46.937  33.191  28.572  1.00  0.00    -0.014 A 
ATOM     75  C   UNL A   1      46.955  34.273  27.671  1.00  0.00     0.010 A 
ATOM     76  C   UNL A   1      47.302  33.416  29.912  1.00  0.00     0.010 A 
ATOM     77  C   UNL A   1      47.389  35.535  28.083  1.00  0.00     0.020 A 
ATOM     78  C   UNL A   1      47.706  34.686  30.337  1.00  0.00     0.020 A 
ATOM     79  C   UNL A   1      47.777  35.729  29.411  1.00  0.00     0.054 A 
BRANCH  79  80
ATOM     80  S   UNL A   1      48.415  37.354  29.905  1.00  0.00     0.124 S 
ATOM     81  O   UNL A   1      48.569  38.029  28.620  1.00  0.00    -0.237 OA
ATOM     82  O   UNL A   1      47.349  37.865  30.763  1.00  0.00    -0.237 OA
ATOM     83  O   UNL A   1      49.663  37.038  30.598  1.00  0.00    -0.744 OA
ENDBRANCH  79  80
ENDBRANCH  60  74
BRANCH  61  84
ATOM     84  C   UNL A   1      45.235  23.802  25.492  1.00  0.00    -0.014 A 
ATOM     85  C   UNL A   1      45.481  22.751  26.397  1.00  0.00     0.010 A 
ATOM     86  C   UNL A   1      44.830  23.488  24.182  1.00  0.00     0.010 A 
ATOM     87  C   UNL A   1      45.388  21.419  25.985  1.00  0.00     0.020 A 
ATOM     88  C   UNL A   1      44.700  22.155  23.776  1.00  0.00     0.020 A 
ATOM     89  C   UNL A   1      45.011  21.130  24.672  1.00  0.00     0.054 A 
BRANCH  89  90
ATOM     90  S   UNL A   1      44.953  19.395  24.148  1.00  0.00     0.124 S 
ATOM     91  O   UNL A   1      46.363  19.018  24.202  1.00  0.00    -0.237 OA
ATOM     92  O   UNL A   1      44.100  18.785  25.163  1.00  0.00    -0.237 OA
ATOM     93  O   UNL A   1      44.375  19.460  22.808  1.00  0.00    -0.744 OA
ENDBRANCH  89  90
ENDBRANCH  61  84
BRANCH  73  94
ATOM     94  C   UNL A   1      50.954  27.860  25.952  1.00  0.00    -0.014 A 
ATOM     95  C   UNL A   1      51.394  27.993  24.621  1.00  0.00     0.010 A 
ATOM     96  C   UNL A   1      51.837  27.347  26.917  1.00  0.00     0.010 A 
ATOM     97  C   UNL A   1      52.663  27.549  24.246  1.00  0.00     0.020 A 
ATOM     98  C   UNL A   1      53.121  26.935  26.552  1.00  0.00     0.020 A 
ATOM     99  C   UNL A   1      53.511  27.002  25.212  1.00  0.00     0.054 A 
BRANCH  99 100
ATOM    100  S   UNL A   1      55.112  26.329  24.686  1.00  0.00     0.124 S 
ATOM    101  O   UNL A   1      55.169  26.730  23.284  1.00  0.00    -0.237 OA
ATOM    102  O   UNL A   1      56.051  27.008  25.575  1.00  0.00    -0.237 OA
ATOM    103  O   UNL A   1      54.973  24.892  24.918  1.00  0.00    -0.744 OA
ENDBRANCH  99 100
ENDBRANCH  73  94
ENDBRANCH  47  48
ENDBRANCH  40  42
ENDBRANCH  39  40
ENDBRANCH  38  39
ENDBRANCH   1  38
TORSDOF 19
ENDMDL
MODEL 2
REMARK VINA RESULT:     -12.2      6.273     12.679
REMARK SMILES O=C(Cn1c(=O)[nH]c2ccccc2c1=O)NC[C@H]1CC[C@@H](C(=O)N2CCC(C(=O)OCCOC(=O)c3ccc(-c4c5nc(c(-c6ccc(S(=O)(=O)[O-])cc6)c6ccc([nH]6)c(-c6ccc(S(=O)(=O)[O-])cc6)c6nc(c(-c7ccc(S(=O)(=O)[O-])cc7)c7ccc4[nH]7)C=C6)C=C5)cc3)CC2)CC1
REMARK SMILES IDX 31 1 30 2 28 3 29 4 27 5 22 6 23 7 24 8 25 9 97 10 26 11
REMARK SMILES IDX 96 12 21 13 18 14 19 15 99 16 20 17 98 18 17 19 16 20 1 21
REMARK SMILES IDX 2 22 3 24 4 25 5 26 14 27 6 28 7 29 13 30 15 31 8 32 12 34
REMARK SMILES IDX 9 35 11 36 10 37 32 38 33 39 34 40 35 41 36 42 37 43 95 44
REMARK SMILES IDX 38 45 94 46 39 47 40 48 41 49 88 50 42 51 93 52 87 53 89 54
REMARK SMILES IDX 43 55 92 56 86 57 85 58 44 60 74 61 55 62 73 63 56 64 59 65
REMARK SMILES IDX 72 66 90 67 57 68 58 69 71 71 91 72 60 73 45 74 46 75 54 76
REMARK SMILES IDX 47 77 53 78 48 79 49 80 50 81 51 82 52 83 75 84 76 85 84 86
REMARK SMILES IDX 77 87 83 88 78 89 79 90 80 91 81 92 82 93 61 94 62 95 70 96
REMARK SMILES IDX 63 97 69 98 64 99 65 100 66 101 67 102 68 103
REMARK H PARENT 16 23 7 33 89 59 59 70
REMARK Flexibility Score: inf
ROOT
ATOM      1  C   UNL A   1      41.551  22.459  26.941  1.00  0.00     0.274 C 
ENDROOT
BRANCH   1   2
ATOM      2  O   UNL A   1      40.150  22.668  26.703  1.00  0.00    -0.462 OA
BRANCH   2   3
ATOM      3  C   UNL A   1      39.491  21.625  26.140  1.00  0.00     0.309 C 
ATOM      4  O   UNL A   1      40.018  20.588  25.754  1.00  0.00    -0.252 OA
BRANCH   3   5
ATOM      5  C   UNL A   1      38.015  21.894  25.985  1.00  0.00     0.103 C 
ATOM      6  C   UNL A   1      34.643  22.733  23.576  1.00  0.00     0.225 C 
ATOM      7  O   UNL A   1      34.786  23.763  22.905  1.00  0.00    -0.275 OA
ATOM      8  N   UNL A   1      35.575  22.402  24.534  1.00  0.00    -0.342 N 
ATOM      9  C   UNL A   1      36.161  23.468  25.345  1.00  0.00     0.120 C 
ATOM     10  C   UNL A   1      35.946  21.050  24.898  1.00  0.00     0.120 C 
ATOM     11  C   UNL A   1      37.663  23.311  25.521  1.00  0.00     0.037 C 
ATOM     12  C   UNL A   1      37.445  20.864  25.028  1.00  0.00     0.037 C 
BRANCH   6  13
ATOM     13  C   UNL A   1      33.281  22.005  23.505  1.00  0.00     0.078 C 
ATOM     14  C   UNL A   1      30.987  23.423  24.894  1.00  0.00     0.008 C 
ATOM     15  C   UNL A   1      31.666  23.954  23.619  1.00  0.00     0.006 C 
ATOM     16  C   UNL A   1      31.706  22.249  25.577  1.00  0.00     0.006 C 
ATOM     17  C   UNL A   1      32.277  22.874  22.743  1.00  0.00     0.014 C 
ATOM     18  C   UNL A   1      32.608  21.362  24.714  1.00  0.00     0.014 C 
BRANCH  14  19
ATOM     19  C   UNL A   1      30.756  24.624  25.840  1.00  0.00     0.119 C 
BRANCH  19  20
ATOM     20  N   UNL A   1      30.937  25.938  25.257  1.00  0.00    -0.354 N 
ATOM     21  O   UNL A   1      31.324  27.016  27.249  1.00  0.00    -0.273 OA
ATOM     22  C   UNL A   1      31.440  26.977  26.024  1.00  0.00     0.240 C 
ATOM     23  H   UNL A   1      30.702  26.094  24.313  1.00  0.00     0.163 HD
BRANCH  22  24
ATOM     24  C   UNL A   1      32.014  28.172  25.267  1.00  0.00     0.230 C 
BRANCH  24  25
ATOM     25  N   UNL A   1      31.059  29.170  24.797  1.00  0.00    -0.250 N 
ATOM     26  C   UNL A   1      31.114  30.413  25.410  1.00  0.00     0.329 A 
ATOM     27  C   UNL A   1      30.442  28.960  23.566  1.00  0.00     0.264 A 
ATOM     28  O   UNL A   1      31.777  30.651  26.419  1.00  0.00    -0.248 OA
ATOM     29  N   UNL A   1      30.396  31.420  24.830  1.00  0.00    -0.307 N 
ATOM     30  C   UNL A   1      29.522  30.006  23.099  1.00  0.00     0.064 A 
ATOM     31  O   UNL A   1      30.605  27.964  22.866  1.00  0.00    -0.268 OA
ATOM     32  C   UNL A   1      29.578  31.248  23.717  1.00  0.00     0.055 A 
ATOM     33  H   UNL A   1      30.461  32.321  25.223  1.00  0.00     0.171 HD
ATOM     34  C   UNL A   1      28.642  29.775  22.040  1.00  0.00     0.016 A 
ATOM     35  C   UNL A   1      28.811  32.303  23.230  1.00  0.00     0.027 A 
ATOM     36  C   UNL A   1      27.842  30.817  21.576  1.00  0.00     0.001 A 
ATOM     37  C   UNL A   1      27.943  32.084  22.156  1.00  0.00     0.002 A 
ENDBRANCH  24  25
ENDBRANCH  22  24
ENDBRANCH  19  20
ENDBRANCH  14  19
ENDBRANCH   6  13
ENDBRANCH   3   5
ENDBRANCH   2   3
ENDBRANCH   1   2
BRANCH   1  38
ATOM     38  C   UNL A   1      42.390  23.288  25.968  1.00  0.00     0.275 C 
BRANCH  38  39
ATOM     39  O   UNL A   1      43.125  24.322  26.648  1.00  0.00    -0.458 OA
BRANCH  39  40
ATOM     40  C   UNL A   1      42.857  25.595  26.265  1.00  0.00     0.338 C 
ATOM     41  O   UNL A   1      42.830  26.039  25.134  1.00  0.00    -0.246 OA
BRANCH  40  42
ATOM     42  C   UNL A   1      42.510  26.376  27.461  1.00  0.00     0.060 A 
ATOM     43  C   UNL A   1      41.562  25.882  28.353  1.00  0.00     0.016 A 
ATOM     44  C   UNL A   1      43.144  27.599  27.698  1.00  0.00     0.016 A 
ATOM     45  C   UNL A   1      41.206  26.650  29.461  1.00  0.00     0.010 A 
ATOM     46  C   UNL A   1      42.803  28.357  28.815  1.00  0.00     0.010 A 
ATOM     47  C   UNL A   1      41.812  27.899  29.692  1.00  0.00    -0.014 A 
BRANCH  47  48
ATOM     48  C   UNL A   1      41.400  28.729  30.849  1.00  0.00     0.031 A 
ATOM     49  C   UNL A   1      42.199  28.698  32.122  1.00  0.00     0.074 A 
ATOM     50  C   UNL A   1      40.318  29.523  30.735  1.00  0.00     0.049 A 
ATOM     51  N   UNL A   1      42.030  29.406  33.209  1.00  0.00    -0.248 NA
ATOM     52  C   UNL A   1      43.330  27.758  32.188  1.00  0.00     0.031 C 
ATOM     53  C   UNL A   1      39.476  29.618  29.541  1.00  0.00     0.029 A 
ATOM     54  N   UNL A   1      39.755  30.411  31.615  1.00  0.00    -0.354 N 
ATOM     55  C   UNL A   1      43.040  29.011  34.078  1.00  0.00     0.074 A 
ATOM     56  C   UNL A   1      43.783  27.962  33.419  1.00  0.00     0.031 C 
ATOM     57  C   UNL A   1      38.536  30.554  29.744  1.00  0.00     0.029 A 
ATOM     58  C   UNL A   1      38.676  31.090  31.097  1.00  0.00     0.049 A 
ATOM     59  H   UNL A   1      40.090  30.550  32.530  1.00  0.00     0.167 HD
ATOM     60  C   UNL A   1      43.334  29.505  35.303  1.00  0.00     0.031 A 
ATOM     61  C   UNL A   1      37.892  32.043  31.643  1.00  0.00     0.031 A 
ATOM     62  C   UNL A   1      42.581  30.554  35.942  1.00  0.00     0.049 A 
ATOM     63  C   UNL A   1      38.200  32.525  33.034  1.00  0.00     0.074 A 
ATOM     64  C   UNL A   1      42.815  31.143  37.172  1.00  0.00     0.029 A 
ATOM     65  N   UNL A   1      41.459  31.172  35.408  1.00  0.00    -0.354 N 
ATOM     66  N   UNL A   1      39.192  32.182  33.821  1.00  0.00    -0.248 NA
ATOM     67  C   UNL A   1      37.295  33.527  33.614  1.00  0.00     0.031 C 
ATOM     68  C   UNL A   1      41.790  32.055  37.419  1.00  0.00     0.029 A 
ATOM     69  C   UNL A   1      40.968  32.107  36.303  1.00  0.00     0.049 A 
ATOM     70  H   UNL A   1      41.070  30.974  34.526  1.00  0.00     0.167 HD
ATOM     71  C   UNL A   1      39.048  32.944  34.974  1.00  0.00     0.074 A 
ATOM     72  C   UNL A   1      37.879  33.777  34.780  1.00  0.00     0.031 C 
ATOM     73  C   UNL A   1      39.812  32.946  36.092  1.00  0.00     0.031 A 
BRANCH  60  74
ATOM     74  C   UNL A   1      44.530  28.960  36.041  1.00  0.00    -0.014 A 
ATOM     75  C   UNL A   1      45.812  29.488  35.791  1.00  0.00     0.010 A 
ATOM     76  C   UNL A   1      44.412  27.815  36.850  1.00  0.00     0.010 A 
ATOM     77  C   UNL A   1      46.953  28.849  36.284  1.00  0.00     0.020 A 
ATOM     78  C   UNL A   1      45.549  27.191  37.373  1.00  0.00     0.020 A 
ATOM     79  C   UNL A   1      46.813  27.695  37.060  1.00  0.00     0.054 A 
BRANCH  79  80
ATOM     80  S   UNL A   1      48.310  26.836  37.621  1.00  0.00     0.124 S 
ATOM     81  O   UNL A   1      48.083  26.727  39.059  1.00  0.00    -0.237 OA
ATOM     82  O   UNL A   1      48.252  25.580  36.876  1.00  0.00    -0.237 OA
ATOM     83  O   UNL A   1      49.392  27.735  37.226  1.00  0.00    -0.744 OA
ENDBRANCH  79  80
ENDBRANCH  60  74
BRANCH  61  84
ATOM     84  C   UNL A   1      36.785  32.630  30.837  1.00  0.00    -0.014 A 
ATOM     85  C   UNL A   1      37.028  33.704  29.957  1.00  0.00     0.010 A 
ATOM     86  C   UNL A   1      35.465  32.176  31.005  1.00  0.00     0.010 A 
ATOM     87  C   UNL A   1      35.969  34.350  29.314  1.00  0.00     0.020 A 
ATOM     88  C   UNL A   1      34.406  32.798  30.334  1.00  0.00     0.020 A 
ATOM     89  C   UNL A   1      34.663  33.901  29.517  1.00  0.00     0.054 A 
BRANCH  89  90
ATOM     90  S   UNL A   1      33.303  34.793  28.714  1.00  0.00     0.124 S 
ATOM     91  O   UNL A   1      34.007  35.904  28.079  1.00  0.00    -0.237 OA
ATOM     92  O   UNL A   1      32.760  33.790  27.803  1.00  0.00    -0.237 OA
ATOM     93  O   UNL A   1      32.430  35.161  29.826  1.00  0.00    -0.744 OA
ENDBRANCH  89  90
ENDBRANCH  61  84
BRANCH  73  94
ATOM     94  C   UNL A   1      39.442  33.874  37.222  1.00  0.00    -0.014 A 
ATOM     95  C   UNL A   1      39.912  35.201  37.213  1.00  0.00     0.010 A 
ATOM     96  C   UNL A   1      38.809  33.378  38.375  1.00  0.00     0.010 A 
ATOM     97  C   UNL A   1      39.824  35.992  38.361  1.00  0.00     0.020 A 
ATOM     98  C   UNL A   1      38.687  34.179  39.513  1.00  0.00     0.020 A 
ATOM     99  C   UNL A   1      39.230  35.467  39.511  1.00  0.00     0.054 A 
BRANCH  99 100
ATOM    100  S   UNL A   1      39.225  36.468  41.024  1.00  0.00     0.124 S 
ATOM    101  O   UNL A   1      38.245  35.769  41.851  1.00  0.00    -0.237 OA
ATOM    102  O   UNL A   1      40.611  36.374  41.474  1.00  0.00    -0.237 OA
ATOM    103  O   UNL A   1      38.816  37.792  40.559  1.00  0.00    -0.744 OA
ENDBRANCH  99 100
ENDBRANCH  73  94
ENDBRANCH  47  48
ENDBRANCH  40  42
ENDBRANCH  39  40
ENDBRANCH  38  39
ENDBRANCH   1  38
TORSDOF 19
ENDMDL
MODEL 3
REMARK VINA RESULT:     -11.8      1.763      8.117
REMARK SMILES O=C(Cn1c(=O)[nH]c2ccccc2c1=O)NC[C@H]1CC[C@@H](C(=O)N2CCC(C(=O)OCCOC(=O)c3ccc(-c4c5nc(c(-c6ccc(S(=O)(=O)[O-])cc6)c6ccc([nH]6)c(-c6ccc(S(=O)(=O)[O-])cc6)c6nc(c(-c7ccc(S(=O)(=O)[O-])cc7)c7ccc4[nH]7)C=C6)C=C5)cc3)CC2)CC1
REMARK SMILES IDX 31 1 30 2 28 3 29 4 27 5 22 6 23 7 24 8 25 9 97 10 26 11
REMARK SMILES IDX 96 12 21 13 18 14 19 15 99 16 20 17 98 18 17 19 16 20 1 21
REMARK SMILES IDX 2 22 3 24 4 25 5 26 14 27 6 28 7 29 13 30 15 31 8 32 12 34
REMARK SMILES IDX 9 35 11 36 10 37 32 38 33 39 34 40 35 41 36 42 37 43 95 44
REMARK SMILES IDX 38 45 94 46 39 47 40 48 41 49 88 50 42 51 93 52 87 53 89 54
REMARK SMILES IDX 43 55 92 56 86 57 85 58 44 60 74 61 55 62 73 63 56 64 59 65
REMARK SMILES IDX 72 66 90 67 57 68 58 69 71 71 91 72 60 73 45 74 46 75 54 76
REMARK SMILES IDX 47 77 53 78 48 79 49 80 50 81 51 82 52 83 75 84 76 85 84 86
REMARK SMILES IDX 77 87 83 88 78 89 79 90 80 91 81 92 82 93 61 94 62 95 70 96
REMARK SMILES IDX 63 97 69 98 64 99 65 100 66 101 67 102 68 103
REMARK H PARENT 16 23 7 33 89 59 59 70
REMARK Flexibility Score: inf
ROOT
ATOM      1  C   UNL A   1      34.235  30.962  27.254  1.00  0.00     0.274 C 
ENDROOT
BRANCH   1   2
ATOM      2  O   UNL A   1      32.922  31.449  27.573  1.00  0.00    -0.462 OA
BRANCH   2   3
ATOM      3  C   UNL A   1      31.956  31.161  26.666  1.00  0.00     0.309 C 
ATOM      4  O   UNL A   1      31.055  31.923  26.334  1.00  0.00    -0.252 OA
BRANCH   3   5
ATOM      5  C   UNL A   1      32.072  29.756  26.128  1.00  0.00     0.103 C 
ATOM      6  C   UNL A   1      30.315  26.117  24.887  1.00  0.00     0.225 C 
ATOM      7  O   UNL A   1      29.624  25.599  25.774  1.00  0.00    -0.275 OA
ATOM      8  N   UNL A   1      31.088  27.219  25.174  1.00  0.00    -0.342 N 
ATOM      9  C   UNL A   1      31.773  27.283  26.464  1.00  0.00     0.120 C 
ATOM     10  C   UNL A   1      31.385  28.288  24.244  1.00  0.00     0.120 C 
ATOM     11  C   UNL A   1      31.673  28.654  27.114  1.00  0.00     0.037 C 
ATOM     12  C   UNL A   1      31.240  29.665  24.861  1.00  0.00     0.037 C 
BRANCH   6  13
ATOM     13  C   UNL A   1      30.497  25.338  23.564  1.00  0.00     0.078 C 
ATOM     14  C   UNL A   1      33.309  24.334  23.035  1.00  0.00     0.008 C 
ATOM     15  C   UNL A   1      32.410  23.786  24.155  1.00  0.00     0.006 C 
ATOM     16  C   UNL A   1      32.794  25.608  22.346  1.00  0.00     0.006 C 
ATOM     17  C   UNL A   1      30.922  23.900  23.871  1.00  0.00     0.014 C 
ATOM     18  C   UNL A   1      31.287  25.877  22.375  1.00  0.00     0.014 C 
BRANCH  14  19
ATOM     19  C   UNL A   1      34.736  24.493  23.611  1.00  0.00     0.119 C 
BRANCH  19  20
ATOM     20  N   UNL A   1      35.352  23.289  24.128  1.00  0.00    -0.354 N 
ATOM     21  O   UNL A   1      36.641  24.354  25.704  1.00  0.00    -0.273 OA
ATOM     22  C   UNL A   1      36.087  23.330  25.302  1.00  0.00     0.240 C 
ATOM     23  H   UNL A   1      35.248  22.437  23.644  1.00  0.00     0.163 HD
BRANCH  22  24
ATOM     24  C   UNL A   1      36.321  21.999  26.013  1.00  0.00     0.230 C 
BRANCH  24  25
ATOM     25  N   UNL A   1      35.804  20.805  25.352  1.00  0.00    -0.250 N 
ATOM     26  C   UNL A   1      36.740  19.850  24.985  1.00  0.00     0.329 A 
ATOM     27  C   UNL A   1      34.444  20.527  25.470  1.00  0.00     0.264 A 
ATOM     28  O   UNL A   1      37.956  20.032  25.018  1.00  0.00    -0.248 OA
ATOM     29  N   UNL A   1      36.257  18.636  24.583  1.00  0.00    -0.307 N 
ATOM     30  C   UNL A   1      33.963  19.293  24.834  1.00  0.00     0.064 A 
ATOM     31  O   UNL A   1      33.632  21.246  26.048  1.00  0.00    -0.268 OA
ATOM     32  C   UNL A   1      34.902  18.340  24.465  1.00  0.00     0.055 A 
ATOM     33  H   UNL A   1      36.908  17.929  24.364  1.00  0.00     0.171 HD
ATOM     34  C   UNL A   1      32.599  19.063  24.639  1.00  0.00     0.016 A 
ATOM     35  C   UNL A   1      34.486  17.107  23.970  1.00  0.00     0.027 A 
ATOM     36  C   UNL A   1      32.180  17.846  24.106  1.00  0.00     0.001 A 
ATOM     37  C   UNL A   1      33.121  16.862  23.793  1.00  0.00     0.002 A 
ENDBRANCH  24  25
ENDBRANCH  22  24
ENDBRANCH  19  20
ENDBRANCH  14  19
ENDBRANCH   6  13
ENDBRANCH   3   5
ENDBRANCH   2   3
ENDBRANCH   1   2
BRANCH   1  38
ATOM     38  C   UNL A   1      35.148  31.037  28.478  1.00  0.00     0.275 C 
BRANCH  38  39
ATOM     39  O   UNL A   1      35.783  29.774  28.746  1.00  0.00    -0.458 OA
BRANCH  39  40
ATOM     40  C   UNL A   1      36.507  29.701  29.890  1.00  0.00     0.338 C 
ATOM     41  O   UNL A   1      36.098  29.769  31.032  1.00  0.00    -0.246 OA
BRANCH  40  42
ATOM     42  C   UNL A   1      37.908  29.433  29.536  1.00  0.00     0.060 A 
ATOM     43  C   UNL A   1      38.315  29.537  28.208  1.00  0.00     0.016 A 
ATOM     44  C   UNL A   1      38.823  29.091  30.537  1.00  0.00     0.016 A 
ATOM     45  C   UNL A   1      39.635  29.238  27.876  1.00  0.00     0.010 A 
ATOM     46  C   UNL A   1      40.146  28.811  30.208  1.00  0.00     0.010 A 
ATOM     47  C   UNL A   1      40.556  28.858  28.870  1.00  0.00    -0.014 A 
BRANCH  47  48
ATOM     48  C   UNL A   1      41.947  28.502  28.504  1.00  0.00     0.031 A 
ATOM     49  C   UNL A   1      42.278  27.102  28.069  1.00  0.00     0.074 A 
ATOM     50  C   UNL A   1      42.900  29.452  28.546  1.00  0.00     0.049 A 
ATOM     51  N   UNL A   1      43.422  26.626  27.646  1.00  0.00    -0.248 NA
ATOM     52  C   UNL A   1      41.194  26.106  28.109  1.00  0.00     0.031 C 
ATOM     53  C   UNL A   1      42.678  30.839  28.959  1.00  0.00     0.029 A 
ATOM     54  N   UNL A   1      44.232  29.408  28.220  1.00  0.00    -0.354 N 
ATOM     55  C   UNL A   1      43.190  25.288  27.355  1.00  0.00     0.074 A 
ATOM     56  C   UNL A   1      41.816  25.007  27.702  1.00  0.00     0.031 C 
ATOM     57  C   UNL A   1      43.821  31.527  28.811  1.00  0.00     0.029 A 
ATOM     58  C   UNL A   1      44.868  30.623  28.340  1.00  0.00     0.049 A 
ATOM     59  H   UNL A   1      44.690  28.588  27.928  1.00  0.00     0.167 HD
ATOM     60  C   UNL A   1      44.044  24.386  26.818  1.00  0.00     0.031 A 
ATOM     61  C   UNL A   1      46.146  30.974  28.090  1.00  0.00     0.031 A 
ATOM     62  C   UNL A   1      45.411  24.686  26.477  1.00  0.00     0.049 A 
ATOM     63  C   UNL A   1      47.093  29.933  27.558  1.00  0.00     0.074 A 
ATOM     64  C   UNL A   1      46.350  23.848  25.903  1.00  0.00     0.029 A 
ATOM     65  N   UNL A   1      46.032  25.911  26.671  1.00  0.00    -0.354 N 
ATOM     66  N   UNL A   1      46.845  28.686  27.236  1.00  0.00    -0.248 NA
ATOM     67  C   UNL A   1      48.490  30.340  27.347  1.00  0.00     0.031 C 
ATOM     68  C   UNL A   1      47.559  24.537  25.827  1.00  0.00     0.029 A 
ATOM     69  C   UNL A   1      47.353  25.837  26.264  1.00  0.00     0.049 A 
ATOM     70  H   UNL A   1      45.600  26.713  27.043  1.00  0.00     0.167 HD
ATOM     71  C   UNL A   1      48.043  28.169  26.758  1.00  0.00     0.074 A 
ATOM     72  C   UNL A   1      49.015  29.240  26.820  1.00  0.00     0.031 C 
ATOM     73  C   UNL A   1      48.310  26.917  26.313  1.00  0.00     0.031 A 
BRANCH  60  74
ATOM     74  C   UNL A   1      43.545  22.993  26.527  1.00  0.00    -0.014 A 
ATOM     75  C   UNL A   1      42.734  22.326  27.464  1.00  0.00     0.010 A 
ATOM     76  C   UNL A   1      44.020  22.282  25.409  1.00  0.00     0.010 A 
ATOM     77  C   UNL A   1      42.455  20.964  27.322  1.00  0.00     0.020 A 
ATOM     78  C   UNL A   1      43.716  20.927  25.245  1.00  0.00     0.020 A 
ATOM     79  C   UNL A   1      42.962  20.270  26.220  1.00  0.00     0.054 A 
BRANCH  79  80
ATOM     80  S   UNL A   1      42.658  18.485  26.098  1.00  0.00     0.124 S 
ATOM     81  O   UNL A   1      41.236  18.436  25.770  1.00  0.00    -0.237 OA
ATOM     82  O   UNL A   1      43.567  18.082  25.028  1.00  0.00    -0.237 OA
ATOM     83  O   UNL A   1      43.010  17.984  27.425  1.00  0.00    -0.744 OA
ENDBRANCH  79  80
ENDBRANCH  60  74
BRANCH  61  84
ATOM     84  C   UNL A   1      46.569  32.389  28.292  1.00  0.00    -0.014 A 
ATOM     85  C   UNL A   1      47.115  32.807  29.521  1.00  0.00     0.010 A 
ATOM     86  C   UNL A   1      46.350  33.347  27.286  1.00  0.00     0.010 A 
ATOM     87  C   UNL A   1      47.375  34.159  29.762  1.00  0.00     0.020 A 
ATOM     88  C   UNL A   1      46.643  34.696  27.510  1.00  0.00     0.020 A 
ATOM     89  C   UNL A   1      47.124  35.098  28.759  1.00  0.00     0.054 A 
BRANCH  89  90
ATOM     90  S   UNL A   1      47.416  36.851  29.117  1.00  0.00     0.124 S 
ATOM     91  O   UNL A   1      46.974  36.950  30.506  1.00  0.00    -0.237 OA
ATOM     92  O   UNL A   1      48.854  36.983  28.904  1.00  0.00    -0.237 OA
ATOM     93  O   UNL A   1      46.577  37.545  28.144  1.00  0.00    -0.744 OA
ENDBRANCH  89  90
ENDBRANCH  61  84
BRANCH  73  94
ATOM     94  C   UNL A   1      49.707  26.598  25.844  1.00  0.00    -0.014 A 
ATOM     95  C   UNL A   1      50.666  26.147  26.771  1.00  0.00     0.010 A 
ATOM     96  C   UNL A   1      50.118  26.934  24.542  1.00  0.00     0.010 A 
ATOM     97  C   UNL A   1      52.019  26.110  26.431  1.00  0.00     0.020 A 
ATOM     98  C   UNL A   1      51.468  26.863  24.187  1.00  0.00     0.020 A 
ATOM     99  C   UNL A   1      52.414  26.490  25.145  1.00  0.00     0.054 A 
BRANCH  99 100
ATOM    100  S   UNL A   1      54.185  26.542  24.756  1.00  0.00     0.124 S 
ATOM    101  O   UNL A   1      54.717  27.348  25.850  1.00  0.00    -0.237 OA
ATOM    102  O   UNL A   1      54.557  25.130  24.773  1.00  0.00    -0.237 OA
ATOM    103  O   UNL A   1      54.228  27.175  23.438  1.00  0.00    -0.744 OA
ENDBRANCH  99 100
ENDBRANCH  73  94
ENDBRANCH  47  48
ENDBRANCH  40  42
ENDBRANCH  39  40
ENDBRANCH  38  39
ENDBRANCH   1  38
TORSDOF 19
ENDMDL
