MODEL 1
REMARK VINA RESULT:      -8.8      0.000      0.000
REMARK SMILES [NH3+][C@H](CC[S@@](=O)[O-])C(=O)OCCOC(=O)c1ccc(-c2c3nc(c(-c4ccc(S(=O)(=O)[O-])cc4)c4ccc([nH]4)c(-c4ccc(S(=O)(=O)[O-])cc4)c4nc(c(-c5ccc(S(=O)(=O)[O-])cc5)c5ccc2[nH]5)C=C4)C=C3)cc1
REMARK SMILES IDX 11 1 10 2 8 3 9 4 2 5 1 6 3 10 4 11 5 12 6 13 7 14 12 15
REMARK SMILES IDX 13 16 14 17 15 18 16 19 17 20 75 21 18 22 74 23 19 24 20 25
REMARK SMILES IDX 21 26 68 27 22 28 73 29 67 30 69 31 23 32 72 33 66 34 65 35
REMARK SMILES IDX 24 37 54 38 35 39 53 40 36 41 39 42 52 43 70 44 37 45 38 46
REMARK SMILES IDX 51 48 71 49 40 50 25 51 26 52 34 53 27 54 33 55 28 56 29 57
REMARK SMILES IDX 30 58 31 59 32 60 55 61 56 62 64 63 57 64 63 65 58 66 59 67
REMARK SMILES IDX 60 68 61 69 62 70 41 71 42 72 50 73 43 74 49 75 44 76 45 77
REMARK SMILES IDX 46 78 47 79 48 80
REMARK H PARENT 1 7 1 8 1 9 69 36 39 47
REMARK Flexibility Score: inf
ROOT
ATOM      1  C   UNL A   1      33.397  36.568  29.567  1.00  0.00     0.274 C 
ENDROOT
BRANCH   1   2
ATOM      2  O   UNL A   1      32.558  37.056  30.631  1.00  0.00    -0.458 OA
BRANCH   2   3
ATOM      3  C   UNL A   1      32.637  36.369  31.808  1.00  0.00     0.364 C 
ATOM      4  O   UNL A   1      31.834  35.515  32.167  1.00  0.00    -0.245 OA
BRANCH   3   5
ATOM      5  C   UNL A   1      33.834  36.819  32.669  1.00  0.00     0.292 C 
BRANCH   5   6
ATOM      6  N   UNL A   1      34.183  38.210  32.317  1.00  0.00    -0.346 N 
ATOM      7  H   UNL A   1      33.337  38.717  32.056  1.00  0.00     0.345 HD
ATOM      8  H   UNL A   1      34.835  38.209  31.533  1.00  0.00     0.345 HD
ATOM      9  H   UNL A   1      34.618  38.665  33.120  1.00  0.00     0.345 HD
ENDBRANCH   5   6
BRANCH   5  10
ATOM     10  C   UNL A   1      35.031  35.854  32.565  1.00  0.00     0.090 C 
BRANCH  10  11
ATOM     11  C   UNL A   1      35.244  34.908  33.744  1.00  0.00     0.096 C 
BRANCH  11  12
ATOM     12  S   UNL A   1      34.376  33.315  33.580  1.00  0.00    -0.055 S 
ATOM     13  O   UNL A   1      34.111  33.091  32.123  1.00  0.00    -0.275 OA
ATOM     14  O   UNL A   1      35.669  32.425  33.894  1.00  0.00    -0.772 OA
ENDBRANCH  11  12
ENDBRANCH  10  11
ENDBRANCH   5  10
ENDBRANCH   3   5
ENDBRANCH   2   3
ENDBRANCH   1   2
BRANCH   1  15
ATOM     15  C   UNL A   1      32.920  35.222  29.009  1.00  0.00     0.275 C 
BRANCH  15  16
ATOM     16  O   UNL A   1      33.878  34.169  29.222  1.00  0.00    -0.458 OA
BRANCH  16  17
ATOM     17  C   UNL A   1      34.796  34.032  28.236  1.00  0.00     0.338 C 
ATOM     18  O   UNL A   1      34.740  34.519  27.119  1.00  0.00    -0.246 OA
BRANCH  17  19
ATOM     19  C   UNL A   1      35.977  33.295  28.720  1.00  0.00     0.060 A 
ATOM     20  C   UNL A   1      35.768  32.043  29.308  1.00  0.00     0.016 A 
ATOM     21  C   UNL A   1      37.253  33.861  28.696  1.00  0.00     0.016 A 
ATOM     22  C   UNL A   1      36.824  31.370  29.915  1.00  0.00     0.010 A 
ATOM     23  C   UNL A   1      38.315  33.182  29.303  1.00  0.00     0.010 A 
ATOM     24  C   UNL A   1      38.099  31.948  29.943  1.00  0.00    -0.014 A 
BRANCH  24  25
ATOM     25  C   UNL A   1      39.174  31.299  30.733  1.00  0.00     0.031 A 
ATOM     26  C   UNL A   1      39.465  31.785  32.125  1.00  0.00     0.074 A 
ATOM     27  C   UNL A   1      39.849  30.252  30.227  1.00  0.00     0.049 A 
ATOM     28  N   UNL A   1      40.353  31.352  32.983  1.00  0.00    -0.248 NA
ATOM     29  C   UNL A   1      38.648  32.907  32.616  1.00  0.00     0.031 C 
ATOM     30  C   UNL A   1      39.623  29.656  28.909  1.00  0.00     0.029 A 
ATOM     31  N   UNL A   1      40.856  29.494  30.770  1.00  0.00    -0.354 N 
ATOM     32  C   UNL A   1      40.217  32.160  34.107  1.00  0.00     0.074 A 
ATOM     33  C   UNL A   1      39.174  33.119  33.814  1.00  0.00     0.031 C 
ATOM     34  C   UNL A   1      40.459  28.616  28.752  1.00  0.00     0.029 A 
ATOM     35  C   UNL A   1      41.300  28.494  29.941  1.00  0.00     0.049 A 
ATOM     36  H   UNL A   1      41.225  29.654  31.669  1.00  0.00     0.167 HD
ATOM     37  C   UNL A   1      40.897  32.106  35.278  1.00  0.00     0.031 A 
ATOM     38  C   UNL A   1      42.279  27.585  30.116  1.00  0.00     0.031 A 
ATOM     39  C   UNL A   1      41.938  31.155  35.567  1.00  0.00     0.049 A 
ATOM     40  C   UNL A   1      43.054  27.575  31.406  1.00  0.00     0.074 A 
ATOM     41  C   UNL A   1      42.679  31.014  36.726  1.00  0.00     0.029 A 
ATOM     42  N   UNL A   1      42.385  30.182  34.685  1.00  0.00    -0.354 N 
ATOM     43  N   UNL A   1      42.909  28.342  32.461  1.00  0.00    -0.248 NA
ATOM     44  C   UNL A   1      44.119  26.571  31.530  1.00  0.00     0.031 C 
ATOM     45  C   UNL A   1      43.606  29.983  36.530  1.00  0.00     0.029 A 
ATOM     46  C   UNL A   1      43.406  29.449  35.267  1.00  0.00     0.049 A 
ATOM     47  H   UNL A   1      42.030  30.034  33.779  1.00  0.00     0.167 HD
ATOM     48  C   UNL A   1      43.844  27.891  33.386  1.00  0.00     0.074 A 
ATOM     49  C   UNL A   1      44.545  26.784  32.768  1.00  0.00     0.031 C 
ATOM     50  C   UNL A   1      44.094  28.350  34.639  1.00  0.00     0.031 A 
BRANCH  37  51
ATOM     51  C   UNL A   1      40.563  33.148  36.312  1.00  0.00    -0.014 A 
ATOM     52  C   UNL A   1      41.286  34.351  36.401  1.00  0.00     0.010 A 
ATOM     53  C   UNL A   1      39.509  32.914  37.214  1.00  0.00     0.010 A 
ATOM     54  C   UNL A   1      40.999  35.276  37.409  1.00  0.00     0.020 A 
ATOM     55  C   UNL A   1      39.202  33.847  38.208  1.00  0.00     0.020 A 
ATOM     56  C   UNL A   1      39.967  35.012  38.314  1.00  0.00     0.054 A 
BRANCH  56  57
ATOM     57  S   UNL A   1      39.625  36.214  39.629  1.00  0.00     0.124 S 
ATOM     58  O   UNL A   1      40.960  36.447  40.176  1.00  0.00    -0.237 OA
ATOM     59  O   UNL A   1      39.042  37.336  38.898  1.00  0.00    -0.237 OA
ATOM     60  O   UNL A   1      38.703  35.505  40.514  1.00  0.00    -0.744 OA
ENDBRANCH  56  57
ENDBRANCH  37  51
BRANCH  38  61
ATOM     61  C   UNL A   1      42.574  26.602  29.040  1.00  0.00    -0.014 A 
ATOM     62  C   UNL A   1      43.615  26.838  28.124  1.00  0.00     0.010 A 
ATOM     63  C   UNL A   1      41.832  25.411  28.942  1.00  0.00     0.010 A 
ATOM     64  C   UNL A   1      43.904  25.903  27.126  1.00  0.00     0.020 A 
ATOM     65  C   UNL A   1      42.133  24.464  27.960  1.00  0.00     0.020 A 
ATOM     66  C   UNL A   1      43.164  24.720  27.053  1.00  0.00     0.054 A 
BRANCH  66  67
ATOM     67  S   UNL A   1      43.602  23.490  25.793  1.00  0.00     0.124 S 
ATOM     68  O   UNL A   1      44.610  22.692  26.484  1.00  0.00    -0.237 OA
ATOM     69  O   UNL A   1      42.327  22.822  25.545  1.00  0.00    -0.237 OA
ATOM     70  O   UNL A   1      44.097  24.301  24.682  1.00  0.00    -0.744 OA
ENDBRANCH  66  67
ENDBRANCH  38  61
BRANCH  50  71
ATOM     71  C   UNL A   1      45.140  27.624  35.442  1.00  0.00    -0.014 A 
ATOM     72  C   UNL A   1      46.498  27.981  35.371  1.00  0.00     0.010 A 
ATOM     73  C   UNL A   1      44.747  26.592  36.314  1.00  0.00     0.010 A 
ATOM     74  C   UNL A   1      47.449  27.292  36.131  1.00  0.00     0.020 A 
ATOM     75  C   UNL A   1      45.691  25.918  37.092  1.00  0.00     0.020 A 
ATOM     76  C   UNL A   1      47.040  26.262  36.982  1.00  0.00     0.054 A 
BRANCH  76  77
ATOM     77  S   UNL A   1      48.286  25.402  37.982  1.00  0.00     0.124 S 
ATOM     78  O   UNL A   1      47.798  25.635  39.339  1.00  0.00    -0.237 OA
ATOM     79  O   UNL A   1      48.187  24.023  37.507  1.00  0.00    -0.237 OA
ATOM     80  O   UNL A   1      49.532  26.084  37.642  1.00  0.00    -0.744 OA
ENDBRANCH  76  77
ENDBRANCH  50  71
ENDBRANCH  24  25
ENDBRANCH  17  19
ENDBRANCH  16  17
ENDBRANCH  15  16
ENDBRANCH   1  15
TORSDOF 18
ENDMDL
MODEL 2
REMARK VINA RESULT:      -8.4      2.605     11.862
REMARK SMILES [NH3+][C@H](CC[S@@](=O)[O-])C(=O)OCCOC(=O)c1ccc(-c2c3nc(c(-c4ccc(S(=O)(=O)[O-])cc4)c4ccc([nH]4)c(-c4ccc(S(=O)(=O)[O-])cc4)c4nc(c(-c5ccc(S(=O)(=O)[O-])cc5)c5ccc2[nH]5)C=C4)C=C3)cc1
REMARK SMILES IDX 11 1 10 2 8 3 9 4 2 5 1 6 3 10 4 11 5 12 6 13 7 14 12 15
REMARK SMILES IDX 13 16 14 17 15 18 16 19 17 20 75 21 18 22 74 23 19 24 20 25
REMARK SMILES IDX 21 26 68 27 22 28 73 29 67 30 69 31 23 32 72 33 66 34 65 35
REMARK SMILES IDX 24 37 54 38 35 39 53 40 36 41 39 42 52 43 70 44 37 45 38 46
REMARK SMILES IDX 51 48 71 49 40 50 25 51 26 52 34 53 27 54 33 55 28 56 29 57
REMARK SMILES IDX 30 58 31 59 32 60 55 61 56 62 64 63 57 64 63 65 58 66 59 67
REMARK SMILES IDX 60 68 61 69 62 70 41 71 42 72 50 73 43 74 49 75 44 76 45 77
REMARK SMILES IDX 46 78 47 79 48 80
REMARK H PARENT 1 7 1 8 1 9 69 36 39 47
REMARK Flexibility Score: inf
ROOT
ATOM      1  C   UNL A   1      40.881  21.577  27.049  1.00  0.00     0.274 C 
ENDROOT
BRANCH   1   2
ATOM      2  O   UNL A   1      41.931  20.596  26.943  1.00  0.00    -0.458 OA
BRANCH   2   3
ATOM      3  C   UNL A   1      41.629  19.486  26.206  1.00  0.00     0.364 C 
ATOM      4  O   UNL A   1      40.539  19.276  25.686  1.00  0.00    -0.245 OA
BRANCH   3   5
ATOM      5  C   UNL A   1      42.807  18.494  26.135  1.00  0.00     0.292 C 
BRANCH   5   6
ATOM      6  N   UNL A   1      42.727  17.570  27.285  1.00  0.00    -0.346 N 
ATOM      7  H   UNL A   1      41.986  17.876  27.916  1.00  0.00     0.345 HD
ATOM      8  H   UNL A   1      43.618  17.568  27.781  1.00  0.00     0.345 HD
ATOM      9  H   UNL A   1      42.522  16.628  26.951  1.00  0.00     0.345 HD
ENDBRANCH   5   6
BRANCH   5  10
ATOM     10  C   UNL A   1      44.170  19.203  26.026  1.00  0.00     0.090 C 
BRANCH  10  11
ATOM     11  C   UNL A   1      44.676  19.489  24.614  1.00  0.00     0.096 C 
BRANCH  11  12
ATOM     12  S   UNL A   1      46.207  20.473  24.563  1.00  0.00    -0.055 S 
ATOM     13  O   UNL A   1      46.154  21.453  25.695  1.00  0.00    -0.275 OA
ATOM     14  O   UNL A   1      47.144  19.291  25.099  1.00  0.00    -0.772 OA
ENDBRANCH  11  12
ENDBRANCH  10  11
ENDBRANCH   5  10
ENDBRANCH   3   5
ENDBRANCH   2   3
ENDBRANCH   1   2
BRANCH   1  15
ATOM     15  C   UNL A   1      40.997  22.683  25.992  1.00  0.00     0.275 C 
BRANCH  15  16
ATOM     16  O   UNL A   1      40.501  23.948  26.465  1.00  0.00    -0.458 OA
BRANCH  16  17
ATOM     17  C   UNL A   1      41.359  24.984  26.315  1.00  0.00     0.338 C 
ATOM     18  O   UNL A   1      41.964  25.284  25.299  1.00  0.00    -0.246 OA
BRANCH  17  19
ATOM     19  C   UNL A   1      41.393  25.816  27.531  1.00  0.00     0.060 A 
ATOM     20  C   UNL A   1      40.427  25.574  28.513  1.00  0.00     0.016 A 
ATOM     21  C   UNL A   1      42.285  26.883  27.663  1.00  0.00     0.016 A 
ATOM     22  C   UNL A   1      40.318  26.423  29.611  1.00  0.00     0.010 A 
ATOM     23  C   UNL A   1      42.177  27.732  28.769  1.00  0.00     0.010 A 
ATOM     24  C   UNL A   1      41.172  27.525  29.731  1.00  0.00    -0.014 A 
BRANCH  24  25
ATOM     25  C   UNL A   1      40.938  28.511  30.815  1.00  0.00     0.031 A 
ATOM     26  C   UNL A   1      41.820  28.496  32.032  1.00  0.00     0.074 A 
ATOM     27  C   UNL A   1      39.976  29.442  30.688  1.00  0.00     0.049 A 
ATOM     28  N   UNL A   1      41.790  29.272  33.085  1.00  0.00    -0.248 NA
ATOM     29  C   UNL A   1      42.877  27.472  32.068  1.00  0.00     0.031 C 
ATOM     30  C   UNL A   1      39.089  29.590  29.534  1.00  0.00     0.029 A 
ATOM     31  N   UNL A   1      39.593  30.449  31.538  1.00  0.00    -0.354 N 
ATOM     32  C   UNL A   1      42.807  28.819  33.918  1.00  0.00     0.074 A 
ATOM     33  C   UNL A   1      43.423  27.689  33.255  1.00  0.00     0.031 C 
ATOM     34  C   UNL A   1      38.274  30.637  29.742  1.00  0.00     0.029 A 
ATOM     35  C   UNL A   1      38.558  31.211  31.057  1.00  0.00     0.049 A 
ATOM     36  H   UNL A   1      40.020  30.609  32.411  1.00  0.00     0.167 HD
ATOM     37  C   UNL A   1      43.195  29.301  35.123  1.00  0.00     0.031 A 
ATOM     38  C   UNL A   1      37.906  32.249  31.614  1.00  0.00     0.031 A 
ATOM     39  C   UNL A   1      42.578  30.421  35.784  1.00  0.00     0.049 A 
ATOM     40  C   UNL A   1      38.322  32.737  32.975  1.00  0.00     0.074 A 
ATOM     41  C   UNL A   1      42.905  30.991  37.001  1.00  0.00     0.029 A 
ATOM     42  N   UNL A   1      41.506  31.142  35.280  1.00  0.00    -0.354 N 
ATOM     43  N   UNL A   1      39.289  32.302  33.747  1.00  0.00    -0.248 NA
ATOM     44  C   UNL A   1      37.562  33.863  33.536  1.00  0.00     0.031 C 
ATOM     45  C   UNL A   1      42.001  32.030  37.254  1.00  0.00     0.029 A 
ATOM     46  C   UNL A   1      41.145  32.140  36.170  1.00  0.00     0.049 A 
ATOM     47  H   UNL A   1      41.066  30.971  34.417  1.00  0.00     0.167 HD
ATOM     48  C   UNL A   1      39.274  33.121  34.870  1.00  0.00     0.074 A 
ATOM     49  C   UNL A   1      38.205  34.080  34.675  1.00  0.00     0.031 C 
ATOM     50  C   UNL A   1      40.079  33.086  35.962  1.00  0.00     0.031 A 
BRANCH  37  51
ATOM     51  C   UNL A   1      44.311  28.575  35.824  1.00  0.00    -0.014 A 
ATOM     52  C   UNL A   1      45.652  28.732  35.427  1.00  0.00     0.010 A 
ATOM     53  C   UNL A   1      44.011  27.714  36.897  1.00  0.00     0.010 A 
ATOM     54  C   UNL A   1      46.665  27.998  36.051  1.00  0.00     0.020 A 
ATOM     55  C   UNL A   1      45.024  26.998  37.540  1.00  0.00     0.020 A 
ATOM     56  C   UNL A   1      46.343  27.126  37.095  1.00  0.00     0.054 A 
BRANCH  56  57
ATOM     57  S   UNL A   1      47.669  26.167  37.877  1.00  0.00     0.124 S 
ATOM     58  O   UNL A   1      48.161  27.102  38.885  1.00  0.00    -0.237 OA
ATOM     59  O   UNL A   1      46.962  25.000  38.396  1.00  0.00    -0.237 OA
ATOM     60  O   UNL A   1      48.591  25.893  36.777  1.00  0.00    -0.744 OA
ENDBRANCH  56  57
ENDBRANCH  37  51
BRANCH  38  61
ATOM     61  C   UNL A   1      36.793  32.904  30.875  1.00  0.00    -0.014 A 
ATOM     62  C   UNL A   1      35.458  32.537  31.125  1.00  0.00     0.010 A 
ATOM     63  C   UNL A   1      37.060  33.917  29.937  1.00  0.00     0.010 A 
ATOM     64  C   UNL A   1      34.413  33.167  30.444  1.00  0.00     0.020 A 
ATOM     65  C   UNL A   1      36.016  34.565  29.271  1.00  0.00     0.020 A 
ATOM     66  C   UNL A   1      34.698  34.180  29.526  1.00  0.00     0.054 A 
BRANCH  66  67
ATOM     67  S   UNL A   1      33.322  35.032  28.706  1.00  0.00     0.124 S 
ATOM     68  O   UNL A   1      32.706  33.951  27.942  1.00  0.00    -0.237 OA
ATOM     69  O   UNL A   1      32.542  35.534  29.834  1.00  0.00    -0.237 OA
ATOM     70  O   UNL A   1      33.984  36.064  27.910  1.00  0.00    -0.744 OA
ENDBRANCH  66  67
ENDBRANCH  38  61
BRANCH  50  71
ATOM     71  C   UNL A   1      39.863  34.144  37.011  1.00  0.00    -0.014 A 
ATOM     72  C   UNL A   1      39.103  33.888  38.165  1.00  0.00     0.010 A 
ATOM     73  C   UNL A   1      40.468  35.405  36.853  1.00  0.00     0.010 A 
ATOM     74  C   UNL A   1      38.921  34.889  39.126  1.00  0.00     0.020 A 
ATOM     75  C   UNL A   1      40.308  36.398  37.823  1.00  0.00     0.020 A 
ATOM     76  C   UNL A   1      39.520  36.138  38.945  1.00  0.00     0.054 A 
BRANCH  76  77
ATOM     77  S   UNL A   1      39.297  37.412  40.218  1.00  0.00     0.124 S 
ATOM     78  O   UNL A   1      40.672  37.841  40.461  1.00  0.00    -0.237 OA
ATOM     79  O   UNL A   1      38.443  38.391  39.550  1.00  0.00    -0.237 OA
ATOM     80  O   UNL A   1      38.665  36.691  41.321  1.00  0.00    -0.744 OA
ENDBRANCH  76  77
ENDBRANCH  50  71
ENDBRANCH  24  25
ENDBRANCH  17  19
ENDBRANCH  16  17
ENDBRANCH  15  16
ENDBRANCH   1  15
TORSDOF 18
ENDMDL
MODEL 3
REMARK VINA RESULT:      -8.4      2.434     11.826
REMARK SMILES [NH3+][C@H](CC[S@@](=O)[O-])C(=O)OCCOC(=O)c1ccc(-c2c3nc(c(-c4ccc(S(=O)(=O)[O-])cc4)c4ccc([nH]4)c(-c4ccc(S(=O)(=O)[O-])cc4)c4nc(c(-c5ccc(S(=O)(=O)[O-])cc5)c5ccc2[nH]5)C=C4)C=C3)cc1
REMARK SMILES IDX 11 1 10 2 8 3 9 4 2 5 1 6 3 10 4 11 5 12 6 13 7 14 12 15
REMARK SMILES IDX 13 16 14 17 15 18 16 19 17 20 75 21 18 22 74 23 19 24 20 25
REMARK SMILES IDX 21 26 68 27 22 28 73 29 67 30 69 31 23 32 72 33 66 34 65 35
REMARK SMILES IDX 24 37 54 38 35 39 53 40 36 41 39 42 52 43 70 44 37 45 38 46
REMARK SMILES IDX 51 48 71 49 40 50 25 51 26 52 34 53 27 54 33 55 28 56 29 57
REMARK SMILES IDX 30 58 31 59 32 60 55 61 56 62 64 63 57 64 63 65 58 66 59 67
REMARK SMILES IDX 60 68 61 69 62 70 41 71 42 72 50 73 43 74 49 75 44 76 45 77
REMARK SMILES IDX 46 78 47 79 48 80
REMARK H PARENT 1 7 1 8 1 9 69 36 39 47
REMARK Flexibility Score: inf
ROOT
ATOM      1  C   UNL A   1      43.031  24.932  27.052  1.00  0.00     0.274 C 
ENDROOT
BRANCH   1   2
ATOM      2  O   UNL A   1      43.629  23.624  26.975  1.00  0.00    -0.458 OA
BRANCH   2   3
ATOM      3  C   UNL A   1      44.987  23.587  27.120  1.00  0.00     0.364 C 
ATOM      4  O   UNL A   1      45.594  24.045  28.081  1.00  0.00    -0.245 OA
BRANCH   3   5
ATOM      5  C   UNL A   1      45.686  22.936  25.909  1.00  0.00     0.292 C 
BRANCH   5   6
ATOM      6  N   UNL A   1      45.223  23.599  24.674  1.00  0.00    -0.346 N 
ATOM      7  H   UNL A   1      46.018  23.760  24.055  1.00  0.00     0.345 HD
ATOM      8  H   UNL A   1      44.788  24.491  24.909  1.00  0.00     0.345 HD
ATOM      9  H   UNL A   1      44.542  23.003  24.203  1.00  0.00     0.345 HD
ENDBRANCH   5   6
BRANCH   5  10
ATOM     10  C   UNL A   1      45.507  21.407  25.877  1.00  0.00     0.090 C 
BRANCH  10  11
ATOM     11  C   UNL A   1      46.160  20.671  24.709  1.00  0.00     0.096 C 
BRANCH  11  12
ATOM     12  S   UNL A   1      45.266  19.172  24.188  1.00  0.00    -0.055 S 
ATOM     13  O   UNL A   1      45.522  18.112  25.215  1.00  0.00    -0.275 OA
ATOM     14  O   UNL A   1      43.817  19.745  24.555  1.00  0.00    -0.772 OA
ENDBRANCH  11  12
ENDBRANCH  10  11
ENDBRANCH   5  10
ENDBRANCH   3   5
ENDBRANCH   2   3
ENDBRANCH   1   2
BRANCH   1  15
ATOM     15  C   UNL A   1      42.250  25.300  25.785  1.00  0.00     0.275 C 
BRANCH  15  16
ATOM     16  O   UNL A   1      41.259  26.315  26.026  1.00  0.00    -0.458 OA
BRANCH  16  17
ATOM     17  C   UNL A   1      40.183  25.897  26.734  1.00  0.00     0.338 C 
ATOM     18  O   UNL A   1      39.534  24.882  26.538  1.00  0.00    -0.246 OA
BRANCH  17  19
ATOM     19  C   UNL A   1      39.943  26.778  27.891  1.00  0.00     0.060 A 
ATOM     20  C   UNL A   1      40.527  28.049  27.874  1.00  0.00     0.016 A 
ATOM     21  C   UNL A   1      39.250  26.333  29.019  1.00  0.00     0.016 A 
ATOM     22  C   UNL A   1      40.459  28.865  28.999  1.00  0.00     0.010 A 
ATOM     23  C   UNL A   1      39.179  27.156  30.148  1.00  0.00     0.010 A 
ATOM     24  C   UNL A   1      39.810  28.413  30.154  1.00  0.00    -0.014 A 
BRANCH  24  25
ATOM     25  C   UNL A   1      39.888  29.223  31.395  1.00  0.00     0.031 A 
ATOM     26  C   UNL A   1      41.033  29.012  32.346  1.00  0.00     0.074 A 
ATOM     27  C   UNL A   1      38.968  30.172  31.643  1.00  0.00     0.049 A 
ATOM     28  N   UNL A   1      41.290  29.618  33.476  1.00  0.00    -0.248 NA
ATOM     29  C   UNL A   1      42.018  27.984  31.973  1.00  0.00     0.031 C 
ATOM     30  C   UNL A   1      37.839  30.505  30.773  1.00  0.00     0.029 A 
ATOM     31  N   UNL A   1      38.846  31.040  32.699  1.00  0.00    -0.354 N 
ATOM     32  C   UNL A   1      42.455  29.032  33.961  1.00  0.00     0.074 A 
ATOM     33  C   UNL A   1      42.841  28.011  33.011  1.00  0.00     0.031 C 
ATOM     34  C   UNL A   1      37.147  31.516  31.325  1.00  0.00     0.029 A 
ATOM     35  C   UNL A   1      37.763  31.878  32.600  1.00  0.00     0.049 A 
ATOM     36  H   UNL A   1      39.476  31.060  33.456  1.00  0.00     0.167 HD
ATOM     37  C   UNL A   1      43.141  29.319  35.094  1.00  0.00     0.031 A 
ATOM     38  C   UNL A   1      37.312  32.825  33.445  1.00  0.00     0.031 A 
ATOM     39  C   UNL A   1      42.753  30.330  36.041  1.00  0.00     0.049 A 
ATOM     40  C   UNL A   1      38.063  33.093  34.721  1.00  0.00     0.074 A 
ATOM     41  C   UNL A   1      43.386  30.702  37.213  1.00  0.00     0.029 A 
ATOM     42  N   UNL A   1      41.626  31.131  35.924  1.00  0.00    -0.354 N 
ATOM     43  N   UNL A   1      39.165  32.535  35.162  1.00  0.00    -0.248 NA
ATOM     44  C   UNL A   1      37.512  34.127  35.609  1.00  0.00     0.031 C 
ATOM     45  C   UNL A   1      42.619  31.699  37.828  1.00  0.00     0.029 A 
ATOM     46  C   UNL A   1      41.536  31.983  37.012  1.00  0.00     0.049 A 
ATOM     47  H   UNL A   1      40.986  31.099  35.178  1.00  0.00     0.167 HD
ATOM     48  C   UNL A   1      39.457  33.171  36.363  1.00  0.00     0.074 A 
ATOM     49  C   UNL A   1      38.418  34.159  36.577  1.00  0.00     0.031 C 
ATOM     50  C   UNL A   1      40.496  32.961  37.210  1.00  0.00     0.031 A 
BRANCH  37  51
ATOM     51  C   UNL A   1      44.356  28.482  35.389  1.00  0.00    -0.014 A 
ATOM     52  C   UNL A   1      45.638  28.872  34.959  1.00  0.00     0.010 A 
ATOM     53  C   UNL A   1      44.212  27.279  36.105  1.00  0.00     0.010 A 
ATOM     54  C   UNL A   1      46.743  28.048  35.188  1.00  0.00     0.020 A 
ATOM     55  C   UNL A   1      45.318  26.464  36.358  1.00  0.00     0.020 A 
ATOM     56  C   UNL A   1      46.574  26.842  35.876  1.00  0.00     0.054 A 
BRANCH  56  57
ATOM     57  S   UNL A   1      48.016  25.776  36.144  1.00  0.00     0.124 S 
ATOM     58  O   UNL A   1      48.183  25.161  34.829  1.00  0.00    -0.237 OA
ATOM     59  O   UNL A   1      49.056  26.729  36.526  1.00  0.00    -0.237 OA
ATOM     60  O   UNL A   1      47.585  24.871  37.207  1.00  0.00    -0.744 OA
ENDBRANCH  56  57
ENDBRANCH  37  51
BRANCH  38  61
ATOM     61  C   UNL A   1      36.087  33.596  33.103  1.00  0.00    -0.014 A 
ATOM     62  C   UNL A   1      34.812  33.047  33.328  1.00  0.00     0.010 A 
ATOM     63  C   UNL A   1      36.189  34.896  32.574  1.00  0.00     0.010 A 
ATOM     64  C   UNL A   1      33.662  33.781  33.025  1.00  0.00     0.020 A 
ATOM     65  C   UNL A   1      35.042  35.641  32.291  1.00  0.00     0.020 A 
ATOM     66  C   UNL A   1      33.785  35.075  32.513  1.00  0.00     0.054 A 
BRANCH  66  67
ATOM     67  S   UNL A   1      32.279  36.035  32.192  1.00  0.00     0.124 S 
ATOM     68  O   UNL A   1      31.232  35.109  32.611  1.00  0.00    -0.237 OA
ATOM     69  O   UNL A   1      32.464  37.209  33.042  1.00  0.00    -0.237 OA
ATOM     70  O   UNL A   1      32.343  36.301  30.756  1.00  0.00    -0.744 OA
ENDBRANCH  66  67
ENDBRANCH  38  61
BRANCH  50  71
ATOM     71  C   UNL A   1      40.587  33.847  38.424  1.00  0.00    -0.014 A 
ATOM     72  C   UNL A   1      39.995  33.481  39.645  1.00  0.00     0.010 A 
ATOM     73  C   UNL A   1      41.312  35.051  38.346  1.00  0.00     0.010 A 
ATOM     74  C   UNL A   1      40.097  34.322  40.758  1.00  0.00     0.020 A 
ATOM     75  C   UNL A   1      41.436  35.881  39.463  1.00  0.00     0.020 A 
ATOM     76  C   UNL A   1      40.813  35.519  40.658  1.00  0.00     0.054 A 
BRANCH  76  77
ATOM     77  S   UNL A   1      40.959  36.581  42.122  1.00  0.00     0.124 S 
ATOM     78  O   UNL A   1      42.181  37.326  41.834  1.00  0.00    -0.237 OA
ATOM     79  O   UNL A   1      39.724  37.360  42.082  1.00  0.00    -0.237 OA
ATOM     80  O   UNL A   1      41.054  35.631  43.229  1.00  0.00    -0.744 OA
ENDBRANCH  76  77
ENDBRANCH  50  71
ENDBRANCH  24  25
ENDBRANCH  17  19
ENDBRANCH  16  17
ENDBRANCH  15  16
ENDBRANCH   1  15
TORSDOF 18
ENDMDL
