MODEL 1
REMARK VINA RESULT:     -12.1      0.000      0.000
REMARK SMILES Cc1cccc(Nc2nc(C)c(CCO)c(OCC(=O)OCCOC(=O)c3ccc(-c4c5nc(c(-c6ccc(S(=O)(=O)[O-])cc6)c6ccc([nH]6)c(-c6ccc(S(=O)(=O)[O-])cc6)c6nc(c(-c7ccc(S(=O)(=O)[O-])cc7)c7ccc4[nH]7)C=C6)C=C5)cc3)n2)c1
REMARK SMILES IDX 22 1 21 2 19 3 20 4 18 5 17 6 16 7 8 8 9 9 87 10 10 11 11 12
REMARK SMILES IDX 12 13 7 14 6 16 1 17 2 18 3 19 88 20 4 21 5 22 13 23 14 24
REMARK SMILES IDX 15 25 23 27 24 28 25 29 26 30 27 31 28 32 86 33 29 34 85 35
REMARK SMILES IDX 30 36 31 37 32 38 79 39 33 40 84 41 78 42 80 43 34 44 83 45
REMARK SMILES IDX 77 46 76 47 35 49 65 50 46 51 64 52 47 53 50 54 63 55 81 56
REMARK SMILES IDX 48 57 49 58 62 60 82 61 51 62 36 63 37 64 45 65 38 66 44 67
REMARK SMILES IDX 39 68 40 69 41 70 42 71 43 72 66 73 67 74 75 75 68 76 74 77
REMARK SMILES IDX 69 78 70 79 71 80 72 81 73 82 52 83 53 84 61 85 54 86 60 87
REMARK SMILES IDX 55 88 56 89 57 90 58 91 59 92
REMARK H PARENT 7 15 15 26 80 48 50 59
REMARK Flexibility Score: inf
ROOT
ATOM      1  C   UNL A   1      34.043  27.942  26.356  1.00  0.00     0.274 C 
ENDROOT
BRANCH   1   2
ATOM      2  O   UNL A   1      32.691  27.772  25.889  1.00  0.00    -0.460 OA
BRANCH   2   3
ATOM      3  C   UNL A   1      31.871  27.099  26.739  1.00  0.00     0.344 C 
ATOM      4  O   UNL A   1      31.378  27.597  27.748  1.00  0.00    -0.248 OA
BRANCH   3   5
ATOM      5  C   UNL A   1      31.657  25.626  26.359  1.00  0.00     0.353 C 
BRANCH   5   6
ATOM      6  O   UNL A   1      31.682  25.214  24.997  1.00  0.00    -0.465 OA
BRANCH   6   7
ATOM      7  C   UNL A   1      32.408  24.067  24.767  1.00  0.00     0.222 A 
ATOM      8  C   UNL A   1      32.751  21.863  25.187  1.00  0.00     0.230 A 
ATOM      9  N   UNL A   1      33.961  21.881  24.628  1.00  0.00    -0.218 NA
ATOM     10  N   UNL A   1      32.008  22.953  25.397  1.00  0.00    -0.177 NA
ATOM     11  C   UNL A   1      34.303  23.012  23.973  1.00  0.00     0.050 A 
ATOM     12  C   UNL A   1      35.675  23.019  23.360  1.00  0.00     0.067 C 
ATOM     13  C   UNL A   1      33.439  24.095  23.852  1.00  0.00     0.038 A 
BRANCH   8  14
ATOM     14  N   UNL A   1      32.169  20.598  25.310  1.00  0.00    -0.324 N 
ATOM     15  H   UNL A   1      31.452  20.478  25.974  1.00  0.00     0.170 HD
BRANCH  14  16
ATOM     16  C   UNL A   1      32.559  19.482  24.531  1.00  0.00     0.041 A 
ATOM     17  C   UNL A   1      34.833  16.440  24.908  1.00  0.00     0.044 C 
ATOM     18  C   UNL A   1      33.883  17.440  24.325  1.00  0.00    -0.049 A 
ATOM     19  C   UNL A   1      33.446  17.289  23.003  1.00  0.00     0.003 A 
ATOM     20  C   UNL A   1      33.420  18.526  25.084  1.00  0.00     0.029 A 
ATOM     21  C   UNL A   1      32.558  18.205  22.452  1.00  0.00     0.002 A 
ATOM     22  C   UNL A   1      32.113  19.283  23.214  1.00  0.00     0.026 A 
ENDBRANCH  14  16
ENDBRANCH   8  14
BRANCH  13  23
ATOM     23  C   UNL A   1      33.696  25.157  22.814  1.00  0.00     0.071 C 
BRANCH  23  24
ATOM     24  C   UNL A   1      32.806  25.225  21.565  1.00  0.00     0.161 C 
BRANCH  24  25
ATOM     25  O   UNL A   1      33.210  26.256  20.662  1.00  0.00    -0.396 OA
ATOM     26  H   UNL A   1      34.038  25.998  20.227  1.00  0.00     0.210 HD
ENDBRANCH  24  25
ENDBRANCH  23  24
ENDBRANCH  13  23
ENDBRANCH   6   7
ENDBRANCH   5   6
ENDBRANCH   3   5
ENDBRANCH   2   3
ENDBRANCH   1   2
BRANCH   1  27
ATOM     27  C   UNL A   1      34.335  29.425  26.647  1.00  0.00     0.275 C 
BRANCH  27  28
ATOM     28  O   UNL A   1      34.989  29.720  27.899  1.00  0.00    -0.458 OA
BRANCH  28  29
ATOM     29  C   UNL A   1      36.136  30.441  27.818  1.00  0.00     0.338 C 
ATOM     30  O   UNL A   1      36.172  31.663  27.828  1.00  0.00    -0.246 OA
BRANCH  29  31
ATOM     31  C   UNL A   1      37.278  29.511  27.948  1.00  0.00     0.060 A 
ATOM     32  C   UNL A   1      38.354  29.552  27.047  1.00  0.00     0.016 A 
ATOM     33  C   UNL A   1      37.382  28.809  29.143  1.00  0.00     0.016 A 
ATOM     34  C   UNL A   1      39.576  28.968  27.373  1.00  0.00     0.010 A 
ATOM     35  C   UNL A   1      38.611  28.346  29.522  1.00  0.00     0.010 A 
ATOM     36  C   UNL A   1      39.696  28.387  28.628  1.00  0.00    -0.014 A 
BRANCH  36  37
ATOM     37  C   UNL A   1      40.805  27.557  29.063  1.00  0.00     0.031 A 
ATOM     38  C   UNL A   1      40.962  26.137  28.714  1.00  0.00     0.074 A 
ATOM     39  C   UNL A   1      41.828  28.319  29.505  1.00  0.00     0.049 A 
ATOM     40  N   UNL A   1      41.889  25.385  29.203  1.00  0.00    -0.248 NA
ATOM     41  C   UNL A   1      40.076  25.424  27.799  1.00  0.00     0.031 C 
ATOM     42  C   UNL A   1      43.251  28.049  29.504  1.00  0.00     0.029 A 
ATOM     43  N   UNL A   1      41.718  29.566  30.134  1.00  0.00    -0.354 N 
ATOM     44  C   UNL A   1      41.954  24.256  28.413  1.00  0.00     0.074 A 
ATOM     45  C   UNL A   1      40.725  24.261  27.654  1.00  0.00     0.031 C 
ATOM     46  C   UNL A   1      43.843  28.925  30.337  1.00  0.00     0.029 A 
ATOM     47  C   UNL A   1      42.777  29.643  31.030  1.00  0.00     0.049 A 
ATOM     48  H   UNL A   1      41.028  30.249  29.974  1.00  0.00     0.167 HD
ATOM     49  C   UNL A   1      43.126  23.559  28.347  1.00  0.00     0.031 A 
ATOM     50  C   UNL A   1      42.558  29.635  32.379  1.00  0.00     0.031 A 
ATOM     51  C   UNL A   1      44.128  24.139  29.246  1.00  0.00     0.049 A 
ATOM     52  C   UNL A   1      43.204  28.420  32.993  1.00  0.00     0.074 A 
ATOM     53  C   UNL A   1      45.200  24.984  29.015  1.00  0.00     0.029 A 
ATOM     54  N   UNL A   1      43.901  24.152  30.619  1.00  0.00    -0.354 N 
ATOM     55  N   UNL A   1      43.366  27.283  32.370  1.00  0.00    -0.248 NA
ATOM     56  C   UNL A   1      43.783  28.425  34.329  1.00  0.00     0.031 C 
ATOM     57  C   UNL A   1      45.550  25.589  30.250  1.00  0.00     0.029 A 
ATOM     58  C   UNL A   1      44.709  25.091  31.232  1.00  0.00     0.049 A 
ATOM     59  H   UNL A   1      43.256  23.574  31.088  1.00  0.00     0.167 HD
ATOM     60  C   UNL A   1      44.166  26.472  33.127  1.00  0.00     0.074 A 
ATOM     61  C   UNL A   1      44.360  27.212  34.365  1.00  0.00     0.031 C 
ATOM     62  C   UNL A   1      44.672  25.287  32.674  1.00  0.00     0.031 A 
BRANCH  49  63
ATOM     63  C   UNL A   1      43.478  22.586  27.236  1.00  0.00    -0.014 A 
ATOM     64  C   UNL A   1      42.673  21.442  27.037  1.00  0.00     0.010 A 
ATOM     65  C   UNL A   1      44.595  22.703  26.387  1.00  0.00     0.010 A 
ATOM     66  C   UNL A   1      43.006  20.434  26.119  1.00  0.00     0.020 A 
ATOM     67  C   UNL A   1      44.956  21.691  25.476  1.00  0.00     0.020 A 
ATOM     68  C   UNL A   1      44.163  20.554  25.358  1.00  0.00     0.054 A 
BRANCH  68  69
ATOM     69  S   UNL A   1      44.599  19.217  24.211  1.00  0.00     0.124 S 
ATOM     70  O   UNL A   1      44.468  19.864  22.909  1.00  0.00    -0.237 OA
ATOM     71  O   UNL A   1      45.963  18.887  24.614  1.00  0.00    -0.237 OA
ATOM     72  O   UNL A   1      43.604  18.183  24.489  1.00  0.00    -0.744 OA
ENDBRANCH  68  69
ENDBRANCH  49  63
BRANCH  50  73
ATOM     73  C   UNL A   1      41.256  30.235  32.808  1.00  0.00    -0.014 A 
ATOM     74  C   UNL A   1      40.289  29.370  33.367  1.00  0.00     0.010 A 
ATOM     75  C   UNL A   1      41.136  31.619  33.046  1.00  0.00     0.010 A 
ATOM     76  C   UNL A   1      39.307  29.854  34.240  1.00  0.00     0.020 A 
ATOM     77  C   UNL A   1      40.152  32.107  33.924  1.00  0.00     0.020 A 
ATOM     78  C   UNL A   1      39.278  31.214  34.552  1.00  0.00     0.054 A 
BRANCH  78  79
ATOM     79  S   UNL A   1      38.175  31.777  35.881  1.00  0.00     0.124 S 
ATOM     80  O   UNL A   1      38.969  32.800  36.555  1.00  0.00    -0.237 OA
ATOM     81  O   UNL A   1      37.027  32.266  35.124  1.00  0.00    -0.237 OA
ATOM     82  O   UNL A   1      37.930  30.564  36.659  1.00  0.00    -0.744 OA
ENDBRANCH  78  79
ENDBRANCH  50  73
BRANCH  62  83
ATOM     83  C   UNL A   1      45.320  24.243  33.543  1.00  0.00    -0.014 A 
ATOM     84  C   UNL A   1      46.424  24.502  34.368  1.00  0.00     0.010 A 
ATOM     85  C   UNL A   1      44.715  22.969  33.656  1.00  0.00     0.010 A 
ATOM     86  C   UNL A   1      46.951  23.513  35.205  1.00  0.00     0.020 A 
ATOM     87  C   UNL A   1      45.199  21.993  34.527  1.00  0.00     0.020 A 
ATOM     88  C   UNL A   1      46.337  22.263  35.276  1.00  0.00     0.054 A 
BRANCH  88  89
ATOM     89  S   UNL A   1      46.990  21.017  36.409  1.00  0.00     0.124 S 
ATOM     90  O   UNL A   1      46.846  19.795  35.621  1.00  0.00    -0.237 OA
ATOM     91  O   UNL A   1      48.365  21.462  36.627  1.00  0.00    -0.237 OA
ATOM     92  O   UNL A   1      46.116  21.123  37.575  1.00  0.00    -0.744 OA
ENDBRANCH  88  89
ENDBRANCH  62  83
ENDBRANCH  36  37
ENDBRANCH  29  31
ENDBRANCH  28  29
ENDBRANCH  27  28
ENDBRANCH   1  27
TORSDOF 21
ENDMDL
MODEL 2
REMARK VINA RESULT:     -11.5      5.036     11.304
REMARK SMILES Cc1cccc(Nc2nc(C)c(CCO)c(OCC(=O)OCCOC(=O)c3ccc(-c4c5nc(c(-c6ccc(S(=O)(=O)[O-])cc6)c6ccc([nH]6)c(-c6ccc(S(=O)(=O)[O-])cc6)c6nc(c(-c7ccc(S(=O)(=O)[O-])cc7)c7ccc4[nH]7)C=C6)C=C5)cc3)n2)c1
REMARK SMILES IDX 22 1 21 2 19 3 20 4 18 5 17 6 16 7 8 8 9 9 87 10 10 11 11 12
REMARK SMILES IDX 12 13 7 14 6 16 1 17 2 18 3 19 88 20 4 21 5 22 13 23 14 24
REMARK SMILES IDX 15 25 23 27 24 28 25 29 26 30 27 31 28 32 86 33 29 34 85 35
REMARK SMILES IDX 30 36 31 37 32 38 79 39 33 40 84 41 78 42 80 43 34 44 83 45
REMARK SMILES IDX 77 46 76 47 35 49 65 50 46 51 64 52 47 53 50 54 63 55 81 56
REMARK SMILES IDX 48 57 49 58 62 60 82 61 51 62 36 63 37 64 45 65 38 66 44 67
REMARK SMILES IDX 39 68 40 69 41 70 42 71 43 72 66 73 67 74 75 75 68 76 74 77
REMARK SMILES IDX 69 78 70 79 71 80 72 81 73 82 52 83 53 84 61 85 54 86 60 87
REMARK SMILES IDX 55 88 56 89 57 90 58 91 59 92
REMARK H PARENT 7 15 15 26 80 48 50 59
REMARK Flexibility Score: inf
ROOT
ATOM      1  C   UNL A   1      43.885  25.685  25.280  1.00  0.00     0.274 C 
ENDROOT
BRANCH   1   2
ATOM      2  O   UNL A   1      44.777  24.801  25.984  1.00  0.00    -0.460 OA
BRANCH   2   3
ATOM      3  C   UNL A   1      45.456  23.925  25.196  1.00  0.00     0.344 C 
ATOM      4  O   UNL A   1      46.247  24.267  24.321  1.00  0.00    -0.248 OA
BRANCH   3   5
ATOM      5  C   UNL A   1      45.100  22.453  25.455  1.00  0.00     0.353 C 
BRANCH   5   6
ATOM      6  O   UNL A   1      44.209  21.756  24.592  1.00  0.00    -0.465 OA
BRANCH   6   7
ATOM      7  C   UNL A   1      43.320  20.932  25.245  1.00  0.00     0.222 A 
ATOM      8  C   UNL A   1      41.312  20.655  26.266  1.00  0.00     0.230 A 
ATOM      9  N   UNL A   1      41.675  19.491  26.803  1.00  0.00    -0.218 NA
ATOM     10  N   UNL A   1      42.141  21.463  25.601  1.00  0.00    -0.177 NA
ATOM     11  C   UNL A   1      42.853  18.978  26.385  1.00  0.00     0.050 A 
ATOM     12  C   UNL A   1      43.253  17.672  27.011  1.00  0.00     0.067 C 
ATOM     13  C   UNL A   1      43.640  19.602  25.423  1.00  0.00     0.038 A 
BRANCH   8  14
ATOM     14  N   UNL A   1      39.933  20.877  26.200  1.00  0.00    -0.324 N 
ATOM     15  H   UNL A   1      39.349  20.116  25.978  1.00  0.00     0.170 HD
BRANCH  14  16
ATOM     16  C   UNL A   1      39.335  22.138  26.436  1.00  0.00     0.041 A 
ATOM     17  C   UNL A   1      36.244  24.050  25.272  1.00  0.00     0.044 C 
ATOM     18  C   UNL A   1      37.526  23.710  25.969  1.00  0.00    -0.049 A 
ATOM     19  C   UNL A   1      38.140  24.664  26.790  1.00  0.00     0.003 A 
ATOM     20  C   UNL A   1      38.119  22.447  25.814  1.00  0.00     0.029 A 
ATOM     21  C   UNL A   1      39.325  24.359  27.448  1.00  0.00     0.002 A 
ATOM     22  C   UNL A   1      39.908  23.104  27.279  1.00  0.00     0.026 A 
ENDBRANCH  14  16
ENDBRANCH   8  14
BRANCH  13  23
ATOM     23  C   UNL A   1      44.725  18.833  24.715  1.00  0.00     0.071 C 
BRANCH  23  24
ATOM     24  C   UNL A   1      46.150  18.836  25.286  1.00  0.00     0.161 C 
BRANCH  24  25
ATOM     25  O   UNL A   1      46.601  17.526  25.636  1.00  0.00    -0.396 OA
ATOM     26  H   UNL A   1      46.807  17.028  24.829  1.00  0.00     0.210 HD
ENDBRANCH  24  25
ENDBRANCH  23  24
ENDBRANCH  13  23
ENDBRANCH   6   7
ENDBRANCH   5   6
ENDBRANCH   3   5
ENDBRANCH   2   3
ENDBRANCH   1   2
BRANCH   1  27
ATOM     27  C   UNL A   1      42.445  25.539  25.808  1.00  0.00     0.275 C 
BRANCH  27  28
ATOM     28  O   UNL A   1      41.520  26.589  25.458  1.00  0.00    -0.458 OA
BRANCH  28  29
ATOM     29  C   UNL A   1      41.987  27.857  25.571  1.00  0.00     0.338 C 
ATOM     30  O   UNL A   1      42.326  28.543  24.617  1.00  0.00    -0.246 OA
BRANCH  29  31
ATOM     31  C   UNL A   1      41.790  28.301  26.968  1.00  0.00     0.060 A 
ATOM     32  C   UNL A   1      42.783  29.026  27.647  1.00  0.00     0.016 A 
ATOM     33  C   UNL A   1      40.496  28.232  27.471  1.00  0.00     0.016 A 
ATOM     34  C   UNL A   1      42.470  29.762  28.787  1.00  0.00     0.010 A 
ATOM     35  C   UNL A   1      40.156  29.050  28.511  1.00  0.00     0.010 A 
ATOM     36  C   UNL A   1      41.143  29.783  29.195  1.00  0.00    -0.014 A 
BRANCH  36  37
ATOM     37  C   UNL A   1      40.665  30.314  30.459  1.00  0.00     0.031 A 
ATOM     38  C   UNL A   1      39.938  31.585  30.600  1.00  0.00     0.074 A 
ATOM     39  C   UNL A   1      40.649  29.353  31.406  1.00  0.00     0.049 A 
ATOM     40  N   UNL A   1      39.623  32.098  31.740  1.00  0.00    -0.248 NA
ATOM     41  C   UNL A   1      39.516  32.407  29.471  1.00  0.00     0.031 C 
ATOM     42  C   UNL A   1      39.796  29.213  32.568  1.00  0.00     0.029 A 
ATOM     43  N   UNL A   1      41.529  28.266  31.497  1.00  0.00    -0.354 N 
ATOM     44  C   UNL A   1      38.671  33.067  31.499  1.00  0.00     0.074 A 
ATOM     45  C   UNL A   1      38.745  33.319  30.079  1.00  0.00     0.031 C 
ATOM     46  C   UNL A   1      40.355  28.307  33.392  1.00  0.00     0.029 A 
ATOM     47  C   UNL A   1      41.677  27.999  32.852  1.00  0.00     0.049 A 
ATOM     48  H   UNL A   1      41.956  27.789  30.749  1.00  0.00     0.167 HD
ATOM     49  C   UNL A   1      37.794  33.396  32.493  1.00  0.00     0.031 A 
ATOM     50  C   UNL A   1      42.867  28.222  33.486  1.00  0.00     0.031 A 
ATOM     51  C   UNL A   1      38.105  32.666  33.725  1.00  0.00     0.049 A 
ATOM     52  C   UNL A   1      42.688  29.270  34.554  1.00  0.00     0.074 A 
ATOM     53  C   UNL A   1      37.548  31.535  34.297  1.00  0.00     0.029 A 
ATOM     54  N   UNL A   1      39.324  32.874  34.364  1.00  0.00    -0.354 N 
ATOM     55  N   UNL A   1      41.813  30.237  34.489  1.00  0.00    -0.248 NA
ATOM     56  C   UNL A   1      43.432  29.255  35.805  1.00  0.00     0.031 C 
ATOM     57  C   UNL A   1      38.492  31.001  35.213  1.00  0.00     0.029 A 
ATOM     58  C   UNL A   1      39.607  31.823  35.216  1.00  0.00     0.049 A 
ATOM     59  H   UNL A   1      39.904  33.659  34.228  1.00  0.00     0.167 HD
ATOM     60  C   UNL A   1      41.765  30.874  35.700  1.00  0.00     0.074 A 
ATOM     61  C   UNL A   1      42.832  30.256  36.473  1.00  0.00     0.031 C 
ATOM     62  C   UNL A   1      40.824  31.811  36.016  1.00  0.00     0.031 A 
BRANCH  49  63
ATOM     63  C   UNL A   1      36.468  34.099  32.262  1.00  0.00    -0.014 A 
ATOM     64  C   UNL A   1      36.105  35.183  33.093  1.00  0.00     0.010 A 
ATOM     65  C   UNL A   1      35.519  33.728  31.290  1.00  0.00     0.010 A 
ATOM     66  C   UNL A   1      34.845  35.798  33.025  1.00  0.00     0.020 A 
ATOM     67  C   UNL A   1      34.243  34.320  31.223  1.00  0.00     0.020 A 
ATOM     68  C   UNL A   1      33.909  35.345  32.102  1.00  0.00     0.054 A 
BRANCH  68  69
ATOM     69  S   UNL A   1      32.271  36.124  32.064  1.00  0.00     0.124 S 
ATOM     70  O   UNL A   1      32.414  37.205  33.036  1.00  0.00    -0.237 OA
ATOM     71  O   UNL A   1      32.153  36.544  30.671  1.00  0.00    -0.237 OA
ATOM     72  O   UNL A   1      31.366  35.049  32.466  1.00  0.00    -0.744 OA
ENDBRANCH  68  69
ENDBRANCH  49  63
BRANCH  50  73
ATOM     73  C   UNL A   1      44.078  28.062  32.622  1.00  0.00    -0.014 A 
ATOM     74  C   UNL A   1      44.164  26.900  31.822  1.00  0.00     0.010 A 
ATOM     75  C   UNL A   1      44.883  29.168  32.286  1.00  0.00     0.010 A 
ATOM     76  C   UNL A   1      44.931  26.886  30.651  1.00  0.00     0.020 A 
ATOM     77  C   UNL A   1      45.653  29.157  31.109  1.00  0.00     0.020 A 
ATOM     78  C   UNL A   1      45.630  28.033  30.276  1.00  0.00     0.054 A 
BRANCH  78  79
ATOM     79  S   UNL A   1      46.399  28.084  28.630  1.00  0.00     0.124 S 
ATOM     80  O   UNL A   1      47.759  27.623  28.890  1.00  0.00    -0.237 OA
ATOM     81  O   UNL A   1      45.552  27.160  27.882  1.00  0.00    -0.237 OA
ATOM     82  O   UNL A   1      46.278  29.486  28.240  1.00  0.00    -0.744 OA
ENDBRANCH  78  79
ENDBRANCH  50  73
BRANCH  62  83
ATOM     83  C   UNL A   1      40.889  32.724  37.210  1.00  0.00    -0.014 A 
ATOM     84  C   UNL A   1      41.966  33.585  37.466  1.00  0.00     0.010 A 
ATOM     85  C   UNL A   1      39.756  32.842  38.050  1.00  0.00     0.010 A 
ATOM     86  C   UNL A   1      41.951  34.461  38.556  1.00  0.00     0.020 A 
ATOM     87  C   UNL A   1      39.708  33.751  39.106  1.00  0.00     0.020 A 
ATOM     88  C   UNL A   1      40.822  34.536  39.372  1.00  0.00     0.054 A 
BRANCH  88  89
ATOM     89  S   UNL A   1      40.791  35.718  40.737  1.00  0.00     0.124 S 
ATOM     90  O   UNL A   1      41.462  34.967  41.796  1.00  0.00    -0.237 OA
ATOM     91  O   UNL A   1      41.541  36.853  40.204  1.00  0.00    -0.237 OA
ATOM     92  O   UNL A   1      39.366  35.964  40.944  1.00  0.00    -0.744 OA
ENDBRANCH  88  89
ENDBRANCH  62  83
ENDBRANCH  36  37
ENDBRANCH  29  31
ENDBRANCH  28  29
ENDBRANCH  27  28
ENDBRANCH   1  27
TORSDOF 21
ENDMDL
MODEL 3
REMARK VINA RESULT:     -11.3      1.661      2.226
REMARK SMILES Cc1cccc(Nc2nc(C)c(CCO)c(OCC(=O)OCCOC(=O)c3ccc(-c4c5nc(c(-c6ccc(S(=O)(=O)[O-])cc6)c6ccc([nH]6)c(-c6ccc(S(=O)(=O)[O-])cc6)c6nc(c(-c7ccc(S(=O)(=O)[O-])cc7)c7ccc4[nH]7)C=C6)C=C5)cc3)n2)c1
REMARK SMILES IDX 22 1 21 2 19 3 20 4 18 5 17 6 16 7 8 8 9 9 87 10 10 11 11 12
REMARK SMILES IDX 12 13 7 14 6 16 1 17 2 18 3 19 88 20 4 21 5 22 13 23 14 24
REMARK SMILES IDX 15 25 23 27 24 28 25 29 26 30 27 31 28 32 86 33 29 34 85 35
REMARK SMILES IDX 30 36 31 37 32 38 79 39 33 40 84 41 78 42 80 43 34 44 83 45
REMARK SMILES IDX 77 46 76 47 35 49 65 50 46 51 64 52 47 53 50 54 63 55 81 56
REMARK SMILES IDX 48 57 49 58 62 60 82 61 51 62 36 63 37 64 45 65 38 66 44 67
REMARK SMILES IDX 39 68 40 69 41 70 42 71 43 72 66 73 67 74 75 75 68 76 74 77
REMARK SMILES IDX 69 78 70 79 71 80 72 81 73 82 52 83 53 84 61 85 54 86 60 87
REMARK SMILES IDX 55 88 56 89 57 90 58 91 59 92
REMARK H PARENT 7 15 15 26 80 48 50 59
REMARK Flexibility Score: inf
ROOT
ATOM      1  C   UNL A   1      33.417  28.685  25.663  1.00  0.00     0.274 C 
ENDROOT
BRANCH   1   2
ATOM      2  O   UNL A   1      32.196  27.992  25.345  1.00  0.00    -0.460 OA
BRANCH   2   3
ATOM      3  C   UNL A   1      31.749  27.146  26.311  1.00  0.00     0.344 C 
ATOM      4  O   UNL A   1      31.036  27.496  27.248  1.00  0.00    -0.248 OA
BRANCH   3   5
ATOM      5  C   UNL A   1      32.268  25.707  26.164  1.00  0.00     0.353 C 
BRANCH   5   6
ATOM      6  O   UNL A   1      31.891  24.907  25.049  1.00  0.00    -0.465 OA
BRANCH   6   7
ATOM      7  C   UNL A   1      32.648  23.768  24.889  1.00  0.00     0.222 A 
ATOM      8  C   UNL A   1      33.067  21.613  25.463  1.00  0.00     0.230 A 
ATOM      9  N   UNL A   1      34.265  21.625  24.880  1.00  0.00    -0.218 NA
ATOM     10  N   UNL A   1      32.294  22.693  25.606  1.00  0.00    -0.177 NA
ATOM     11  C   UNL A   1      34.561  22.714  24.137  1.00  0.00     0.050 A 
ATOM     12  C   UNL A   1      35.921  22.716  23.499  1.00  0.00     0.067 C 
ATOM     13  C   UNL A   1      33.662  23.760  23.955  1.00  0.00     0.038 A 
BRANCH   8  14
ATOM     14  N   UNL A   1      32.526  20.344  25.689  1.00  0.00    -0.324 N 
ATOM     15  H   UNL A   1      31.966  20.211  26.487  1.00  0.00     0.170 HD
BRANCH  14  16
ATOM     16  C   UNL A   1      32.744  19.239  24.830  1.00  0.00     0.041 A 
ATOM     17  C   UNL A   1      34.288  15.757  25.056  1.00  0.00     0.044 C 
ATOM     18  C   UNL A   1      33.625  16.984  24.511  1.00  0.00    -0.049 A 
ATOM     19  C   UNL A   1      33.290  17.043  23.153  1.00  0.00     0.003 A 
ATOM     20  C   UNL A   1      33.332  18.077  25.343  1.00  0.00     0.029 A 
ATOM     21  C   UNL A   1      32.668  18.173  22.636  1.00  0.00     0.002 A 
ATOM     22  C   UNL A   1      32.389  19.254  23.471  1.00  0.00     0.026 A 
ENDBRANCH  14  16
ENDBRANCH   8  14
BRANCH  13  23
ATOM     23  C   UNL A   1      33.868  24.750  22.837  1.00  0.00     0.071 C 
BRANCH  23  24
ATOM     24  C   UNL A   1      32.692  25.108  21.919  1.00  0.00     0.161 C 
BRANCH  24  25
ATOM     25  O   UNL A   1      32.913  24.705  20.566  1.00  0.00    -0.396 OA
ATOM     26  H   UNL A   1      32.385  23.913  20.374  1.00  0.00     0.210 HD
ENDBRANCH  24  25
ENDBRANCH  23  24
ENDBRANCH  13  23
ENDBRANCH   6   7
ENDBRANCH   5   6
ENDBRANCH   3   5
ENDBRANCH   2   3
ENDBRANCH   1   2
BRANCH   1  27
ATOM     27  C   UNL A   1      33.117  30.029  26.352  1.00  0.00     0.275 C 
BRANCH  27  28
ATOM     28  O   UNL A   1      33.524  30.153  27.730  1.00  0.00    -0.458 OA
BRANCH  28  29
ATOM     29  C   UNL A   1      34.519  31.040  27.982  1.00  0.00     0.338 C 
ATOM     30  O   UNL A   1      34.329  32.223  28.223  1.00  0.00    -0.246 OA
BRANCH  29  31
ATOM     31  C   UNL A   1      35.783  30.288  28.131  1.00  0.00     0.060 A 
ATOM     32  C   UNL A   1      36.858  30.492  27.252  1.00  0.00     0.016 A 
ATOM     33  C   UNL A   1      35.968  29.603  29.327  1.00  0.00     0.016 A 
ATOM     34  C   UNL A   1      38.147  30.093  27.599  1.00  0.00     0.010 A 
ATOM     35  C   UNL A   1      37.244  29.325  29.729  1.00  0.00     0.010 A 
ATOM     36  C   UNL A   1      38.328  29.530  28.855  1.00  0.00    -0.014 A 
BRANCH  36  37
ATOM     37  C   UNL A   1      39.539  28.871  29.310  1.00  0.00     0.031 A 
ATOM     38  C   UNL A   1      39.929  27.504  28.930  1.00  0.00     0.074 A 
ATOM     39  C   UNL A   1      40.414  29.769  29.809  1.00  0.00     0.049 A 
ATOM     40  N   UNL A   1      40.946  26.892  29.434  1.00  0.00    -0.248 NA
ATOM     41  C   UNL A   1      39.197  26.690  27.965  1.00  0.00     0.031 C 
ATOM     42  C   UNL A   1      41.861  29.725  29.854  1.00  0.00     0.029 A 
ATOM     43  N   UNL A   1      40.089  30.963  30.465  1.00  0.00    -0.354 N 
ATOM     44  C   UNL A   1      41.213  25.812  28.619  1.00  0.00     0.074 A 
ATOM     45  C   UNL A   1      40.025  25.648  27.815  1.00  0.00     0.031 C 
ATOM     46  C   UNL A   1      42.281  30.656  30.730  1.00  0.00     0.029 A 
ATOM     47  C   UNL A   1      41.093  31.177  31.402  1.00  0.00     0.049 A 
ATOM     48  H   UNL A   1      39.305  31.535  30.297  1.00  0.00     0.167 HD
ATOM     49  C   UNL A   1      42.482  25.309  28.578  1.00  0.00     0.031 A 
ATOM     50  C   UNL A   1      40.834  31.093  32.740  1.00  0.00     0.031 A 
ATOM     51  C   UNL A   1      43.351  26.011  29.528  1.00  0.00     0.049 A 
ATOM     52  C   UNL A   1      41.643  29.976  33.347  1.00  0.00     0.074 A 
ATOM     53  C   UNL A   1      44.284  27.020  29.359  1.00  0.00     0.029 A 
ATOM     54  N   UNL A   1      43.080  25.945  30.892  1.00  0.00    -0.354 N 
ATOM     55  N   UNL A   1      42.001  28.898  32.701  1.00  0.00    -0.248 NA
ATOM     56  C   UNL A   1      42.170  30.030  34.703  1.00  0.00     0.031 C 
ATOM     57  C   UNL A   1      44.493  27.633  30.622  1.00  0.00     0.029 A 
ATOM     58  C   UNL A   1      43.710  26.979  31.558  1.00  0.00     0.049 A 
ATOM     59  H   UNL A   1      42.519  25.259  31.322  1.00  0.00     0.167 HD
ATOM     60  C   UNL A   1      42.894  28.199  33.466  1.00  0.00     0.074 A 
ATOM     61  C   UNL A   1      42.929  28.921  34.730  1.00  0.00     0.031 C 
ATOM     62  C   UNL A   1      43.595  27.123  33.003  1.00  0.00     0.031 A 
BRANCH  49  63
ATOM     63  C   UNL A   1      43.019  24.438  27.456  1.00  0.00    -0.014 A 
ATOM     64  C   UNL A   1      42.698  23.062  27.434  1.00  0.00     0.010 A 
ATOM     65  C   UNL A   1      43.871  24.885  26.428  1.00  0.00     0.010 A 
ATOM     66  C   UNL A   1      43.260  22.170  26.507  1.00  0.00     0.020 A 
ATOM     67  C   UNL A   1      44.459  23.999  25.503  1.00  0.00     0.020 A 
ATOM     68  C   UNL A   1      44.158  22.642  25.557  1.00  0.00     0.054 A 
BRANCH  68  69
ATOM     69  S   UNL A   1      44.907  21.464  24.399  1.00  0.00     0.124 S 
ATOM     70  O   UNL A   1      44.529  22.017  23.101  1.00  0.00    -0.237 OA
ATOM     71  O   UNL A   1      46.326  21.553  24.730  1.00  0.00    -0.237 OA
ATOM     72  O   UNL A   1      44.271  20.193  24.737  1.00  0.00    -0.744 OA
ENDBRANCH  68  69
ENDBRANCH  49  63
BRANCH  50  73
ATOM     73  C   UNL A   1      39.441  31.468  33.136  1.00  0.00    -0.014 A 
ATOM     74  C   UNL A   1      39.135  32.844  33.233  1.00  0.00     0.010 A 
ATOM     75  C   UNL A   1      38.377  30.553  33.010  1.00  0.00     0.010 A 
ATOM     76  C   UNL A   1      37.822  33.305  33.082  1.00  0.00     0.020 A 
ATOM     77  C   UNL A   1      37.057  31.013  32.855  1.00  0.00     0.020 A 
ATOM     78  C   UNL A   1      36.798  32.388  32.842  1.00  0.00     0.054 A 
BRANCH  78  79
ATOM     79  S   UNL A   1      35.156  33.018  32.386  1.00  0.00     0.124 S 
ATOM     80  O   UNL A   1      34.506  33.204  33.680  1.00  0.00    -0.237 OA
ATOM     81  O   UNL A   1      35.499  34.243  31.672  1.00  0.00    -0.237 OA
ATOM     82  O   UNL A   1      34.601  31.953  31.555  1.00  0.00    -0.744 OA
ENDBRANCH  78  79
ENDBRANCH  50  73
BRANCH  62  83
ATOM     83  C   UNL A   1      44.371  26.166  33.868  1.00  0.00    -0.014 A 
ATOM     84  C   UNL A   1      44.104  24.791  33.930  1.00  0.00     0.010 A 
ATOM     85  C   UNL A   1      45.522  26.631  34.548  1.00  0.00     0.010 A 
ATOM     86  C   UNL A   1      44.895  23.933  34.701  1.00  0.00     0.020 A 
ATOM     87  C   UNL A   1      46.349  25.776  35.275  1.00  0.00     0.020 A 
ATOM     88  C   UNL A   1      46.011  24.432  35.372  1.00  0.00     0.054 A 
BRANCH  88  89
ATOM     89  S   UNL A   1      47.061  23.301  36.312  1.00  0.00     0.124 S 
ATOM     90  O   UNL A   1      47.531  22.395  35.267  1.00  0.00    -0.237 OA
ATOM     91  O   UNL A   1      48.077  24.189  36.873  1.00  0.00    -0.237 OA
ATOM     92  O   UNL A   1      46.145  22.717  37.289  1.00  0.00    -0.744 OA
ENDBRANCH  88  89
ENDBRANCH  62  83
ENDBRANCH  36  37
ENDBRANCH  29  31
ENDBRANCH  28  29
ENDBRANCH  27  28
ENDBRANCH   1  27
TORSDOF 21
ENDMDL
