MODEL 1
REMARK VINA RESULT:     -10.1      0.000      0.000
REMARK SMILES Cn1ccnc1NCCOCC(=O)OCCOC(=O)c1ccc(-c2c3nc(c(-c4ccc(S(=O)(=O)[O-])cc4)c4ccc([nH]4)c(-c4ccc(S(=O)(=O)[O-])cc4)c4nc(c(-c5ccc(S(=O)(=O)[O-])cc5)c5ccc2[nH]5)C=C4)C=C3)cc1
REMARK SMILES IDX 15 1 14 2 12 3 13 4 11 5 10 6 9 7 8 8 7 9 6 11 1 12 2 13
REMARK SMILES IDX 3 14 4 15 5 16 16 17 17 18 18 19 19 20 20 21 21 22 79 23
REMARK SMILES IDX 22 24 78 25 23 26 24 27 25 28 72 29 26 30 77 31 71 32 73 33
REMARK SMILES IDX 27 34 76 35 70 36 69 37 28 39 58 40 39 41 57 42 40 43 43 44
REMARK SMILES IDX 56 45 74 46 41 47 42 48 55 50 75 51 44 52 29 53 30 54 38 55
REMARK SMILES IDX 31 56 37 57 32 58 33 59 34 60 35 61 36 62 59 63 60 64 68 65
REMARK SMILES IDX 61 66 67 67 62 68 63 69 64 70 65 71 66 72 45 73 46 74 54 75
REMARK SMILES IDX 47 76 53 77 48 78 49 79 50 80 51 81 52 82
REMARK H PARENT 7 10 73 38 43 49
REMARK Flexibility Score: inf
ROOT
ATOM      1  C   UNL A   1      37.871  21.651  25.309  1.00  0.00     0.274 C 
ENDROOT
BRANCH   1   2
ATOM      2  O   UNL A   1      37.580  23.052  24.989  1.00  0.00    -0.460 OA
BRANCH   2   3
ATOM      3  C   UNL A   1      36.522  23.262  24.155  1.00  0.00     0.332 C 
ATOM      4  O   UNL A   1      36.551  22.972  22.958  1.00  0.00    -0.250 OA
BRANCH   3   5
ATOM      5  C   UNL A   1      35.237  23.926  24.787  1.00  0.00     0.282 C 
BRANCH   5   6
ATOM      6  O   UNL A   1      33.900  23.616  25.087  1.00  0.00    -0.368 OA
BRANCH   6   7
ATOM      7  C   UNL A   1      33.493  22.668  26.079  1.00  0.00     0.182 C 
BRANCH   7   8
ATOM      8  C   UNL A   1      34.142  21.240  26.267  1.00  0.00     0.144 C 
BRANCH   8   9
ATOM      9  N   UNL A   1      33.225  20.113  26.252  1.00  0.00    -0.353 N 
ATOM     10  H   UNL A   1      32.649  20.016  27.046  1.00  0.00     0.163 HD
BRANCH   9  11
ATOM     11  C   UNL A   1      33.052  19.116  25.221  1.00  0.00     0.202 A 
ATOM     12  C   UNL A   1      34.939  16.324  25.323  1.00  0.00     0.153 C 
ATOM     13  N   UNL A   1      33.948  17.349  24.794  1.00  0.00    -0.321 N 
ATOM     14  C   UNL A   1      33.513  16.901  23.028  1.00  0.00     0.109 A 
ATOM     15  C   UNL A   1      32.500  18.157  22.409  1.00  0.00     0.133 A 
ATOM     16  N   UNL A   1      32.233  19.493  23.745  1.00  0.00    -0.222 NA
ENDBRANCH   9  11
ENDBRANCH   8   9
ENDBRANCH   7   8
ENDBRANCH   6   7
ENDBRANCH   5   6
ENDBRANCH   3   5
ENDBRANCH   2   3
ENDBRANCH   1   2
BRANCH   1  17
ATOM     17  C   UNL A   1      39.297  21.461  25.843  1.00  0.00     0.275 C 
BRANCH  17  18
ATOM     18  O   UNL A   1      39.559  22.470  26.830  1.00  0.00    -0.458 OA
BRANCH  18  19
ATOM     19  C   UNL A   1      40.709  23.103  26.539  1.00  0.00     0.338 C 
ATOM     20  O   UNL A   1      41.691  22.590  26.031  1.00  0.00    -0.246 OA
BRANCH  19  21
ATOM     21  C   UNL A   1      40.794  24.412  27.134  1.00  0.00     0.060 A 
ATOM     22  C   UNL A   1      42.257  25.322  27.522  1.00  0.00     0.016 A 
ATOM     23  C   UNL A   1      39.273  24.683  27.729  1.00  0.00     0.016 A 
ATOM     24  C   UNL A   1      42.302  26.642  28.683  1.00  0.00     0.010 A 
ATOM     25  C   UNL A   1      39.116  25.922  28.869  1.00  0.00     0.010 A 
ATOM     26  C   UNL A   1      40.755  27.075  29.476  1.00  0.00    -0.014 A 
BRANCH  26  27
ATOM     27  C   UNL A   1      41.046  28.416  30.439  1.00  0.00     0.031 A 
ATOM     28  C   UNL A   1      41.971  28.381  31.662  1.00  0.00     0.074 A 
ATOM     29  C   UNL A   1      40.194  29.468  30.343  1.00  0.00     0.049 A 
ATOM     30  N   UNL A   1      41.809  28.973  32.827  1.00  0.00    -0.248 NA
ATOM     31  C   UNL A   1      43.140  27.496  31.615  1.00  0.00     0.031 C 
ATOM     32  C   UNL A   1      39.264  29.719  29.247  1.00  0.00     0.029 A 
ATOM     33  N   UNL A   1      39.894  30.480  31.238  1.00  0.00    -0.354 N 
ATOM     34  C   UNL A   1      42.772  28.419  33.675  1.00  0.00     0.074 A 
ATOM     35  C   UNL A   1      43.462  27.411  32.900  1.00  0.00     0.031 C 
ATOM     36  C   UNL A   1      38.455  30.740  29.546  1.00  0.00     0.029 A 
ATOM     37  C   UNL A   1      38.781  31.217  30.879  1.00  0.00     0.049 A 
ATOM     38  H   UNL A   1      40.423  30.659  32.050  1.00  0.00     0.167 HD
ATOM     39  C   UNL A   1      43.071  28.729  34.964  1.00  0.00     0.031 A 
ATOM     40  C   UNL A   1      38.053  32.147  31.531  1.00  0.00     0.031 A 
ATOM     41  C   UNL A   1      42.482  29.838  35.675  1.00  0.00     0.049 A 
ATOM     42  C   UNL A   1      38.450  32.547  32.917  1.00  0.00     0.074 A 
ATOM     43  C   UNL A   1      42.837  30.354  36.911  1.00  0.00     0.029 A 
ATOM     44  N   UNL A   1      41.452  30.633  35.196  1.00  0.00    -0.354 N 
ATOM     45  N   UNL A   1      39.365  32.016  33.688  1.00  0.00    -0.248 NA
ATOM     46  C   UNL A   1      37.741  33.689  33.511  1.00  0.00     0.031 C 
ATOM     47  C   UNL A   1      41.999  31.434  37.196  1.00  0.00     0.029 A 
ATOM     48  C   UNL A   1      41.163  31.634  36.109  1.00  0.00     0.049 A 
ATOM     49  H   UNL A   1      40.991  30.504  34.334  1.00  0.00     0.167 HD
ATOM     50  C   UNL A   1      39.385  32.796  34.835  1.00  0.00     0.074 A 
ATOM     51  C   UNL A   1      38.383  33.826  34.664  1.00  0.00     0.031 C 
ATOM     52  C   UNL A   1      40.181  32.672  35.923  1.00  0.00     0.031 A 
BRANCH  39  53
ATOM     53  C   UNL A   1      44.123  27.908  35.689  1.00  0.00    -0.014 A 
ATOM     54  C   UNL A   1      45.466  28.322  35.755  1.00  0.00     0.010 A 
ATOM     55  C   UNL A   1      43.752  26.738  36.385  1.00  0.00     0.010 A 
ATOM     56  C   UNL A   1      46.422  27.559  36.434  1.00  0.00     0.020 A 
ATOM     57  C   UNL A   1      44.697  25.994  37.108  1.00  0.00     0.020 A 
ATOM     58  C   UNL A   1      46.032  26.399  37.107  1.00  0.00     0.054 A 
BRANCH  58  59
ATOM     59  S   UNL A   1      47.294  25.454  38.006  1.00  0.00     0.124 S 
ATOM     60  O   UNL A   1      46.524  24.318  38.508  1.00  0.00    -0.237 OA
ATOM     61  O   UNL A   1      48.263  25.139  36.960  1.00  0.00    -0.237 OA
ATOM     62  O   UNL A   1      47.766  26.386  39.028  1.00  0.00    -0.744 OA
ENDBRANCH  58  59
ENDBRANCH  39  53
BRANCH  40  63
ATOM     63  C   UNL A   1      36.900  32.800  30.844  1.00  0.00    -0.014 A 
ATOM     64  C   UNL A   1      35.586  32.456  31.205  1.00  0.00     0.010 A 
ATOM     65  C   UNL A   1      37.101  33.805  29.879  1.00  0.00     0.010 A 
ATOM     66  C   UNL A   1      34.493  33.091  30.608  1.00  0.00     0.020 A 
ATOM     67  C   UNL A   1      36.009  34.465  29.300  1.00  0.00     0.020 A 
ATOM     68  C   UNL A   1      34.712  34.098  29.664  1.00  0.00     0.054 A 
BRANCH  68  69
ATOM     69  S   UNL A   1      33.274  34.950  28.957  1.00  0.00     0.124 S 
ATOM     70  O   UNL A   1      32.800  33.982  27.972  1.00  0.00    -0.237 OA
ATOM     71  O   UNL A   1      32.417  35.138  30.124  1.00  0.00    -0.237 OA
ATOM     72  O   UNL A   1      33.840  36.178  28.405  1.00  0.00    -0.744 OA
ENDBRANCH  68  69
ENDBRANCH  40  63
BRANCH  52  73
ATOM     73  C   UNL A   1      40.074  33.728  36.988  1.00  0.00    -0.014 A 
ATOM     74  C   UNL A   1      40.906  34.859  36.992  1.00  0.00     0.010 A 
ATOM     75  C   UNL A   1      39.056  33.615  37.954  1.00  0.00     0.010 A 
ATOM     76  C   UNL A   1      40.725  35.859  37.951  1.00  0.00     0.020 A 
ATOM     77  C   UNL A   1      38.854  34.626  38.894  1.00  0.00     0.020 A 
ATOM     78  C   UNL A   1      39.692  35.740  38.889  1.00  0.00     0.054 A 
BRANCH  78  79
ATOM     79  S   UNL A   1      39.422  37.098  40.059  1.00  0.00     0.124 S 
ATOM     80  O   UNL A   1      38.615  38.025  39.271  1.00  0.00    -0.237 OA
ATOM     81  O   UNL A   1      38.724  36.435  41.159  1.00  0.00    -0.237 OA
ATOM     82  O   UNL A   1      40.772  37.560  40.375  1.00  0.00    -0.744 OA
ENDBRANCH  78  79
ENDBRANCH  52  73
ENDBRANCH  26  27
ENDBRANCH  19  21
ENDBRANCH  18  19
ENDBRANCH  17  18
ENDBRANCH   1  17
TORSDOF 19
ENDMDL
MODEL 2
REMARK VINA RESULT:      -9.5      3.615      5.429
REMARK SMILES Cn1ccnc1NCCOCC(=O)OCCOC(=O)c1ccc(-c2c3nc(c(-c4ccc(S(=O)(=O)[O-])cc4)c4ccc([nH]4)c(-c4ccc(S(=O)(=O)[O-])cc4)c4nc(c(-c5ccc(S(=O)(=O)[O-])cc5)c5ccc2[nH]5)C=C4)C=C3)cc1
REMARK SMILES IDX 15 1 14 2 12 3 13 4 11 5 10 6 9 7 8 8 7 9 6 11 1 12 2 13
REMARK SMILES IDX 3 14 4 15 5 16 16 17 17 18 18 19 19 20 20 21 21 22 79 23
REMARK SMILES IDX 22 24 78 25 23 26 24 27 25 28 72 29 26 30 77 31 71 32 73 33
REMARK SMILES IDX 27 34 76 35 70 36 69 37 28 39 58 40 39 41 57 42 40 43 43 44
REMARK SMILES IDX 56 45 74 46 41 47 42 48 55 50 75 51 44 52 29 53 30 54 38 55
REMARK SMILES IDX 31 56 37 57 32 58 33 59 34 60 35 61 36 62 59 63 60 64 68 65
REMARK SMILES IDX 61 66 67 67 62 68 63 69 64 70 65 71 66 72 45 73 46 74 54 75
REMARK SMILES IDX 47 76 53 77 48 78 49 79 50 80 51 81 52 82
REMARK H PARENT 7 10 73 38 43 49
REMARK Flexibility Score: inf
ROOT
ATOM      1  C   UNL A   1      42.904  20.742  26.452  1.00  0.00     0.274 C 
ENDROOT
BRANCH   1   2
ATOM      2  O   UNL A   1      43.209  20.242  25.108  1.00  0.00    -0.460 OA
BRANCH   2   3
ATOM      3  C   UNL A   1      44.334  19.479  25.000  1.00  0.00     0.332 C 
ATOM      4  O   UNL A   1      44.325  18.256  25.155  1.00  0.00    -0.250 OA
BRANCH   3   5
ATOM      5  C   UNL A   1      45.682  20.237  24.688  1.00  0.00     0.282 C 
BRANCH   5   6
ATOM      6  O   UNL A   1      46.383  21.393  25.069  1.00  0.00    -0.368 OA
BRANCH   6   7
ATOM      7  C   UNL A   1      46.329  22.640  24.367  1.00  0.00     0.182 C 
BRANCH   7   8
ATOM      8  C   UNL A   1      45.217  23.739  24.585  1.00  0.00     0.144 C 
BRANCH   8   9
ATOM      9  N   UNL A   1      44.555  23.732  25.878  1.00  0.00    -0.353 N 
ATOM     10  H   UNL A   1      43.660  23.322  25.902  1.00  0.00     0.163 HD
BRANCH   9  11
ATOM     11  C   UNL A   1      45.043  24.253  27.134  1.00  0.00     0.202 A 
ATOM     12  C   UNL A   1      43.937  22.880  30.007  1.00  0.00     0.153 C 
ATOM     13  N   UNL A   1      44.661  23.845  29.082  1.00  0.00    -0.321 N 
ATOM     14  C   UNL A   1      45.305  25.278  30.102  1.00  0.00     0.109 A 
ATOM     15  C   UNL A   1      45.997  26.424  29.009  1.00  0.00     0.133 A 
ATOM     16  N   UNL A   1      45.828  25.794  27.215  1.00  0.00    -0.222 NA
ENDBRANCH   9  11
ENDBRANCH   8   9
ENDBRANCH   7   8
ENDBRANCH   6   7
ENDBRANCH   5   6
ENDBRANCH   3   5
ENDBRANCH   2   3
ENDBRANCH   1   2
BRANCH   1  17
ATOM     17  C   UNL A   1      41.509  21.378  26.533  1.00  0.00     0.275 C 
BRANCH  17  18
ATOM     18  O   UNL A   1      41.654  22.806  26.546  1.00  0.00    -0.458 OA
BRANCH  18  19
ATOM     19  C   UNL A   1      40.450  23.383  26.711  1.00  0.00     0.338 C 
ATOM     20  O   UNL A   1      39.404  22.992  26.223  1.00  0.00    -0.246 OA
BRANCH  19  21
ATOM     21  C   UNL A   1      40.533  24.691  27.309  1.00  0.00     0.060 A 
ATOM     22  C   UNL A   1      41.987  25.656  27.584  1.00  0.00     0.016 A 
ATOM     23  C   UNL A   1      39.056  24.900  28.027  1.00  0.00     0.016 A 
ATOM     24  C   UNL A   1      42.075  26.970  28.749  1.00  0.00     0.010 A 
ATOM     25  C   UNL A   1      38.945  26.125  29.185  1.00  0.00     0.010 A 
ATOM     26  C   UNL A   1      40.582  27.339  29.668  1.00  0.00    -0.014 A 
BRANCH  26  27
ATOM     27  C   UNL A   1      40.899  28.684  30.615  1.00  0.00     0.031 A 
ATOM     28  C   UNL A   1      41.838  28.651  31.827  1.00  0.00     0.074 A 
ATOM     29  C   UNL A   1      40.056  29.745  30.521  1.00  0.00     0.049 A 
ATOM     30  N   UNL A   1      41.697  29.254  32.990  1.00  0.00    -0.248 NA
ATOM     31  C   UNL A   1      42.998  27.754  31.774  1.00  0.00     0.031 C 
ATOM     32  C   UNL A   1      39.116  29.995  29.434  1.00  0.00     0.029 A 
ATOM     33  N   UNL A   1      39.778  30.768  31.410  1.00  0.00    -0.354 N 
ATOM     34  C   UNL A   1      42.664  28.698  33.830  1.00  0.00     0.074 A 
ATOM     35  C   UNL A   1      43.334  27.677  33.056  1.00  0.00     0.031 C 
ATOM     36  C   UNL A   1      38.321  31.028  29.734  1.00  0.00     0.029 A 
ATOM     37  C   UNL A   1      38.668  31.513  31.058  1.00  0.00     0.049 A 
ATOM     38  H   UNL A   1      40.318  30.948  32.214  1.00  0.00     0.167 HD
ATOM     39  C   UNL A   1      42.983  29.016  35.113  1.00  0.00     0.031 A 
ATOM     40  C   UNL A   1      37.957  32.456  31.710  1.00  0.00     0.031 A 
ATOM     41  C   UNL A   1      42.413  30.137  35.821  1.00  0.00     0.049 A 
ATOM     42  C   UNL A   1      38.375  32.864  33.088  1.00  0.00     0.074 A 
ATOM     43  C   UNL A   1      42.789  30.661  37.048  1.00  0.00     0.029 A 
ATOM     44  N   UNL A   1      41.385  30.939  35.347  1.00  0.00    -0.354 N 
ATOM     45  N   UNL A   1      39.295  32.330  33.852  1.00  0.00    -0.248 NA
ATOM     46  C   UNL A   1      37.686  34.018  33.681  1.00  0.00     0.031 C 
ATOM     47  C   UNL A   1      41.965  31.752  37.333  1.00  0.00     0.029 A 
ATOM     48  C   UNL A   1      41.119  31.952  36.255  1.00  0.00     0.049 A 
ATOM     49  H   UNL A   1      40.913  30.807  34.493  1.00  0.00     0.167 HD
ATOM     50  C   UNL A   1      39.337  33.120  34.992  1.00  0.00     0.074 A 
ATOM     51  C   UNL A   1      38.344  34.159  34.825  1.00  0.00     0.031 C 
ATOM     52  C   UNL A   1      40.145  32.998  36.071  1.00  0.00     0.031 A 
BRANCH  39  53
ATOM     53  C   UNL A   1      44.035  28.191  35.832  1.00  0.00    -0.014 A 
ATOM     54  C   UNL A   1      45.397  28.538  35.795  1.00  0.00     0.010 A 
ATOM     55  C   UNL A   1      43.649  27.089  36.625  1.00  0.00     0.010 A 
ATOM     56  C   UNL A   1      46.354  27.773  36.470  1.00  0.00     0.020 A 
ATOM     57  C   UNL A   1      44.598  26.346  37.343  1.00  0.00     0.020 A 
ATOM     58  C   UNL A   1      45.949  26.680  37.241  1.00  0.00     0.054 A 
BRANCH  58  59
ATOM     59  S   UNL A   1      47.215  25.732  38.131  1.00  0.00     0.124 S 
ATOM     60  O   UNL A   1      48.435  26.116  37.425  1.00  0.00    -0.237 OA
ATOM     61  O   UNL A   1      47.095  26.242  39.494  1.00  0.00    -0.237 OA
ATOM     62  O   UNL A   1      46.802  24.342  37.950  1.00  0.00    -0.744 OA
ENDBRANCH  58  59
ENDBRANCH  39  53
BRANCH  40  63
ATOM     63  C   UNL A   1      36.803  33.115  31.032  1.00  0.00    -0.014 A 
ATOM     64  C   UNL A   1      37.037  34.051  30.009  1.00  0.00     0.010 A 
ATOM     65  C   UNL A   1      35.476  32.773  31.352  1.00  0.00     0.010 A 
ATOM     66  C   UNL A   1      35.970  34.644  29.328  1.00  0.00     0.020 A 
ATOM     67  C   UNL A   1      34.405  33.342  30.652  1.00  0.00     0.020 A 
ATOM     68  C   UNL A   1      34.659  34.280  29.649  1.00  0.00     0.054 A 
BRANCH  68  69
ATOM     69  S   UNL A   1      33.298  35.016  28.702  1.00  0.00     0.124 S 
ATOM     70  O   UNL A   1      32.812  33.876  27.930  1.00  0.00    -0.237 OA
ATOM     71  O   UNL A   1      32.406  35.495  29.755  1.00  0.00    -0.237 OA
ATOM     72  O   UNL A   1      33.951  36.067  27.924  1.00  0.00    -0.744 OA
ENDBRANCH  68  69
ENDBRANCH  40  63
BRANCH  52  73
ATOM     73  C   UNL A   1      40.061  34.064  37.128  1.00  0.00    -0.014 A 
ATOM     74  C   UNL A   1      40.731  35.291  36.993  1.00  0.00     0.010 A 
ATOM     75  C   UNL A   1      39.223  33.853  38.239  1.00  0.00     0.010 A 
ATOM     76  C   UNL A   1      40.567  36.289  37.957  1.00  0.00     0.020 A 
ATOM     77  C   UNL A   1      39.034  34.859  39.188  1.00  0.00     0.020 A 
ATOM     78  C   UNL A   1      39.710  36.070  39.042  1.00  0.00     0.054 A 
BRANCH  78  79
ATOM     79  S   UNL A   1      39.443  37.418  40.224  1.00  0.00     0.124 S 
ATOM     80  O   UNL A   1      38.806  36.723  41.340  1.00  0.00    -0.237 OA
ATOM     81  O   UNL A   1      40.801  37.896  40.473  1.00  0.00    -0.237 OA
ATOM     82  O   UNL A   1      38.583  38.351  39.500  1.00  0.00    -0.744 OA
ENDBRANCH  78  79
ENDBRANCH  52  73
ENDBRANCH  26  27
ENDBRANCH  19  21
ENDBRANCH  18  19
ENDBRANCH  17  18
ENDBRANCH   1  17
TORSDOF 19
ENDMDL
MODEL 3
REMARK VINA RESULT:      -9.2      3.619      5.548
REMARK SMILES Cn1ccnc1NCCOCC(=O)OCCOC(=O)c1ccc(-c2c3nc(c(-c4ccc(S(=O)(=O)[O-])cc4)c4ccc([nH]4)c(-c4ccc(S(=O)(=O)[O-])cc4)c4nc(c(-c5ccc(S(=O)(=O)[O-])cc5)c5ccc2[nH]5)C=C4)C=C3)cc1
REMARK SMILES IDX 15 1 14 2 12 3 13 4 11 5 10 6 9 7 8 8 7 9 6 11 1 12 2 13
REMARK SMILES IDX 3 14 4 15 5 16 16 17 17 18 18 19 19 20 20 21 21 22 79 23
REMARK SMILES IDX 22 24 78 25 23 26 24 27 25 28 72 29 26 30 77 31 71 32 73 33
REMARK SMILES IDX 27 34 76 35 70 36 69 37 28 39 58 40 39 41 57 42 40 43 43 44
REMARK SMILES IDX 56 45 74 46 41 47 42 48 55 50 75 51 44 52 29 53 30 54 38 55
REMARK SMILES IDX 31 56 37 57 32 58 33 59 34 60 35 61 36 62 59 63 60 64 68 65
REMARK SMILES IDX 61 66 67 67 62 68 63 69 64 70 65 71 66 72 45 73 46 74 54 75
REMARK SMILES IDX 47 76 53 77 48 78 49 79 50 80 51 81 52 82
REMARK H PARENT 7 10 73 38 43 49
REMARK Flexibility Score: inf
ROOT
ATOM      1  C   UNL A   1      42.710  19.327  26.172  1.00  0.00     0.274 C 
ENDROOT
BRANCH   1   2
ATOM      2  O   UNL A   1      43.203  19.127  24.806  1.00  0.00    -0.460 OA
BRANCH   2   3
ATOM      3  C   UNL A   1      44.539  19.332  24.622  1.00  0.00     0.332 C 
ATOM      4  O   UNL A   1      45.318  18.420  24.338  1.00  0.00    -0.250 OA
BRANCH   3   5
ATOM      5  C   UNL A   1      45.066  20.806  24.812  1.00  0.00     0.282 C 
BRANCH   5   6
ATOM      6  O   UNL A   1      44.614  22.067  25.235  1.00  0.00    -0.368 OA
BRANCH   6   7
ATOM      7  C   UNL A   1      45.391  22.985  26.013  1.00  0.00     0.182 C 
BRANCH   7   8
ATOM      8  C   UNL A   1      46.017  24.322  25.452  1.00  0.00     0.144 C 
BRANCH   8   9
ATOM      9  N   UNL A   1      45.782  25.519  26.242  1.00  0.00    -0.353 N 
ATOM     10  H   UNL A   1      46.397  25.664  26.997  1.00  0.00     0.163 HD
BRANCH   9  11
ATOM     11  C   UNL A   1      44.758  26.522  26.060  1.00  0.00     0.202 A 
ATOM     12  C   UNL A   1      44.763  29.235  28.062  1.00  0.00     0.153 C 
ATOM     13  N   UNL A   1      44.284  28.251  27.006  1.00  0.00    -0.321 N 
ATOM     14  C   UNL A   1      42.541  28.716  26.506  1.00  0.00     0.109 A 
ATOM     15  C   UNL A   1      41.973  27.502  25.414  1.00  0.00     0.133 A 
ATOM     16  N   UNL A   1      43.323  26.178  25.156  1.00  0.00    -0.222 NA
ENDBRANCH   9  11
ENDBRANCH   8   9
ENDBRANCH   7   8
ENDBRANCH   6   7
ENDBRANCH   5   6
ENDBRANCH   3   5
ENDBRANCH   2   3
ENDBRANCH   1   2
BRANCH   1  17
ATOM     17  C   UNL A   1      41.338  20.015  26.200  1.00  0.00     0.275 C 
BRANCH  17  18
ATOM     18  O   UNL A   1      41.527  21.429  26.036  1.00  0.00    -0.458 OA
BRANCH  18  19
ATOM     19  C   UNL A   1      40.453  22.088  26.505  1.00  0.00     0.338 C 
ATOM     20  O   UNL A   1      39.292  21.737  26.372  1.00  0.00    -0.246 OA
BRANCH  19  21
ATOM     21  C   UNL A   1      40.766  23.419  26.957  1.00  0.00     0.060 A 
ATOM     22  C   UNL A   1      42.240  23.959  27.767  1.00  0.00     0.016 A 
ATOM     23  C   UNL A   1      39.312  24.210  26.917  1.00  0.00     0.016 A 
ATOM     24  C   UNL A   1      42.338  25.429  28.726  1.00  0.00     0.010 A 
ATOM     25  C   UNL A   1      39.211  25.654  27.790  1.00  0.00     0.010 A 
ATOM     26  C   UNL A   1      40.851  26.421  28.844  1.00  0.00    -0.014 A 
BRANCH  26  27
ATOM     27  C   UNL A   1      41.239  27.803  29.709  1.00  0.00     0.031 A 
ATOM     28  C   UNL A   1      42.250  27.810  30.862  1.00  0.00     0.074 A 
ATOM     29  C   UNL A   1      40.403  28.869  29.619  1.00  0.00     0.049 A 
ATOM     30  N   UNL A   1      42.186  28.466  32.003  1.00  0.00    -0.248 NA
ATOM     31  C   UNL A   1      43.394  26.896  30.779  1.00  0.00     0.031 C 
ATOM     32  C   UNL A   1      39.401  29.084  28.581  1.00  0.00     0.029 A 
ATOM     33  N   UNL A   1      40.191  29.934  30.476  1.00  0.00    -0.354 N 
ATOM     34  C   UNL A   1      43.197  27.934  32.807  1.00  0.00     0.074 A 
ATOM     35  C   UNL A   1      43.808  26.871  32.041  1.00  0.00     0.031 C 
ATOM     36  C   UNL A   1      38.636  30.139  28.882  1.00  0.00     0.029 A 
ATOM     37  C   UNL A   1      39.069  30.677  30.160  1.00  0.00     0.049 A 
ATOM     38  H   UNL A   1      40.781  30.142  31.237  1.00  0.00     0.167 HD
ATOM     39  C   UNL A   1      43.597  28.304  34.053  1.00  0.00     0.031 A 
ATOM     40  C   UNL A   1      38.409  31.657  30.811  1.00  0.00     0.031 A 
ATOM     41  C   UNL A   1      43.084  29.463  34.743  1.00  0.00     0.049 A 
ATOM     42  C   UNL A   1      38.915  32.120  32.141  1.00  0.00     0.074 A 
ATOM     43  C   UNL A   1      43.539  30.035  35.921  1.00  0.00     0.029 A 
ATOM     44  N   UNL A   1      42.037  30.256  34.297  1.00  0.00    -0.354 N 
ATOM     45  N   UNL A   1      39.874  31.608  32.872  1.00  0.00    -0.248 NA
ATOM     46  C   UNL A   1      38.275  33.308  32.723  1.00  0.00     0.031 C 
ATOM     47  C   UNL A   1      42.746  31.148  36.207  1.00  0.00     0.029 A 
ATOM     48  C   UNL A   1      41.837  31.311  35.174  1.00  0.00     0.049 A 
ATOM     49  H   UNL A   1      41.512  30.093  33.480  1.00  0.00     0.167 HD
ATOM     50  C   UNL A   1      39.994  32.447  33.970  1.00  0.00     0.074 A 
ATOM     51  C   UNL A   1      39.003  33.490  33.817  1.00  0.00     0.031 C 
ATOM     52  C   UNL A   1      40.865  32.361  35.003  1.00  0.00     0.031 A 
BRANCH  39  53
ATOM     53  C   UNL A   1      44.682  27.498  34.743  1.00  0.00    -0.014 A 
ATOM     54  C   UNL A   1      46.039  27.639  34.399  1.00  0.00     0.010 A 
ATOM     55  C   UNL A   1      44.353  26.636  35.811  1.00  0.00     0.010 A 
ATOM     56  C   UNL A   1      47.028  26.895  35.049  1.00  0.00     0.020 A 
ATOM     57  C   UNL A   1      45.345  25.923  36.500  1.00  0.00     0.020 A 
ATOM     58  C   UNL A   1      46.676  26.041  36.097  1.00  0.00     0.054 A 
BRANCH  58  59
ATOM     59  S   UNL A   1      47.991  25.118  36.942  1.00  0.00     0.124 S 
ATOM     60  O   UNL A   1      48.224  25.938  38.128  1.00  0.00    -0.237 OA
ATOM     61  O   UNL A   1      47.363  23.823  37.191  1.00  0.00    -0.237 OA
ATOM     62  O   UNL A   1      49.084  25.101  35.972  1.00  0.00    -0.744 OA
ENDBRANCH  58  59
ENDBRANCH  39  53
BRANCH  40  63
ATOM     63  C   UNL A   1      37.223  32.301  30.175  1.00  0.00    -0.014 A 
ATOM     64  C   UNL A   1      35.949  31.727  30.332  1.00  0.00     0.010 A 
ATOM     65  C   UNL A   1      37.342  33.512  29.468  1.00  0.00     0.010 A 
ATOM     66  C   UNL A   1      34.819  32.341  29.785  1.00  0.00     0.020 A 
ATOM     67  C   UNL A   1      36.208  34.146  28.944  1.00  0.00     0.020 A 
ATOM     68  C   UNL A   1      34.955  33.552  29.100  1.00  0.00     0.054 A 
BRANCH  68  69
ATOM     69  S   UNL A   1      33.460  34.358  28.460  1.00  0.00     0.124 S 
ATOM     70  O   UNL A   1      32.789  34.773  29.688  1.00  0.00    -0.237 OA
ATOM     71  O   UNL A   1      34.011  35.436  27.643  1.00  0.00    -0.237 OA
ATOM     72  O   UNL A   1      32.793  33.297  27.709  1.00  0.00    -0.744 OA
ENDBRANCH  68  69
ENDBRANCH  40  63
BRANCH  52  73
ATOM     73  C   UNL A   1      40.858  33.474  36.014  1.00  0.00    -0.014 A 
ATOM     74  C   UNL A   1      40.085  33.402  37.184  1.00  0.00     0.010 A 
ATOM     75  C   UNL A   1      41.712  34.576  35.816  1.00  0.00     0.010 A 
ATOM     76  C   UNL A   1      40.163  34.419  38.139  1.00  0.00     0.020 A 
ATOM     77  C   UNL A   1      41.814  35.577  36.782  1.00  0.00     0.020 A 
ATOM     78  C   UNL A   1      41.037  35.494  37.936  1.00  0.00     0.054 A 
BRANCH  78  79
ATOM     79  S   UNL A   1      41.188  36.748  39.237  1.00  0.00     0.124 S 
ATOM     80  O   UNL A   1      41.092  35.943  40.451  1.00  0.00    -0.237 OA
ATOM     81  O   UNL A   1      42.502  37.328  38.968  1.00  0.00    -0.237 OA
ATOM     82  O   UNL A   1      40.057  37.641  38.992  1.00  0.00    -0.744 OA
ENDBRANCH  78  79
ENDBRANCH  52  73
ENDBRANCH  26  27
ENDBRANCH  19  21
ENDBRANCH  18  19
ENDBRANCH  17  18
ENDBRANCH   1  17
TORSDOF 19
ENDMDL
