MODEL 1
REMARK VINA RESULT:     -10.1      0.000      0.000
REMARK SMILES Nc1cc([N+](=O)[O-])ccc1[C@H]([NH3+])C(=O)OCCOC(=O)c1ccc(-c2c3nc(c(-c4ccc(S(=O)(=O)[O-])cc4)c4ccc([nH]4)c(-c4ccc(S(=O)(=O)[O-])cc4)c4nc(c(-c5ccc(S(=O)(=O)[O-])cc5)c5ccc2[nH]5)C=C4)C=C3)cc1
REMARK SMILES IDX 17 1 16 2 15 3 13 4 14 5 11 6 10 7 2 8 3 9 4 10 9 11 8 12
REMARK SMILES IDX 1 13 5 16 6 17 7 18 12 19 18 23 19 24 20 25 21 26 22 27
REMARK SMILES IDX 80 28 23 29 79 30 24 31 25 32 26 33 73 34 27 35 78 36 72 37
REMARK SMILES IDX 74 38 28 39 77 40 71 41 70 42 29 44 59 45 40 46 58 47 41 48
REMARK SMILES IDX 44 49 57 50 75 51 42 52 43 53 56 55 76 56 45 57 30 58 31 59
REMARK SMILES IDX 39 60 32 61 38 62 33 63 34 64 35 65 36 66 37 67 60 68 61 69
REMARK SMILES IDX 69 70 62 71 68 72 63 73 64 74 65 75 66 76 67 77 46 78 47 79
REMARK SMILES IDX 55 80 48 81 54 82 49 83 50 84 51 85 52 86 53 87
REMARK H PARENT 1 14 1 15 12 20 12 21 12 22 74 43 44 54
REMARK Flexibility Score: inf
ROOT
ATOM      1  C   UNL A   1      32.848  28.713  26.737  1.00  0.00     0.275 C 
ENDROOT
BRANCH   1   2
ATOM      2  C   UNL A   1      31.623  28.921  25.841  1.00  0.00     0.274 C 
BRANCH   2   3
ATOM      3  O   UNL A   1      31.534  27.907  24.828  1.00  0.00    -0.457 OA
BRANCH   3   4
ATOM      4  C   UNL A   1      30.481  27.042  24.896  1.00  0.00     0.369 C 
ATOM      5  O   UNL A   1      30.211  26.375  25.892  1.00  0.00    -0.245 OA
BRANCH   4   6
ATOM      6  C   UNL A   1      29.640  27.010  23.589  1.00  0.00     0.325 C 
BRANCH   6   7
ATOM      7  C   UNL A   1      29.241  28.386  23.040  1.00  0.00     0.044 A 
ATOM      8  C   UNL A   1      30.138  29.150  22.251  1.00  0.00     0.048 A 
ATOM      9  C   UNL A   1      29.690  30.327  21.635  1.00  0.00     0.111 A 
ATOM     10  C   UNL A   1      28.413  30.828  21.907  1.00  0.00     0.271 A 
ATOM     11  C   UNL A   1      27.975  28.940  23.331  1.00  0.00     0.020 A 
ATOM     12  C   UNL A   1      27.564  30.157  22.784  1.00  0.00     0.086 A 
BRANCH   8  13
ATOM     13  N   UNL A   1      31.442  28.724  21.981  1.00  0.00    -0.398 N 
ATOM     14  H   UNL A   1      32.114  28.712  22.700  1.00  0.00     0.156 HD
ATOM     15  H   UNL A   1      31.688  28.436  21.072  1.00  0.00     0.156 HD
ENDBRANCH   8  13
BRANCH  10  16
ATOM     16  N   UNL A   1      27.961  32.064  21.261  1.00  0.00     0.062 N 
ATOM     17  O   UNL A   1      28.038  33.117  21.912  1.00  0.00    -0.258 OA
ATOM     18  O   UNL A   1      27.544  31.991  20.096  1.00  0.00    -0.258 OA
ENDBRANCH  10  16
ENDBRANCH   6   7
BRANCH   6  19
ATOM     19  N   UNL A   1      28.463  26.123  23.763  1.00  0.00    -0.342 N 
ATOM     20  H   UNL A   1      28.530  25.339  23.115  1.00  0.00     0.345 HD
ATOM     21  H   UNL A   1      27.610  26.650  23.572  1.00  0.00     0.345 HD
ATOM     22  H   UNL A   1      28.440  25.773  24.720  1.00  0.00     0.345 HD
ENDBRANCH   6  19
ENDBRANCH   4   6
ENDBRANCH   3   4
ENDBRANCH   2   3
ENDBRANCH   1   2
BRANCH   1  23
ATOM     23  O   UNL A   1      33.931  29.596  26.391  1.00  0.00    -0.458 OA
BRANCH  23  24
ATOM     24  C   UNL A   1      34.280  30.490  27.348  1.00  0.00     0.338 C 
ATOM     25  O   UNL A   1      33.599  31.403  27.787  1.00  0.00    -0.246 OA
BRANCH  24  26
ATOM     26  C   UNL A   1      35.578  30.112  27.933  1.00  0.00     0.060 A 
ATOM     27  C   UNL A   1      35.576  29.625  29.243  1.00  0.00     0.016 A 
ATOM     28  C   UNL A   1      36.780  30.291  27.246  1.00  0.00     0.016 A 
ATOM     29  C   UNL A   1      36.774  29.331  29.885  1.00  0.00     0.010 A 
ATOM     30  C   UNL A   1      37.985  29.994  27.891  1.00  0.00     0.010 A 
ATOM     31  C   UNL A   1      37.988  29.528  29.218  1.00  0.00    -0.014 A 
BRANCH  31  32
ATOM     32  C   UNL A   1      39.258  29.299  29.945  1.00  0.00     0.031 A 
ATOM     33  C   UNL A   1      40.199  28.228  29.474  1.00  0.00     0.074 A 
ATOM     34  C   UNL A   1      39.578  30.075  30.996  1.00  0.00     0.049 A 
ATOM     35  N   UNL A   1      41.329  27.834  30.001  1.00  0.00    -0.248 NA
ATOM     36  C   UNL A   1      39.820  27.509  28.249  1.00  0.00     0.031 C 
ATOM     37  C   UNL A   1      38.765  31.178  31.511  1.00  0.00     0.029 A 
ATOM     38  N   UNL A   1      40.672  30.049  31.822  1.00  0.00    -0.354 N 
ATOM     39  C   UNL A   1      41.786  26.806  29.188  1.00  0.00     0.074 A 
ATOM     40  C   UNL A   1      40.804  26.628  28.138  1.00  0.00     0.031 C 
ATOM     41  C   UNL A   1      39.387  31.720  32.570  1.00  0.00     0.029 A 
ATOM     42  C   UNL A   1      40.616  30.976  32.834  1.00  0.00     0.049 A 
ATOM     43  H   UNL A   1      41.426  29.427  31.700  1.00  0.00     0.167 HD
ATOM     44  C   UNL A   1      42.920  26.074  29.306  1.00  0.00     0.031 A 
ATOM     45  C   UNL A   1      41.445  31.181  33.876  1.00  0.00     0.031 A 
ATOM     46  C   UNL A   1      43.886  26.249  30.357  1.00  0.00     0.049 A 
ATOM     47  C   UNL A   1      42.668  30.322  34.021  1.00  0.00     0.074 A 
ATOM     48  C   UNL A   1      45.066  25.557  30.568  1.00  0.00     0.029 A 
ATOM     49  N   UNL A   1      43.781  27.181  31.379  1.00  0.00    -0.354 N 
ATOM     50  N   UNL A   1      43.085  29.347  33.246  1.00  0.00    -0.248 NA
ATOM     51  C   UNL A   1      43.536  30.589  35.175  1.00  0.00     0.031 C 
ATOM     52  C   UNL A   1      45.653  26.042  31.743  1.00  0.00     0.029 A 
ATOM     53  C   UNL A   1      44.863  27.070  32.235  1.00  0.00     0.049 A 
ATOM     54  H   UNL A   1      43.045  27.827  31.481  1.00  0.00     0.167 HD
ATOM     55  C   UNL A   1      44.268  28.891  33.815  1.00  0.00     0.074 A 
ATOM     56  C   UNL A   1      44.511  29.709  34.987  1.00  0.00     0.031 C 
ATOM     57  C   UNL A   1      45.082  27.886  33.403  1.00  0.00     0.031 A 
BRANCH  44  58
ATOM     58  C   UNL A   1      43.140  24.984  28.291  1.00  0.00    -0.014 A 
ATOM     59  C   UNL A   1      42.661  23.679  28.505  1.00  0.00     0.010 A 
ATOM     60  C   UNL A   1      43.846  25.271  27.108  1.00  0.00     0.010 A 
ATOM     61  C   UNL A   1      42.930  22.667  27.579  1.00  0.00     0.020 A 
ATOM     62  C   UNL A   1      44.096  24.267  26.168  1.00  0.00     0.020 A 
ATOM     63  C   UNL A   1      43.657  22.967  26.421  1.00  0.00     0.054 A 
BRANCH  63  64
ATOM     64  S   UNL A   1      44.011  21.634  25.242  1.00  0.00     0.124 S 
ATOM     65  O   UNL A   1      45.371  21.256  25.618  1.00  0.00    -0.237 OA
ATOM     66  O   UNL A   1      42.979  20.647  25.550  1.00  0.00    -0.237 OA
ATOM     67  O   UNL A   1      43.881  22.281  23.939  1.00  0.00    -0.744 OA
ENDBRANCH  63  64
ENDBRANCH  44  58
BRANCH  45  68
ATOM     68  C   UNL A   1      41.107  32.223  34.882  1.00  0.00    -0.014 A 
ATOM     69  C   UNL A   1      40.285  31.925  35.982  1.00  0.00     0.010 A 
ATOM     70  C   UNL A   1      41.651  33.516  34.762  1.00  0.00     0.010 A 
ATOM     71  C   UNL A   1      40.014  32.902  36.944  1.00  0.00     0.020 A 
ATOM     72  C   UNL A   1      41.402  34.487  35.736  1.00  0.00     0.020 A 
ATOM     73  C   UNL A   1      40.578  34.175  36.819  1.00  0.00     0.054 A 
BRANCH  73  74
ATOM     74  S   UNL A   1      40.282  35.403  38.122  1.00  0.00     0.124 S 
ATOM     75  O   UNL A   1      41.610  35.549  38.707  1.00  0.00    -0.237 OA
ATOM     76  O   UNL A   1      39.791  36.553  37.368  1.00  0.00    -0.237 OA
ATOM     77  O   UNL A   1      39.287  34.758  38.976  1.00  0.00    -0.744 OA
ENDBRANCH  73  74
ENDBRANCH  45  68
BRANCH  57  78
ATOM     78  C   UNL A   1      46.319  27.627  34.218  1.00  0.00    -0.014 A 
ATOM     79  C   UNL A   1      47.527  28.286  33.933  1.00  0.00     0.010 A 
ATOM     80  C   UNL A   1      46.257  26.751  35.317  1.00  0.00     0.010 A 
ATOM     81  C   UNL A   1      48.660  28.052  34.716  1.00  0.00     0.020 A 
ATOM     82  C   UNL A   1      47.381  26.532  36.116  1.00  0.00     0.020 A 
ATOM     83  C   UNL A   1      48.581  27.174  35.802  1.00  0.00     0.054 A 
BRANCH  83  84
ATOM     84  S   UNL A   1      50.051  26.918  36.833  1.00  0.00     0.124 S 
ATOM     85  O   UNL A   1      49.731  27.710  38.018  1.00  0.00    -0.237 OA
ATOM     86  O   UNL A   1      50.060  25.470  37.029  1.00  0.00    -0.237 OA
ATOM     87  O   UNL A   1      51.143  27.435  36.012  1.00  0.00    -0.744 OA
ENDBRANCH  83  84
ENDBRANCH  57  78
ENDBRANCH  31  32
ENDBRANCH  24  26
ENDBRANCH  23  24
ENDBRANCH   1  23
TORSDOF 18
ENDMDL
MODEL 2
REMARK VINA RESULT:     -10.1      4.333     10.622
REMARK SMILES Nc1cc([N+](=O)[O-])ccc1[C@H]([NH3+])C(=O)OCCOC(=O)c1ccc(-c2c3nc(c(-c4ccc(S(=O)(=O)[O-])cc4)c4ccc([nH]4)c(-c4ccc(S(=O)(=O)[O-])cc4)c4nc(c(-c5ccc(S(=O)(=O)[O-])cc5)c5ccc2[nH]5)C=C4)C=C3)cc1
REMARK SMILES IDX 17 1 16 2 15 3 13 4 14 5 11 6 10 7 2 8 3 9 4 10 9 11 8 12
REMARK SMILES IDX 1 13 5 16 6 17 7 18 12 19 18 23 19 24 20 25 21 26 22 27
REMARK SMILES IDX 80 28 23 29 79 30 24 31 25 32 26 33 73 34 27 35 78 36 72 37
REMARK SMILES IDX 74 38 28 39 77 40 71 41 70 42 29 44 59 45 40 46 58 47 41 48
REMARK SMILES IDX 44 49 57 50 75 51 42 52 43 53 56 55 76 56 45 57 30 58 31 59
REMARK SMILES IDX 39 60 32 61 38 62 33 63 34 64 35 65 36 66 37 67 60 68 61 69
REMARK SMILES IDX 69 70 62 71 68 72 63 73 64 74 65 75 66 76 67 77 46 78 47 79
REMARK SMILES IDX 55 80 48 81 54 82 49 83 50 84 51 85 52 86 53 87
REMARK H PARENT 1 14 1 15 12 20 12 21 12 22 74 43 44 54
REMARK Flexibility Score: inf
ROOT
ATOM      1  C   UNL A   1      34.235  33.069  28.083  1.00  0.00     0.275 C 
ENDROOT
BRANCH   1   2
ATOM      2  C   UNL A   1      33.995  34.180  29.110  1.00  0.00     0.274 C 
BRANCH   2   3
ATOM      3  O   UNL A   1      34.094  33.683  30.454  1.00  0.00    -0.457 OA
BRANCH   3   4
ATOM      4  C   UNL A   1      35.226  33.989  31.154  1.00  0.00     0.369 C 
ATOM      5  O   UNL A   1      36.209  34.530  30.655  1.00  0.00    -0.245 OA
BRANCH   4   6
ATOM      6  C   UNL A   1      35.127  33.605  32.657  1.00  0.00     0.325 C 
BRANCH   6   7
ATOM      7  C   UNL A   1      36.247  32.690  33.169  1.00  0.00     0.044 A 
ATOM      8  C   UNL A   1      37.137  33.118  34.187  1.00  0.00     0.048 A 
ATOM      9  C   UNL A   1      38.046  32.206  34.742  1.00  0.00     0.111 A 
ATOM     10  C   UNL A   1      38.181  30.923  34.203  1.00  0.00     0.271 A 
ATOM     11  C   UNL A   1      36.440  31.405  32.617  1.00  0.00     0.020 A 
ATOM     12  C   UNL A   1      37.405  30.530  33.114  1.00  0.00     0.086 A 
BRANCH   8  13
ATOM     13  N   UNL A   1      37.080  34.403  34.735  1.00  0.00    -0.398 N 
ATOM     14  H   UNL A   1      37.875  34.982  34.714  1.00  0.00     0.156 HD
ATOM     15  H   UNL A   1      36.244  34.727  35.143  1.00  0.00     0.156 HD
ENDBRANCH   8  13
BRANCH  10  16
ATOM     16  N   UNL A   1      39.143  29.983  34.788  1.00  0.00     0.062 N 
ATOM     17  O   UNL A   1      39.745  29.219  34.019  1.00  0.00    -0.258 OA
ATOM     18  O   UNL A   1      39.311  30.016  36.016  1.00  0.00    -0.258 OA
ENDBRANCH  10  16
ENDBRANCH   6   7
BRANCH   6  19
ATOM     19  N   UNL A   1      33.783  33.049  32.952  1.00  0.00    -0.342 N 
ATOM     20  H   UNL A   1      33.772  32.673  33.901  1.00  0.00     0.345 HD
ATOM     21  H   UNL A   1      33.570  32.303  32.289  1.00  0.00     0.345 HD
ATOM     22  H   UNL A   1      33.085  33.787  32.871  1.00  0.00     0.345 HD
ENDBRANCH   6  19
ENDBRANCH   4   6
ENDBRANCH   3   4
ENDBRANCH   2   3
ENDBRANCH   1   2
BRANCH   1  23
ATOM     23  O   UNL A   1      34.112  31.757  28.661  1.00  0.00    -0.458 OA
BRANCH  23  24
ATOM     24  C   UNL A   1      34.386  30.726  27.825  1.00  0.00     0.338 C 
ATOM     25  O   UNL A   1      33.717  30.347  26.877  1.00  0.00    -0.246 OA
BRANCH  24  26
ATOM     26  C   UNL A   1      35.728  30.193  28.115  1.00  0.00     0.060 A 
ATOM     27  C   UNL A   1      35.941  29.642  29.383  1.00  0.00     0.016 A 
ATOM     28  C   UNL A   1      36.776  30.286  27.199  1.00  0.00     0.016 A 
ATOM     29  C   UNL A   1      37.206  29.198  29.751  1.00  0.00     0.010 A 
ATOM     30  C   UNL A   1      38.049  29.838  27.568  1.00  0.00     0.010 A 
ATOM     31  C   UNL A   1      38.272  29.307  28.851  1.00  0.00    -0.014 A 
BRANCH  31  32
ATOM     32  C   UNL A   1      39.632  28.917  29.291  1.00  0.00     0.031 A 
ATOM     33  C   UNL A   1      40.448  29.870  30.115  1.00  0.00     0.074 A 
ATOM     34  C   UNL A   1      40.112  27.699  28.983  1.00  0.00     0.049 A 
ATOM     35  N   UNL A   1      41.674  29.743  30.551  1.00  0.00    -0.248 NA
ATOM     36  C   UNL A   1      39.797  31.131  30.500  1.00  0.00     0.031 C 
ATOM     37  C   UNL A   1      39.390  26.671  28.232  1.00  0.00     0.029 A 
ATOM     38  N   UNL A   1      41.324  27.122  29.263  1.00  0.00    -0.354 N 
ATOM     39  C   UNL A   1      41.952  30.915  31.242  1.00  0.00     0.074 A 
ATOM     40  C   UNL A   1      40.770  31.747  31.156  1.00  0.00     0.031 C 
ATOM     41  C   UNL A   1      40.177  25.590  28.105  1.00  0.00     0.029 A 
ATOM     42  C   UNL A   1      41.470  25.866  28.725  1.00  0.00     0.049 A 
ATOM     43  H   UNL A   1      42.022  27.565  29.797  1.00  0.00     0.167 HD
ATOM     44  C   UNL A   1      43.089  31.266  31.888  1.00  0.00     0.031 A 
ATOM     45  C   UNL A   1      42.537  25.043  28.706  1.00  0.00     0.031 A 
ATOM     46  C   UNL A   1      44.264  30.438  31.960  1.00  0.00     0.049 A 
ATOM     47  C   UNL A   1      43.808  25.475  29.380  1.00  0.00     0.074 A 
ATOM     48  C   UNL A   1      45.469  30.703  32.587  1.00  0.00     0.029 A 
ATOM     49  N   UNL A   1      44.382  29.183  31.381  1.00  0.00    -0.354 N 
ATOM     50  N   UNL A   1      44.059  26.590  30.025  1.00  0.00    -0.248 NA
ATOM     51  C   UNL A   1      44.939  24.540  29.328  1.00  0.00     0.031 C 
ATOM     52  C   UNL A   1      46.331  29.626  32.349  1.00  0.00     0.029 A 
ATOM     53  C   UNL A   1      45.645  28.669  31.617  1.00  0.00     0.049 A 
ATOM     54  H   UNL A   1      43.672  28.725  30.875  1.00  0.00     0.167 HD
ATOM     55  C   UNL A   1      45.373  26.487  30.463  1.00  0.00     0.074 A 
ATOM     56  C   UNL A   1      45.859  25.192  30.028  1.00  0.00     0.031 C 
ATOM     57  C   UNL A   1      46.113  27.382  31.165  1.00  0.00     0.031 A 
BRANCH  44  58
ATOM     58  C   UNL A   1      43.124  32.631  32.521  1.00  0.00    -0.014 A 
ATOM     59  C   UNL A   1      42.763  32.821  33.868  1.00  0.00     0.010 A 
ATOM     60  C   UNL A   1      43.518  33.741  31.753  1.00  0.00     0.010 A 
ATOM     61  C   UNL A   1      42.743  34.106  34.419  1.00  0.00     0.020 A 
ATOM     62  C   UNL A   1      43.522  35.024  32.307  1.00  0.00     0.020 A 
ATOM     63  C   UNL A   1      43.112  35.201  33.630  1.00  0.00     0.054 A 
BRANCH  63  64
ATOM     64  S   UNL A   1      43.061  36.861  34.361  1.00  0.00     0.124 S 
ATOM     65  O   UNL A   1      43.354  37.705  33.205  1.00  0.00    -0.237 OA
ATOM     66  O   UNL A   1      41.694  36.948  34.870  1.00  0.00    -0.237 OA
ATOM     67  O   UNL A   1      44.102  36.821  35.385  1.00  0.00    -0.744 OA
ENDBRANCH  63  64
ENDBRANCH  44  58
BRANCH  45  68
ATOM     68  C   UNL A   1      42.445  23.747  27.982  1.00  0.00    -0.014 A 
ATOM     69  C   UNL A   1      42.833  23.644  26.636  1.00  0.00     0.010 A 
ATOM     70  C   UNL A   1      42.008  22.594  28.661  1.00  0.00     0.010 A 
ATOM     71  C   UNL A   1      42.785  22.410  25.981  1.00  0.00     0.020 A 
ATOM     72  C   UNL A   1      41.984  21.355  28.017  1.00  0.00     0.020 A 
ATOM     73  C   UNL A   1      42.366  21.272  26.677  1.00  0.00     0.054 A 
BRANCH  73  74
ATOM     74  S   UNL A   1      42.392  19.665  25.834  1.00  0.00     0.124 S 
ATOM     75  O   UNL A   1      42.709  18.754  26.929  1.00  0.00    -0.237 OA
ATOM     76  O   UNL A   1      41.037  19.565  25.299  1.00  0.00    -0.237 OA
ATOM     77  O   UNL A   1      43.440  19.826  24.828  1.00  0.00    -0.744 OA
ENDBRANCH  73  74
ENDBRANCH  45  68
BRANCH  57  78
ATOM     78  C   UNL A   1      47.520  26.984  31.519  1.00  0.00    -0.014 A 
ATOM     79  C   UNL A   1      48.610  27.392  30.730  1.00  0.00     0.010 A 
ATOM     80  C   UNL A   1      47.758  26.236  32.686  1.00  0.00     0.010 A 
ATOM     81  C   UNL A   1      49.912  27.034  31.088  1.00  0.00     0.020 A 
ATOM     82  C   UNL A   1      49.060  25.895  33.059  1.00  0.00     0.020 A 
ATOM     83  C   UNL A   1      50.129  26.286  32.249  1.00  0.00     0.054 A 
BRANCH  83  84
ATOM     84  S   UNL A   1      51.830  25.869  32.720  1.00  0.00     0.124 S 
ATOM     85  O   UNL A   1      52.448  25.607  31.422  1.00  0.00    -0.237 OA
ATOM     86  O   UNL A   1      52.284  27.083  33.397  1.00  0.00    -0.237 OA
ATOM     87  O   UNL A   1      51.675  24.703  33.585  1.00  0.00    -0.744 OA
ENDBRANCH  83  84
ENDBRANCH  57  78
ENDBRANCH  31  32
ENDBRANCH  24  26
ENDBRANCH  23  24
ENDBRANCH   1  23
TORSDOF 18
ENDMDL
MODEL 3
REMARK VINA RESULT:     -10.0      3.287      9.292
REMARK SMILES Nc1cc([N+](=O)[O-])ccc1[C@H]([NH3+])C(=O)OCCOC(=O)c1ccc(-c2c3nc(c(-c4ccc(S(=O)(=O)[O-])cc4)c4ccc([nH]4)c(-c4ccc(S(=O)(=O)[O-])cc4)c4nc(c(-c5ccc(S(=O)(=O)[O-])cc5)c5ccc2[nH]5)C=C4)C=C3)cc1
REMARK SMILES IDX 17 1 16 2 15 3 13 4 14 5 11 6 10 7 2 8 3 9 4 10 9 11 8 12
REMARK SMILES IDX 1 13 5 16 6 17 7 18 12 19 18 23 19 24 20 25 21 26 22 27
REMARK SMILES IDX 80 28 23 29 79 30 24 31 25 32 26 33 73 34 27 35 78 36 72 37
REMARK SMILES IDX 74 38 28 39 77 40 71 41 70 42 29 44 59 45 40 46 58 47 41 48
REMARK SMILES IDX 44 49 57 50 75 51 42 52 43 53 56 55 76 56 45 57 30 58 31 59
REMARK SMILES IDX 39 60 32 61 38 62 33 63 34 64 35 65 36 66 37 67 60 68 61 69
REMARK SMILES IDX 69 70 62 71 68 72 63 73 64 74 65 75 66 76 67 77 46 78 47 79
REMARK SMILES IDX 55 80 48 81 54 82 49 83 50 84 51 85 52 86 53 87
REMARK H PARENT 1 14 1 15 12 20 12 21 12 22 74 43 44 54
REMARK Flexibility Score: inf
ROOT
ATOM      1  C   UNL A   1      32.215  29.953  27.245  1.00  0.00     0.275 C 
ENDROOT
BRANCH   1   2
ATOM      2  C   UNL A   1      31.845  30.386  25.823  1.00  0.00     0.274 C 
BRANCH   2   3
ATOM      3  O   UNL A   1      32.669  29.734  24.844  1.00  0.00    -0.457 OA
BRANCH   3   4
ATOM      4  C   UNL A   1      32.165  28.616  24.244  1.00  0.00     0.369 C 
ATOM      5  O   UNL A   1      31.031  28.188  24.444  1.00  0.00    -0.245 OA
BRANCH   4   6
ATOM      6  C   UNL A   1      33.169  27.958  23.257  1.00  0.00     0.325 C 
BRANCH   6   7
ATOM      7  C   UNL A   1      33.582  26.523  23.610  1.00  0.00     0.044 A 
ATOM      8  C   UNL A   1      33.478  25.474  22.662  1.00  0.00     0.048 A 
ATOM      9  C   UNL A   1      34.009  24.211  22.963  1.00  0.00     0.111 A 
ATOM     10  C   UNL A   1      34.509  23.939  24.240  1.00  0.00     0.271 A 
ATOM     11  C   UNL A   1      34.050  26.204  24.904  1.00  0.00     0.020 A 
ATOM     12  C   UNL A   1      34.498  24.923  25.227  1.00  0.00     0.086 A 
BRANCH   8  13
ATOM     13  N   UNL A   1      32.946  25.674  21.385  1.00  0.00    -0.398 N 
ATOM     14  H   UNL A   1      33.530  25.618  20.594  1.00  0.00     0.156 HD
ATOM     15  H   UNL A   1      31.988  25.874  21.276  1.00  0.00     0.156 HD
ENDBRANCH   8  13
BRANCH  10  16
ATOM     16  N   UNL A   1      35.053  22.612  24.543  1.00  0.00     0.062 N 
ATOM     17  O   UNL A   1      36.132  22.297  24.020  1.00  0.00    -0.258 OA
ATOM     18  O   UNL A   1      34.412  21.886  25.318  1.00  0.00    -0.258 OA
ENDBRANCH  10  16
ENDBRANCH   6   7
BRANCH   6  19
ATOM     19  N   UNL A   1      34.348  28.839  23.066  1.00  0.00    -0.342 N 
ATOM     20  H   UNL A   1      34.994  28.405  22.408  1.00  0.00     0.345 HD
ATOM     21  H   UNL A   1      34.817  28.978  23.962  1.00  0.00     0.345 HD
ATOM     22  H   UNL A   1      34.043  29.740  22.699  1.00  0.00     0.345 HD
ENDBRANCH   6  19
ENDBRANCH   4   6
ENDBRANCH   3   4
ENDBRANCH   2   3
ENDBRANCH   1   2
BRANCH   1  23
ATOM     23  O   UNL A   1      33.610  29.622  27.367  1.00  0.00    -0.458 OA
BRANCH  23  24
ATOM     24  C   UNL A   1      34.386  30.575  27.939  1.00  0.00     0.338 C 
ATOM     25  O   UNL A   1      34.027  31.662  28.362  1.00  0.00    -0.246 OA
BRANCH  24  26
ATOM     26  C   UNL A   1      35.749  30.053  28.140  1.00  0.00     0.060 A 
ATOM     27  C   UNL A   1      36.082  29.602  29.421  1.00  0.00     0.016 A 
ATOM     28  C   UNL A   1      36.704  30.064  27.123  1.00  0.00     0.016 A 
ATOM     29  C   UNL A   1      37.376  29.177  29.700  1.00  0.00     0.010 A 
ATOM     30  C   UNL A   1      38.006  29.635  27.403  1.00  0.00     0.010 A 
ATOM     31  C   UNL A   1      38.351  29.205  28.697  1.00  0.00    -0.014 A 
BRANCH  31  32
ATOM     32  C   UNL A   1      39.745  28.837  29.033  1.00  0.00     0.031 A 
ATOM     33  C   UNL A   1      40.632  29.839  29.715  1.00  0.00     0.074 A 
ATOM     34  C   UNL A   1      40.197  27.600  28.762  1.00  0.00     0.049 A 
ATOM     35  N   UNL A   1      41.894  29.734  30.043  1.00  0.00    -0.248 NA
ATOM     36  C   UNL A   1      40.018  31.125  30.076  1.00  0.00     0.031 C 
ATOM     37  C   UNL A   1      39.410  26.529  28.150  1.00  0.00     0.029 A 
ATOM     38  N   UNL A   1      41.430  27.037  28.966  1.00  0.00    -0.354 N 
ATOM     39  C   UNL A   1      42.233  30.947  30.628  1.00  0.00     0.074 A 
ATOM     40  C   UNL A   1      41.047  31.778  30.598  1.00  0.00     0.031 C 
ATOM     41  C   UNL A   1      40.184  25.438  28.021  1.00  0.00     0.029 A 
ATOM     42  C   UNL A   1      41.529  25.748  28.500  1.00  0.00     0.049 A 
ATOM     43  H   UNL A   1      42.175  27.511  29.404  1.00  0.00     0.167 HD
ATOM     44  C   UNL A   1      43.425  31.335  31.142  1.00  0.00     0.031 A 
ATOM     45  C   UNL A   1      42.590  24.921  28.437  1.00  0.00     0.031 A 
ATOM     46  C   UNL A   1      44.602  30.508  31.159  1.00  0.00     0.049 A 
ATOM     47  C   UNL A   1      43.917  25.390  28.961  1.00  0.00     0.074 A 
ATOM     48  C   UNL A   1      45.860  30.807  31.654  1.00  0.00     0.029 A 
ATOM     49  N   UNL A   1      44.668  29.217  30.654  1.00  0.00    -0.354 N 
ATOM     50  N   UNL A   1      44.225  26.544  29.506  1.00  0.00    -0.248 NA
ATOM     51  C   UNL A   1      45.040  24.448  28.866  1.00  0.00     0.031 C 
ATOM     52  C   UNL A   1      46.697  29.713  31.408  1.00  0.00     0.029 A 
ATOM     53  C   UNL A   1      45.948  28.714  30.806  1.00  0.00     0.049 A 
ATOM     54  H   UNL A   1      43.915  28.731  30.247  1.00  0.00     0.167 HD
ATOM     55  C   UNL A   1      45.574  26.463  29.827  1.00  0.00     0.074 A 
ATOM     56  C   UNL A   1      46.019  25.140  29.434  1.00  0.00     0.031 C 
ATOM     57  C   UNL A   1      46.374  27.398  30.398  1.00  0.00     0.031 A 
BRANCH  44  58
ATOM     58  C   UNL A   1      43.515  32.738  31.680  1.00  0.00    -0.014 A 
ATOM     59  C   UNL A   1      43.817  33.824  30.839  1.00  0.00     0.010 A 
ATOM     60  C   UNL A   1      43.303  32.969  33.051  1.00  0.00     0.010 A 
ATOM     61  C   UNL A   1      43.957  35.110  31.370  1.00  0.00     0.020 A 
ATOM     62  C   UNL A   1      43.418  34.257  33.581  1.00  0.00     0.020 A 
ATOM     63  C   UNL A   1      43.768  35.316  32.740  1.00  0.00     0.054 A 
BRANCH  63  64
ATOM     64  S   UNL A   1      43.973  36.989  33.410  1.00  0.00     0.124 S 
ATOM     65  O   UNL A   1      42.732  37.165  34.161  1.00  0.00    -0.237 OA
ATOM     66  O   UNL A   1      45.183  36.867  34.220  1.00  0.00    -0.237 OA
ATOM     67  O   UNL A   1      44.106  37.825  32.219  1.00  0.00    -0.744 OA
ENDBRANCH  63  64
ENDBRANCH  44  58
BRANCH  45  68
ATOM     68  C   UNL A   1      42.434  23.581  27.810  1.00  0.00    -0.014 A 
ATOM     69  C   UNL A   1      42.720  23.384  26.449  1.00  0.00     0.010 A 
ATOM     70  C   UNL A   1      42.038  22.482  28.595  1.00  0.00     0.010 A 
ATOM     71  C   UNL A   1      42.613  22.110  25.884  1.00  0.00     0.020 A 
ATOM     72  C   UNL A   1      41.955  21.203  28.039  1.00  0.00     0.020 A 
ATOM     73  C   UNL A   1      42.237  21.026  26.683  1.00  0.00     0.054 A 
BRANCH  73  74
ATOM     74  S   UNL A   1      42.187  19.366  25.951  1.00  0.00     0.124 S 
ATOM     75  O   UNL A   1      40.764  19.199  25.678  1.00  0.00    -0.237 OA
ATOM     76  O   UNL A   1      43.044  19.512  24.778  1.00  0.00    -0.237 OA
ATOM     77  O   UNL A   1      42.729  18.513  27.006  1.00  0.00    -0.744 OA
ENDBRANCH  73  74
ENDBRANCH  45  68
BRANCH  57  78
ATOM     78  C   UNL A   1      47.809  27.018  30.646  1.00  0.00    -0.014 A 
ATOM     79  C   UNL A   1      48.790  27.203  29.656  1.00  0.00     0.010 A 
ATOM     80  C   UNL A   1      48.187  26.517  31.904  1.00  0.00     0.010 A 
ATOM     81  C   UNL A   1      50.121  26.867  29.912  1.00  0.00     0.020 A 
ATOM     82  C   UNL A   1      49.521  26.201  32.172  1.00  0.00     0.020 A 
ATOM     83  C   UNL A   1      50.479  26.366  31.169  1.00  0.00     0.054 A 
BRANCH  83  84
ATOM     84  S   UNL A   1      52.220  25.978  31.495  1.00  0.00     0.124 S 
ATOM     85  O   UNL A   1      52.830  26.197  30.186  1.00  0.00    -0.237 OA
ATOM     86  O   UNL A   1      52.580  26.951  32.526  1.00  0.00    -0.237 OA
ATOM     87  O   UNL A   1      52.186  24.589  31.945  1.00  0.00    -0.744 OA
ENDBRANCH  83  84
ENDBRANCH  57  78
ENDBRANCH  31  32
ENDBRANCH  24  26
ENDBRANCH  23  24
ENDBRANCH   1  23
TORSDOF 18
ENDMDL
