MODEL 1
REMARK VINA RESULT:     -12.2      0.000      0.000
REMARK SMILES CC(=O)NS(=O)(=O)c1cc(-c2ccn(C(F)F)c(=O)c2)ccc1C(=O)OCCOC(=O)c1ccc(-c2c3nc(c(-c4ccc(S(=O)(=O)[O-])cc4)c4ccc([nH]4)c(-c4ccc(S(=O)(=O)[O-])cc4)c4nc(c(-c5ccc(S(=O)(=O)[O-])cc5)c5ccc2[nH]5)C=C4)C=C3)cc1
REMARK SMILES IDX 28 1 27 2 26 3 24 4 25 5 23 6 8 7 9 8 10 9 22 10 21 11 5 12
REMARK SMILES IDX 6 13 7 14 4 15 1 16 2 17 3 18 11 20 12 21 20 22 13 23 18 24
REMARK SMILES IDX 14 25 19 26 15 27 16 28 17 29 29 30 30 31 31 32 32 33 33 34
REMARK SMILES IDX 91 35 34 36 90 37 35 38 36 39 37 40 84 41 38 42 89 43 83 44
REMARK SMILES IDX 85 45 39 46 88 47 82 48 81 49 40 51 70 52 51 53 69 54 52 55
REMARK SMILES IDX 55 56 68 57 86 58 53 59 54 60 67 62 87 63 56 64 41 65 42 66
REMARK SMILES IDX 50 67 43 68 49 69 44 70 45 71 46 72 47 73 48 74 71 75 72 76
REMARK SMILES IDX 80 77 73 78 79 79 74 80 75 81 76 82 77 83 78 84 57 85 58 86
REMARK SMILES IDX 66 87 59 88 65 89 60 90 61 91 62 92 63 93 64 94
REMARK H PARENT 4 19 85 50 55 61
REMARK Flexibility Score: inf
ROOT
ATOM      1  C   UNL A   1      36.136  31.209  32.086  1.00  0.00     0.275 C 
ENDROOT
BRANCH   1   2
ATOM      2  C   UNL A   1      36.897  32.277  31.308  1.00  0.00     0.275 C 
BRANCH   2   3
ATOM      3  O   UNL A   1      36.033  32.849  30.302  1.00  0.00    -0.458 OA
BRANCH   3   4
ATOM      4  C   UNL A   1      36.398  32.656  29.017  1.00  0.00     0.339 C 
ATOM      5  O   UNL A   1      37.393  33.074  28.455  1.00  0.00    -0.246 OA
BRANCH   4   6
ATOM      6  C   UNL A   1      35.435  31.758  28.353  1.00  0.00     0.080 A 
ATOM      7  C   UNL A   1      34.135  32.119  28.001  1.00  0.00     0.103 A 
ATOM      8  C   UNL A   1      33.292  31.190  27.360  1.00  0.00     0.032 A 
ATOM      9  C   UNL A   1      33.766  29.916  27.027  1.00  0.00    -0.017 A 
ATOM     10  C   UNL A   1      35.912  30.491  27.981  1.00  0.00     0.018 A 
ATOM     11  C   UNL A   1      35.082  29.572  27.341  1.00  0.00     0.010 A 
BRANCH   7  12
ATOM     12  S   UNL A   1      33.581  33.800  28.053  1.00  0.00     0.264 S 
ATOM     13  O   UNL A   1      32.201  33.828  27.626  1.00  0.00    -0.201 OA
ATOM     14  O   UNL A   1      34.580  34.609  27.390  1.00  0.00    -0.201 OA
BRANCH  12  15
ATOM     15  N   UNL A   1      33.612  34.231  29.657  1.00  0.00    -0.249 N 
ATOM     16  C   UNL A   1      33.278  36.701  29.519  1.00  0.00     0.115 C 
ATOM     17  C   UNL A   1      33.054  35.390  30.221  1.00  0.00     0.230 C 
ATOM     18  O   UNL A   1      32.549  35.320  31.333  1.00  0.00    -0.274 OA
ATOM     19  H   UNL A   1      34.067  33.613  30.273  1.00  0.00     0.183 HD
ENDBRANCH  12  15
ENDBRANCH   7  12
BRANCH   9  20
ATOM     20  C   UNL A   1      32.947  28.970  26.253  1.00  0.00    -0.011 A 
ATOM     21  C   UNL A   1      32.587  29.180  24.865  1.00  0.00     0.027 A 
ATOM     22  C   UNL A   1      32.443  27.911  26.910  1.00  0.00     0.080 A 
ATOM     23  C   UNL A   1      31.733  28.349  24.256  1.00  0.00     0.095 A 
ATOM     24  C   UNL A   1      31.515  26.963  26.236  1.00  0.00     0.255 A 
ATOM     25  N   UNL A   1      31.193  27.265  24.924  1.00  0.00    -0.258 N 
ATOM     26  O   UNL A   1      31.098  26.002  26.876  1.00  0.00    -0.269 OA
BRANCH  25  27
ATOM     27  C   UNL A   1      30.250  26.396  24.269  1.00  0.00     0.451 C 
ATOM     28  F   UNL A   1      28.982  26.854  24.419  1.00  0.00    -0.185 F 
ATOM     29  F   UNL A   1      30.508  26.312  22.941  1.00  0.00    -0.185 F 
ENDBRANCH  25  27
ENDBRANCH   9  20
ENDBRANCH   4   6
ENDBRANCH   3   4
ENDBRANCH   2   3
ENDBRANCH   1   2
BRANCH   1  30
ATOM     30  O   UNL A   1      36.403  29.934  31.481  1.00  0.00    -0.458 OA
BRANCH  30  31
ATOM     31  C   UNL A   1      37.215  29.102  32.174  1.00  0.00     0.338 C 
ATOM     32  O   UNL A   1      37.028  28.631  33.281  1.00  0.00    -0.246 OA
BRANCH  31  33
ATOM     33  C   UNL A   1      38.404  28.814  31.355  1.00  0.00     0.060 A 
ATOM     34  C   UNL A   1      39.559  28.332  31.970  1.00  0.00     0.016 A 
ATOM     35  C   UNL A   1      38.404  29.101  29.993  1.00  0.00     0.016 A 
ATOM     36  C   UNL A   1      40.741  28.205  31.241  1.00  0.00     0.010 A 
ATOM     37  C   UNL A   1      39.565  28.879  29.243  1.00  0.00     0.010 A 
ATOM     38  C   UNL A   1      40.757  28.459  29.861  1.00  0.00    -0.014 A 
BRANCH  38  39
ATOM     39  C   UNL A   1      42.015  28.317  29.070  1.00  0.00     0.031 A 
ATOM     40  C   UNL A   1      42.352  27.004  28.409  1.00  0.00     0.074 A 
ATOM     41  C   UNL A   1      42.868  29.354  28.936  1.00  0.00     0.049 A 
ATOM     42  N   UNL A   1      43.470  26.627  27.842  1.00  0.00    -0.248 NA
ATOM     43  C   UNL A   1      41.297  25.977  28.395  1.00  0.00     0.031 C 
ATOM     44  C   UNL A   1      42.666  30.699  29.477  1.00  0.00     0.029 A 
ATOM     45  N   UNL A   1      44.076  29.437  28.288  1.00  0.00    -0.354 N 
ATOM     46  C   UNL A   1      43.281  25.300  27.471  1.00  0.00     0.074 A 
ATOM     47  C   UNL A   1      41.934  24.941  27.865  1.00  0.00     0.031 C 
ATOM     48  C   UNL A   1      43.685  31.485  29.095  1.00  0.00     0.029 A 
ATOM     49  C   UNL A   1      44.657  30.681  28.361  1.00  0.00     0.049 A 
ATOM     50  H   UNL A   1      44.488  28.678  27.816  1.00  0.00     0.167 HD
ATOM     51  C   UNL A   1      44.148  24.452  26.866  1.00  0.00     0.031 A 
ATOM     52  C   UNL A   1      45.851  31.127  27.926  1.00  0.00     0.031 A 
ATOM     53  C   UNL A   1      45.470  24.816  26.429  1.00  0.00     0.049 A 
ATOM     54  C   UNL A   1      46.807  30.170  27.273  1.00  0.00     0.074 A 
ATOM     55  C   UNL A   1      46.416  24.026  25.795  1.00  0.00     0.029 A 
ATOM     56  N   UNL A   1      46.029  26.076  26.564  1.00  0.00    -0.354 N 
ATOM     57  N   UNL A   1      46.635  28.900  26.998  1.00  0.00    -0.248 NA
ATOM     58  C   UNL A   1      48.126  30.700  26.903  1.00  0.00     0.031 C 
ATOM     59  C   UNL A   1      47.558  24.804  25.572  1.00  0.00     0.029 A 
ATOM     60  C   UNL A   1      47.310  26.085  26.037  1.00  0.00     0.049 A 
ATOM     61  H   UNL A   1      45.582  26.851  26.973  1.00  0.00     0.167 HD
ATOM     62  C   UNL A   1      47.831  28.474  26.433  1.00  0.00     0.074 A 
ATOM     63  C   UNL A   1      48.706  29.628  26.379  1.00  0.00     0.031 C 
ATOM     64  C   UNL A   1      48.177  27.234  26.009  1.00  0.00     0.031 A 
BRANCH  51  65
ATOM     65  C   UNL A   1      43.704  23.027  26.690  1.00  0.00    -0.014 A 
ATOM     66  C   UNL A   1      42.984  22.352  27.691  1.00  0.00     0.010 A 
ATOM     67  C   UNL A   1      44.008  22.355  25.491  1.00  0.00     0.010 A 
ATOM     68  C   UNL A   1      42.621  21.013  27.517  1.00  0.00     0.020 A 
ATOM     69  C   UNL A   1      43.628  21.024  25.305  1.00  0.00     0.020 A 
ATOM     70  C   UNL A   1      42.957  20.354  26.330  1.00  0.00     0.054 A 
BRANCH  70  71
ATOM     71  S   UNL A   1      42.486  18.614  26.126  1.00  0.00     0.124 S 
ATOM     72  O   UNL A   1      42.747  18.078  27.459  1.00  0.00    -0.237 OA
ATOM     73  O   UNL A   1      41.077  18.701  25.751  1.00  0.00    -0.237 OA
ATOM     74  O   UNL A   1      43.379  18.136  25.074  1.00  0.00    -0.744 OA
ENDBRANCH  70  71
ENDBRANCH  51  65
BRANCH  52  75
ATOM     75  C   UNL A   1      46.226  32.549  28.144  1.00  0.00    -0.014 A 
ATOM     76  C   UNL A   1      45.859  33.530  27.210  1.00  0.00     0.010 A 
ATOM     77  C   UNL A   1      46.903  32.934  29.317  1.00  0.00     0.010 A 
ATOM     78  C   UNL A   1      46.148  34.877  27.449  1.00  0.00     0.020 A 
ATOM     79  C   UNL A   1      47.172  34.280  29.570  1.00  0.00     0.020 A 
ATOM     80  C   UNL A   1      46.795  35.244  28.633  1.00  0.00     0.054 A 
BRANCH  80  81
ATOM     81  S   UNL A   1      47.066  37.004  28.982  1.00  0.00     0.124 S 
ATOM     82  O   UNL A   1      45.765  37.581  28.662  1.00  0.00    -0.237 OA
ATOM     83  O   UNL A   1      47.425  36.999  30.399  1.00  0.00    -0.237 OA
ATOM     84  O   UNL A   1      48.154  37.363  28.076  1.00  0.00    -0.744 OA
ENDBRANCH  80  81
ENDBRANCH  52  75
BRANCH  64  85
ATOM     85  C   UNL A   1      49.564  27.062  25.458  1.00  0.00    -0.014 A 
ATOM     86  C   UNL A   1      49.824  27.276  24.093  1.00  0.00     0.010 A 
ATOM     87  C   UNL A   1      50.623  26.718  26.316  1.00  0.00     0.010 A 
ATOM     88  C   UNL A   1      51.118  27.122  23.589  1.00  0.00     0.020 A 
ATOM     89  C   UNL A   1      51.920  26.578  25.819  1.00  0.00     0.020 A 
ATOM     90  C   UNL A   1      52.157  26.768  24.455  1.00  0.00     0.054 A 
BRANCH  90  91
ATOM     91  S   UNL A   1      53.837  26.605  23.789  1.00  0.00     0.124 S 
ATOM     92  O   UNL A   1      54.364  25.487  24.568  1.00  0.00    -0.237 OA
ATOM     93  O   UNL A   1      53.601  26.328  22.374  1.00  0.00    -0.237 OA
ATOM     94  O   UNL A   1      54.445  27.904  24.070  1.00  0.00    -0.744 OA
ENDBRANCH  90  91
ENDBRANCH  64  85
ENDBRANCH  38  39
ENDBRANCH  31  33
ENDBRANCH  30  31
ENDBRANCH   1  30
TORSDOF 18
ENDMDL
MODEL 2
REMARK VINA RESULT:     -12.0      5.934     13.308
REMARK SMILES CC(=O)NS(=O)(=O)c1cc(-c2ccn(C(F)F)c(=O)c2)ccc1C(=O)OCCOC(=O)c1ccc(-c2c3nc(c(-c4ccc(S(=O)(=O)[O-])cc4)c4ccc([nH]4)c(-c4ccc(S(=O)(=O)[O-])cc4)c4nc(c(-c5ccc(S(=O)(=O)[O-])cc5)c5ccc2[nH]5)C=C4)C=C3)cc1
REMARK SMILES IDX 28 1 27 2 26 3 24 4 25 5 23 6 8 7 9 8 10 9 22 10 21 11 5 12
REMARK SMILES IDX 6 13 7 14 4 15 1 16 2 17 3 18 11 20 12 21 20 22 13 23 18 24
REMARK SMILES IDX 14 25 19 26 15 27 16 28 17 29 29 30 30 31 31 32 32 33 33 34
REMARK SMILES IDX 91 35 34 36 90 37 35 38 36 39 37 40 84 41 38 42 89 43 83 44
REMARK SMILES IDX 85 45 39 46 88 47 82 48 81 49 40 51 70 52 51 53 69 54 52 55
REMARK SMILES IDX 55 56 68 57 86 58 53 59 54 60 67 62 87 63 56 64 41 65 42 66
REMARK SMILES IDX 50 67 43 68 49 69 44 70 45 71 46 72 47 73 48 74 71 75 72 76
REMARK SMILES IDX 80 77 73 78 79 79 74 80 75 81 76 82 77 83 78 84 57 85 58 86
REMARK SMILES IDX 66 87 59 88 65 89 60 90 61 91 62 92 63 93 64 94
REMARK H PARENT 4 19 85 50 55 61
REMARK Flexibility Score: inf
ROOT
ATOM      1  C   UNL A   1      43.818  24.941  25.541  1.00  0.00     0.275 C 
ENDROOT
BRANCH   1   2
ATOM      2  C   UNL A   1      43.574  24.052  26.756  1.00  0.00     0.275 C 
BRANCH   2   3
ATOM      3  O   UNL A   1      42.499  23.131  26.472  1.00  0.00    -0.458 OA
BRANCH   3   4
ATOM      4  C   UNL A   1      41.529  23.033  27.405  1.00  0.00     0.339 C 
ATOM      5  O   UNL A   1      41.640  23.165  28.610  1.00  0.00    -0.246 OA
BRANCH   4   6
ATOM      6  C   UNL A   1      40.225  22.815  26.751  1.00  0.00     0.080 A 
ATOM      7  C   UNL A   1      39.818  21.603  26.192  1.00  0.00     0.103 A 
ATOM      8  C   UNL A   1      38.547  21.493  25.597  1.00  0.00     0.032 A 
ATOM      9  C   UNL A   1      37.663  22.578  25.604  1.00  0.00    -0.017 A 
ATOM     10  C   UNL A   1      39.319  23.885  26.787  1.00  0.00     0.018 A 
ATOM     11  C   UNL A   1      38.057  23.776  26.203  1.00  0.00     0.010 A 
BRANCH   7  12
ATOM     12  S   UNL A   1      40.712  20.099  26.458  1.00  0.00     0.264 S 
ATOM     13  O   UNL A   1      40.077  19.060  25.680  1.00  0.00    -0.201 OA
ATOM     14  O   UNL A   1      40.899  19.949  27.885  1.00  0.00    -0.201 OA
BRANCH  12  15
ATOM     15  N   UNL A   1      42.220  20.353  25.809  1.00  0.00    -0.249 N 
ATOM     16  C   UNL A   1      43.366  18.201  26.341  1.00  0.00     0.115 C 
ATOM     17  C   UNL A   1      43.138  19.366  25.417  1.00  0.00     0.230 C 
ATOM     18  O   UNL A   1      43.831  19.564  24.429  1.00  0.00    -0.274 OA
ATOM     19  H   UNL A   1      42.497  21.290  25.687  1.00  0.00     0.183 HD
ENDBRANCH  12  15
ENDBRANCH   7  12
BRANCH   9  20
ATOM     20  C   UNL A   1      36.288  22.453  25.095  1.00  0.00    -0.011 A 
ATOM     21  C   UNL A   1      35.480  23.591  24.704  1.00  0.00     0.027 A 
ATOM     22  C   UNL A   1      35.744  21.225  25.087  1.00  0.00     0.080 A 
ATOM     23  C   UNL A   1      34.194  23.422  24.373  1.00  0.00     0.095 A 
ATOM     24  C   UNL A   1      34.324  21.020  24.693  1.00  0.00     0.255 A 
ATOM     25  N   UNL A   1      33.615  22.166  24.377  1.00  0.00    -0.258 N 
ATOM     26  O   UNL A   1      33.881  19.875  24.685  1.00  0.00    -0.269 OA
BRANCH  25  27
ATOM     27  C   UNL A   1      32.222  22.000  24.051  1.00  0.00     0.451 C 
ATOM     28  F   UNL A   1      32.073  21.327  22.883  1.00  0.00    -0.185 F 
ATOM     29  F   UNL A   1      31.575  21.303  25.018  1.00  0.00    -0.185 F 
ENDBRANCH  25  27
ENDBRANCH   9  20
ENDBRANCH   4   6
ENDBRANCH   3   4
ENDBRANCH   2   3
ENDBRANCH   1   2
BRANCH   1  30
ATOM     30  O   UNL A   1      43.349  26.264  25.848  1.00  0.00    -0.458 OA
BRANCH  30  31
ATOM     31  C   UNL A   1      42.008  26.443  25.826  1.00  0.00     0.338 C 
ATOM     32  O   UNL A   1      41.218  26.046  24.989  1.00  0.00    -0.246 OA
BRANCH  31  33
ATOM     33  C   UNL A   1      41.614  27.201  27.025  1.00  0.00     0.060 A 
ATOM     34  C   UNL A   1      42.150  28.470  27.241  1.00  0.00     0.016 A 
ATOM     35  C   UNL A   1      40.781  26.622  27.979  1.00  0.00     0.016 A 
ATOM     36  C   UNL A   1      41.916  29.136  28.444  1.00  0.00     0.010 A 
ATOM     37  C   UNL A   1      40.468  27.335  29.142  1.00  0.00     0.010 A 
ATOM     38  C   UNL A   1      41.055  28.585  29.405  1.00  0.00    -0.014 A 
BRANCH  38  39
ATOM     39  C   UNL A   1      40.791  29.295  30.692  1.00  0.00     0.031 A 
ATOM     40  C   UNL A   1      39.635  30.258  30.804  1.00  0.00     0.074 A 
ATOM     41  C   UNL A   1      41.576  29.089  31.769  1.00  0.00     0.049 A 
ATOM     42  N   UNL A   1      39.353  31.102  31.765  1.00  0.00    -0.248 NA
ATOM     43  C   UNL A   1      38.680  30.284  29.684  1.00  0.00     0.031 C 
ATOM     44  C   UNL A   1      42.706  28.159  31.835  1.00  0.00     0.029 A 
ATOM     45  N   UNL A   1      41.535  29.645  33.024  1.00  0.00    -0.354 N 
ATOM     46  C   UNL A   1      38.236  31.809  31.335  1.00  0.00     0.074 A 
ATOM     47  C   UNL A   1      37.883  31.285  30.031  1.00  0.00     0.031 C 
ATOM     48  C   UNL A   1      43.213  28.170  33.077  1.00  0.00     0.029 A 
ATOM     49  C   UNL A   1      42.509  29.172  33.871  1.00  0.00     0.049 A 
ATOM     50  H   UNL A   1      40.871  30.321  33.292  1.00  0.00     0.167 HD
ATOM     51  C   UNL A   1      37.568  32.809  31.960  1.00  0.00     0.031 A 
ATOM     52  C   UNL A   1      42.834  29.524  35.130  1.00  0.00     0.031 A 
ATOM     53  C   UNL A   1      37.883  33.301  33.274  1.00  0.00     0.049 A 
ATOM     54  C   UNL A   1      42.094  30.645  35.800  1.00  0.00     0.074 A 
ATOM     55  C   UNL A   1      37.253  34.303  33.994  1.00  0.00     0.029 A 
ATOM     56  N   UNL A   1      38.906  32.819  34.075  1.00  0.00    -0.354 N 
ATOM     57  N   UNL A   1      41.087  31.350  35.347  1.00  0.00    -0.248 NA
ATOM     58  C   UNL A   1      42.557  31.037  37.139  1.00  0.00     0.031 C 
ATOM     59  C   UNL A   1      37.914  34.445  35.219  1.00  0.00     0.029 A 
ATOM     60  C   UNL A   1      38.934  33.509  35.276  1.00  0.00     0.049 A 
ATOM     61  H   UNL A   1      39.522  32.092  33.827  1.00  0.00     0.167 HD
ATOM     62  C   UNL A   1      40.802  32.280  36.339  1.00  0.00     0.074 A 
ATOM     63  C   UNL A   1      41.724  32.028  37.429  1.00  0.00     0.031 C 
ATOM     64  C   UNL A   1      39.869  33.263  36.341  1.00  0.00     0.031 A 
BRANCH  51  65
ATOM     65  C   UNL A   1      36.454  33.471  31.197  1.00  0.00    -0.014 A 
ATOM     66  C   UNL A   1      36.616  33.873  29.860  1.00  0.00     0.010 A 
ATOM     67  C   UNL A   1      35.217  33.685  31.834  1.00  0.00     0.010 A 
ATOM     68  C   UNL A   1      35.577  34.525  29.189  1.00  0.00     0.020 A 
ATOM     69  C   UNL A   1      34.170  34.317  31.159  1.00  0.00     0.020 A 
ATOM     70  C   UNL A   1      34.365  34.755  29.848  1.00  0.00     0.054 A 
BRANCH  70  71
ATOM     71  S   UNL A   1      33.032  35.611  28.964  1.00  0.00     0.124 S 
ATOM     72  O   UNL A   1      32.480  34.535  28.145  1.00  0.00    -0.237 OA
ATOM     73  O   UNL A   1      32.171  36.077  30.049  1.00  0.00    -0.237 OA
ATOM     74  O   UNL A   1      33.726  36.663  28.228  1.00  0.00    -0.744 OA
ENDBRANCH  70  71
ENDBRANCH  51  65
BRANCH  52  75
ATOM     75  C   UNL A   1      43.955  28.830  35.818  1.00  0.00    -0.014 A 
ATOM     76  C   UNL A   1      45.261  29.336  35.729  1.00  0.00     0.010 A 
ATOM     77  C   UNL A   1      43.708  27.694  36.611  1.00  0.00     0.010 A 
ATOM     78  C   UNL A   1      46.304  28.726  36.434  1.00  0.00     0.020 A 
ATOM     79  C   UNL A   1      44.741  27.097  37.335  1.00  0.00     0.020 A 
ATOM     80  C   UNL A   1      46.034  27.616  37.240  1.00  0.00     0.054 A 
BRANCH  80  81
ATOM     81  S   UNL A   1      47.374  26.902  38.236  1.00  0.00     0.124 S 
ATOM     82  O   UNL A   1      47.854  28.063  38.976  1.00  0.00    -0.237 OA
ATOM     83  O   UNL A   1      46.680  25.888  39.028  1.00  0.00    -0.237 OA
ATOM     84  O   UNL A   1      48.292  26.370  37.232  1.00  0.00    -0.744 OA
ENDBRANCH  80  81
ENDBRANCH  52  75
BRANCH  64  85
ATOM     85  C   UNL A   1      39.806  34.143  37.557  1.00  0.00    -0.014 A 
ATOM     86  C   UNL A   1      39.033  33.772  38.671  1.00  0.00     0.010 A 
ATOM     87  C   UNL A   1      40.552  35.334  37.601  1.00  0.00     0.010 A 
ATOM     88  C   UNL A   1      38.986  34.592  39.801  1.00  0.00     0.020 A 
ATOM     89  C   UNL A   1      40.520  36.148  38.736  1.00  0.00     0.020 A 
ATOM     90  C   UNL A   1      39.725  35.778  39.824  1.00  0.00     0.054 A 
BRANCH  90  91
ATOM     91  S   UNL A   1      39.677  36.814  41.313  1.00  0.00     0.124 S 
ATOM     92  O   UNL A   1      41.097  36.966  41.620  1.00  0.00    -0.237 OA
ATOM     93  O   UNL A   1      39.002  38.022  40.848  1.00  0.00    -0.237 OA
ATOM     94  O   UNL A   1      38.915  36.010  42.266  1.00  0.00    -0.744 OA
ENDBRANCH  90  91
ENDBRANCH  64  85
ENDBRANCH  38  39
ENDBRANCH  31  33
ENDBRANCH  30  31
ENDBRANCH   1  30
TORSDOF 18
ENDMDL
MODEL 3
REMARK VINA RESULT:     -11.7      3.386      9.439
REMARK SMILES CC(=O)NS(=O)(=O)c1cc(-c2ccn(C(F)F)c(=O)c2)ccc1C(=O)OCCOC(=O)c1ccc(-c2c3nc(c(-c4ccc(S(=O)(=O)[O-])cc4)c4ccc([nH]4)c(-c4ccc(S(=O)(=O)[O-])cc4)c4nc(c(-c5ccc(S(=O)(=O)[O-])cc5)c5ccc2[nH]5)C=C4)C=C3)cc1
REMARK SMILES IDX 28 1 27 2 26 3 24 4 25 5 23 6 8 7 9 8 10 9 22 10 21 11 5 12
REMARK SMILES IDX 6 13 7 14 4 15 1 16 2 17 3 18 11 20 12 21 20 22 13 23 18 24
REMARK SMILES IDX 14 25 19 26 15 27 16 28 17 29 29 30 30 31 31 32 32 33 33 34
REMARK SMILES IDX 91 35 34 36 90 37 35 38 36 39 37 40 84 41 38 42 89 43 83 44
REMARK SMILES IDX 85 45 39 46 88 47 82 48 81 49 40 51 70 52 51 53 69 54 52 55
REMARK SMILES IDX 55 56 68 57 86 58 53 59 54 60 67 62 87 63 56 64 41 65 42 66
REMARK SMILES IDX 50 67 43 68 49 69 44 70 45 71 46 72 47 73 48 74 71 75 72 76
REMARK SMILES IDX 80 77 73 78 79 79 74 80 75 81 76 82 77 83 78 84 57 85 58 86
REMARK SMILES IDX 66 87 59 88 65 89 60 90 61 91 62 92 63 93 64 94
REMARK H PARENT 4 19 85 50 55 61
REMARK Flexibility Score: inf
ROOT
ATOM      1  C   UNL A   1      34.079  30.721  28.182  1.00  0.00     0.275 C 
ENDROOT
BRANCH   1   2
ATOM      2  C   UNL A   1      34.185  32.131  27.614  1.00  0.00     0.275 C 
BRANCH   2   3
ATOM      3  O   UNL A   1      34.129  33.092  28.690  1.00  0.00    -0.458 OA
BRANCH   3   4
ATOM      4  C   UNL A   1      34.940  34.165  28.582  1.00  0.00     0.339 C 
ATOM      5  O   UNL A   1      34.714  35.212  28.002  1.00  0.00    -0.246 OA
BRANCH   4   6
ATOM      6  C   UNL A   1      36.172  33.945  29.362  1.00  0.00     0.080 A 
ATOM      7  C   UNL A   1      36.279  34.148  30.737  1.00  0.00     0.103 A 
ATOM      8  C   UNL A   1      37.499  33.901  31.395  1.00  0.00     0.032 A 
ATOM      9  C   UNL A   1      38.598  33.402  30.686  1.00  0.00    -0.017 A 
ATOM     10  C   UNL A   1      37.267  33.409  28.667  1.00  0.00     0.018 A 
ATOM     11  C   UNL A   1      38.475  33.158  29.317  1.00  0.00     0.010 A 
BRANCH   7  12
ATOM     12  S   UNL A   1      34.860  34.423  31.759  1.00  0.00     0.264 S 
ATOM     13  O   UNL A   1      35.299  35.094  32.961  1.00  0.00    -0.201 OA
ATOM     14  O   UNL A   1      34.126  33.179  31.830  1.00  0.00    -0.201 OA
BRANCH  12  15
ATOM     15  N   UNL A   1      33.902  35.489  30.919  1.00  0.00    -0.249 N 
ATOM     16  C   UNL A   1      32.003  35.816  32.504  1.00  0.00     0.115 C 
ATOM     17  C   UNL A   1      32.943  36.358  31.462  1.00  0.00     0.230 C 
ATOM     18  O   UNL A   1      32.799  37.465  30.963  1.00  0.00    -0.274 OA
ATOM     19  H   UNL A   1      34.019  35.513  29.942  1.00  0.00     0.183 HD
ENDBRANCH  12  15
ENDBRANCH   7  12
BRANCH   9  20
ATOM     20  C   UNL A   1      39.846  33.024  31.368  1.00  0.00    -0.011 A 
ATOM     21  C   UNL A   1      41.039  33.845  31.355  1.00  0.00     0.027 A 
ATOM     22  C   UNL A   1      39.887  31.813  31.949  1.00  0.00     0.080 A 
ATOM     23  C   UNL A   1      42.180  33.386  31.884  1.00  0.00     0.095 A 
ATOM     24  C   UNL A   1      41.140  31.301  32.566  1.00  0.00     0.255 A 
ATOM     25  N   UNL A   1      42.242  32.134  32.470  1.00  0.00    -0.258 N 
ATOM     26  O   UNL A   1      41.118  30.196  33.099  1.00  0.00    -0.269 OA
BRANCH  25  27
ATOM     27  C   UNL A   1      43.483  31.637  33.006  1.00  0.00     0.451 C 
ATOM     28  F   UNL A   1      44.468  31.688  32.077  1.00  0.00    -0.185 F 
ATOM     29  F   UNL A   1      43.879  32.371  34.075  1.00  0.00    -0.185 F 
ENDBRANCH  25  27
ENDBRANCH   9  20
ENDBRANCH   4   6
ENDBRANCH   3   4
ENDBRANCH   2   3
ENDBRANCH   1   2
BRANCH   1  30
ATOM     30  O   UNL A   1      35.384  30.120  28.147  1.00  0.00    -0.458 OA
BRANCH  30  31
ATOM     31  C   UNL A   1      36.101  30.183  29.292  1.00  0.00     0.338 C 
ATOM     32  O   UNL A   1      35.728  30.571  30.385  1.00  0.00    -0.246 OA
BRANCH  31  33
ATOM     33  C   UNL A   1      37.457  29.672  29.028  1.00  0.00     0.060 A 
ATOM     34  C   UNL A   1      38.224  29.185  30.086  1.00  0.00     0.016 A 
ATOM     35  C   UNL A   1      38.001  29.754  27.750  1.00  0.00     0.016 A 
ATOM     36  C   UNL A   1      39.562  28.847  29.885  1.00  0.00     0.010 A 
ATOM     37  C   UNL A   1      39.314  29.321  27.531  1.00  0.00     0.010 A 
ATOM     38  C   UNL A   1      40.122  28.893  28.600  1.00  0.00    -0.014 A 
BRANCH  38  39
ATOM     39  C   UNL A   1      41.550  28.524  28.373  1.00  0.00     0.031 A 
ATOM     40  C   UNL A   1      42.632  29.569  28.487  1.00  0.00     0.074 A 
ATOM     41  C   UNL A   1      41.896  27.257  28.063  1.00  0.00     0.049 A 
ATOM     42  N   UNL A   1      43.895  29.492  28.150  1.00  0.00    -0.248 NA
ATOM     43  C   UNL A   1      42.239  30.875  29.041  1.00  0.00     0.031 C 
ATOM     44  C   UNL A   1      40.975  26.124  27.957  1.00  0.00     0.029 A 
ATOM     45  N   UNL A   1      43.126  26.709  27.790  1.00  0.00    -0.354 N 
ATOM     46  C   UNL A   1      44.429  30.756  28.380  1.00  0.00     0.074 A 
ATOM     47  C   UNL A   1      43.355  31.577  28.899  1.00  0.00     0.031 C 
ATOM     48  C   UNL A   1      41.676  25.010  27.695  1.00  0.00     0.029 A 
ATOM     49  C   UNL A   1      43.082  25.361  27.523  1.00  0.00     0.049 A 
ATOM     50  H   UNL A   1      43.960  27.232  27.783  1.00  0.00     0.167 HD
ATOM     51  C   UNL A   1      45.693  31.197  28.171  1.00  0.00     0.031 A 
ATOM     52  C   UNL A   1      44.048  24.503  27.144  1.00  0.00     0.031 A 
ATOM     53  C   UNL A   1      46.775  30.374  27.702  1.00  0.00     0.049 A 
ATOM     54  C   UNL A   1      45.440  25.013  26.901  1.00  0.00     0.074 A 
ATOM     55  C   UNL A   1      48.094  30.732  27.473  1.00  0.00     0.029 A 
ATOM     56  N   UNL A   1      46.672  29.025  27.405  1.00  0.00    -0.354 N 
ATOM     57  N   UNL A   1      45.906  26.228  27.054  1.00  0.00    -0.248 NA
ATOM     58  C   UNL A   1      46.424  24.042  26.405  1.00  0.00     0.031 C 
ATOM     59  C   UNL A   1      48.781  29.604  27.010  1.00  0.00     0.029 A 
ATOM     60  C   UNL A   1      47.898  28.537  26.983  1.00  0.00     0.049 A 
ATOM     61  H   UNL A   1      45.849  28.491  27.482  1.00  0.00     0.167 HD
ATOM     62  C   UNL A   1      47.237  26.172  26.660  1.00  0.00     0.074 A 
ATOM     63  C   UNL A   1      47.509  24.797  26.289  1.00  0.00     0.031 C 
ATOM     64  C   UNL A   1      48.148  27.173  26.598  1.00  0.00     0.031 A 
BRANCH  51  65
ATOM     65  C   UNL A   1      45.955  32.659  28.404  1.00  0.00    -0.014 A 
ATOM     66  C   UNL A   1      45.747  33.614  27.394  1.00  0.00     0.010 A 
ATOM     67  C   UNL A   1      46.412  33.082  29.667  1.00  0.00     0.010 A 
ATOM     68  C   UNL A   1      46.040  34.961  27.627  1.00  0.00     0.020 A 
ATOM     69  C   UNL A   1      46.685  34.431  29.909  1.00  0.00     0.020 A 
ATOM     70  C   UNL A   1      46.520  35.359  28.879  1.00  0.00     0.054 A 
BRANCH  70  71
ATOM     71  S   UNL A   1      46.904  37.109  29.158  1.00  0.00     0.124 S 
ATOM     72  O   UNL A   1      48.055  37.022  30.052  1.00  0.00    -0.237 OA
ATOM     73  O   UNL A   1      47.192  37.598  27.811  1.00  0.00    -0.237 OA
ATOM     74  O   UNL A   1      45.683  37.638  29.760  1.00  0.00    -0.744 OA
ENDBRANCH  70  71
ENDBRANCH  51  65
BRANCH  52  75
ATOM     75  C   UNL A   1      43.712  23.072  26.923  1.00  0.00    -0.014 A 
ATOM     76  C   UNL A   1      43.029  22.344  27.911  1.00  0.00     0.010 A 
ATOM     77  C   UNL A   1      44.022  22.449  25.700  1.00  0.00     0.010 A 
ATOM     78  C   UNL A   1      42.648  21.019  27.676  1.00  0.00     0.020 A 
ATOM     79  C   UNL A   1      43.623  21.134  25.452  1.00  0.00     0.020 A 
ATOM     80  C   UNL A   1      42.940  20.426  26.444  1.00  0.00     0.054 A 
BRANCH  80  81
ATOM     81  S   UNL A   1      42.344  18.744  26.110  1.00  0.00     0.124 S 
ATOM     82  O   UNL A   1      42.550  18.088  27.396  1.00  0.00    -0.237 OA
ATOM     83  O   UNL A   1      40.950  18.968  25.729  1.00  0.00    -0.237 OA
ATOM     84  O   UNL A   1      43.210  18.290  25.024  1.00  0.00    -0.744 OA
ENDBRANCH  80  81
ENDBRANCH  52  75
BRANCH  64  85
ATOM     85  C   UNL A   1      49.522  26.817  26.103  1.00  0.00    -0.014 A 
ATOM     86  C   UNL A   1      49.923  27.152  24.798  1.00  0.00     0.010 A 
ATOM     87  C   UNL A   1      50.431  26.172  26.960  1.00  0.00     0.010 A 
ATOM     88  C   UNL A   1      51.205  26.824  24.348  1.00  0.00     0.020 A 
ATOM     89  C   UNL A   1      51.718  25.857  26.519  1.00  0.00     0.020 A 
ATOM     90  C   UNL A   1      52.092  26.172  25.210  1.00  0.00     0.054 A 
BRANCH  90  91
ATOM     91  S   UNL A   1      53.763  25.784  24.619  1.00  0.00     0.124 S 
ATOM     92  O   UNL A   1      54.532  26.920  25.120  1.00  0.00    -0.237 OA
ATOM     93  O   UNL A   1      54.045  24.502  25.260  1.00  0.00    -0.237 OA
ATOM     94  O   UNL A   1      53.608  25.726  23.167  1.00  0.00    -0.744 OA
ENDBRANCH  90  91
ENDBRANCH  64  85
ENDBRANCH  38  39
ENDBRANCH  31  33
ENDBRANCH  30  31
ENDBRANCH   1  30
TORSDOF 18
ENDMDL
