MODEL 1
REMARK VINA RESULT:     -11.8      0.000      0.000
REMARK SMILES Cc1cc(Cl)c(C)c2c1O[C@H](C(F)(F)F)C(C(=O)OCCOC(=O)c1ccc(-c3c4nc(c(-c5ccc(S(=O)(=O)[O-])cc5)c5ccc([nH]5)c(-c5ccc(S(=O)(=O)[O-])cc5)c5nc(c(-c6ccc(S(=O)(=O)[O-])cc6)c6ccc3[nH]6)C=C5)C=C4)cc1)=C2
REMARK SMILES IDX 21 1 20 2 19 3 17 4 18 5 16 6 1 7 2 8 3 9 9 10 4 11 8 12
REMARK SMILES IDX 10 13 5 14 6 15 85 16 11 17 7 18 12 19 13 20 14 21 15 22
REMARK SMILES IDX 22 23 23 24 24 25 25 26 26 27 84 28 27 29 83 30 28 31 29 32
REMARK SMILES IDX 30 33 77 34 31 35 82 36 76 37 78 38 32 39 81 40 75 41 74 42
REMARK SMILES IDX 33 44 63 45 44 46 62 47 45 48 48 49 61 50 79 51 46 52 47 53
REMARK SMILES IDX 60 55 80 56 49 57 34 58 35 59 43 60 36 61 42 62 37 63 38 64
REMARK SMILES IDX 39 65 40 66 41 67 64 68 65 69 73 70 66 71 72 72 67 73 68 74
REMARK SMILES IDX 69 75 70 76 71 77 50 78 51 79 59 80 52 81 58 82 53 83 54 84
REMARK SMILES IDX 55 85 56 86 57 87
REMARK H PARENT 78 43 48 54
REMARK Flexibility Score: inf
ROOT
ATOM      1  C   UNL A   1      34.221  30.887  27.632  1.00  0.00     0.275 C 
ENDROOT
BRANCH   1   2
ATOM      2  C   UNL A   1      34.121  29.502  26.992  1.00  0.00     0.275 C 
BRANCH   2   3
ATOM      3  O   UNL A   1      33.261  29.513  25.830  1.00  0.00    -0.459 OA
BRANCH   3   4
ATOM      4  C   UNL A   1      33.498  28.541  24.920  1.00  0.00     0.338 C 
ATOM      5  O   UNL A   1      33.981  28.690  23.807  1.00  0.00    -0.246 OA
BRANCH   4   6
ATOM      6  C   UNL A   1      33.080  27.224  25.440  1.00  0.00     0.087 C 
ATOM      7  C   UNL A   1      30.303  23.167  26.875  1.00  0.00     0.048 C 
ATOM      8  C   UNL A   1      31.741  23.414  26.522  1.00  0.00    -0.007 A 
ATOM      9  C   UNL A   1      32.613  22.323  26.436  1.00  0.00     0.028 A 
ATOM     10  C   UNL A   1      32.217  24.692  26.200  1.00  0.00     0.131 A 
ATOM     11  C   UNL A   1      33.950  22.497  26.070  1.00  0.00     0.045 A 
ATOM     12  C   UNL A   1      33.555  24.878  25.815  1.00  0.00     0.022 A 
ATOM     13  O   UNL A   1      31.312  25.717  26.309  1.00  0.00    -0.475 OA
ATOM     14  Cl  UNL A   1      34.924  21.069  26.015  1.00  0.00    -0.084 Cl
ATOM     15  C   UNL A   1      34.448  23.773  25.754  1.00  0.00    -0.021 A 
ATOM     16  C   UNL A   1      33.975  26.230  25.452  1.00  0.00     0.027 C 
ATOM     17  C   UNL A   1      31.641  27.028  25.789  1.00  0.00     0.316 C 
ATOM     18  C   UNL A   1      35.896  23.970  25.374  1.00  0.00     0.047 C 
BRANCH  17  19
ATOM     19  C   UNL A   1      30.725  27.333  24.592  1.00  0.00     0.430 C 
ATOM     20  F   UNL A   1      31.274  26.902  23.430  1.00  0.00    -0.167 F 
ATOM     21  F   UNL A   1      29.529  26.705  24.704  1.00  0.00    -0.167 F 
ATOM     22  F   UNL A   1      30.476  28.655  24.456  1.00  0.00    -0.167 F 
ENDBRANCH  17  19
ENDBRANCH   4   6
ENDBRANCH   3   4
ENDBRANCH   2   3
ENDBRANCH   1   2
BRANCH   1  23
ATOM     23  O   UNL A   1      35.598  31.280  27.779  1.00  0.00    -0.458 OA
BRANCH  23  24
ATOM     24  C   UNL A   1      36.153  30.963  28.970  1.00  0.00     0.338 C 
ATOM     25  O   UNL A   1      35.722  31.228  30.080  1.00  0.00    -0.246 OA
BRANCH  24  26
ATOM     26  C   UNL A   1      37.351  30.134  28.774  1.00  0.00     0.060 A 
ATOM     27  C   UNL A   1      38.110  29.808  29.889  1.00  0.00     0.016 A 
ATOM     28  C   UNL A   1      37.844  29.884  27.498  1.00  0.00     0.016 A 
ATOM     29  C   UNL A   1      39.430  29.403  29.732  1.00  0.00     0.010 A 
ATOM     30  C   UNL A   1      39.124  29.329  27.349  1.00  0.00     0.010 A 
ATOM     31  C   UNL A   1      39.963  29.140  28.463  1.00  0.00    -0.014 A 
BRANCH  31  32
ATOM     32  C   UNL A   1      41.388  28.715  28.305  1.00  0.00     0.031 A 
ATOM     33  C   UNL A   1      42.509  29.717  28.481  1.00  0.00     0.074 A 
ATOM     34  C   UNL A   1      41.704  27.428  28.035  1.00  0.00     0.049 A 
ATOM     35  N   UNL A   1      43.771  29.614  28.147  1.00  0.00    -0.248 NA
ATOM     36  C   UNL A   1      42.165  31.006  29.105  1.00  0.00     0.031 C 
ATOM     37  C   UNL A   1      40.753  26.318  27.925  1.00  0.00     0.029 A 
ATOM     38  N   UNL A   1      42.921  26.830  27.817  1.00  0.00    -0.354 N 
ATOM     39  C   UNL A   1      44.352  30.842  28.452  1.00  0.00     0.074 A 
ATOM     40  C   UNL A   1      43.305  31.677  29.000  1.00  0.00     0.031 C 
ATOM     41  C   UNL A   1      41.422  25.174  27.735  1.00  0.00     0.029 A 
ATOM     42  C   UNL A   1      42.833  25.482  27.555  1.00  0.00     0.049 A 
ATOM     43  H   UNL A   1      43.776  27.319  27.847  1.00  0.00     0.167 HD
ATOM     44  C   UNL A   1      45.638  31.239  28.280  1.00  0.00     0.031 A 
ATOM     45  C   UNL A   1      43.756  24.593  27.140  1.00  0.00     0.031 A 
ATOM     46  C   UNL A   1      46.682  30.382  27.776  1.00  0.00     0.049 A 
ATOM     47  C   UNL A   1      45.152  25.073  26.871  1.00  0.00     0.074 A 
ATOM     48  C   UNL A   1      48.012  30.691  27.544  1.00  0.00     0.029 A 
ATOM     49  N   UNL A   1      46.523  29.043  27.450  1.00  0.00    -0.354 N 
ATOM     50  N   UNL A   1      45.657  26.272  27.039  1.00  0.00    -0.248 NA
ATOM     51  C   UNL A   1      46.096  24.086  26.333  1.00  0.00     0.031 C 
ATOM     52  C   UNL A   1      48.643  29.555  27.030  1.00  0.00     0.029 A 
ATOM     53  C   UNL A   1      47.725  28.517  27.007  1.00  0.00     0.049 A 
ATOM     54  H   UNL A   1      45.680  28.541  27.523  1.00  0.00     0.167 HD
ATOM     55  C   UNL A   1      46.985  26.178  26.645  1.00  0.00     0.074 A 
ATOM     56  C   UNL A   1      47.209  24.802  26.250  1.00  0.00     0.031 C 
ATOM     57  C   UNL A   1      47.933  27.148  26.610  1.00  0.00     0.031 A 
BRANCH  44  58
ATOM     58  C   UNL A   1      45.991  32.673  28.591  1.00  0.00    -0.014 A 
ATOM     59  C   UNL A   1      46.514  33.055  29.839  1.00  0.00     0.010 A 
ATOM     60  C   UNL A   1      45.865  33.646  27.581  1.00  0.00     0.010 A 
ATOM     61  C   UNL A   1      46.882  34.385  30.076  1.00  0.00     0.020 A 
ATOM     62  C   UNL A   1      46.258  34.969  27.804  1.00  0.00     0.020 A 
ATOM     63  C   UNL A   1      46.754  35.333  29.056  1.00  0.00     0.054 A 
BRANCH  63  64
ATOM     64  S   UNL A   1      47.280  37.040  29.381  1.00  0.00     0.124 S 
ATOM     65  O   UNL A   1      48.728  36.948  29.211  1.00  0.00    -0.237 OA
ATOM     66  O   UNL A   1      46.572  37.792  28.348  1.00  0.00    -0.237 OA
ATOM     67  O   UNL A   1      46.831  37.289  30.748  1.00  0.00    -0.744 OA
ENDBRANCH  63  64
ENDBRANCH  44  58
BRANCH  45  68
ATOM     68  C   UNL A   1      43.361  23.179  26.882  1.00  0.00    -0.014 A 
ATOM     69  C   UNL A   1      43.462  22.631  25.592  1.00  0.00     0.010 A 
ATOM     70  C   UNL A   1      42.916  22.361  27.938  1.00  0.00     0.010 A 
ATOM     71  C   UNL A   1      43.129  21.293  25.365  1.00  0.00     0.020 A 
ATOM     72  C   UNL A   1      42.620  21.013  27.722  1.00  0.00     0.020 A 
ATOM     73  C   UNL A   1      42.720  20.489  26.433  1.00  0.00     0.054 A 
BRANCH  73  74
ATOM     74  S   UNL A   1      42.365  18.738  26.125  1.00  0.00     0.124 S 
ATOM     75  O   UNL A   1      40.955  18.774  25.751  1.00  0.00    -0.237 OA
ATOM     76  O   UNL A   1      43.299  18.413  25.050  1.00  0.00    -0.237 OA
ATOM     77  O   UNL A   1      42.656  18.097  27.407  1.00  0.00    -0.744 OA
ENDBRANCH  73  74
ENDBRANCH  45  68
BRANCH  57  78
ATOM     78  C   UNL A   1      49.314  26.739  26.173  1.00  0.00    -0.014 A 
ATOM     79  C   UNL A   1      49.763  26.961  24.860  1.00  0.00     0.010 A 
ATOM     80  C   UNL A   1      50.183  26.141  27.105  1.00  0.00     0.010 A 
ATOM     81  C   UNL A   1      51.041  26.548  24.473  1.00  0.00     0.020 A 
ATOM     82  C   UNL A   1      51.472  25.756  26.730  1.00  0.00     0.020 A 
ATOM     83  C   UNL A   1      51.885  25.945  25.411  1.00  0.00     0.054 A 
BRANCH  83  84
ATOM     84  S   UNL A   1      53.541  25.428  24.883  1.00  0.00     0.124 S 
ATOM     85  O   UNL A   1      54.397  26.128  25.837  1.00  0.00    -0.237 OA
ATOM     86  O   UNL A   1      53.486  23.976  25.034  1.00  0.00    -0.237 OA
ATOM     87  O   UNL A   1      53.630  25.902  23.504  1.00  0.00    -0.744 OA
ENDBRANCH  83  84
ENDBRANCH  57  78
ENDBRANCH  31  32
ENDBRANCH  24  26
ENDBRANCH  23  24
ENDBRANCH   1  23
TORSDOF 15
ENDMDL
MODEL 2
REMARK VINA RESULT:     -11.7      2.099      2.874
REMARK SMILES Cc1cc(Cl)c(C)c2c1O[C@H](C(F)(F)F)C(C(=O)OCCOC(=O)c1ccc(-c3c4nc(c(-c5ccc(S(=O)(=O)[O-])cc5)c5ccc([nH]5)c(-c5ccc(S(=O)(=O)[O-])cc5)c5nc(c(-c6ccc(S(=O)(=O)[O-])cc6)c6ccc3[nH]6)C=C5)C=C4)cc1)=C2
REMARK SMILES IDX 21 1 20 2 19 3 17 4 18 5 16 6 1 7 2 8 3 9 9 10 4 11 8 12
REMARK SMILES IDX 10 13 5 14 6 15 85 16 11 17 7 18 12 19 13 20 14 21 15 22
REMARK SMILES IDX 22 23 23 24 24 25 25 26 26 27 84 28 27 29 83 30 28 31 29 32
REMARK SMILES IDX 30 33 77 34 31 35 82 36 76 37 78 38 32 39 81 40 75 41 74 42
REMARK SMILES IDX 33 44 63 45 44 46 62 47 45 48 48 49 61 50 79 51 46 52 47 53
REMARK SMILES IDX 60 55 80 56 49 57 34 58 35 59 43 60 36 61 42 62 37 63 38 64
REMARK SMILES IDX 39 65 40 66 41 67 64 68 65 69 73 70 66 71 72 72 67 73 68 74
REMARK SMILES IDX 69 75 70 76 71 77 50 78 51 79 59 80 52 81 58 82 53 83 54 84
REMARK SMILES IDX 55 85 56 86 57 87
REMARK H PARENT 78 43 48 54
REMARK Flexibility Score: inf
ROOT
ATOM      1  C   UNL A   1      32.508  28.449  27.383  1.00  0.00     0.275 C 
ENDROOT
BRANCH   1   2
ATOM      2  C   UNL A   1      32.212  27.070  26.792  1.00  0.00     0.275 C 
BRANCH   2   3
ATOM      3  O   UNL A   1      31.861  27.155  25.392  1.00  0.00    -0.459 OA
BRANCH   3   4
ATOM      4  C   UNL A   1      32.787  26.679  24.529  1.00  0.00     0.338 C 
ATOM      5  O   UNL A   1      33.398  27.326  23.690  1.00  0.00    -0.246 OA
BRANCH   4   6
ATOM      6  C   UNL A   1      32.979  25.227  24.714  1.00  0.00     0.087 C 
ATOM      7  C   UNL A   1      32.317  20.148  24.721  1.00  0.00     0.048 C 
ATOM      8  C   UNL A   1      33.492  21.079  24.813  1.00  0.00    -0.007 A 
ATOM      9  C   UNL A   1      34.784  20.541  24.806  1.00  0.00     0.028 A 
ATOM     10  C   UNL A   1      33.335  22.472  24.826  1.00  0.00     0.131 A 
ATOM     11  C   UNL A   1      35.908  21.368  24.848  1.00  0.00     0.045 A 
ATOM     12  C   UNL A   1      34.459  23.315  24.852  1.00  0.00     0.022 A 
ATOM     13  O   UNL A   1      32.044  22.933  24.836  1.00  0.00    -0.475 OA
ATOM     14  Cl  UNL A   1      37.445  20.576  24.849  1.00  0.00    -0.084 Cl
ATOM     15  C   UNL A   1      35.771  22.767  24.872  1.00  0.00    -0.021 A 
ATOM     16  C   UNL A   1      34.226  24.757  24.821  1.00  0.00     0.027 C 
ATOM     17  C   UNL A   1      31.779  24.341  24.625  1.00  0.00     0.316 C 
ATOM     18  C   UNL A   1      36.983  23.665  24.935  1.00  0.00     0.047 C 
BRANCH  17  19
ATOM     19  C   UNL A   1      31.049  24.515  23.284  1.00  0.00     0.430 C 
ATOM     20  F   UNL A   1      30.304  23.423  22.983  1.00  0.00    -0.167 F 
ATOM     21  F   UNL A   1      30.192  25.565  23.313  1.00  0.00    -0.167 F 
ATOM     22  F   UNL A   1      31.902  24.718  22.255  1.00  0.00    -0.167 F 
ENDBRANCH  17  19
ENDBRANCH   4   6
ENDBRANCH   3   4
ENDBRANCH   2   3
ENDBRANCH   1   2
BRANCH   1  23
ATOM     23  O   UNL A   1      33.921  28.614  27.601  1.00  0.00    -0.458 OA
BRANCH  23  24
ATOM     24  C   UNL A   1      34.318  29.891  27.800  1.00  0.00     0.338 C 
ATOM     25  O   UNL A   1      33.632  30.897  27.730  1.00  0.00    -0.246 OA
BRANCH  24  26
ATOM     26  C   UNL A   1      35.723  29.931  28.228  1.00  0.00     0.060 A 
ATOM     27  C   UNL A   1      36.674  30.362  27.314  1.00  0.00     0.016 A 
ATOM     28  C   UNL A   1      36.124  29.334  29.419  1.00  0.00     0.016 A 
ATOM     29  C   UNL A   1      38.012  30.038  27.502  1.00  0.00     0.010 A 
ATOM     30  C   UNL A   1      37.490  29.146  29.672  1.00  0.00     0.010 A 
ATOM     31  C   UNL A   1      38.453  29.436  28.687  1.00  0.00    -0.014 A 
BRANCH  31  32
ATOM     32  C   UNL A   1      39.894  29.081  28.875  1.00  0.00     0.031 A 
ATOM     33  C   UNL A   1      40.867  30.099  29.427  1.00  0.00     0.074 A 
ATOM     34  C   UNL A   1      40.346  27.840  28.586  1.00  0.00     0.049 A 
ATOM     35  N   UNL A   1      42.177  30.075  29.430  1.00  0.00    -0.248 NA
ATOM     36  C   UNL A   1      40.295  31.306  30.048  1.00  0.00     0.031 C 
ATOM     37  C   UNL A   1      39.526  26.713  28.133  1.00  0.00     0.029 A 
ATOM     38  N   UNL A   1      41.613  27.310  28.646  1.00  0.00    -0.354 N 
ATOM     39  C   UNL A   1      42.583  31.287  29.984  1.00  0.00     0.074 A 
ATOM     40  C   UNL A   1      41.380  32.025  30.307  1.00  0.00     0.031 C 
ATOM     41  C   UNL A   1      40.290  25.618  28.027  1.00  0.00     0.029 A 
ATOM     42  C   UNL A   1      41.678  25.992  28.253  1.00  0.00     0.049 A 
ATOM     43  H   UNL A   1      42.400  27.824  28.943  1.00  0.00     0.167 HD
ATOM     44  C   UNL A   1      43.842  31.745  30.193  1.00  0.00     0.031 A 
ATOM     45  C   UNL A   1      42.730  25.184  28.021  1.00  0.00     0.031 A 
ATOM     46  C   UNL A   1      45.032  30.981  29.909  1.00  0.00     0.049 A 
ATOM     47  C   UNL A   1      44.116  25.738  28.174  1.00  0.00     0.074 A 
ATOM     48  C   UNL A   1      46.355  31.359  30.066  1.00  0.00     0.029 A 
ATOM     49  N   UNL A   1      45.044  29.677  29.438  1.00  0.00    -0.354 N 
ATOM     50  N   UNL A   1      44.485  26.931  28.573  1.00  0.00    -0.248 NA
ATOM     51  C   UNL A   1      45.225  24.844  27.819  1.00  0.00     0.031 C 
ATOM     52  C   UNL A   1      47.167  30.303  29.639  1.00  0.00     0.029 A 
ATOM     53  C   UNL A   1      46.350  29.241  29.284  1.00  0.00     0.049 A 
ATOM     54  H   UNL A   1      44.244  29.140  29.242  1.00  0.00     0.167 HD
ATOM     55  C   UNL A   1      45.874  26.925  28.536  1.00  0.00     0.074 A 
ATOM     56  C   UNL A   1      46.275  25.604  28.096  1.00  0.00     0.031 C 
ATOM     57  C   UNL A   1      46.737  27.927  28.839  1.00  0.00     0.031 A 
BRANCH  44  58
ATOM     58  C   UNL A   1      44.015  33.152  30.710  1.00  0.00    -0.014 A 
ATOM     59  C   UNL A   1      44.175  34.247  29.844  1.00  0.00     0.010 A 
ATOM     60  C   UNL A   1      43.940  33.388  32.098  1.00  0.00     0.010 A 
ATOM     61  C   UNL A   1      44.279  35.546  30.355  1.00  0.00     0.020 A 
ATOM     62  C   UNL A   1      44.015  34.687  32.610  1.00  0.00     0.020 A 
ATOM     63  C   UNL A   1      44.194  35.758  31.735  1.00  0.00     0.054 A 
BRANCH  63  64
ATOM     64  S   UNL A   1      44.290  37.458  32.364  1.00  0.00     0.124 S 
ATOM     65  O   UNL A   1      43.416  37.397  33.534  1.00  0.00    -0.237 OA
ATOM     66  O   UNL A   1      45.713  37.612  32.650  1.00  0.00    -0.237 OA
ATOM     67  O   UNL A   1      43.787  38.268  31.257  1.00  0.00    -0.744 OA
ENDBRANCH  63  64
ENDBRANCH  44  58
BRANCH  45  68
ATOM     68  C   UNL A   1      42.502  23.789  27.545  1.00  0.00    -0.014 A 
ATOM     69  C   UNL A   1      42.500  23.492  26.172  1.00  0.00     0.010 A 
ATOM     70  C   UNL A   1      42.322  22.743  28.470  1.00  0.00     0.010 A 
ATOM     71  C   UNL A   1      42.327  22.176  25.734  1.00  0.00     0.020 A 
ATOM     72  C   UNL A   1      42.187  21.421  28.037  1.00  0.00     0.020 A 
ATOM     73  C   UNL A   1      42.182  21.148  26.670  1.00  0.00     0.054 A 
BRANCH  73  74
ATOM     74  S   UNL A   1      42.033  19.440  26.077  1.00  0.00     0.124 S 
ATOM     75  O   UNL A   1      40.603  19.336  25.805  1.00  0.00    -0.237 OA
ATOM     76  O   UNL A   1      42.905  19.438  24.905  1.00  0.00    -0.237 OA
ATOM     77  O   UNL A   1      42.515  18.642  27.204  1.00  0.00    -0.744 OA
ENDBRANCH  73  74
ENDBRANCH  45  68
BRANCH  57  78
ATOM     78  C   UNL A   1      48.206  27.613  28.747  1.00  0.00    -0.014 A 
ATOM     79  C   UNL A   1      48.872  26.914  29.769  1.00  0.00     0.010 A 
ATOM     80  C   UNL A   1      48.926  28.008  27.604  1.00  0.00     0.010 A 
ATOM     81  C   UNL A   1      50.243  26.659  29.671  1.00  0.00     0.020 A 
ATOM     82  C   UNL A   1      50.288  27.726  27.488  1.00  0.00     0.020 A 
ATOM     83  C   UNL A   1      50.942  27.070  28.532  1.00  0.00     0.054 A 
BRANCH  83  84
ATOM     84  S   UNL A   1      52.718  26.716  28.428  1.00  0.00     0.124 S 
ATOM     85  O   UNL A   1      53.035  26.347  29.804  1.00  0.00    -0.237 OA
ATOM     86  O   UNL A   1      52.769  25.628  27.456  1.00  0.00    -0.237 OA
ATOM     87  O   UNL A   1      53.297  27.978  27.974  1.00  0.00    -0.744 OA
ENDBRANCH  83  84
ENDBRANCH  57  78
ENDBRANCH  31  32
ENDBRANCH  24  26
ENDBRANCH  23  24
ENDBRANCH   1  23
TORSDOF 15
ENDMDL
MODEL 3
REMARK VINA RESULT:     -11.4      6.733     11.980
REMARK SMILES Cc1cc(Cl)c(C)c2c1O[C@H](C(F)(F)F)C(C(=O)OCCOC(=O)c1ccc(-c3c4nc(c(-c5ccc(S(=O)(=O)[O-])cc5)c5ccc([nH]5)c(-c5ccc(S(=O)(=O)[O-])cc5)c5nc(c(-c6ccc(S(=O)(=O)[O-])cc6)c6ccc3[nH]6)C=C5)C=C4)cc1)=C2
REMARK SMILES IDX 21 1 20 2 19 3 17 4 18 5 16 6 1 7 2 8 3 9 9 10 4 11 8 12
REMARK SMILES IDX 10 13 5 14 6 15 85 16 11 17 7 18 12 19 13 20 14 21 15 22
REMARK SMILES IDX 22 23 23 24 24 25 25 26 26 27 84 28 27 29 83 30 28 31 29 32
REMARK SMILES IDX 30 33 77 34 31 35 82 36 76 37 78 38 32 39 81 40 75 41 74 42
REMARK SMILES IDX 33 44 63 45 44 46 62 47 45 48 48 49 61 50 79 51 46 52 47 53
REMARK SMILES IDX 60 55 80 56 49 57 34 58 35 59 43 60 36 61 42 62 37 63 38 64
REMARK SMILES IDX 39 65 40 66 41 67 64 68 65 69 73 70 66 71 72 72 67 73 68 74
REMARK SMILES IDX 69 75 70 76 71 77 50 78 51 79 59 80 52 81 58 82 53 83 54 84
REMARK SMILES IDX 55 85 56 86 57 87
REMARK H PARENT 78 43 48 54
REMARK Flexibility Score: inf
ROOT
ATOM      1  C   UNL A   1      39.591  22.346  26.140  1.00  0.00     0.275 C 
ENDROOT
BRANCH   1   2
ATOM      2  C   UNL A   1      38.196  21.937  25.664  1.00  0.00     0.275 C 
BRANCH   2   3
ATOM      3  O   UNL A   1      37.402  23.085  25.293  1.00  0.00    -0.459 OA
BRANCH   3   4
ATOM      4  C   UNL A   1      36.584  22.910  24.230  1.00  0.00     0.338 C 
ATOM      5  O   UNL A   1      36.917  22.551  23.110  1.00  0.00    -0.246 OA
BRANCH   4   6
ATOM      6  C   UNL A   1      35.186  23.224  24.586  1.00  0.00     0.087 C 
ATOM      7  C   UNL A   1      30.303  22.869  26.091  1.00  0.00     0.048 C 
ATOM      8  C   UNL A   1      31.319  23.970  25.990  1.00  0.00    -0.007 A 
ATOM      9  C   UNL A   1      30.998  25.236  26.493  1.00  0.00     0.028 A 
ATOM     10  C   UNL A   1      32.606  23.748  25.480  1.00  0.00     0.131 A 
ATOM     11  C   UNL A   1      31.924  26.280  26.461  1.00  0.00     0.045 A 
ATOM     12  C   UNL A   1      33.552  24.786  25.457  1.00  0.00     0.022 A 
ATOM     13  O   UNL A   1      32.854  22.488  25.001  1.00  0.00    -0.475 OA
ATOM     14  Cl  UNL A   1      31.395  27.797  27.101  1.00  0.00    -0.084 Cl
ATOM     15  C   UNL A   1      33.216  26.080  25.943  1.00  0.00    -0.021 A 
ATOM     16  C   UNL A   1      34.888  24.476  24.952  1.00  0.00     0.027 C 
ATOM     17  C   UNL A   1      34.208  22.097  24.663  1.00  0.00     0.316 C 
ATOM     18  C   UNL A   1      34.216  27.209  25.890  1.00  0.00     0.047 C 
BRANCH  17  19
ATOM     19  C   UNL A   1      34.674  21.013  25.648  1.00  0.00     0.430 C 
ATOM     20  F   UNL A   1      35.622  20.218  25.093  1.00  0.00    -0.167 F 
ATOM     21  F   UNL A   1      35.233  21.553  26.759  1.00  0.00    -0.167 F 
ATOM     22  F   UNL A   1      33.662  20.213  26.052  1.00  0.00    -0.167 F 
ENDBRANCH  17  19
ENDBRANCH   4   6
ENDBRANCH   3   4
ENDBRANCH   2   3
ENDBRANCH   1   2
BRANCH   1  23
ATOM     23  O   UNL A   1      39.511  23.465  27.042  1.00  0.00    -0.458 OA
BRANCH  23  24
ATOM     24  C   UNL A   1      40.513  24.364  26.919  1.00  0.00     0.338 C 
ATOM     25  O   UNL A   1      41.506  24.272  26.217  1.00  0.00    -0.246 OA
BRANCH  24  26
ATOM     26  C   UNL A   1      40.213  25.576  27.694  1.00  0.00     0.060 A 
ATOM     27  C   UNL A   1      41.024  26.687  27.511  1.00  0.00     0.016 A 
ATOM     28  C   UNL A   1      39.305  25.543  28.747  1.00  0.00     0.016 A 
ATOM     29  C   UNL A   1      41.059  27.685  28.478  1.00  0.00     0.010 A 
ATOM     30  C   UNL A   1      39.238  26.626  29.635  1.00  0.00     0.010 A 
ATOM     31  C   UNL A   1      40.161  27.686  29.552  1.00  0.00    -0.014 A 
BRANCH  31  32
ATOM     32  C   UNL A   1      40.215  28.758  30.594  1.00  0.00     0.031 A 
ATOM     33  C   UNL A   1      41.250  28.701  31.696  1.00  0.00     0.074 A 
ATOM     34  C   UNL A   1      39.367  29.810  30.553  1.00  0.00     0.049 A 
ATOM     35  N   UNL A   1      41.305  29.379  32.816  1.00  0.00    -0.248 NA
ATOM     36  C   UNL A   1      42.363  27.752  31.523  1.00  0.00     0.031 C 
ATOM     37  C   UNL A   1      38.371  30.067  29.509  1.00  0.00     0.029 A 
ATOM     38  N   UNL A   1      39.216  30.875  31.408  1.00  0.00    -0.354 N 
ATOM     39  C   UNL A   1      42.410  28.891  33.508  1.00  0.00     0.074 A 
ATOM     40  C   UNL A   1      42.999  27.858  32.683  1.00  0.00     0.031 C 
ATOM     41  C   UNL A   1      37.769  31.240  29.745  1.00  0.00     0.029 A 
ATOM     42  C   UNL A   1      38.219  31.747  31.032  1.00  0.00     0.049 A 
ATOM     43  H   UNL A   1      39.768  31.002  32.215  1.00  0.00     0.167 HD
ATOM     44  C   UNL A   1      42.882  29.263  34.724  1.00  0.00     0.031 A 
ATOM     45  C   UNL A   1      37.665  32.795  31.671  1.00  0.00     0.031 A 
ATOM     46  C   UNL A   1      42.312  30.325  35.516  1.00  0.00     0.049 A 
ATOM     47  C   UNL A   1      38.143  33.134  33.053  1.00  0.00     0.074 A 
ATOM     48  C   UNL A   1      42.701  30.768  36.769  1.00  0.00     0.029 A 
ATOM     49  N   UNL A   1      41.253  31.129  35.122  1.00  0.00    -0.354 N 
ATOM     50  N   UNL A   1      39.103  32.578  33.751  1.00  0.00    -0.248 NA
ATOM     51  C   UNL A   1      37.444  34.225  33.742  1.00  0.00     0.031 C 
ATOM     52  C   UNL A   1      41.844  31.803  37.155  1.00  0.00     0.029 A 
ATOM     53  C   UNL A   1      40.965  32.053  36.113  1.00  0.00     0.049 A 
ATOM     54  H   UNL A   1      40.775  31.053  34.265  1.00  0.00     0.167 HD
ATOM     55  C   UNL A   1      39.137  33.266  34.957  1.00  0.00     0.074 A 
ATOM     56  C   UNL A   1      38.115  34.290  34.883  1.00  0.00     0.031 C 
ATOM     57  C   UNL A   1      39.942  33.063  36.030  1.00  0.00     0.031 A 
BRANCH  44  58
ATOM     58  C   UNL A   1      44.042  28.493  35.307  1.00  0.00    -0.014 A 
ATOM     59  C   UNL A   1      45.373  28.909  35.130  1.00  0.00     0.010 A 
ATOM     60  C   UNL A   1      43.783  27.368  36.115  1.00  0.00     0.010 A 
ATOM     61  C   UNL A   1      46.422  28.202  35.729  1.00  0.00     0.020 A 
ATOM     62  C   UNL A   1      44.826  26.677  36.739  1.00  0.00     0.020 A 
ATOM     63  C   UNL A   1      46.141  27.093  36.533  1.00  0.00     0.054 A 
BRANCH  63  64
ATOM     64  S   UNL A   1      47.520  26.222  37.331  1.00  0.00     0.124 S 
ATOM     65  O   UNL A   1      47.690  25.062  36.459  1.00  0.00    -0.237 OA
ATOM     66  O   UNL A   1      48.594  27.211  37.278  1.00  0.00    -0.237 OA
ATOM     67  O   UNL A   1      47.016  25.923  38.669  1.00  0.00    -0.744 OA
ENDBRANCH  63  64
ENDBRANCH  44  58
BRANCH  45  68
ATOM     68  C   UNL A   1      36.545  33.544  31.034  1.00  0.00    -0.014 A 
ATOM     69  C   UNL A   1      36.672  34.046  29.727  1.00  0.00     0.010 A 
ATOM     70  C   UNL A   1      35.329  33.726  31.720  1.00  0.00     0.010 A 
ATOM     71  C   UNL A   1      35.603  34.713  29.120  1.00  0.00     0.020 A 
ATOM     72  C   UNL A   1      34.247  34.358  31.102  1.00  0.00     0.020 A 
ATOM     73  C   UNL A   1      34.394  34.854  29.807  1.00  0.00     0.054 A 
BRANCH  73  74
ATOM     74  S   UNL A   1      33.000  35.657  28.970  1.00  0.00     0.124 S 
ATOM     75  O   UNL A   1      33.672  36.675  28.168  1.00  0.00    -0.237 OA
ATOM     76  O   UNL A   1      32.405  34.551  28.223  1.00  0.00    -0.237 OA
ATOM     77  O   UNL A   1      32.184  36.165  30.071  1.00  0.00    -0.744 OA
ENDBRANCH  73  74
ENDBRANCH  45  68
BRANCH  57  78
ATOM     78  C   UNL A   1      39.778  34.003  37.194  1.00  0.00    -0.014 A 
ATOM     79  C   UNL A   1      40.413  35.257  37.220  1.00  0.00     0.010 A 
ATOM     80  C   UNL A   1      38.953  33.629  38.271  1.00  0.00     0.010 A 
ATOM     81  C   UNL A   1      40.266  36.099  38.325  1.00  0.00     0.020 A 
ATOM     82  C   UNL A   1      38.777  34.482  39.362  1.00  0.00     0.020 A 
ATOM     83  C   UNL A   1      39.450  35.704  39.391  1.00  0.00     0.054 A 
BRANCH  83  84
ATOM     84  S   UNL A   1      39.269  36.823  40.807  1.00  0.00     0.124 S 
ATOM     85  O   UNL A   1      38.557  37.951  40.213  1.00  0.00    -0.237 OA
ATOM     86  O   UNL A   1      38.498  36.019  41.751  1.00  0.00    -0.237 OA
ATOM     87  O   UNL A   1      40.645  37.099  41.209  1.00  0.00    -0.744 OA
ENDBRANCH  83  84
ENDBRANCH  57  78
ENDBRANCH  31  32
ENDBRANCH  24  26
ENDBRANCH  23  24
ENDBRANCH   1  23
TORSDOF 15
ENDMDL
