MODEL 1
REMARK VINA RESULT:     -13.4      0.000      0.000
REMARK SMILES Cc1ccccc1OC1(C(=O)OCCOC(=O)c2ccc(-c3c4nc(c(-c5ccc(S(=O)(=O)[O-])cc5)c5ccc([nH]5)c(-c5ccc(S(=O)(=O)[O-])cc5)c5nc(c(-c6ccc(S(=O)(=O)[O-])cc6)c6ccc3[nH]6)C=C5)C=C4)cc2)CCN(C(=O)[C@H]2CCCCO2)CC1
REMARK SMILES IDX 14 1 13 2 12 3 10 4 11 5 9 6 78 7 90 8 79 9 89 10 80 11
REMARK SMILES IDX 81 12 82 13 8 14 7 15 1 16 2 17 3 18 4 19 6 20 5 21 83 22
REMARK SMILES IDX 84 23 88 24 85 25 87 26 86 27 15 28 16 29 17 30 18 31 19 32
REMARK SMILES IDX 77 33 20 34 76 35 21 36 22 37 23 38 70 39 24 40 75 41 69 42
REMARK SMILES IDX 71 43 25 44 74 45 68 46 67 47 26 49 56 50 37 51 55 52 38 53
REMARK SMILES IDX 41 54 54 55 72 56 39 57 40 58 53 60 73 61 42 62 27 63 28 64
REMARK SMILES IDX 36 65 29 66 35 67 30 68 31 69 32 70 33 71 34 72 57 73 58 74
REMARK SMILES IDX 66 75 59 76 65 77 60 78 61 79 62 80 63 81 64 82 43 83 44 84
REMARK SMILES IDX 52 85 45 86 51 87 46 88 47 89 48 90 49 91 50 92
REMARK H PARENT 71 48 41 59
REMARK Flexibility Score: inf
ROOT
ATOM      1  C   UNL A   1      33.859  29.851  26.793  1.00  0.00     0.275 C 
ENDROOT
BRANCH   1   2
ATOM      2  C   UNL A   1      32.525  29.105  26.968  1.00  0.00     0.274 C 
BRANCH   2   3
ATOM      3  O   UNL A   1      32.018  28.604  25.709  1.00  0.00    -0.459 OA
BRANCH   3   4
ATOM      4  C   UNL A   1      31.386  27.394  25.803  1.00  0.00     0.350 C 
ATOM      5  O   UNL A   1      30.848  27.034  26.849  1.00  0.00    -0.247 OA
BRANCH   4   6
ATOM      6  C   UNL A   1      31.615  26.452  24.551  1.00  0.00     0.209 C 
ATOM      7  C   UNL A   1      33.138  26.302  24.544  1.00  0.00     0.082 C 
ATOM      8  C   UNL A   1      30.791  25.181  24.869  1.00  0.00     0.082 C 
ATOM      9  C   UNL A   1      33.637  25.025  25.181  1.00  0.00     0.124 C 
ATOM     10  C   UNL A   1      31.474  23.873  24.556  1.00  0.00     0.124 C 
ATOM     11  N   UNL A   1      32.895  23.802  24.890  1.00  0.00    -0.340 N 
ATOM     12  C   UNL A   1      33.614  22.607  25.000  1.00  0.00     0.251 C 
ATOM     13  O   UNL A   1      34.833  22.630  25.212  1.00  0.00    -0.272 OA
BRANCH   6  14
ATOM     14  O   UNL A   1      31.224  27.075  23.310  1.00  0.00    -0.475 OA
BRANCH  14  15
ATOM     15  C   UNL A   1      30.173  27.937  23.093  1.00  0.00     0.123 A 
ATOM     16  C   UNL A   1      27.995  26.676  23.863  1.00  0.00     0.048 C 
ATOM     17  C   UNL A   1      28.791  27.836  23.343  1.00  0.00    -0.009 A 
ATOM     18  C   UNL A   1      27.928  28.900  22.939  1.00  0.00     0.007 A 
ATOM     19  C   UNL A   1      28.383  30.007  22.239  1.00  0.00     0.001 A 
ATOM     20  C   UNL A   1      30.590  29.065  22.353  1.00  0.00     0.047 A 
ATOM     21  C   UNL A   1      29.724  30.078  21.927  1.00  0.00     0.004 A 
ENDBRANCH  14  15
ENDBRANCH   6  14
BRANCH  12  22
ATOM     22  C   UNL A   1      32.856  21.261  24.885  1.00  0.00     0.207 C 
ATOM     23  C   UNL A   1      32.811  20.765  23.435  1.00  0.00     0.042 C 
ATOM     24  O   UNL A   1      33.538  20.301  25.709  1.00  0.00    -0.368 OA
ATOM     25  C   UNL A   1      32.249  19.351  23.341  1.00  0.00     0.006 C 
ATOM     26  C   UNL A   1      32.918  19.022  25.715  1.00  0.00     0.161 C 
ATOM     27  C   UNL A   1      32.956  18.424  24.319  1.00  0.00     0.029 C 
ENDBRANCH  12  22
ENDBRANCH   4   6
ENDBRANCH   3   4
ENDBRANCH   2   3
ENDBRANCH   1   2
BRANCH   1  28
ATOM     28  O   UNL A   1      34.881  29.487  27.740  1.00  0.00    -0.458 OA
BRANCH  28  29
ATOM     29  C   UNL A   1      35.545  30.540  28.283  1.00  0.00     0.338 C 
ATOM     30  O   UNL A   1      34.977  31.507  28.798  1.00  0.00    -0.246 OA
BRANCH  29  31
ATOM     31  C   UNL A   1      36.942  30.090  28.531  1.00  0.00     0.060 A 
ATOM     32  C   UNL A   1      37.210  29.285  29.643  1.00  0.00     0.016 A 
ATOM     33  C   UNL A   1      37.878  30.172  27.492  1.00  0.00     0.016 A 
ATOM     34  C   UNL A   1      38.342  28.464  29.669  1.00  0.00     0.010 A 
ATOM     35  C   UNL A   1      38.961  29.316  27.482  1.00  0.00     0.010 A 
ATOM     36  C   UNL A   1      39.194  28.450  28.561  1.00  0.00    -0.014 A 
BRANCH  36  37
ATOM     37  C   UNL A   1      40.507  27.805  28.561  1.00  0.00     0.031 A 
ATOM     38  C   UNL A   1      40.768  26.403  28.173  1.00  0.00     0.074 A 
ATOM     39  C   UNL A   1      41.502  28.611  28.990  1.00  0.00     0.049 A 
ATOM     40  N   UNL A   1      41.697  25.670  28.701  1.00  0.00    -0.248 NA
ATOM     41  C   UNL A   1      39.992  25.692  27.161  1.00  0.00     0.031 C 
ATOM     42  C   UNL A   1      42.935  28.377  29.000  1.00  0.00     0.029 A 
ATOM     43  N   UNL A   1      41.335  29.773  29.752  1.00  0.00    -0.354 N 
ATOM     44  C   UNL A   1      41.814  24.525  27.937  1.00  0.00     0.074 A 
ATOM     45  C   UNL A   1      40.669  24.539  27.055  1.00  0.00     0.031 C 
ATOM     46  C   UNL A   1      43.469  29.143  29.970  1.00  0.00     0.029 A 
ATOM     47  C   UNL A   1      42.361  29.768  30.689  1.00  0.00     0.049 A 
ATOM     48  H   UNL A   1      40.632  30.455  29.646  1.00  0.00     0.167 HD
ATOM     49  C   UNL A   1      42.949  23.765  27.996  1.00  0.00     0.031 A 
ATOM     50  C   UNL A   1      42.121  29.687  32.027  1.00  0.00     0.031 A 
ATOM     51  C   UNL A   1      43.930  24.358  28.897  1.00  0.00     0.049 A 
ATOM     52  C   UNL A   1      42.862  28.525  32.625  1.00  0.00     0.074 A 
ATOM     53  C   UNL A   1      44.981  25.224  28.647  1.00  0.00     0.029 A 
ATOM     54  N   UNL A   1      43.722  24.359  30.269  1.00  0.00    -0.354 N 
ATOM     55  N   UNL A   1      43.094  27.408  31.992  1.00  0.00    -0.248 NA
ATOM     56  C   UNL A   1      43.432  28.560  33.966  1.00  0.00     0.031 C 
ATOM     57  C   UNL A   1      45.336  25.836  29.871  1.00  0.00     0.029 A 
ATOM     58  C   UNL A   1      44.535  25.302  30.867  1.00  0.00     0.049 A 
ATOM     59  H   UNL A   1      43.089  23.774  30.746  1.00  0.00     0.167 HD
ATOM     60  C   UNL A   1      43.939  26.647  32.756  1.00  0.00     0.074 A 
ATOM     61  C   UNL A   1      44.082  27.386  34.001  1.00  0.00     0.031 C 
ATOM     62  C   UNL A   1      44.528  25.504  32.304  1.00  0.00     0.031 A 
BRANCH  49  63
ATOM     63  C   UNL A   1      43.316  22.701  26.979  1.00  0.00    -0.014 A 
ATOM     64  C   UNL A   1      42.601  21.482  26.961  1.00  0.00     0.010 A 
ATOM     65  C   UNL A   1      44.367  22.817  26.050  1.00  0.00     0.010 A 
ATOM     66  C   UNL A   1      42.985  20.397  26.159  1.00  0.00     0.020 A 
ATOM     67  C   UNL A   1      44.778  21.729  25.255  1.00  0.00     0.020 A 
ATOM     68  C   UNL A   1      44.098  20.515  25.335  1.00  0.00     0.054 A 
BRANCH  68  69
ATOM     69  S   UNL A   1      44.651  19.059  24.402  1.00  0.00     0.124 S 
ATOM     70  O   UNL A   1      46.038  18.914  24.840  1.00  0.00    -0.237 OA
ATOM     71  O   UNL A   1      43.735  18.021  24.864  1.00  0.00    -0.237 OA
ATOM     72  O   UNL A   1      44.485  19.458  23.007  1.00  0.00    -0.744 OA
ENDBRANCH  68  69
ENDBRANCH  49  63
BRANCH  50  73
ATOM     73  C   UNL A   1      40.792  30.175  32.508  1.00  0.00    -0.014 A 
ATOM     74  C   UNL A   1      40.486  31.548  32.358  1.00  0.00     0.010 A 
ATOM     75  C   UNL A   1      39.749  29.296  32.849  1.00  0.00     0.010 A 
ATOM     76  C   UNL A   1      39.171  32.012  32.454  1.00  0.00     0.020 A 
ATOM     77  C   UNL A   1      38.429  29.762  32.965  1.00  0.00     0.020 A 
ATOM     78  C   UNL A   1      38.146  31.113  32.739  1.00  0.00     0.054 A 
BRANCH  78  79
ATOM     79  S   UNL A   1      36.433  31.715  32.649  1.00  0.00     0.124 S 
ATOM     80  O   UNL A   1      36.512  32.698  31.573  1.00  0.00    -0.237 OA
ATOM     81  O   UNL A   1      35.700  30.491  32.336  1.00  0.00    -0.237 OA
ATOM     82  O   UNL A   1      36.205  32.261  33.982  1.00  0.00    -0.744 OA
ENDBRANCH  78  79
ENDBRANCH  50  73
BRANCH  62  83
ATOM     83  C   UNL A   1      45.312  24.552  33.160  1.00  0.00    -0.014 A 
ATOM     84  C   UNL A   1      44.840  23.280  33.515  1.00  0.00     0.010 A 
ATOM     85  C   UNL A   1      46.641  24.877  33.515  1.00  0.00     0.010 A 
ATOM     86  C   UNL A   1      45.634  22.396  34.255  1.00  0.00     0.020 A 
ATOM     87  C   UNL A   1      47.455  23.987  34.216  1.00  0.00     0.020 A 
ATOM     88  C   UNL A   1      46.936  22.757  34.602  1.00  0.00     0.054 A 
BRANCH  88  89
ATOM     89  S   UNL A   1      47.985  21.581  35.489  1.00  0.00     0.124 S 
ATOM     90  O   UNL A   1      47.231  20.339  35.347  1.00  0.00    -0.237 OA
ATOM     91  O   UNL A   1      49.244  21.637  34.750  1.00  0.00    -0.237 OA
ATOM     92  O   UNL A   1      48.042  22.133  36.841  1.00  0.00    -0.744 OA
ENDBRANCH  88  89
ENDBRANCH  62  83
ENDBRANCH  36  37
ENDBRANCH  29  31
ENDBRANCH  28  29
ENDBRANCH   1  28
TORSDOF 17
ENDMDL
MODEL 2
REMARK VINA RESULT:     -13.3      1.375      4.410
REMARK SMILES Cc1ccccc1OC1(C(=O)OCCOC(=O)c2ccc(-c3c4nc(c(-c5ccc(S(=O)(=O)[O-])cc5)c5ccc([nH]5)c(-c5ccc(S(=O)(=O)[O-])cc5)c5nc(c(-c6ccc(S(=O)(=O)[O-])cc6)c6ccc3[nH]6)C=C5)C=C4)cc2)CCN(C(=O)[C@H]2CCCCO2)CC1
REMARK SMILES IDX 14 1 13 2 12 3 10 4 11 5 9 6 78 7 90 8 79 9 89 10 80 11
REMARK SMILES IDX 81 12 82 13 8 14 7 15 1 16 2 17 3 18 4 19 6 20 5 21 83 22
REMARK SMILES IDX 84 23 88 24 85 25 87 26 86 27 15 28 16 29 17 30 18 31 19 32
REMARK SMILES IDX 77 33 20 34 76 35 21 36 22 37 23 38 70 39 24 40 75 41 69 42
REMARK SMILES IDX 71 43 25 44 74 45 68 46 67 47 26 49 56 50 37 51 55 52 38 53
REMARK SMILES IDX 41 54 54 55 72 56 39 57 40 58 53 60 73 61 42 62 27 63 28 64
REMARK SMILES IDX 36 65 29 66 35 67 30 68 31 69 32 70 33 71 34 72 57 73 58 74
REMARK SMILES IDX 66 75 59 76 65 77 60 78 61 79 62 80 63 81 64 82 43 83 44 84
REMARK SMILES IDX 52 85 45 86 51 87 46 88 47 89 48 90 49 91 50 92
REMARK H PARENT 71 48 41 59
REMARK Flexibility Score: inf
ROOT
ATOM      1  C   UNL A   1      33.693  29.612  27.363  1.00  0.00     0.275 C 
ENDROOT
BRANCH   1   2
ATOM      2  C   UNL A   1      32.903  28.297  27.251  1.00  0.00     0.274 C 
BRANCH   2   3
ATOM      3  O   UNL A   1      33.499  27.388  26.298  1.00  0.00    -0.459 OA
BRANCH   3   4
ATOM      4  C   UNL A   1      32.629  26.462  25.789  1.00  0.00     0.350 C 
ATOM      5  O   UNL A   1      32.260  25.498  26.458  1.00  0.00    -0.247 OA
BRANCH   4   6
ATOM      6  C   UNL A   1      32.347  26.629  24.240  1.00  0.00     0.209 C 
ATOM      7  C   UNL A   1      30.946  26.027  24.108  1.00  0.00     0.082 C 
ATOM      8  C   UNL A   1      32.480  28.148  23.984  1.00  0.00     0.082 C 
ATOM      9  C   UNL A   1      29.834  27.051  24.085  1.00  0.00     0.124 C 
ATOM     10  C   UNL A   1      31.423  28.749  23.092  1.00  0.00     0.124 C 
ATOM     11  N   UNL A   1      30.061  28.263  23.304  1.00  0.00    -0.340 N 
ATOM     12  C   UNL A   1      28.916  28.917  22.838  1.00  0.00     0.251 C 
ATOM     13  O   UNL A   1      27.800  28.405  22.991  1.00  0.00    -0.272 OA
BRANCH   6  14
ATOM     14  O   UNL A   1      33.245  25.845  23.427  1.00  0.00    -0.475 OA
BRANCH  14  15
ATOM     15  C   UNL A   1      33.779  24.608  23.710  1.00  0.00     0.123 A 
ATOM     16  C   UNL A   1      31.941  22.834  23.073  1.00  0.00     0.048 C 
ATOM     17  C   UNL A   1      33.287  23.299  23.544  1.00  0.00    -0.009 A 
ATOM     18  C   UNL A   1      34.070  22.196  24.002  1.00  0.00     0.007 A 
ATOM     19  C   UNL A   1      35.272  22.359  24.674  1.00  0.00     0.001 A 
ATOM     20  C   UNL A   1      34.990  24.732  24.424  1.00  0.00     0.047 A 
ATOM     21  C   UNL A   1      35.724  23.641  24.903  1.00  0.00     0.004 A 
ENDBRANCH  14  15
ENDBRANCH   6  14
BRANCH  12  22
ATOM     22  C   UNL A   1      29.065  30.302  22.160  1.00  0.00     0.207 C 
ATOM     23  C   UNL A   1      28.043  30.487  21.033  1.00  0.00     0.042 C 
ATOM     24  O   UNL A   1      28.869  31.308  23.167  1.00  0.00    -0.368 OA
ATOM     25  C   UNL A   1      28.047  31.915  20.498  1.00  0.00     0.006 C 
ATOM     26  C   UNL A   1      29.013  32.634  22.676  1.00  0.00     0.161 C 
ATOM     27  C   UNL A   1      27.941  32.917  21.637  1.00  0.00     0.029 C 
ENDBRANCH  12  22
ENDBRANCH   4   6
ENDBRANCH   3   4
ENDBRANCH   2   3
ENDBRANCH   1   2
BRANCH   1  28
ATOM     28  O   UNL A   1      35.119  29.449  27.490  1.00  0.00    -0.458 OA
BRANCH  28  29
ATOM     29  C   UNL A   1      35.739  30.444  28.175  1.00  0.00     0.338 C 
ATOM     30  O   UNL A   1      35.133  31.348  28.757  1.00  0.00    -0.246 OA
BRANCH  29  31
ATOM     31  C   UNL A   1      37.128  29.981  28.449  1.00  0.00     0.060 A 
ATOM     32  C   UNL A   1      37.358  29.128  29.533  1.00  0.00     0.016 A 
ATOM     33  C   UNL A   1      38.097  30.106  27.446  1.00  0.00     0.016 A 
ATOM     34  C   UNL A   1      38.487  28.304  29.561  1.00  0.00     0.010 A 
ATOM     35  C   UNL A   1      39.179  29.249  27.435  1.00  0.00     0.010 A 
ATOM     36  C   UNL A   1      39.376  28.336  28.483  1.00  0.00    -0.014 A 
BRANCH  36  37
ATOM     37  C   UNL A   1      40.687  27.689  28.498  1.00  0.00     0.031 A 
ATOM     38  C   UNL A   1      40.954  26.292  28.095  1.00  0.00     0.074 A 
ATOM     39  C   UNL A   1      41.676  28.487  28.957  1.00  0.00     0.049 A 
ATOM     40  N   UNL A   1      41.872  25.550  28.629  1.00  0.00    -0.248 NA
ATOM     41  C   UNL A   1      40.196  25.597  27.058  1.00  0.00     0.031 C 
ATOM     42  C   UNL A   1      43.107  28.250  28.991  1.00  0.00     0.029 A 
ATOM     43  N   UNL A   1      41.496  29.639  29.732  1.00  0.00    -0.354 N 
ATOM     44  C   UNL A   1      42.002  24.416  27.851  1.00  0.00     0.074 A 
ATOM     45  C   UNL A   1      40.873  24.445  26.949  1.00  0.00     0.031 C 
ATOM     46  C   UNL A   1      43.625  29.001  29.981  1.00  0.00     0.029 A 
ATOM     47  C   UNL A   1      42.504  29.618  30.688  1.00  0.00     0.049 A 
ATOM     48  H   UNL A   1      40.796  30.323  29.623  1.00  0.00     0.167 HD
ATOM     49  C   UNL A   1      43.133  23.653  27.922  1.00  0.00     0.031 A 
ATOM     50  C   UNL A   1      42.239  29.519  32.020  1.00  0.00     0.031 A 
ATOM     51  C   UNL A   1      44.098  24.232  28.849  1.00  0.00     0.049 A 
ATOM     52  C   UNL A   1      42.967  28.347  32.615  1.00  0.00     0.074 A 
ATOM     53  C   UNL A   1      45.155  25.100  28.631  1.00  0.00     0.029 A 
ATOM     54  N   UNL A   1      43.865  24.213  30.217  1.00  0.00    -0.354 N 
ATOM     55  N   UNL A   1      43.209  27.239  31.971  1.00  0.00    -0.248 NA
ATOM     56  C   UNL A   1      43.512  28.362  33.967  1.00  0.00     0.031 C 
ATOM     57  C   UNL A   1      45.488  25.693  29.870  1.00  0.00     0.029 A 
ATOM     58  C   UNL A   1      44.667  25.146  30.843  1.00  0.00     0.049 A 
ATOM     59  H   UNL A   1      43.222  23.622  30.673  1.00  0.00     0.167 HD
ATOM     60  C   UNL A   1      44.038  26.465  32.740  1.00  0.00     0.074 A 
ATOM     61  C   UNL A   1      44.159  27.186  33.997  1.00  0.00     0.031 C 
ATOM     62  C   UNL A   1      44.634  25.328  32.282  1.00  0.00     0.031 A 
BRANCH  49  63
ATOM     63  C   UNL A   1      43.519  22.603  26.896  1.00  0.00    -0.014 A 
ATOM     64  C   UNL A   1      42.663  21.499  26.679  1.00  0.00     0.010 A 
ATOM     65  C   UNL A   1      44.711  22.620  26.149  1.00  0.00     0.010 A 
ATOM     66  C   UNL A   1      43.027  20.415  25.867  1.00  0.00     0.020 A 
ATOM     67  C   UNL A   1      45.100  21.528  25.348  1.00  0.00     0.020 A 
ATOM     68  C   UNL A   1      44.264  20.419  25.233  1.00  0.00     0.054 A 
BRANCH  68  69
ATOM     69  S   UNL A   1      44.766  18.951  24.291  1.00  0.00     0.124 S 
ATOM     70  O   UNL A   1      46.118  18.704  24.790  1.00  0.00    -0.237 OA
ATOM     71  O   UNL A   1      43.763  17.965  24.681  1.00  0.00    -0.237 OA
ATOM     72  O   UNL A   1      44.695  19.391  22.900  1.00  0.00    -0.744 OA
ENDBRANCH  68  69
ENDBRANCH  49  63
BRANCH  50  73
ATOM     73  C   UNL A   1      40.901  30.002  32.483  1.00  0.00    -0.014 A 
ATOM     74  C   UNL A   1      40.609  31.381  32.368  1.00  0.00     0.010 A 
ATOM     75  C   UNL A   1      39.845  29.121  32.771  1.00  0.00     0.010 A 
ATOM     76  C   UNL A   1      39.295  31.852  32.445  1.00  0.00     0.020 A 
ATOM     77  C   UNL A   1      38.525  29.593  32.868  1.00  0.00     0.020 A 
ATOM     78  C   UNL A   1      38.257  30.953  32.677  1.00  0.00     0.054 A 
BRANCH  78  79
ATOM     79  S   UNL A   1      36.552  31.571  32.563  1.00  0.00     0.124 S 
ATOM     80  O   UNL A   1      36.654  32.552  31.488  1.00  0.00    -0.237 OA
ATOM     81  O   UNL A   1      35.812  30.353  32.241  1.00  0.00    -0.237 OA
ATOM     82  O   UNL A   1      36.310  32.120  33.893  1.00  0.00    -0.744 OA
ENDBRANCH  78  79
ENDBRANCH  50  73
BRANCH  62  83
ATOM     83  C   UNL A   1      45.400  24.362  33.140  1.00  0.00    -0.014 A 
ATOM     84  C   UNL A   1      46.667  24.649  33.668  1.00  0.00     0.010 A 
ATOM     85  C   UNL A   1      44.774  23.166  33.560  1.00  0.00     0.010 A 
ATOM     86  C   UNL A   1      47.314  23.749  34.522  1.00  0.00     0.020 A 
ATOM     87  C   UNL A   1      45.393  22.282  34.444  1.00  0.00     0.020 A 
ATOM     88  C   UNL A   1      46.673  22.570  34.902  1.00  0.00     0.054 A 
BRANCH  88  89
ATOM     89  S   UNL A   1      47.480  21.447  36.068  1.00  0.00     0.124 S 
ATOM     90  O   UNL A   1      47.852  22.355  37.150  1.00  0.00    -0.237 OA
ATOM     91  O   UNL A   1      46.425  20.489  36.390  1.00  0.00    -0.237 OA
ATOM     92  O   UNL A   1      48.592  20.900  35.294  1.00  0.00    -0.744 OA
ENDBRANCH  88  89
ENDBRANCH  62  83
ENDBRANCH  36  37
ENDBRANCH  29  31
ENDBRANCH  28  29
ENDBRANCH   1  28
TORSDOF 17
ENDMDL
MODEL 3
REMARK VINA RESULT:     -13.3      4.066     10.997
REMARK SMILES Cc1ccccc1OC1(C(=O)OCCOC(=O)c2ccc(-c3c4nc(c(-c5ccc(S(=O)(=O)[O-])cc5)c5ccc([nH]5)c(-c5ccc(S(=O)(=O)[O-])cc5)c5nc(c(-c6ccc(S(=O)(=O)[O-])cc6)c6ccc3[nH]6)C=C5)C=C4)cc2)CCN(C(=O)[C@H]2CCCCO2)CC1
REMARK SMILES IDX 14 1 13 2 12 3 10 4 11 5 9 6 78 7 90 8 79 9 89 10 80 11
REMARK SMILES IDX 81 12 82 13 8 14 7 15 1 16 2 17 3 18 4 19 6 20 5 21 83 22
REMARK SMILES IDX 84 23 88 24 85 25 87 26 86 27 15 28 16 29 17 30 18 31 19 32
REMARK SMILES IDX 77 33 20 34 76 35 21 36 22 37 23 38 70 39 24 40 75 41 69 42
REMARK SMILES IDX 71 43 25 44 74 45 68 46 67 47 26 49 56 50 37 51 55 52 38 53
REMARK SMILES IDX 41 54 54 55 72 56 39 57 40 58 53 60 73 61 42 62 27 63 28 64
REMARK SMILES IDX 36 65 29 66 35 67 30 68 31 69 32 70 33 71 34 72 57 73 58 74
REMARK SMILES IDX 66 75 59 76 65 77 60 78 61 79 62 80 63 81 64 82 43 83 44 84
REMARK SMILES IDX 52 85 45 86 51 87 46 88 47 89 48 90 49 91 50 92
REMARK H PARENT 71 48 41 59
REMARK Flexibility Score: inf
ROOT
ATOM      1  C   UNL A   1      37.427  23.015  25.657  1.00  0.00     0.275 C 
ENDROOT
BRANCH   1   2
ATOM      2  C   UNL A   1      35.972  23.152  26.140  1.00  0.00     0.274 C 
BRANCH   2   3
ATOM      3  O   UNL A   1      35.098  22.193  25.502  1.00  0.00    -0.459 OA
BRANCH   3   4
ATOM      4  C   UNL A   1      34.070  21.760  26.293  1.00  0.00     0.350 C 
ATOM      5  O   UNL A   1      34.280  21.084  27.299  1.00  0.00    -0.247 OA
BRANCH   4   6
ATOM      6  C   UNL A   1      32.634  22.012  25.675  1.00  0.00     0.209 C 
ATOM      7  C   UNL A   1      31.902  22.681  26.841  1.00  0.00     0.082 C 
ATOM      8  C   UNL A   1      32.898  22.885  24.426  1.00  0.00     0.082 C 
ATOM      9  C   UNL A   1      31.843  24.189  26.750  1.00  0.00     0.124 C 
ATOM     10  C   UNL A   1      31.945  24.037  24.229  1.00  0.00     0.124 C 
ATOM     11  N   UNL A   1      31.571  24.767  25.438  1.00  0.00    -0.340 N 
ATOM     12  C   UNL A   1      30.992  26.040  25.435  1.00  0.00     0.251 C 
ATOM     13  O   UNL A   1      30.631  26.564  26.497  1.00  0.00    -0.272 OA
BRANCH   6  14
ATOM     14  O   UNL A   1      31.943  20.785  25.363  1.00  0.00    -0.475 OA
BRANCH  14  15
ATOM     15  C   UNL A   1      32.386  19.742  24.582  1.00  0.00     0.123 A 
ATOM     16  C   UNL A   1      31.900  20.414  22.084  1.00  0.00     0.048 C 
ATOM     17  C   UNL A   1      32.428  19.547  23.187  1.00  0.00    -0.009 A 
ATOM     18  C   UNL A   1      32.899  18.302  22.670  1.00  0.00     0.007 A 
ATOM     19  C   UNL A   1      33.254  17.238  23.487  1.00  0.00     0.001 A 
ATOM     20  C   UNL A   1      32.726  18.625  25.376  1.00  0.00     0.047 A 
ATOM     21  C   UNL A   1      33.146  17.397  24.851  1.00  0.00     0.004 A 
ENDBRANCH  14  15
ENDBRANCH   6  14
BRANCH  12  22
ATOM     22  C   UNL A   1      30.839  26.794  24.090  1.00  0.00     0.207 C 
ATOM     23  C   UNL A   1      29.470  27.474  23.981  1.00  0.00     0.042 C 
ATOM     24  O   UNL A   1      31.882  27.781  24.019  1.00  0.00    -0.368 OA
ATOM     25  C   UNL A   1      29.388  28.381  22.758  1.00  0.00     0.006 C 
ATOM     26  C   UNL A   1      31.872  28.525  22.809  1.00  0.00     0.161 C 
ATOM     27  C   UNL A   1      30.582  29.322  22.705  1.00  0.00     0.029 C 
ENDBRANCH  12  22
ENDBRANCH   4   6
ENDBRANCH   3   4
ENDBRANCH   2   3
ENDBRANCH   1   2
BRANCH   1  28
ATOM     28  O   UNL A   1      38.281  24.123  25.996  1.00  0.00    -0.458 OA
BRANCH  28  29
ATOM     29  C   UNL A   1      39.338  23.798  26.784  1.00  0.00     0.338 C 
ATOM     30  O   UNL A   1      40.059  22.817  26.580  1.00  0.00    -0.246 OA
BRANCH  29  31
ATOM     31  C   UNL A   1      39.687  25.016  27.565  1.00  0.00     0.060 A 
ATOM     32  C   UNL A   1      40.158  26.146  26.887  1.00  0.00     0.016 A 
ATOM     33  C   UNL A   1      39.220  25.140  28.879  1.00  0.00     0.016 A 
ATOM     34  C   UNL A   1      40.048  27.415  27.462  1.00  0.00     0.010 A 
ATOM     35  C   UNL A   1      39.047  26.396  29.424  1.00  0.00     0.010 A 
ATOM     36  C   UNL A   1      39.446  27.541  28.718  1.00  0.00    -0.014 A 
BRANCH  36  37
ATOM     37  C   UNL A   1      39.471  28.773  29.505  1.00  0.00     0.031 A 
ATOM     38  C   UNL A   1      38.449  29.840  29.449  1.00  0.00     0.074 A 
ATOM     39  C   UNL A   1      40.558  28.885  30.298  1.00  0.00     0.049 A 
ATOM     40  N   UNL A   1      38.709  31.097  29.622  1.00  0.00    -0.248 NA
ATOM     41  C   UNL A   1      37.036  29.586  29.178  1.00  0.00     0.031 C 
ATOM     42  C   UNL A   1      40.861  29.883  31.307  1.00  0.00     0.029 A 
ATOM     43  N   UNL A   1      41.756  28.177  30.138  1.00  0.00    -0.354 N 
ATOM     44  C   UNL A   1      37.505  31.762  29.751  1.00  0.00     0.074 A 
ATOM     45  C   UNL A   1      36.498  30.799  29.367  1.00  0.00     0.031 C 
ATOM     46  C   UNL A   1      42.200  29.943  31.437  1.00  0.00     0.029 A 
ATOM     47  C   UNL A   1      42.774  29.085  30.402  1.00  0.00     0.049 A 
ATOM     48  H   UNL A   1      41.855  27.230  29.888  1.00  0.00     0.167 HD
ATOM     49  C   UNL A   1      37.455  32.999  30.329  1.00  0.00     0.031 A 
ATOM     50  C   UNL A   1      43.676  29.460  29.453  1.00  0.00     0.031 A 
ATOM     51  C   UNL A   1      38.776  33.421  30.780  1.00  0.00     0.049 A 
ATOM     52  C   UNL A   1      43.687  30.954  29.300  1.00  0.00     0.074 A 
ATOM     53  C   UNL A   1      39.397  33.290  32.010  1.00  0.00     0.029 A 
ATOM     54  N   UNL A   1      39.759  33.765  29.863  1.00  0.00    -0.354 N 
ATOM     55  N   UNL A   1      42.634  31.708  29.453  1.00  0.00    -0.248 NA
ATOM     56  C   UNL A   1      44.900  31.707  29.007  1.00  0.00     0.031 C 
ATOM     57  C   UNL A   1      40.787  33.449  31.810  1.00  0.00     0.029 A 
ATOM     58  C   UNL A   1      41.000  33.726  30.470  1.00  0.00     0.049 A 
ATOM     59  H   UNL A   1      39.597  34.002  28.921  1.00  0.00     0.167 HD
ATOM     60  C   UNL A   1      43.033  33.019  29.421  1.00  0.00     0.074 A 
ATOM     61  C   UNL A   1      44.448  32.968  29.090  1.00  0.00     0.031 C 
ATOM     62  C   UNL A   1      42.209  34.057  29.738  1.00  0.00     0.031 A 
BRANCH  49  63
ATOM     63  C   UNL A   1      36.179  33.662  30.816  1.00  0.00    -0.014 A 
ATOM     64  C   UNL A   1      35.168  33.989  29.884  1.00  0.00     0.010 A 
ATOM     65  C   UNL A   1      35.929  34.021  32.154  1.00  0.00     0.010 A 
ATOM     66  C   UNL A   1      34.037  34.740  30.235  1.00  0.00     0.020 A 
ATOM     67  C   UNL A   1      34.809  34.795  32.516  1.00  0.00     0.020 A 
ATOM     68  C   UNL A   1      33.882  35.172  31.547  1.00  0.00     0.054 A 
BRANCH  68  69
ATOM     69  S   UNL A   1      32.477  36.248  31.950  1.00  0.00     0.124 S 
ATOM     70  O   UNL A   1      33.058  37.172  32.923  1.00  0.00    -0.237 OA
ATOM     71  O   UNL A   1      32.141  36.830  30.655  1.00  0.00    -0.237 OA
ATOM     72  O   UNL A   1      31.481  35.329  32.496  1.00  0.00    -0.744 OA
ENDBRANCH  68  69
ENDBRANCH  49  63
BRANCH  50  73
ATOM     73  C   UNL A   1      43.924  28.497  28.336  1.00  0.00    -0.014 A 
ATOM     74  C   UNL A   1      44.419  27.211  28.654  1.00  0.00     0.010 A 
ATOM     75  C   UNL A   1      43.441  28.719  27.034  1.00  0.00     0.010 A 
ATOM     76  C   UNL A   1      44.348  26.160  27.736  1.00  0.00     0.020 A 
ATOM     77  C   UNL A   1      43.385  27.669  26.103  1.00  0.00     0.020 A 
ATOM     78  C   UNL A   1      43.815  26.390  26.470  1.00  0.00     0.054 A 
BRANCH  78  79
ATOM     79  S   UNL A   1      43.548  24.957  25.383  1.00  0.00     0.124 S 
ATOM     80  O   UNL A   1      43.334  23.880  26.345  1.00  0.00    -0.237 OA
ATOM     81  O   UNL A   1      42.371  25.371  24.624  1.00  0.00    -0.237 OA
ATOM     82  O   UNL A   1      44.792  24.882  24.625  1.00  0.00    -0.744 OA
ENDBRANCH  78  79
ENDBRANCH  50  73
BRANCH  62  83
ATOM     83  C   UNL A   1      42.551  35.506  29.545  1.00  0.00    -0.014 A 
ATOM     84  C   UNL A   1      43.458  36.192  30.364  1.00  0.00     0.010 A 
ATOM     85  C   UNL A   1      42.054  36.187  28.409  1.00  0.00     0.010 A 
ATOM     86  C   UNL A   1      43.803  37.524  30.105  1.00  0.00     0.020 A 
ATOM     87  C   UNL A   1      42.424  37.500  28.117  1.00  0.00     0.020 A 
ATOM     88  C   UNL A   1      43.281  38.169  28.983  1.00  0.00     0.054 A 
BRANCH  88  89
ATOM     89  S   UNL A   1      43.789  39.863  28.608  1.00  0.00     0.124 S 
ATOM     90  O   UNL A   1      42.502  40.535  28.449  1.00  0.00    -0.237 OA
ATOM     91  O   UNL A   1      44.555  40.250  29.791  1.00  0.00    -0.237 OA
ATOM     92  O   UNL A   1      44.578  39.716  27.387  1.00  0.00    -0.744 OA
ENDBRANCH  88  89
ENDBRANCH  62  83
ENDBRANCH  36  37
ENDBRANCH  29  31
ENDBRANCH  28  29
ENDBRANCH   1  28
TORSDOF 17
ENDMDL
