MODEL 1
REMARK VINA RESULT:     -10.7      0.000      0.000
REMARK SMILES CC(C)C[C@H](CNC(=O)N[C@@H]1CCC[C@@H](C)[C@H]1C)C(=O)OCCOC(=O)c1ccc(-c2c3nc(c(-c4ccc(S(=O)(=O)[O-])cc4)c4ccc([nH]4)c(-c4ccc(S(=O)(=O)[O-])cc4)c4nc(c(-c5ccc(S(=O)(=O)[O-])cc5)c5ccc2[nH]5)C=C4)C=C3)cc1
REMARK SMILES IDX 22 1 21 2 19 3 20 4 5 5 4 6 2 7 1 8 3 9 6 10 7 11 8 12 9 14
REMARK SMILES IDX 10 15 11 17 12 18 17 19 13 20 15 21 18 22 14 23 16 24 23 25
REMARK SMILES IDX 24 26 25 27 26 28 27 29 28 30 86 31 29 32 85 33 30 34 31 35
REMARK SMILES IDX 32 36 79 37 33 38 84 39 78 40 80 41 34 42 83 43 77 44 76 45
REMARK SMILES IDX 35 47 65 48 46 49 64 50 47 51 50 52 63 53 81 54 48 55 49 56
REMARK SMILES IDX 62 58 82 59 51 60 36 61 37 62 45 63 38 64 44 65 39 66 40 67
REMARK SMILES IDX 41 68 42 69 43 70 66 71 67 72 75 73 68 74 74 75 69 76 70 77
REMARK SMILES IDX 71 78 72 79 73 80 52 81 53 82 61 83 54 84 60 85 55 86 56 87
REMARK SMILES IDX 57 88 58 89 59 90
REMARK H PARENT 7 13 10 16 80 46 50 57
REMARK Flexibility Score: inf
ROOT
ATOM      1  C   UNL A   1      31.664  30.498  25.626  1.00  0.00     0.274 C 
ENDROOT
BRANCH   1   2
ATOM      2  O   UNL A   1      31.048  29.355  24.994  1.00  0.00    -0.462 OA
BRANCH   2   3
ATOM      3  C   UNL A   1      31.582  28.986  23.799  1.00  0.00     0.310 C 
ATOM      4  O   UNL A   1      32.784  29.013  23.557  1.00  0.00    -0.252 OA
BRANCH   3   5
ATOM      5  C   UNL A   1      30.547  28.584  22.756  1.00  0.00     0.119 C 
BRANCH   5   6
ATOM      6  C   UNL A   1      29.171  29.184  23.105  1.00  0.00     0.020 C 
BRANCH   6   7
ATOM      7  C   UNL A   1      28.905  30.612  22.580  1.00  0.00    -0.017 C 
ATOM      8  C   UNL A   1      28.244  30.633  21.200  1.00  0.00     0.007 C 
ATOM      9  C   UNL A   1      28.023  31.367  23.578  1.00  0.00     0.007 C 
ENDBRANCH   6   7
ENDBRANCH   5   6
BRANCH   5  10
ATOM     10  C   UNL A   1      30.496  27.061  22.543  1.00  0.00     0.133 C 
BRANCH  10  11
ATOM     11  N   UNL A   1      31.451  26.605  21.537  1.00  0.00    -0.337 N 
ATOM     12  C   UNL A   1      32.634  25.986  21.564  1.00  0.00     0.315 C 
ATOM     13  H   UNL A   1      31.151  26.800  20.620  1.00  0.00     0.165 HD
ATOM     14  O   UNL A   1      33.337  26.062  20.553  1.00  0.00    -0.249 OA
ATOM     15  N   UNL A   1      33.092  25.268  22.594  1.00  0.00    -0.335 N 
ATOM     16  H   UNL A   1      34.056  25.081  22.537  1.00  0.00     0.165 HD
BRANCH  15  17
ATOM     17  C   UNL A   1      32.464  24.699  23.788  1.00  0.00     0.087 C 
ATOM     18  C   UNL A   1      32.748  25.596  25.014  1.00  0.00     0.025 C 
ATOM     19  C   UNL A   1      32.945  23.249  24.053  1.00  0.00     0.011 C 
ATOM     20  C   UNL A   1      34.191  25.504  25.528  1.00  0.00     0.002 C 
ATOM     21  C   UNL A   1      34.445  23.242  24.433  1.00  0.00    -0.009 C 
ATOM     22  C   UNL A   1      32.043  22.580  25.104  1.00  0.00     0.010 C 
ATOM     23  C   UNL A   1      34.698  24.070  25.697  1.00  0.00     0.004 C 
ATOM     24  C   UNL A   1      35.021  21.826  24.531  1.00  0.00     0.008 C 
ENDBRANCH  15  17
ENDBRANCH  10  11
ENDBRANCH   5  10
ENDBRANCH   3   5
ENDBRANCH   2   3
ENDBRANCH   1   2
BRANCH   1  25
ATOM     25  C   UNL A   1      32.293  30.181  26.992  1.00  0.00     0.275 C 
BRANCH  25  26
ATOM     26  O   UNL A   1      33.731  30.131  26.955  1.00  0.00    -0.458 OA
BRANCH  26  27
ATOM     27  C   UNL A   1      34.333  31.153  27.606  1.00  0.00     0.338 C 
ATOM     28  O   UNL A   1      33.815  32.219  27.897  1.00  0.00    -0.246 OA
BRANCH  27  29
ATOM     29  C   UNL A   1      35.677  30.789  28.082  1.00  0.00     0.060 A 
ATOM     30  C   UNL A   1      35.882  29.458  28.463  1.00  0.00     0.016 A 
ATOM     31  C   UNL A   1      36.686  31.736  28.257  1.00  0.00     0.016 A 
ATOM     32  C   UNL A   1      37.087  29.066  29.033  1.00  0.00     0.010 A 
ATOM     33  C   UNL A   1      37.898  31.343  28.838  1.00  0.00     0.010 A 
ATOM     34  C   UNL A   1      38.097  30.011  29.244  1.00  0.00    -0.014 A 
BRANCH  34  35
ATOM     35  C   UNL A   1      39.322  29.604  29.969  1.00  0.00     0.031 A 
ATOM     36  C   UNL A   1      39.689  30.293  31.252  1.00  0.00     0.074 A 
ATOM     37  C   UNL A   1      40.070  28.586  29.506  1.00  0.00     0.049 A 
ATOM     38  N   UNL A   1      40.722  30.098  32.029  1.00  0.00    -0.248 NA
ATOM     39  C   UNL A   1      38.766  31.338  31.723  1.00  0.00     0.031 C 
ATOM     40  C   UNL A   1      39.776  27.796  28.310  1.00  0.00     0.029 A 
ATOM     41  N   UNL A   1      41.227  28.036  29.997  1.00  0.00    -0.354 N 
ATOM     42  C   UNL A   1      40.589  31.008  33.070  1.00  0.00     0.074 A 
ATOM     43  C   UNL A   1      39.382  31.766  32.816  1.00  0.00     0.031 C 
ATOM     44  C   UNL A   1      40.724  26.855  28.166  1.00  0.00     0.029 A 
ATOM     45  C   UNL A   1      41.712  27.002  29.232  1.00  0.00     0.049 A 
ATOM     46  H   UNL A   1      41.668  28.351  30.819  1.00  0.00     0.167 HD
ATOM     47  C   UNL A   1      41.400  31.198  34.139  1.00  0.00     0.031 A 
ATOM     48  C   UNL A   1      42.834  26.269  29.366  1.00  0.00     0.031 A 
ATOM     49  C   UNL A   1      42.606  30.450  34.378  1.00  0.00     0.049 A 
ATOM     50  C   UNL A   1      43.755  26.543  30.523  1.00  0.00     0.074 A 
ATOM     51  C   UNL A   1      43.499  30.567  35.430  1.00  0.00     0.029 A 
ATOM     52  N   UNL A   1      43.091  29.446  33.553  1.00  0.00    -0.354 N 
ATOM     53  N   UNL A   1      43.622  27.415  31.494  1.00  0.00    -0.248 NA
ATOM     54  C   UNL A   1      44.976  25.731  30.603  1.00  0.00     0.031 C 
ATOM     55  C   UNL A   1      44.550  29.667  35.213  1.00  0.00     0.029 A 
ATOM     56  C   UNL A   1      44.282  28.949  34.057  1.00  0.00     0.049 A 
ATOM     57  H   UNL A   1      42.654  29.132  32.728  1.00  0.00     0.167 HD
ATOM     58  C   UNL A   1      44.728  27.235  32.319  1.00  0.00     0.074 A 
ATOM     59  C   UNL A   1      45.515  26.168  31.733  1.00  0.00     0.031 C 
ATOM     60  C   UNL A   1      45.056  27.889  33.460  1.00  0.00     0.031 A 
BRANCH  47  61
ATOM     61  C   UNL A   1      41.031  32.304  35.091  1.00  0.00    -0.014 A 
ATOM     62  C   UNL A   1      41.503  33.617  34.911  1.00  0.00     0.010 A 
ATOM     63  C   UNL A   1      40.205  32.020  36.193  1.00  0.00     0.010 A 
ATOM     64  C   UNL A   1      41.204  34.610  35.849  1.00  0.00     0.020 A 
ATOM     65  C   UNL A   1      39.882  33.015  37.119  1.00  0.00     0.020 A 
ATOM     66  C   UNL A   1      40.407  34.298  36.955  1.00  0.00     0.054 A 
BRANCH  66  67
ATOM     67  S   UNL A   1      40.057  35.595  38.175  1.00  0.00     0.124 S 
ATOM     68  O   UNL A   1      38.923  35.025  38.899  1.00  0.00    -0.237 OA
ATOM     69  O   UNL A   1      41.306  35.675  38.928  1.00  0.00    -0.237 OA
ATOM     70  O   UNL A   1      39.749  36.765  37.357  1.00  0.00    -0.744 OA
ENDBRANCH  66  67
ENDBRANCH  47  61
BRANCH  48  71
ATOM     71  C   UNL A   1      43.143  25.208  28.371  1.00  0.00    -0.014 A 
ATOM     72  C   UNL A   1      42.652  23.902  28.543  1.00  0.00     0.010 A 
ATOM     73  C   UNL A   1      43.907  25.507  27.228  1.00  0.00     0.010 A 
ATOM     74  C   UNL A   1      42.923  22.914  27.592  1.00  0.00     0.020 A 
ATOM     75  C   UNL A   1      44.158  24.529  26.263  1.00  0.00     0.020 A 
ATOM     76  C   UNL A   1      43.670  23.235  26.454  1.00  0.00     0.054 A 
BRANCH  76  77
ATOM     77  S   UNL A   1      43.946  21.955  25.198  1.00  0.00     0.124 S 
ATOM     78  O   UNL A   1      42.912  20.979  25.527  1.00  0.00    -0.237 OA
ATOM     79  O   UNL A   1      43.751  22.689  23.950  1.00  0.00    -0.237 OA
ATOM     80  O   UNL A   1      45.319  21.521  25.449  1.00  0.00    -0.744 OA
ENDBRANCH  76  77
ENDBRANCH  48  71
BRANCH  60  81
ATOM     81  C   UNL A   1      46.300  27.439  34.180  1.00  0.00    -0.014 A 
ATOM     82  C   UNL A   1      46.260  26.415  35.142  1.00  0.00     0.010 A 
ATOM     83  C   UNL A   1      47.536  28.027  33.854  1.00  0.00     0.010 A 
ATOM     84  C   UNL A   1      47.430  26.011  35.791  1.00  0.00     0.020 A 
ATOM     85  C   UNL A   1      48.711  27.607  34.481  1.00  0.00     0.020 A 
ATOM     86  C   UNL A   1      48.649  26.612  35.459  1.00  0.00     0.054 A 
BRANCH  86  87
ATOM     87  S   UNL A   1      50.160  26.048  36.289  1.00  0.00     0.124 S 
ATOM     88  O   UNL A   1      50.099  24.605  36.083  1.00  0.00    -0.237 OA
ATOM     89  O   UNL A   1      51.212  26.745  35.553  1.00  0.00    -0.237 OA
ATOM     90  O   UNL A   1      49.981  26.489  37.671  1.00  0.00    -0.744 OA
ENDBRANCH  86  87
ENDBRANCH  60  81
ENDBRANCH  34  35
ENDBRANCH  27  29
ENDBRANCH  26  27
ENDBRANCH  25  26
ENDBRANCH   1  25
TORSDOF 19
ENDMDL
MODEL 2
REMARK VINA RESULT:     -10.6      2.921      4.166
REMARK SMILES CC(C)C[C@H](CNC(=O)N[C@@H]1CCC[C@@H](C)[C@H]1C)C(=O)OCCOC(=O)c1ccc(-c2c3nc(c(-c4ccc(S(=O)(=O)[O-])cc4)c4ccc([nH]4)c(-c4ccc(S(=O)(=O)[O-])cc4)c4nc(c(-c5ccc(S(=O)(=O)[O-])cc5)c5ccc2[nH]5)C=C4)C=C3)cc1
REMARK SMILES IDX 22 1 21 2 19 3 20 4 5 5 4 6 2 7 1 8 3 9 6 10 7 11 8 12 9 14
REMARK SMILES IDX 10 15 11 17 12 18 17 19 13 20 15 21 18 22 14 23 16 24 23 25
REMARK SMILES IDX 24 26 25 27 26 28 27 29 28 30 86 31 29 32 85 33 30 34 31 35
REMARK SMILES IDX 32 36 79 37 33 38 84 39 78 40 80 41 34 42 83 43 77 44 76 45
REMARK SMILES IDX 35 47 65 48 46 49 64 50 47 51 50 52 63 53 81 54 48 55 49 56
REMARK SMILES IDX 62 58 82 59 51 60 36 61 37 62 45 63 38 64 44 65 39 66 40 67
REMARK SMILES IDX 41 68 42 69 43 70 66 71 67 72 75 73 68 74 74 75 69 76 70 77
REMARK SMILES IDX 71 78 72 79 73 80 52 81 53 82 61 83 54 84 60 85 55 86 56 87
REMARK SMILES IDX 57 88 58 89 59 90
REMARK H PARENT 7 13 10 16 80 46 50 57
REMARK Flexibility Score: inf
ROOT
ATOM      1  C   UNL A   1      31.936  28.720  27.237  1.00  0.00     0.274 C 
ENDROOT
BRANCH   1   2
ATOM      2  O   UNL A   1      31.495  27.405  26.834  1.00  0.00    -0.462 OA
BRANCH   2   3
ATOM      3  C   UNL A   1      31.841  27.031  25.572  1.00  0.00     0.310 C 
ATOM      4  O   UNL A   1      31.576  27.692  24.574  1.00  0.00    -0.252 OA
BRANCH   3   5
ATOM      5  C   UNL A   1      32.545  25.683  25.497  1.00  0.00     0.119 C 
BRANCH   5   6
ATOM      6  C   UNL A   1      33.920  25.831  24.818  1.00  0.00     0.020 C 
BRANCH   6   7
ATOM      7  C   UNL A   1      34.973  24.763  25.186  1.00  0.00    -0.017 C 
ATOM      8  C   UNL A   1      34.572  23.914  26.395  1.00  0.00     0.007 C 
ATOM      9  C   UNL A   1      35.215  23.849  23.982  1.00  0.00     0.007 C 
ENDBRANCH   6   7
ENDBRANCH   5   6
BRANCH   5  10
ATOM     10  C   UNL A   1      31.668  24.603  24.838  1.00  0.00     0.133 C 
BRANCH  10  11
ATOM     11  N   UNL A   1      30.860  23.871  25.809  1.00  0.00    -0.337 N 
ATOM     12  C   UNL A   1      30.565  22.585  26.020  1.00  0.00     0.315 C 
ATOM     13  H   UNL A   1      30.429  24.467  26.464  1.00  0.00     0.165 HD
ATOM     14  O   UNL A   1      29.573  22.337  26.710  1.00  0.00    -0.249 OA
ATOM     15  N   UNL A   1      31.286  21.557  25.564  1.00  0.00    -0.335 N 
ATOM     16  H   UNL A   1      30.808  20.697  25.614  1.00  0.00     0.165 HD
BRANCH  15  17
ATOM     17  C   UNL A   1      32.634  21.435  25.008  1.00  0.00     0.087 C 
ATOM     18  C   UNL A   1      32.584  21.546  23.467  1.00  0.00     0.025 C 
ATOM     19  C   UNL A   1      33.312  20.107  25.434  1.00  0.00     0.011 C 
ATOM     20  C   UNL A   1      32.008  20.304  22.774  1.00  0.00     0.002 C 
ATOM     21  C   UNL A   1      32.581  18.901  24.796  1.00  0.00    -0.009 C 
ATOM     22  C   UNL A   1      34.814  20.155  25.107  1.00  0.00     0.010 C 
ATOM     23  C   UNL A   1      32.610  18.986  23.266  1.00  0.00     0.004 C 
ATOM     24  C   UNL A   1      33.092  17.557  25.321  1.00  0.00     0.008 C 
ENDBRANCH  15  17
ENDBRANCH  10  11
ENDBRANCH   5  10
ENDBRANCH   3   5
ENDBRANCH   2   3
ENDBRANCH   1   2
BRANCH   1  25
ATOM     25  C   UNL A   1      33.464  28.861  27.308  1.00  0.00     0.275 C 
BRANCH  25  26
ATOM     26  O   UNL A   1      33.925  30.186  26.987  1.00  0.00    -0.458 OA
BRANCH  26  27
ATOM     27  C   UNL A   1      34.626  30.780  27.981  1.00  0.00     0.338 C 
ATOM     28  O   UNL A   1      34.208  31.642  28.736  1.00  0.00    -0.246 OA
BRANCH  27  29
ATOM     29  C   UNL A   1      35.947  30.158  28.170  1.00  0.00     0.060 A 
ATOM     30  C   UNL A   1      36.251  29.678  29.449  1.00  0.00     0.016 A 
ATOM     31  C   UNL A   1      36.912  30.139  27.162  1.00  0.00     0.016 A 
ATOM     32  C   UNL A   1      37.519  29.187  29.736  1.00  0.00     0.010 A 
ATOM     33  C   UNL A   1      38.191  29.651  27.453  1.00  0.00     0.010 A 
ATOM     34  C   UNL A   1      38.505  29.190  28.744  1.00  0.00    -0.014 A 
BRANCH  34  35
ATOM     35  C   UNL A   1      39.884  28.785  29.101  1.00  0.00     0.031 A 
ATOM     36  C   UNL A   1      40.757  29.729  29.878  1.00  0.00     0.074 A 
ATOM     37  C   UNL A   1      40.330  27.557  28.777  1.00  0.00     0.049 A 
ATOM     38  N   UNL A   1      41.993  29.574  30.276  1.00  0.00    -0.248 NA
ATOM     39  C   UNL A   1      40.156  31.016  30.260  1.00  0.00     0.031 C 
ATOM     40  C   UNL A   1      39.550  26.531  28.085  1.00  0.00     0.029 A 
ATOM     41  N   UNL A   1      41.547  26.965  28.999  1.00  0.00    -0.354 N 
ATOM     42  C   UNL A   1      42.327  30.749  30.936  1.00  0.00     0.074 A 
ATOM     43  C   UNL A   1      41.168  31.614  30.872  1.00  0.00     0.031 C 
ATOM     44  C   UNL A   1      40.306  25.429  27.948  1.00  0.00     0.029 A 
ATOM     45  C   UNL A   1      41.633  25.686  28.502  1.00  0.00     0.049 A 
ATOM     46  H   UNL A   1      42.288  27.412  29.468  1.00  0.00     0.167 HD
ATOM     47  C   UNL A   1      43.495  31.080  31.539  1.00  0.00     0.031 A 
ATOM     48  C   UNL A   1      42.669  24.826  28.482  1.00  0.00     0.031 A 
ATOM     49  C   UNL A   1      44.648  30.219  31.589  1.00  0.00     0.049 A 
ATOM     50  C   UNL A   1      43.978  25.240  29.097  1.00  0.00     0.074 A 
ATOM     51  C   UNL A   1      45.880  30.462  32.172  1.00  0.00     0.029 A 
ATOM     52  N   UNL A   1      44.714  28.952  31.029  1.00  0.00    -0.354 N 
ATOM     53  N   UNL A   1      44.284  26.360  29.709  1.00  0.00    -0.248 NA
ATOM     54  C   UNL A   1      45.080  24.273  29.022  1.00  0.00     0.031 C 
ATOM     55  C   UNL A   1      46.707  29.360  31.922  1.00  0.00     0.029 A 
ATOM     56  C   UNL A   1      45.971  28.407  31.233  1.00  0.00     0.049 A 
ATOM     57  H   UNL A   1      43.976  28.504  30.555  1.00  0.00     0.167 HD
ATOM     58  C   UNL A   1      45.605  26.220  30.119  1.00  0.00     0.074 A 
ATOM     59  C   UNL A   1      46.037  24.904  29.690  1.00  0.00     0.031 C 
ATOM     60  C   UNL A   1      46.387  27.097  30.796  1.00  0.00     0.031 A 
BRANCH  47  61
ATOM     61  C   UNL A   1      43.591  32.458  32.136  1.00  0.00    -0.014 A 
ATOM     62  C   UNL A   1      43.385  32.680  33.510  1.00  0.00     0.010 A 
ATOM     63  C   UNL A   1      43.884  33.553  31.303  1.00  0.00     0.010 A 
ATOM     64  C   UNL A   1      43.409  33.979  34.027  1.00  0.00     0.020 A 
ATOM     65  C   UNL A   1      43.936  34.850  31.820  1.00  0.00     0.020 A 
ATOM     66  C   UNL A   1      43.671  35.057  33.175  1.00  0.00     0.054 A 
BRANCH  66  67
ATOM     67  S   UNL A   1      43.668  36.736  33.862  1.00  0.00     0.124 S 
ATOM     68  O   UNL A   1      44.073  37.533  32.706  1.00  0.00    -0.237 OA
ATOM     69  O   UNL A   1      42.282  36.908  34.288  1.00  0.00    -0.237 OA
ATOM     70  O   UNL A   1      44.646  36.668  34.945  1.00  0.00    -0.744 OA
ENDBRANCH  66  67
ENDBRANCH  47  61
BRANCH  48  71
ATOM     71  C   UNL A   1      42.505  23.489  27.853  1.00  0.00    -0.014 A 
ATOM     72  C   UNL A   1      42.783  23.303  26.487  1.00  0.00     0.010 A 
ATOM     73  C   UNL A   1      42.099  22.385  28.625  1.00  0.00     0.010 A 
ATOM     74  C   UNL A   1      42.653  22.039  25.905  1.00  0.00     0.020 A 
ATOM     75  C   UNL A   1      41.992  21.115  28.052  1.00  0.00     0.020 A 
ATOM     76  C   UNL A   1      42.264  20.951  26.693  1.00  0.00     0.054 A 
BRANCH  76  77
ATOM     77  S   UNL A   1      42.173  19.306  25.932  1.00  0.00     0.124 S 
ATOM     78  O   UNL A   1      40.741  19.162  25.690  1.00  0.00    -0.237 OA
ATOM     79  O   UNL A   1      43.004  19.462  24.741  1.00  0.00    -0.237 OA
ATOM     80  O   UNL A   1      42.727  18.424  26.957  1.00  0.00    -0.744 OA
ENDBRANCH  76  77
ENDBRANCH  48  71
BRANCH  60  81
ATOM     81  C   UNL A   1      47.778  26.646  31.157  1.00  0.00    -0.014 A 
ATOM     82  C   UNL A   1      48.043  25.983  32.367  1.00  0.00     0.010 A 
ATOM     83  C   UNL A   1      48.829  26.856  30.245  1.00  0.00     0.010 A 
ATOM     84  C   UNL A   1      49.342  25.569  32.675  1.00  0.00     0.020 A 
ATOM     85  C   UNL A   1      50.123  26.421  30.537  1.00  0.00     0.020 A 
ATOM     86  C   UNL A   1      50.376  25.794  31.759  1.00  0.00     0.054 A 
BRANCH  86  87
ATOM     87  S   UNL A   1      52.047  25.217  32.164  1.00  0.00     0.124 S 
ATOM     88  O   UNL A   1      52.267  25.820  33.475  1.00  0.00    -0.237 OA
ATOM     89  O   UNL A   1      51.898  23.764  32.157  1.00  0.00    -0.237 OA
ATOM     90  O   UNL A   1      52.870  25.756  31.083  1.00  0.00    -0.744 OA
ENDBRANCH  86  87
ENDBRANCH  60  81
ENDBRANCH  34  35
ENDBRANCH  27  29
ENDBRANCH  26  27
ENDBRANCH  25  26
ENDBRANCH   1  25
TORSDOF 19
ENDMDL
MODEL 3
REMARK VINA RESULT:     -10.6      2.575      8.345
REMARK SMILES CC(C)C[C@H](CNC(=O)N[C@@H]1CCC[C@@H](C)[C@H]1C)C(=O)OCCOC(=O)c1ccc(-c2c3nc(c(-c4ccc(S(=O)(=O)[O-])cc4)c4ccc([nH]4)c(-c4ccc(S(=O)(=O)[O-])cc4)c4nc(c(-c5ccc(S(=O)(=O)[O-])cc5)c5ccc2[nH]5)C=C4)C=C3)cc1
REMARK SMILES IDX 22 1 21 2 19 3 20 4 5 5 4 6 2 7 1 8 3 9 6 10 7 11 8 12 9 14
REMARK SMILES IDX 10 15 11 17 12 18 17 19 13 20 15 21 18 22 14 23 16 24 23 25
REMARK SMILES IDX 24 26 25 27 26 28 27 29 28 30 86 31 29 32 85 33 30 34 31 35
REMARK SMILES IDX 32 36 79 37 33 38 84 39 78 40 80 41 34 42 83 43 77 44 76 45
REMARK SMILES IDX 35 47 65 48 46 49 64 50 47 51 50 52 63 53 81 54 48 55 49 56
REMARK SMILES IDX 62 58 82 59 51 60 36 61 37 62 45 63 38 64 44 65 39 66 40 67
REMARK SMILES IDX 41 68 42 69 43 70 66 71 67 72 75 73 68 74 74 75 69 76 70 77
REMARK SMILES IDX 71 78 72 79 73 80 52 81 53 82 61 83 54 84 60 85 55 86 56 87
REMARK SMILES IDX 57 88 58 89 59 90
REMARK H PARENT 7 13 10 16 80 46 50 57
REMARK Flexibility Score: inf
ROOT
ATOM      1  C   UNL A   1      32.589  28.270  25.002  1.00  0.00     0.274 C 
ENDROOT
BRANCH   1   2
ATOM      2  O   UNL A   1      31.591  27.830  25.949  1.00  0.00    -0.462 OA
BRANCH   2   3
ATOM      3  C   UNL A   1      30.775  26.830  25.519  1.00  0.00     0.310 C 
ATOM      4  O   UNL A   1      30.330  25.955  26.254  1.00  0.00    -0.252 OA
BRANCH   3   5
ATOM      5  C   UNL A   1      30.500  26.858  24.021  1.00  0.00     0.119 C 
BRANCH   5   6
ATOM      6  C   UNL A   1      29.123  27.490  23.739  1.00  0.00     0.020 C 
BRANCH   6   7
ATOM      7  C   UNL A   1      29.134  28.777  22.886  1.00  0.00    -0.017 C 
ATOM      8  C   UNL A   1      27.737  29.212  22.434  1.00  0.00     0.007 C 
ATOM      9  C   UNL A   1      29.786  29.911  23.682  1.00  0.00     0.007 C 
ENDBRANCH   6   7
ENDBRANCH   5   6
BRANCH   5  10
ATOM     10  C   UNL A   1      30.663  25.472  23.372  1.00  0.00     0.133 C 
BRANCH  10  11
ATOM     11  N   UNL A   1      31.491  25.511  22.170  1.00  0.00    -0.337 N 
ATOM     12  C   UNL A   1      32.784  25.310  21.903  1.00  0.00     0.315 C 
ATOM     13  H   UNL A   1      30.973  25.740  21.365  1.00  0.00     0.165 HD
ATOM     14  O   UNL A   1      33.221  25.765  20.842  1.00  0.00    -0.249 OA
ATOM     15  N   UNL A   1      33.624  24.626  22.685  1.00  0.00    -0.335 N 
ATOM     16  H   UNL A   1      34.570  24.771  22.457  1.00  0.00     0.165 HD
BRANCH  15  17
ATOM     17  C   UNL A   1      33.437  23.706  23.808  1.00  0.00     0.087 C 
ATOM     18  C   UNL A   1      33.475  24.484  25.143  1.00  0.00     0.025 C 
ATOM     19  C   UNL A   1      34.500  22.578  23.808  1.00  0.00     0.011 C 
ATOM     20  C   UNL A   1      34.879  24.953  25.547  1.00  0.00     0.002 C 
ATOM     21  C   UNL A   1      35.905  23.162  24.091  1.00  0.00    -0.009 C 
ATOM     22  C   UNL A   1      34.089  21.468  24.791  1.00  0.00     0.010 C 
ATOM     23  C   UNL A   1      35.946  23.861  25.454  1.00  0.00     0.004 C 
ATOM     24  C   UNL A   1      37.019  22.125  23.926  1.00  0.00     0.008 C 
ENDBRANCH  15  17
ENDBRANCH  10  11
ENDBRANCH   5  10
ENDBRANCH   3   5
ENDBRANCH   2   3
ENDBRANCH   1   2
BRANCH   1  25
ATOM     25  C   UNL A   1      33.998  28.383  25.604  1.00  0.00     0.275 C 
BRANCH  25  26
ATOM     26  O   UNL A   1      33.993  28.495  27.039  1.00  0.00    -0.458 OA
BRANCH  26  27
ATOM     27  C   UNL A   1      34.397  29.702  27.497  1.00  0.00     0.338 C 
ATOM     28  O   UNL A   1      33.697  30.696  27.608  1.00  0.00    -0.246 OA
BRANCH  27  29
ATOM     29  C   UNL A   1      35.776  29.665  28.010  1.00  0.00     0.060 A 
ATOM     30  C   UNL A   1      36.807  29.889  27.090  1.00  0.00     0.016 A 
ATOM     31  C   UNL A   1      36.071  29.314  29.328  1.00  0.00     0.016 A 
ATOM     32  C   UNL A   1      38.135  29.753  27.472  1.00  0.00     0.010 A 
ATOM     33  C   UNL A   1      37.410  29.170  29.711  1.00  0.00     0.010 A 
ATOM     34  C   UNL A   1      38.446  29.371  28.782  1.00  0.00    -0.014 A 
BRANCH  34  35
ATOM     35  C   UNL A   1      39.859  29.105  29.137  1.00  0.00     0.031 A 
ATOM     36  C   UNL A   1      40.477  27.782  28.784  1.00  0.00     0.074 A 
ATOM     37  C   UNL A   1      40.597  30.065  29.723  1.00  0.00     0.049 A 
ATOM     38  N   UNL A   1      41.687  27.346  29.017  1.00  0.00    -0.248 NA
ATOM     39  C   UNL A   1      39.617  26.826  28.068  1.00  0.00     0.031 C 
ATOM     40  C   UNL A   1      40.126  31.411  30.051  1.00  0.00     0.029 A 
ATOM     41  N   UNL A   1      41.905  30.055  30.138  1.00  0.00    -0.354 N 
ATOM     42  C   UNL A   1      41.731  26.059  28.499  1.00  0.00     0.074 A 
ATOM     43  C   UNL A   1      40.420  25.778  27.952  1.00  0.00     0.031 C 
ATOM     44  C   UNL A   1      41.136  32.101  30.607  1.00  0.00     0.029 A 
ATOM     45  C   UNL A   1      42.307  31.235  30.714  1.00  0.00     0.049 A 
ATOM     46  H   UNL A   1      42.498  29.276  30.032  1.00  0.00     0.167 HD
ATOM     47  C   UNL A   1      42.768  25.186  28.483  1.00  0.00     0.031 A 
ATOM     48  C   UNL A   1      43.483  31.575  31.277  1.00  0.00     0.031 A 
ATOM     49  C   UNL A   1      44.066  25.467  29.040  1.00  0.00     0.049 A 
ATOM     50  C   UNL A   1      44.599  30.567  31.310  1.00  0.00     0.074 A 
ATOM     51  C   UNL A   1      45.182  24.650  29.077  1.00  0.00     0.029 A 
ATOM     52  N   UNL A   1      44.419  26.655  29.661  1.00  0.00    -0.354 N 
ATOM     53  N   UNL A   1      44.623  29.348  30.826  1.00  0.00    -0.248 NA
ATOM     54  C   UNL A   1      45.847  30.983  31.961  1.00  0.00     0.031 C 
ATOM     55  C   UNL A   1      46.197  25.327  29.765  1.00  0.00     0.029 A 
ATOM     56  C   UNL A   1      45.730  26.588  30.105  1.00  0.00     0.049 A 
ATOM     57  H   UNL A   1      43.826  27.434  29.771  1.00  0.00     0.167 HD
ATOM     58  C   UNL A   1      45.899  28.861  31.087  1.00  0.00     0.074 A 
ATOM     59  C   UNL A   1      46.618  29.921  31.767  1.00  0.00     0.031 C 
ATOM     60  C   UNL A   1      46.430  27.650  30.784  1.00  0.00     0.031 A 
BRANCH  47  61
ATOM     61  C   UNL A   1      42.509  23.825  27.895  1.00  0.00    -0.014 A 
ATOM     62  C   UNL A   1      41.781  22.847  28.596  1.00  0.00     0.010 A 
ATOM     63  C   UNL A   1      43.016  23.516  26.619  1.00  0.00     0.010 A 
ATOM     64  C   UNL A   1      41.617  21.567  28.058  1.00  0.00     0.020 A 
ATOM     65  C   UNL A   1      42.831  22.247  26.065  1.00  0.00     0.020 A 
ATOM     66  C   UNL A   1      42.155  21.272  26.801  1.00  0.00     0.054 A 
BRANCH  66  67
ATOM     67  S   UNL A   1      41.955  19.596  26.136  1.00  0.00     0.124 S 
ATOM     68  O   UNL A   1      42.469  18.776  27.231  1.00  0.00    -0.237 OA
ATOM     69  O   UNL A   1      40.515  19.509  25.909  1.00  0.00    -0.237 OA
ATOM     70  O   UNL A   1      42.774  19.604  24.926  1.00  0.00    -0.744 OA
ENDBRANCH  66  67
ENDBRANCH  47  61
BRANCH  48  71
ATOM     71  C   UNL A   1      43.656  32.932  31.860  1.00  0.00    -0.014 A 
ATOM     72  C   UNL A   1      44.144  33.990  31.073  1.00  0.00     0.010 A 
ATOM     73  C   UNL A   1      43.302  33.181  33.199  1.00  0.00     0.010 A 
ATOM     74  C   UNL A   1      44.280  35.271  31.617  1.00  0.00     0.020 A 
ATOM     75  C   UNL A   1      43.413  34.465  33.738  1.00  0.00     0.020 A 
ATOM     76  C   UNL A   1      43.908  35.502  32.945  1.00  0.00     0.054 A 
BRANCH  76  77
ATOM     77  S   UNL A   1      44.024  37.188  33.606  1.00  0.00     0.124 S 
ATOM     78  O   UNL A   1      44.029  37.992  32.388  1.00  0.00    -0.237 OA
ATOM     79  O   UNL A   1      42.821  37.289  34.428  1.00  0.00    -0.237 OA
ATOM     80  O   UNL A   1      45.280  37.176  34.353  1.00  0.00    -0.744 OA
ENDBRANCH  76  77
ENDBRANCH  48  71
BRANCH  60  81
ATOM     81  C   UNL A   1      47.874  27.419  31.145  1.00  0.00    -0.014 A 
ATOM     82  C   UNL A   1      48.239  26.847  32.376  1.00  0.00     0.010 A 
ATOM     83  C   UNL A   1      48.878  27.745  30.215  1.00  0.00     0.010 A 
ATOM     84  C   UNL A   1      49.586  26.636  32.685  1.00  0.00     0.020 A 
ATOM     85  C   UNL A   1      50.223  27.512  30.509  1.00  0.00     0.020 A 
ATOM     86  C   UNL A   1      50.571  26.974  31.750  1.00  0.00     0.054 A 
BRANCH  86  87
ATOM     87  S   UNL A   1      52.310  26.661  32.157  1.00  0.00     0.124 S 
ATOM     88  O   UNL A   1      52.314  26.814  33.608  1.00  0.00    -0.237 OA
ATOM     89  O   UNL A   1      52.517  25.300  31.667  1.00  0.00    -0.237 OA
ATOM     90  O   UNL A   1      53.030  27.696  31.418  1.00  0.00    -0.744 OA
ENDBRANCH  86  87
ENDBRANCH  60  81
ENDBRANCH  34  35
ENDBRANCH  27  29
ENDBRANCH  26  27
ENDBRANCH  25  26
ENDBRANCH   1  25
TORSDOF 19
ENDMDL
