MODEL 1
REMARK VINA RESULT:     -11.1      0.000      0.000
REMARK SMILES NS(=O)(=O)c1ccc(N2N=C(C(=O)OCCOC(=O)c3ccc(-c4c5nc(c(-c6ccc(S(=O)(=O)[O-])cc6)c6ccc([nH]6)c(-c6ccc(S(=O)(=O)[O-])cc6)c6nc(c(-c7ccc(S(=O)(=O)[O-])cc7)c7ccc4[nH]7)C=C6)C=C5)cc3)C[C@H]2c2ccco2)cc1
REMARK SMILES IDX 15 1 14 2 12 3 13 4 11 5 9 6 10 7 81 8 80 9 8 10 5 11 6 12
REMARK SMILES IDX 88 13 7 14 87 15 2 16 3 17 4 18 1 19 82 22 83 23 86 24 84 25
REMARK SMILES IDX 85 26 16 27 17 28 18 29 19 30 20 31 21 32 79 33 22 34 78 35
REMARK SMILES IDX 23 36 24 37 25 38 72 39 26 40 77 41 71 42 73 43 27 44 76 45
REMARK SMILES IDX 70 46 69 47 28 49 58 50 39 51 57 52 40 53 43 54 56 55 74 56
REMARK SMILES IDX 41 57 42 58 55 60 75 61 44 62 29 63 30 64 38 65 31 66 37 67
REMARK SMILES IDX 32 68 33 69 34 70 35 71 36 72 59 73 60 74 68 75 61 76 67 77
REMARK SMILES IDX 62 78 63 79 64 80 65 81 66 82 45 83 46 84 54 85 47 86 53 87
REMARK SMILES IDX 48 88 49 89 50 90 51 91 52 92
REMARK H PARENT 1 20 1 21 73 48 43 59
REMARK Flexibility Score: inf
ROOT
ATOM      1  C   UNL A   1      31.858  27.615  26.340  1.00  0.00     0.275 C 
ENDROOT
BRANCH   1   2
ATOM      2  O   UNL A   1      32.272  26.235  26.340  1.00  0.00    -0.458 OA
BRANCH   2   3
ATOM      3  C   UNL A   1      31.558  25.404  25.554  1.00  0.00     0.354 C 
ATOM      4  O   UNL A   1      30.370  25.463  25.299  1.00  0.00    -0.245 OA
BRANCH   3   5
ATOM      5  C   UNL A   1      32.478  24.390  24.917  1.00  0.00     0.148 C 
ATOM      6  N   UNL A   1      33.321  22.528  24.392  1.00  0.00    -0.254 N 
ATOM      7  N   UNL A   1      32.436  23.129  25.225  1.00  0.00    -0.169 NA
ATOM      8  C   UNL A   1      34.247  23.474  23.764  1.00  0.00     0.180 C 
ATOM      9  C   UNL A   1      33.416  24.769  23.814  1.00  0.00     0.101 C 
BRANCH   6  10
ATOM     10  C   UNL A   1      33.466  21.154  24.398  1.00  0.00     0.060 A 
ATOM     11  C   UNL A   1      33.746  18.360  24.358  1.00  0.00     0.082 A 
ATOM     12  C   UNL A   1      32.537  18.938  23.967  1.00  0.00     0.024 A 
ATOM     13  C   UNL A   1      34.804  19.158  24.798  1.00  0.00     0.024 A 
ATOM     14  C   UNL A   1      32.406  20.331  23.988  1.00  0.00     0.029 A 
ATOM     15  C   UNL A   1      34.654  20.546  24.823  1.00  0.00     0.029 A 
BRANCH  11  16
ATOM     16  S   UNL A   1      33.955  16.608  24.290  1.00  0.00     0.238 S 
ATOM     17  O   UNL A   1      34.865  16.190  25.335  1.00  0.00    -0.207 OA
ATOM     18  O   UNL A   1      34.073  16.195  22.918  1.00  0.00    -0.207 OA
BRANCH  16  19
ATOM     19  N   UNL A   1      32.449  16.043  24.806  1.00  0.00    -0.225 NA
ATOM     20  H   UNL A   1      32.479  15.861  25.808  1.00  0.00     0.137 HD
ATOM     21  H   UNL A   1      32.222  15.181  24.310  1.00  0.00     0.137 HD
ENDBRANCH  16  19
ENDBRANCH  11  16
ENDBRANCH   6  10
BRANCH   8  22
ATOM     22  C   UNL A   1      35.573  23.599  24.464  1.00  0.00     0.128 A 
ATOM     23  C   UNL A   1      36.873  23.401  24.036  1.00  0.00     0.048 A 
ATOM     24  O   UNL A   1      35.572  23.897  25.798  1.00  0.00    -0.467 OA
ATOM     25  C   UNL A   1      37.701  23.550  25.173  1.00  0.00     0.042 A 
ATOM     26  C   UNL A   1      36.862  23.857  26.218  1.00  0.00     0.195 A 
ENDBRANCH   8  22
ENDBRANCH   3   5
ENDBRANCH   2   3
ENDBRANCH   1   2
BRANCH   1  27
ATOM     27  C   UNL A   1      33.064  28.544  26.160  1.00  0.00     0.275 C 
BRANCH  27  28
ATOM     28  O   UNL A   1      33.887  28.587  27.342  1.00  0.00    -0.458 OA
BRANCH  28  29
ATOM     29  C   UNL A   1      34.339  29.822  27.667  1.00  0.00     0.338 C 
ATOM     30  O   UNL A   1      33.686  30.853  27.706  1.00  0.00    -0.246 OA
BRANCH  29  31
ATOM     31  C   UNL A   1      35.738  29.752  28.121  1.00  0.00     0.060 A 
ATOM     32  C   UNL A   1      36.723  29.959  27.159  1.00  0.00     0.016 A 
ATOM     33  C   UNL A   1      36.093  29.368  29.415  1.00  0.00     0.016 A 
ATOM     34  C   UNL A   1      38.063  29.758  27.458  1.00  0.00     0.010 A 
ATOM     35  C   UNL A   1      37.447  29.177  29.724  1.00  0.00     0.010 A 
ATOM     36  C   UNL A   1      38.441  29.346  28.739  1.00  0.00    -0.014 A 
BRANCH  36  37
ATOM     37  C   UNL A   1      39.866  29.015  28.991  1.00  0.00     0.031 A 
ATOM     38  C   UNL A   1      40.755  30.015  29.681  1.00  0.00     0.074 A 
ATOM     39  C   UNL A   1      40.339  27.792  28.684  1.00  0.00     0.049 A 
ATOM     40  N   UNL A   1      42.027  29.927  29.974  1.00  0.00    -0.248 NA
ATOM     41  C   UNL A   1      40.129  31.281  30.096  1.00  0.00     0.031 C 
ATOM     42  C   UNL A   1      39.559  26.711  28.079  1.00  0.00     0.029 A 
ATOM     43  N   UNL A   1      41.586  27.245  28.860  1.00  0.00    -0.354 N 
ATOM     44  C   UNL A   1      42.362  31.132  30.581  1.00  0.00     0.074 A 
ATOM     45  C   UNL A   1      41.163  31.943  30.598  1.00  0.00     0.031 C 
ATOM     46  C   UNL A   1      40.337  25.624  27.958  1.00  0.00     0.029 A 
ATOM     47  C   UNL A   1      41.681  25.943  28.429  1.00  0.00     0.049 A 
ATOM     48  H   UNL A   1      42.339  27.738  29.258  1.00  0.00     0.167 HD
ATOM     49  C   UNL A   1      43.558  31.527  31.081  1.00  0.00     0.031 A 
ATOM     50  C   UNL A   1      42.736  25.105  28.400  1.00  0.00     0.031 A 
ATOM     51  C   UNL A   1      44.745  30.712  31.076  1.00  0.00     0.049 A 
ATOM     52  C   UNL A   1      44.064  25.583  28.921  1.00  0.00     0.074 A 
ATOM     53  C   UNL A   1      46.009  31.027  31.544  1.00  0.00     0.029 A 
ATOM     54  N   UNL A   1      44.811  29.414  30.590  1.00  0.00    -0.354 N 
ATOM     55  N   UNL A   1      44.375  26.744  29.449  1.00  0.00    -0.248 NA
ATOM     56  C   UNL A   1      45.186  24.636  28.843  1.00  0.00     0.031 C 
ATOM     57  C   UNL A   1      46.850  29.934  31.304  1.00  0.00     0.029 A 
ATOM     58  C   UNL A   1      46.096  28.920  30.734  1.00  0.00     0.049 A 
ATOM     59  H   UNL A   1      44.055  28.918  30.201  1.00  0.00     0.167 HD
ATOM     60  C   UNL A   1      45.720  26.657  29.787  1.00  0.00     0.074 A 
ATOM     61  C   UNL A   1      46.160  25.328  29.416  1.00  0.00     0.031 C 
ATOM     62  C   UNL A   1      46.519  27.595  30.355  1.00  0.00     0.031 A 
BRANCH  49  63
ATOM     63  C   UNL A   1      43.649  32.925  31.634  1.00  0.00    -0.014 A 
ATOM     64  C   UNL A   1      43.448  33.189  33.000  1.00  0.00     0.010 A 
ATOM     65  C   UNL A   1      43.960  33.992  30.769  1.00  0.00     0.010 A 
ATOM     66  C   UNL A   1      43.511  34.500  33.484  1.00  0.00     0.020 A 
ATOM     67  C   UNL A   1      44.050  35.299  31.254  1.00  0.00     0.020 A 
ATOM     68  C   UNL A   1      43.804  35.548  32.605  1.00  0.00     0.054 A 
BRANCH  68  69
ATOM     69  S   UNL A   1      43.883  37.240  33.256  1.00  0.00     0.124 S 
ATOM     70  O   UNL A   1      43.836  38.035  32.032  1.00  0.00    -0.237 OA
ATOM     71  O   UNL A   1      42.693  37.318  34.101  1.00  0.00    -0.237 OA
ATOM     72  O   UNL A   1      45.154  37.277  33.974  1.00  0.00    -0.744 OA
ENDBRANCH  68  69
ENDBRANCH  49  63
BRANCH  50  73
ATOM     73  C   UNL A   1      42.582  23.737  27.835  1.00  0.00    -0.014 A 
ATOM     74  C   UNL A   1      42.273  22.644  28.664  1.00  0.00     0.010 A 
ATOM     75  C   UNL A   1      42.737  23.524  26.452  1.00  0.00     0.010 A 
ATOM     76  C   UNL A   1      42.138  21.361  28.123  1.00  0.00     0.020 A 
ATOM     77  C   UNL A   1      42.576  22.248  25.904  1.00  0.00     0.020 A 
ATOM     78  C   UNL A   1      42.290  21.172  26.746  1.00  0.00     0.054 A 
BRANCH  78  79
ATOM     79  S   UNL A   1      42.062  19.509  26.055  1.00  0.00     0.124 S 
ATOM     80  O   UNL A   1      40.623  19.476  25.808  1.00  0.00    -0.237 OA
ATOM     81  O   UNL A   1      42.907  19.538  24.863  1.00  0.00    -0.237 OA
ATOM     82  O   UNL A   1      42.534  18.629  27.121  1.00  0.00    -0.744 OA
ENDBRANCH  78  79
ENDBRANCH  50  73
BRANCH  62  83
ATOM     83  C   UNL A   1      47.943  27.201  30.643  1.00  0.00    -0.014 A 
ATOM     84  C   UNL A   1      48.281  26.479  31.801  1.00  0.00     0.010 A 
ATOM     85  C   UNL A   1      48.953  27.533  29.722  1.00  0.00     0.010 A 
ATOM     86  C   UNL A   1      49.610  26.130  32.053  1.00  0.00     0.020 A 
ATOM     87  C   UNL A   1      50.280  27.164  29.958  1.00  0.00     0.020 A 
ATOM     88  C   UNL A   1      50.603  26.479  31.131  1.00  0.00     0.054 A 
BRANCH  88  89
ATOM     89  S   UNL A   1      52.318  25.993  31.464  1.00  0.00     0.124 S 
ATOM     90  O   UNL A   1      52.148  24.675  32.070  1.00  0.00    -0.237 OA
ATOM     91  O   UNL A   1      52.922  25.999  30.134  1.00  0.00    -0.237 OA
ATOM     92  O   UNL A   1      52.804  27.035  32.365  1.00  0.00    -0.744 OA
ENDBRANCH  88  89
ENDBRANCH  62  83
ENDBRANCH  36  37
ENDBRANCH  29  31
ENDBRANCH  28  29
ENDBRANCH  27  28
ENDBRANCH   1  27
TORSDOF 18
ENDMDL
MODEL 2
REMARK VINA RESULT:     -10.9      1.222      2.155
REMARK SMILES NS(=O)(=O)c1ccc(N2N=C(C(=O)OCCOC(=O)c3ccc(-c4c5nc(c(-c6ccc(S(=O)(=O)[O-])cc6)c6ccc([nH]6)c(-c6ccc(S(=O)(=O)[O-])cc6)c6nc(c(-c7ccc(S(=O)(=O)[O-])cc7)c7ccc4[nH]7)C=C6)C=C5)cc3)C[C@H]2c2ccco2)cc1
REMARK SMILES IDX 15 1 14 2 12 3 13 4 11 5 9 6 10 7 81 8 80 9 8 10 5 11 6 12
REMARK SMILES IDX 88 13 7 14 87 15 2 16 3 17 4 18 1 19 82 22 83 23 86 24 84 25
REMARK SMILES IDX 85 26 16 27 17 28 18 29 19 30 20 31 21 32 79 33 22 34 78 35
REMARK SMILES IDX 23 36 24 37 25 38 72 39 26 40 77 41 71 42 73 43 27 44 76 45
REMARK SMILES IDX 70 46 69 47 28 49 58 50 39 51 57 52 40 53 43 54 56 55 74 56
REMARK SMILES IDX 41 57 42 58 55 60 75 61 44 62 29 63 30 64 38 65 31 66 37 67
REMARK SMILES IDX 32 68 33 69 34 70 35 71 36 72 59 73 60 74 68 75 61 76 67 77
REMARK SMILES IDX 62 78 63 79 64 80 65 81 66 82 45 83 46 84 54 85 47 86 53 87
REMARK SMILES IDX 48 88 49 89 50 90 51 91 52 92
REMARK H PARENT 1 20 1 21 73 48 43 59
REMARK Flexibility Score: inf
ROOT
ATOM      1  C   UNL A   1      33.681  28.464  24.054  1.00  0.00     0.275 C 
ENDROOT
BRANCH   1   2
ATOM      2  O   UNL A   1      32.833  27.353  23.705  1.00  0.00    -0.458 OA
BRANCH   2   3
ATOM      3  C   UNL A   1      33.442  26.314  23.098  1.00  0.00     0.354 C 
ATOM      4  O   UNL A   1      34.008  26.312  22.022  1.00  0.00    -0.245 OA
BRANCH   3   5
ATOM      5  C   UNL A   1      33.416  25.107  24.007  1.00  0.00     0.148 C 
ATOM      6  N   UNL A   1      33.461  23.094  24.635  1.00  0.00    -0.254 N 
ATOM      7  N   UNL A   1      33.369  23.895  23.545  1.00  0.00    -0.169 NA
ATOM      8  C   UNL A   1      33.191  23.802  25.889  1.00  0.00     0.180 C 
ATOM      9  C   UNL A   1      33.555  25.243  25.491  1.00  0.00     0.101 C 
BRANCH   6  10
ATOM     10  C   UNL A   1      33.524  21.720  24.491  1.00  0.00     0.060 A 
ATOM     11  C   UNL A   1      33.664  18.926  24.252  1.00  0.00     0.082 A 
ATOM     12  C   UNL A   1      34.737  19.625  24.807  1.00  0.00     0.024 A 
ATOM     13  C   UNL A   1      32.538  19.607  23.787  1.00  0.00     0.024 A 
ATOM     14  C   UNL A   1      34.659  21.018  24.925  1.00  0.00     0.029 A 
ATOM     15  C   UNL A   1      32.480  20.998  23.901  1.00  0.00     0.029 A 
BRANCH  11  16
ATOM     16  S   UNL A   1      33.715  17.164  24.141  1.00  0.00     0.238 S 
ATOM     17  O   UNL A   1      34.089  16.777  22.798  1.00  0.00    -0.207 OA
ATOM     18  O   UNL A   1      32.592  16.609  24.848  1.00  0.00    -0.207 OA
BRANCH  16  19
ATOM     19  N   UNL A   1      35.072  16.782  25.073  1.00  0.00    -0.225 NA
ATOM     20  H   UNL A   1      35.278  17.554  25.706  1.00  0.00     0.137 HD
ATOM     21  H   UNL A   1      35.871  16.622  24.459  1.00  0.00     0.137 HD
ENDBRANCH  16  19
ENDBRANCH  11  16
ENDBRANCH   6  10
BRANCH   8  22
ATOM     22  C   UNL A   1      31.777  23.667  26.382  1.00  0.00     0.128 A 
ATOM     23  C   UNL A   1      31.037  22.575  26.798  1.00  0.00     0.048 A 
ATOM     24  O   UNL A   1      30.986  24.782  26.388  1.00  0.00    -0.467 OA
ATOM     25  C   UNL A   1      29.722  23.042  27.033  1.00  0.00     0.042 A 
ATOM     26  C   UNL A   1      29.746  24.392  26.774  1.00  0.00     0.195 A 
ENDBRANCH   8  22
ENDBRANCH   3   5
ENDBRANCH   2   3
ENDBRANCH   1   2
BRANCH   1  27
ATOM     27  C   UNL A   1      33.185  29.144  25.335  1.00  0.00     0.275 C 
BRANCH  27  28
ATOM     28  O   UNL A   1      34.029  28.840  26.462  1.00  0.00    -0.458 OA
BRANCH  28  29
ATOM     29  C   UNL A   1      34.263  29.889  27.288  1.00  0.00     0.338 C 
ATOM     30  O   UNL A   1      33.456  30.734  27.643  1.00  0.00    -0.246 OA
BRANCH  29  31
ATOM     31  C   UNL A   1      35.626  29.811  27.841  1.00  0.00     0.060 A 
ATOM     32  C   UNL A   1      36.679  29.964  26.943  1.00  0.00     0.016 A 
ATOM     33  C   UNL A   1      35.882  29.471  29.169  1.00  0.00     0.016 A 
ATOM     34  C   UNL A   1      37.991  29.751  27.342  1.00  0.00     0.010 A 
ATOM     35  C   UNL A   1      37.208  29.267  29.579  1.00  0.00     0.010 A 
ATOM     36  C   UNL A   1      38.270  29.381  28.660  1.00  0.00    -0.014 A 
BRANCH  36  37
ATOM     37  C   UNL A   1      39.667  29.034  29.024  1.00  0.00     0.031 A 
ATOM     38  C   UNL A   1      40.497  30.008  29.818  1.00  0.00     0.074 A 
ATOM     39  C   UNL A   1      40.162  27.819  28.721  1.00  0.00     0.049 A 
ATOM     40  N   UNL A   1      41.739  29.904  30.217  1.00  0.00    -0.248 NA
ATOM     41  C   UNL A   1      39.842  31.264  30.217  1.00  0.00     0.031 C 
ATOM     42  C   UNL A   1      39.433  26.761  28.017  1.00  0.00     0.029 A 
ATOM     43  N   UNL A   1      41.387  27.259  28.986  1.00  0.00    -0.354 N 
ATOM     44  C   UNL A   1      42.024  31.088  30.887  1.00  0.00     0.074 A 
ATOM     45  C   UNL A   1      40.830  31.904  30.826  1.00  0.00     0.031 C 
ATOM     46  C   UNL A   1      40.216  25.674  27.930  1.00  0.00     0.029 A 
ATOM     47  C   UNL A   1      41.515  25.971  28.525  1.00  0.00     0.049 A 
ATOM     48  H   UNL A   1      42.105  27.736  29.462  1.00  0.00     0.167 HD
ATOM     49  C   UNL A   1      43.174  31.460  31.500  1.00  0.00     0.031 A 
ATOM     50  C   UNL A   1      42.566  25.128  28.561  1.00  0.00     0.031 A 
ATOM     51  C   UNL A   1      44.354  30.640  31.571  1.00  0.00     0.049 A 
ATOM     52  C   UNL A   1      43.846  25.582  29.208  1.00  0.00     0.074 A 
ATOM     53  C   UNL A   1      45.574  30.933  32.155  1.00  0.00     0.029 A 
ATOM     54  N   UNL A   1      44.458  29.357  31.053  1.00  0.00    -0.354 N 
ATOM     55  N   UNL A   1      44.113  26.725  29.796  1.00  0.00    -0.248 NA
ATOM     56  C   UNL A   1      44.967  24.632  29.197  1.00  0.00     0.031 C 
ATOM     57  C   UNL A   1      46.429  29.843  31.955  1.00  0.00     0.029 A 
ATOM     58  C   UNL A   1      45.724  28.851  31.291  1.00  0.00     0.049 A 
ATOM     59  H   UNL A   1      43.737  28.877  30.585  1.00  0.00     0.167 HD
ATOM     60  C   UNL A   1      45.424  26.621  30.246  1.00  0.00     0.074 A 
ATOM     61  C   UNL A   1      45.891  25.301  29.873  1.00  0.00     0.031 C 
ATOM     62  C   UNL A   1      46.174  27.535  30.909  1.00  0.00     0.031 A 
BRANCH  49  63
ATOM     63  C   UNL A   1      43.220  32.840  32.102  1.00  0.00    -0.014 A 
ATOM     64  C   UNL A   1      43.725  33.938  31.384  1.00  0.00     0.010 A 
ATOM     65  C   UNL A   1      42.731  33.042  33.406  1.00  0.00     0.010 A 
ATOM     66  C   UNL A   1      43.782  35.204  31.975  1.00  0.00     0.020 A 
ATOM     67  C   UNL A   1      42.762  34.311  33.991  1.00  0.00     0.020 A 
ATOM     68  C   UNL A   1      43.308  35.381  33.278  1.00  0.00     0.054 A 
BRANCH  68  69
ATOM     69  S   UNL A   1      43.390  37.033  34.024  1.00  0.00     0.124 S 
ATOM     70  O   UNL A   1      43.386  37.895  32.845  1.00  0.00    -0.237 OA
ATOM     71  O   UNL A   1      42.178  37.081  34.840  1.00  0.00    -0.237 OA
ATOM     72  O   UNL A   1      44.642  37.013  34.777  1.00  0.00    -0.744 OA
ENDBRANCH  68  69
ENDBRANCH  49  63
BRANCH  50  73
ATOM     73  C   UNL A   1      42.457  23.779  27.942  1.00  0.00    -0.014 A 
ATOM     74  C   UNL A   1      42.738  23.586  26.577  1.00  0.00     0.010 A 
ATOM     75  C   UNL A   1      42.076  22.673  28.724  1.00  0.00     0.010 A 
ATOM     76  C   UNL A   1      42.624  22.315  26.004  1.00  0.00     0.020 A 
ATOM     77  C   UNL A   1      41.989  21.397  28.161  1.00  0.00     0.020 A 
ATOM     78  C   UNL A   1      42.251  21.228  26.800  1.00  0.00     0.054 A 
BRANCH  78  79
ATOM     79  S   UNL A   1      42.158  19.578  26.050  1.00  0.00     0.124 S 
ATOM     80  O   UNL A   1      42.600  18.720  27.146  1.00  0.00    -0.237 OA
ATOM     81  O   UNL A   1      40.746  19.469  25.691  1.00  0.00    -0.237 OA
ATOM     82  O   UNL A   1      43.075  19.666  24.916  1.00  0.00    -0.744 OA
ENDBRANCH  78  79
ENDBRANCH  50  73
BRANCH  62  83
ATOM     83  C   UNL A   1      47.567  27.125  31.306  1.00  0.00    -0.014 A 
ATOM     84  C   UNL A   1      47.815  26.465  32.522  1.00  0.00     0.010 A 
ATOM     85  C   UNL A   1      48.640  27.379  30.432  1.00  0.00     0.010 A 
ATOM     86  C   UNL A   1      49.117  26.099  32.874  1.00  0.00     0.020 A 
ATOM     87  C   UNL A   1      49.939  26.992  30.769  1.00  0.00     0.020 A 
ATOM     88  C   UNL A   1      50.172  26.370  31.996  1.00  0.00     0.054 A 
BRANCH  88  89
ATOM     89  S   UNL A   1      51.850  25.862  32.461  1.00  0.00     0.124 S 
ATOM     90  O   UNL A   1      51.840  24.440  32.131  1.00  0.00    -0.237 OA
ATOM     91  O   UNL A   1      52.691  26.699  31.609  1.00  0.00    -0.237 OA
ATOM     92  O   UNL A   1      51.921  26.170  33.888  1.00  0.00    -0.744 OA
ENDBRANCH  88  89
ENDBRANCH  62  83
ENDBRANCH  36  37
ENDBRANCH  29  31
ENDBRANCH  28  29
ENDBRANCH  27  28
ENDBRANCH   1  27
TORSDOF 18
ENDMDL
MODEL 3
REMARK VINA RESULT:     -10.9      3.433      9.748
REMARK SMILES NS(=O)(=O)c1ccc(N2N=C(C(=O)OCCOC(=O)c3ccc(-c4c5nc(c(-c6ccc(S(=O)(=O)[O-])cc6)c6ccc([nH]6)c(-c6ccc(S(=O)(=O)[O-])cc6)c6nc(c(-c7ccc(S(=O)(=O)[O-])cc7)c7ccc4[nH]7)C=C6)C=C5)cc3)C[C@H]2c2ccco2)cc1
REMARK SMILES IDX 15 1 14 2 12 3 13 4 11 5 9 6 10 7 81 8 80 9 8 10 5 11 6 12
REMARK SMILES IDX 88 13 7 14 87 15 2 16 3 17 4 18 1 19 82 22 83 23 86 24 84 25
REMARK SMILES IDX 85 26 16 27 17 28 18 29 19 30 20 31 21 32 79 33 22 34 78 35
REMARK SMILES IDX 23 36 24 37 25 38 72 39 26 40 77 41 71 42 73 43 27 44 76 45
REMARK SMILES IDX 70 46 69 47 28 49 58 50 39 51 57 52 40 53 43 54 56 55 74 56
REMARK SMILES IDX 41 57 42 58 55 60 75 61 44 62 29 63 30 64 38 65 31 66 37 67
REMARK SMILES IDX 32 68 33 69 34 70 35 71 36 72 59 73 60 74 68 75 61 76 67 77
REMARK SMILES IDX 62 78 63 79 64 80 65 81 66 82 45 83 46 84 54 85 47 86 53 87
REMARK SMILES IDX 48 88 49 89 50 90 51 91 52 92
REMARK H PARENT 1 20 1 21 73 48 43 59
REMARK Flexibility Score: inf
ROOT
ATOM      1  C   UNL A   1      35.953  22.260  24.300  1.00  0.00     0.275 C 
ENDROOT
BRANCH   1   2
ATOM      2  O   UNL A   1      34.948  23.229  24.655  1.00  0.00    -0.458 OA
BRANCH   2   3
ATOM      3  C   UNL A   1      34.354  23.868  23.627  1.00  0.00     0.354 C 
ATOM      4  O   UNL A   1      34.485  23.642  22.438  1.00  0.00    -0.245 OA
BRANCH   3   5
ATOM      5  C   UNL A   1      33.381  24.894  24.157  1.00  0.00     0.148 C 
ATOM      6  N   UNL A   1      31.939  26.434  24.186  1.00  0.00    -0.254 N 
ATOM      7  N   UNL A   1      32.800  25.761  23.384  1.00  0.00    -0.169 NA
ATOM      8  C   UNL A   1      32.226  26.253  25.611  1.00  0.00     0.180 C 
ATOM      9  C   UNL A   1      32.951  24.896  25.591  1.00  0.00     0.101 C 
BRANCH   6  10
ATOM     10  C   UNL A   1      31.089  27.388  23.657  1.00  0.00     0.060 A 
ATOM     11  C   UNL A   1      29.336  29.325  22.629  1.00  0.00     0.082 A 
ATOM     12  C   UNL A   1      28.822  28.139  23.154  1.00  0.00     0.024 A 
ATOM     13  C   UNL A   1      30.715  29.541  22.583  1.00  0.00     0.024 A 
ATOM     14  C   UNL A   1      29.702  27.178  23.667  1.00  0.00     0.029 A 
ATOM     15  C   UNL A   1      31.581  28.568  23.088  1.00  0.00     0.029 A 
BRANCH  11  16
ATOM     16  S   UNL A   1      28.245  30.575  22.026  1.00  0.00     0.238 S 
ATOM     17  O   UNL A   1      27.274  30.902  23.049  1.00  0.00    -0.207 OA
ATOM     18  O   UNL A   1      27.897  30.287  20.660  1.00  0.00    -0.207 OA
BRANCH  16  19
ATOM     19  N   UNL A   1      29.248  31.932  21.962  1.00  0.00    -0.225 NA
ATOM     20  H   UNL A   1      29.972  31.854  22.676  1.00  0.00     0.137 HD
ATOM     21  H   UNL A   1      28.694  32.772  22.131  1.00  0.00     0.137 HD
ENDBRANCH  16  19
ENDBRANCH  11  16
ENDBRANCH   6  10
BRANCH   8  22
ATOM     22  C   UNL A   1      33.052  27.353  26.219  1.00  0.00     0.128 A 
ATOM     23  C   UNL A   1      34.342  27.789  25.979  1.00  0.00     0.048 A 
ATOM     24  O   UNL A   1      32.519  28.060  27.262  1.00  0.00    -0.467 OA
ATOM     25  C   UNL A   1      34.621  28.784  26.945  1.00  0.00     0.042 A 
ATOM     26  C   UNL A   1      33.478  28.915  27.698  1.00  0.00     0.195 A 
ENDBRANCH   8  22
ENDBRANCH   3   5
ENDBRANCH   2   3
ENDBRANCH   1   2
BRANCH   1  27
ATOM     27  C   UNL A   1      36.979  22.104  25.428  1.00  0.00     0.275 C 
BRANCH  27  28
ATOM     28  O   UNL A   1      38.116  22.969  25.241  1.00  0.00    -0.458 OA
BRANCH  28  29
ATOM     29  C   UNL A   1      39.066  22.865  26.202  1.00  0.00     0.338 C 
ATOM     30  O   UNL A   1      39.779  21.899  26.423  1.00  0.00    -0.246 OA
BRANCH  29  31
ATOM     31  C   UNL A   1      39.240  24.155  26.890  1.00  0.00     0.060 A 
ATOM     32  C   UNL A   1      39.987  25.126  26.228  1.00  0.00     0.016 A 
ATOM     33  C   UNL A   1      38.803  24.378  28.196  1.00  0.00     0.016 A 
ATOM     34  C   UNL A   1      40.336  26.310  26.861  1.00  0.00     0.010 A 
ATOM     35  C   UNL A   1      39.143  25.580  28.834  1.00  0.00     0.010 A 
ATOM     36  C   UNL A   1      39.934  26.544  28.179  1.00  0.00    -0.014 A 
BRANCH  36  37
ATOM     37  C   UNL A   1      40.430  27.760  28.872  1.00  0.00     0.031 A 
ATOM     38  C   UNL A   1      41.860  27.825  29.337  1.00  0.00     0.074 A 
ATOM     39  C   UNL A   1      39.629  28.835  29.005  1.00  0.00     0.049 A 
ATOM     40  N   UNL A   1      42.480  28.784  29.977  1.00  0.00    -0.248 NA
ATOM     41  C   UNL A   1      42.706  26.656  29.043  1.00  0.00     0.031 C 
ATOM     42  C   UNL A   1      38.246  28.922  28.531  1.00  0.00     0.029 A 
ATOM     43  N   UNL A   1      39.870  30.068  29.558  1.00  0.00    -0.354 N 
ATOM     44  C   UNL A   1      43.775  28.326  30.188  1.00  0.00     0.074 A 
ATOM     45  C   UNL A   1      43.849  26.995  29.623  1.00  0.00     0.031 C 
ATOM     46  C   UNL A   1      37.772  30.151  28.790  1.00  0.00     0.029 A 
ATOM     47  C   UNL A   1      38.795  30.921  29.492  1.00  0.00     0.049 A 
ATOM     48  H   UNL A   1      40.732  30.317  29.963  1.00  0.00     0.167 HD
ATOM     49  C   UNL A   1      44.810  28.957  30.794  1.00  0.00     0.031 A 
ATOM     50  C   UNL A   1      38.642  32.176  29.957  1.00  0.00     0.031 A 
ATOM     51  C   UNL A   1      44.737  30.287  31.341  1.00  0.00     0.049 A 
ATOM     52  C   UNL A   1      39.792  32.838  30.665  1.00  0.00     0.074 A 
ATOM     53  C   UNL A   1      45.725  31.008  31.988  1.00  0.00     0.029 A 
ATOM     54  N   UNL A   1      43.615  31.102  31.292  1.00  0.00    -0.354 N 
ATOM     55  N   UNL A   1      40.997  32.372  30.898  1.00  0.00    -0.248 NA
ATOM     56  C   UNL A   1      39.562  34.197  31.174  1.00  0.00     0.031 C 
ATOM     57  C   UNL A   1      45.188  32.244  32.367  1.00  0.00     0.029 A 
ATOM     58  C   UNL A   1      43.882  32.312  31.910  1.00  0.00     0.049 A 
ATOM     59  H   UNL A   1      42.757  30.855  30.879  1.00  0.00     0.167 HD
ATOM     60  C   UNL A   1      41.675  33.390  31.557  1.00  0.00     0.074 A 
ATOM     61  C   UNL A   1      40.752  34.500  31.676  1.00  0.00     0.031 C 
ATOM     62  C   UNL A   1      42.949  33.405  32.022  1.00  0.00     0.031 A 
BRANCH  49  63
ATOM     63  C   UNL A   1      46.099  28.191  30.936  1.00  0.00    -0.014 A 
ATOM     64  C   UNL A   1      47.097  28.241  29.947  1.00  0.00     0.010 A 
ATOM     65  C   UNL A   1      46.321  27.421  32.094  1.00  0.00     0.010 A 
ATOM     66  C   UNL A   1      48.273  27.499  30.091  1.00  0.00     0.020 A 
ATOM     67  C   UNL A   1      47.507  26.699  32.253  1.00  0.00     0.020 A 
ATOM     68  C   UNL A   1      48.467  26.726  31.240  1.00  0.00     0.054 A 
BRANCH  68  69
ATOM     69  S   UNL A   1      50.003  25.773  31.406  1.00  0.00     0.124 S 
ATOM     70  O   UNL A   1      50.926  26.780  31.922  1.00  0.00    -0.237 OA
ATOM     71  O   UNL A   1      49.631  24.721  32.349  1.00  0.00    -0.237 OA
ATOM     72  O   UNL A   1      50.277  25.317  30.045  1.00  0.00    -0.744 OA
ENDBRANCH  68  69
ENDBRANCH  49  63
BRANCH  50  73
ATOM     73  C   UNL A   1      37.340  32.876  29.790  1.00  0.00    -0.014 A 
ATOM     74  C   UNL A   1      37.019  33.524  28.583  1.00  0.00     0.010 A 
ATOM     75  C   UNL A   1      36.406  32.891  30.842  1.00  0.00     0.010 A 
ATOM     76  C   UNL A   1      35.795  34.186  28.440  1.00  0.00     0.020 A 
ATOM     77  C   UNL A   1      35.171  33.528  30.693  1.00  0.00     0.020 A 
ATOM     78  C   UNL A   1      34.878  34.183  29.495  1.00  0.00     0.054 A 
BRANCH  78  79
ATOM     79  S   UNL A   1      33.275  35.005  29.273  1.00  0.00     0.124 S 
ATOM     80  O   UNL A   1      32.714  34.946  30.620  1.00  0.00    -0.237 OA
ATOM     81  O   UNL A   1      33.659  36.334  28.805  1.00  0.00    -0.237 OA
ATOM     82  O   UNL A   1      32.601  34.174  28.278  1.00  0.00    -0.744 OA
ENDBRANCH  78  79
ENDBRANCH  50  73
BRANCH  62  83
ATOM     83  C   UNL A   1      43.430  34.676  32.671  1.00  0.00    -0.014 A 
ATOM     84  C   UNL A   1      44.012  35.707  31.913  1.00  0.00     0.010 A 
ATOM     85  C   UNL A   1      43.266  34.851  34.057  1.00  0.00     0.010 A 
ATOM     86  C   UNL A   1      44.457  36.875  32.537  1.00  0.00     0.020 A 
ATOM     87  C   UNL A   1      43.687  36.028  34.680  1.00  0.00     0.020 A 
ATOM     88  C   UNL A   1      44.296  37.026  33.918  1.00  0.00     0.054 A 
BRANCH  88  89
ATOM     89  S   UNL A   1      44.857  38.563  34.703  1.00  0.00     0.124 S 
ATOM     90  O   UNL A   1      43.677  39.414  34.583  1.00  0.00    -0.237 OA
ATOM     91  O   UNL A   1      45.187  38.134  36.059  1.00  0.00    -0.237 OA
ATOM     92  O   UNL A   1      46.002  38.968  33.890  1.00  0.00    -0.744 OA
ENDBRANCH  88  89
ENDBRANCH  62  83
ENDBRANCH  36  37
ENDBRANCH  29  31
ENDBRANCH  28  29
ENDBRANCH  27  28
ENDBRANCH   1  27
TORSDOF 18
ENDMDL
