MODEL 1
REMARK VINA RESULT:      -8.7      0.000      0.000
REMARK SMILES C[C@H](Sc1ccnc(C(=O)OCCOC(=O)c2ccc(-c3c4nc(c(-c5ccc(S(=O)(=O)[O-])cc5)c5ccc([nH]5)c(-c5ccc(S(=O)(=O)[O-])cc5)c5nc(c(-c6ccc(S(=O)(=O)[O-])cc6)c6ccc3[nH]6)C=C5)C=C4)cc2)c1)[C@@H](C)O
REMARK SMILES IDX 12 1 11 2 9 3 10 4 8 5 4 6 5 7 77 8 6 9 7 10 3 11 2 12 1 13
REMARK SMILES IDX 78 14 79 15 80 16 13 18 14 19 15 20 16 21 17 22 18 23 76 24
REMARK SMILES IDX 19 25 75 26 20 27 21 28 22 29 69 30 23 31 74 32 68 33 70 34
REMARK SMILES IDX 24 35 73 36 67 37 66 38 25 40 55 41 36 42 54 43 37 44 40 45
REMARK SMILES IDX 53 46 71 47 38 48 39 49 52 51 72 52 41 53 26 54 27 55 35 56
REMARK SMILES IDX 28 57 34 58 29 59 30 60 31 61 32 62 33 63 56 64 57 65 65 66
REMARK SMILES IDX 58 67 64 68 59 69 60 70 61 71 62 72 63 73 42 74 43 75 51 76
REMARK SMILES IDX 44 77 50 78 45 79 46 80 47 81 48 82 49 83
REMARK H PARENT 80 17 70 39 40 50
REMARK Flexibility Score: inf
ROOT
ATOM      1  C   UNL A   1      45.488  20.574  24.833  1.00  0.00     0.275 C 
ENDROOT
BRANCH   1   2
ATOM      2  O   UNL A   1      46.056  21.779  25.385  1.00  0.00    -0.457 OA
BRANCH   2   3
ATOM      3  C   UNL A   1      45.797  22.917  24.685  1.00  0.00     0.357 C 
ATOM      4  O   UNL A   1      45.211  22.961  23.613  1.00  0.00    -0.244 OA
BRANCH   3   5
ATOM      5  C   UNL A   1      46.249  24.138  25.431  1.00  0.00     0.149 A 
ATOM      6  C   UNL A   1      46.181  26.477  25.988  1.00  0.00     0.012 A 
ATOM      7  C   UNL A   1      47.292  26.266  26.798  1.00  0.00     0.035 A 
ATOM      8  C   UNL A   1      45.656  25.385  25.278  1.00  0.00     0.051 A 
ATOM      9  C   UNL A   1      47.823  24.993  26.890  1.00  0.00     0.113 A 
ATOM     10  N   UNL A   1      47.311  23.929  26.251  1.00  0.00    -0.249 NA
BRANCH   6  11
ATOM     11  S   UNL A   1      45.389  28.063  25.731  1.00  0.00    -0.120 SA
BRANCH  11  12
ATOM     12  C   UNL A   1      43.782  28.018  26.662  1.00  0.00     0.077 C 
ATOM     13  C   UNL A   1      43.527  29.345  27.395  1.00  0.00     0.022 C 
BRANCH  12  14
ATOM     14  C   UNL A   1      42.609  27.723  25.682  1.00  0.00     0.124 C 
ATOM     15  C   UNL A   1      41.488  28.759  25.679  1.00  0.00     0.039 C 
BRANCH  14  16
ATOM     16  O   UNL A   1      43.095  27.645  24.332  1.00  0.00    -0.392 OA
ATOM     17  H   UNL A   1      43.981  27.249  24.331  1.00  0.00     0.210 HD
ENDBRANCH  14  16
ENDBRANCH  12  14
ENDBRANCH  11  12
ENDBRANCH   6  11
ENDBRANCH   3   5
ENDBRANCH   2   3
ENDBRANCH   1   2
BRANCH   1  18
ATOM     18  C   UNL A   1      44.369  20.014  25.718  1.00  0.00     0.275 C 
BRANCH  18  19
ATOM     19  O   UNL A   1      43.181  19.699  24.968  1.00  0.00    -0.458 OA
BRANCH  19  20
ATOM     20  C   UNL A   1      42.027  19.778  25.674  1.00  0.00     0.338 C 
ATOM     21  O   UNL A   1      41.177  18.910  25.788  1.00  0.00    -0.246 OA
BRANCH  20  22
ATOM     22  C   UNL A   1      41.962  21.052  26.406  1.00  0.00     0.060 A 
ATOM     23  C   UNL A   1      42.268  22.214  25.700  1.00  0.00     0.016 A 
ATOM     24  C   UNL A   1      41.731  21.107  27.781  1.00  0.00     0.016 A 
ATOM     25  C   UNL A   1      42.377  23.433  26.360  1.00  0.00     0.010 A 
ATOM     26  C   UNL A   1      41.815  22.341  28.442  1.00  0.00     0.010 A 
ATOM     27  C   UNL A   1      42.157  23.513  27.740  1.00  0.00    -0.014 A 
BRANCH  27  28
ATOM     28  C   UNL A   1      42.332  24.817  28.434  1.00  0.00     0.031 A 
ATOM     29  C   UNL A   1      43.631  25.144  29.120  1.00  0.00     0.074 A 
ATOM     30  C   UNL A   1      41.341  25.730  28.408  1.00  0.00     0.049 A 
ATOM     31  N   UNL A   1      43.950  26.201  29.824  1.00  0.00    -0.248 NA
ATOM     32  C   UNL A   1      44.712  24.154  29.001  1.00  0.00     0.031 C 
ATOM     33  C   UNL A   1      40.054  25.561  27.731  1.00  0.00     0.029 A 
ATOM     34  N   UNL A   1      41.266  26.988  28.955  1.00  0.00    -0.354 N 
ATOM     35  C   UNL A   1      45.254  25.989  30.260  1.00  0.00     0.074 A 
ATOM     36  C   UNL A   1      45.661  24.696  29.751  1.00  0.00     0.031 C 
ATOM     37  C   UNL A   1      39.328  26.680  27.884  1.00  0.00     0.029 A 
ATOM     38  C   UNL A   1      40.069  27.620  28.719  1.00  0.00     0.049 A 
ATOM     39  H   UNL A   1      42.000  27.397  29.467  1.00  0.00     0.167 HD
ATOM     40  C   UNL A   1      46.038  26.795  31.017  1.00  0.00     0.031 A 
ATOM     41  C   UNL A   1      39.603  28.810  29.148  1.00  0.00     0.031 A 
ATOM     42  C   UNL A   1      45.633  28.085  31.514  1.00  0.00     0.049 A 
ATOM     43  C   UNL A   1      40.471  29.664  30.030  1.00  0.00     0.074 A 
ATOM     44  C   UNL A   1      46.360  28.979  32.282  1.00  0.00     0.029 A 
ATOM     45  N   UNL A   1      44.395  28.668  31.288  1.00  0.00    -0.354 N 
ATOM     46  N   UNL A   1      41.692  29.438  30.450  1.00  0.00    -0.248 NA
ATOM     47  C   UNL A   1      39.896  30.932  30.498  1.00  0.00     0.031 C 
ATOM     48  C   UNL A   1      45.544  30.080  32.562  1.00  0.00     0.029 A 
ATOM     49  C   UNL A   1      44.329  29.899  31.921  1.00  0.00     0.049 A 
ATOM     50  H   UNL A   1      43.670  28.267  30.757  1.00  0.00     0.167 HD
ATOM     51  C   UNL A   1      42.037  30.541  31.223  1.00  0.00     0.074 A 
ATOM     52  C   UNL A   1      40.903  31.442  31.195  1.00  0.00     0.031 C 
ATOM     53  C   UNL A   1      43.190  30.783  31.893  1.00  0.00     0.031 A 
BRANCH  40  54
ATOM     54  C   UNL A   1      47.400  26.275  31.397  1.00  0.00    -0.014 A 
ATOM     55  C   UNL A   1      48.513  26.442  30.555  1.00  0.00     0.010 A 
ATOM     56  C   UNL A   1      47.570  25.620  32.632  1.00  0.00     0.010 A 
ATOM     57  C   UNL A   1      49.759  25.916  30.916  1.00  0.00     0.020 A 
ATOM     58  C   UNL A   1      48.818  25.116  33.007  1.00  0.00     0.020 A 
ATOM     59  C   UNL A   1      49.900  25.248  32.136  1.00  0.00     0.054 A 
BRANCH  59  60
ATOM     60  S   UNL A   1      51.523  24.566  32.577  1.00  0.00     0.124 S 
ATOM     61  O   UNL A   1      51.344  23.148  32.277  1.00  0.00    -0.237 OA
ATOM     62  O   UNL A   1      52.428  25.286  31.686  1.00  0.00    -0.237 OA
ATOM     63  O   UNL A   1      51.661  24.890  33.995  1.00  0.00    -0.744 OA
ENDBRANCH  59  60
ENDBRANCH  40  54
BRANCH  41  64
ATOM     64  C   UNL A   1      38.229  29.239  28.771  1.00  0.00    -0.014 A 
ATOM     65  C   UNL A   1      37.943  29.671  27.465  1.00  0.00     0.010 A 
ATOM     66  C   UNL A   1      37.186  29.180  29.715  1.00  0.00     0.010 A 
ATOM     67  C   UNL A   1      36.641  30.037  27.110  1.00  0.00     0.020 A 
ATOM     68  C   UNL A   1      35.879  29.518  29.357  1.00  0.00     0.020 A 
ATOM     69  C   UNL A   1      35.616  29.952  28.057  1.00  0.00     0.054 A 
BRANCH  69  70
ATOM     70  S   UNL A   1      33.920  30.355  27.554  1.00  0.00     0.124 S 
ATOM     71  O   UNL A   1      33.171  29.213  28.071  1.00  0.00    -0.237 OA
ATOM     72  O   UNL A   1      33.681  31.627  28.231  1.00  0.00    -0.237 OA
ATOM     73  O   UNL A   1      34.006  30.440  26.098  1.00  0.00    -0.744 OA
ENDBRANCH  69  70
ENDBRANCH  41  64
BRANCH  53  74
ATOM     74  C   UNL A   1      43.296  32.089  32.634  1.00  0.00    -0.014 A 
ATOM     75  C   UNL A   1      43.519  33.298  31.953  1.00  0.00     0.010 A 
ATOM     76  C   UNL A   1      43.120  32.111  34.030  1.00  0.00     0.010 A 
ATOM     77  C   UNL A   1      43.593  34.503  32.657  1.00  0.00     0.020 A 
ATOM     78  C   UNL A   1      43.169  33.317  34.735  1.00  0.00     0.020 A 
ATOM     79  C   UNL A   1      43.418  34.504  34.045  1.00  0.00     0.054 A 
BRANCH  79  80
ATOM     80  S   UNL A   1      43.475  36.085  34.933  1.00  0.00     0.124 S 
ATOM     81  O   UNL A   1      42.058  36.371  35.137  1.00  0.00    -0.237 OA
ATOM     82  O   UNL A   1      44.228  35.750  36.140  1.00  0.00    -0.237 OA
ATOM     83  O   UNL A   1      44.164  36.979  34.005  1.00  0.00    -0.744 OA
ENDBRANCH  79  80
ENDBRANCH  53  74
ENDBRANCH  27  28
ENDBRANCH  20  22
ENDBRANCH  19  20
ENDBRANCH  18  19
ENDBRANCH   1  18
TORSDOF 18
ENDMDL
MODEL 2
REMARK VINA RESULT:      -8.4      4.395      6.528
REMARK SMILES C[C@H](Sc1ccnc(C(=O)OCCOC(=O)c2ccc(-c3c4nc(c(-c5ccc(S(=O)(=O)[O-])cc5)c5ccc([nH]5)c(-c5ccc(S(=O)(=O)[O-])cc5)c5nc(c(-c6ccc(S(=O)(=O)[O-])cc6)c6ccc3[nH]6)C=C5)C=C4)cc2)c1)[C@@H](C)O
REMARK SMILES IDX 12 1 11 2 9 3 10 4 8 5 4 6 5 7 77 8 6 9 7 10 3 11 2 12 1 13
REMARK SMILES IDX 78 14 79 15 80 16 13 18 14 19 15 20 16 21 17 22 18 23 76 24
REMARK SMILES IDX 19 25 75 26 20 27 21 28 22 29 69 30 23 31 74 32 68 33 70 34
REMARK SMILES IDX 24 35 73 36 67 37 66 38 25 40 55 41 36 42 54 43 37 44 40 45
REMARK SMILES IDX 53 46 71 47 38 48 39 49 52 51 72 52 41 53 26 54 27 55 35 56
REMARK SMILES IDX 28 57 34 58 29 59 30 60 31 61 32 62 33 63 56 64 57 65 65 66
REMARK SMILES IDX 58 67 64 68 59 69 60 70 61 71 62 72 63 73 42 74 43 75 51 76
REMARK SMILES IDX 44 77 50 78 45 79 46 80 47 81 48 82 49 83
REMARK H PARENT 80 17 70 39 40 50
REMARK Flexibility Score: inf
ROOT
ATOM      1  C   UNL A   1      42.325  21.303  26.127  1.00  0.00     0.275 C 
ENDROOT
BRANCH   1   2
ATOM      2  O   UNL A   1      41.044  21.393  26.782  1.00  0.00    -0.457 OA
BRANCH   2   3
ATOM      3  C   UNL A   1      40.012  20.799  26.123  1.00  0.00     0.357 C 
ATOM      4  O   UNL A   1      39.996  19.636  25.748  1.00  0.00    -0.244 OA
BRANCH   3   5
ATOM      5  C   UNL A   1      38.844  21.730  25.977  1.00  0.00     0.149 A 
ATOM      6  C   UNL A   1      36.622  22.312  25.262  1.00  0.00     0.012 A 
ATOM      7  C   UNL A   1      36.871  23.607  25.704  1.00  0.00     0.035 A 
ATOM      8  C   UNL A   1      37.641  21.355  25.392  1.00  0.00     0.051 A 
ATOM      9  C   UNL A   1      38.098  23.897  26.271  1.00  0.00     0.113 A 
ATOM     10  N   UNL A   1      39.070  22.986  26.441  1.00  0.00    -0.249 NA
BRANCH   6  11
ATOM     11  S   UNL A   1      35.103  21.774  24.478  1.00  0.00    -0.120 SA
BRANCH  11  12
ATOM     12  C   UNL A   1      34.118  20.880  25.774  1.00  0.00     0.077 C 
ATOM     13  C   UNL A   1      34.097  21.666  27.096  1.00  0.00     0.022 C 
BRANCH  12  14
ATOM     14  C   UNL A   1      32.661  20.654  25.272  1.00  0.00     0.124 C 
ATOM     15  C   UNL A   1      32.464  20.798  23.765  1.00  0.00     0.039 C 
BRANCH  14  16
ATOM     16  O   UNL A   1      32.215  19.333  25.617  1.00  0.00    -0.392 OA
ATOM     17  H   UNL A   1      32.413  18.725  24.888  1.00  0.00     0.210 HD
ENDBRANCH  14  16
ENDBRANCH  12  14
ENDBRANCH  11  12
ENDBRANCH   6  11
ENDBRANCH   3   5
ENDBRANCH   2   3
ENDBRANCH   1   2
BRANCH   1  18
ATOM     18  C   UNL A   1      42.976  22.680  25.956  1.00  0.00     0.275 C 
BRANCH  18  19
ATOM     19  O   UNL A   1      42.023  23.755  26.058  1.00  0.00    -0.458 OA
BRANCH  19  20
ATOM     20  C   UNL A   1      42.546  24.994  25.897  1.00  0.00     0.338 C 
ATOM     21  O   UNL A   1      43.233  25.384  24.967  1.00  0.00    -0.246 OA
BRANCH  20  22
ATOM     22  C   UNL A   1      42.083  25.888  26.970  1.00  0.00     0.060 A 
ATOM     23  C   UNL A   1      42.651  27.160  27.034  1.00  0.00     0.016 A 
ATOM     24  C   UNL A   1      41.209  25.459  27.969  1.00  0.00     0.016 A 
ATOM     25  C   UNL A   1      42.378  28.001  28.107  1.00  0.00     0.010 A 
ATOM     26  C   UNL A   1      40.913  26.318  29.038  1.00  0.00     0.010 A 
ATOM     27  C   UNL A   1      41.510  27.590  29.125  1.00  0.00    -0.014 A 
BRANCH  27  28
ATOM     28  C   UNL A   1      41.274  28.486  30.290  1.00  0.00     0.031 A 
ATOM     29  C   UNL A   1      42.172  28.414  31.496  1.00  0.00     0.074 A 
ATOM     30  C   UNL A   1      40.283  29.397  30.247  1.00  0.00     0.049 A 
ATOM     31  N   UNL A   1      42.090  29.070  32.626  1.00  0.00    -0.248 NA
ATOM     32  C   UNL A   1      43.309  27.485  31.423  1.00  0.00     0.031 C 
ATOM     33  C   UNL A   1      39.377  29.607  29.117  1.00  0.00     0.029 A 
ATOM     34  N   UNL A   1      39.879  30.327  31.174  1.00  0.00    -0.354 N 
ATOM     35  C   UNL A   1      43.141  28.608  33.412  1.00  0.00     0.074 A 
ATOM     36  C   UNL A   1      43.839  27.608  32.631  1.00  0.00     0.031 C 
ATOM     37  C   UNL A   1      38.540  30.616  29.408  1.00  0.00     0.029 A 
ATOM     38  C   UNL A   1      38.806  31.083  30.765  1.00  0.00     0.049 A 
ATOM     39  H   UNL A   1      40.316  30.440  32.049  1.00  0.00     0.167 HD
ATOM     40  C   UNL A   1      43.492  28.981  34.667  1.00  0.00     0.031 A 
ATOM     41  C   UNL A   1      38.096  32.025  31.415  1.00  0.00     0.031 A 
ATOM     42  C   UNL A   1      42.801  29.983  35.437  1.00  0.00     0.049 A 
ATOM     43  C   UNL A   1      38.469  32.385  32.825  1.00  0.00     0.074 A 
ATOM     44  C   UNL A   1      43.085  30.436  36.714  1.00  0.00     0.029 A 
ATOM     45  N   UNL A   1      41.692  30.693  35.000  1.00  0.00    -0.354 N 
ATOM     46  N   UNL A   1      39.452  31.923  33.559  1.00  0.00    -0.248 NA
ATOM     47  C   UNL A   1      37.635  33.391  33.496  1.00  0.00     0.031 C 
ATOM     48  C   UNL A   1      42.118  31.383  37.069  1.00  0.00     0.029 A 
ATOM     49  C   UNL A   1      41.265  31.563  35.991  1.00  0.00     0.049 A 
ATOM     50  H   UNL A   1      41.269  30.594  34.117  1.00  0.00     0.167 HD
ATOM     51  C   UNL A   1      39.364  32.591  34.776  1.00  0.00     0.074 A 
ATOM     52  C   UNL A   1      38.242  33.503  34.670  1.00  0.00     0.031 C 
ATOM     53  C   UNL A   1      40.142  32.460  35.878  1.00  0.00     0.031 A 
BRANCH  40  54
ATOM     54  C   UNL A   1      44.649  28.258  35.306  1.00  0.00    -0.014 A 
ATOM     55  C   UNL A   1      44.461  27.078  36.047  1.00  0.00     0.010 A 
ATOM     56  C   UNL A   1      45.953  28.763  35.146  1.00  0.00     0.010 A 
ATOM     57  C   UNL A   1      45.548  26.447  36.661  1.00  0.00     0.020 A 
ATOM     58  C   UNL A   1      47.045  28.122  35.736  1.00  0.00     0.020 A 
ATOM     59  C   UNL A   1      46.832  26.980  36.509  1.00  0.00     0.054 A 
BRANCH  59  60
ATOM     60  S   UNL A   1      48.225  26.150  37.324  1.00  0.00     0.124 S 
ATOM     61  O   UNL A   1      47.541  25.291  38.287  1.00  0.00    -0.237 OA
ATOM     62  O   UNL A   1      48.878  25.455  36.218  1.00  0.00    -0.237 OA
ATOM     63  O   UNL A   1      48.992  27.249  37.904  1.00  0.00    -0.744 OA
ENDBRANCH  59  60
ENDBRANCH  40  54
BRANCH  41  64
ATOM     64  C   UNL A   1      36.934  32.665  30.738  1.00  0.00    -0.014 A 
ATOM     65  C   UNL A   1      35.627  32.200  30.959  1.00  0.00     0.010 A 
ATOM     66  C   UNL A   1      37.132  33.776  29.896  1.00  0.00     0.010 A 
ATOM     67  C   UNL A   1      34.539  32.831  30.349  1.00  0.00     0.020 A 
ATOM     68  C   UNL A   1      36.045  34.427  29.308  1.00  0.00     0.020 A 
ATOM     69  C   UNL A   1      34.755  33.945  29.532  1.00  0.00     0.054 A 
BRANCH  69  70
ATOM     70  S   UNL A   1      33.323  34.799  28.815  1.00  0.00     0.124 S 
ATOM     71  O   UNL A   1      32.765  33.771  27.940  1.00  0.00    -0.237 OA
ATOM     72  O   UNL A   1      32.526  35.127  29.994  1.00  0.00    -0.237 OA
ATOM     73  O   UNL A   1      33.915  35.947  28.133  1.00  0.00    -0.744 OA
ENDBRANCH  69  70
ENDBRANCH  41  64
BRANCH  53  74
ATOM     74  C   UNL A   1      39.824  33.342  37.056  1.00  0.00    -0.014 A 
ATOM     75  C   UNL A   1      38.905  32.940  38.040  1.00  0.00     0.010 A 
ATOM     76  C   UNL A   1      40.494  34.570  37.203  1.00  0.00     0.010 A 
ATOM     77  C   UNL A   1      38.639  33.763  39.137  1.00  0.00     0.020 A 
ATOM     78  C   UNL A   1      40.250  35.385  38.312  1.00  0.00     0.020 A 
ATOM     79  C   UNL A   1      39.314  34.982  39.265  1.00  0.00     0.054 A 
BRANCH  79  80
ATOM     80  S   UNL A   1      38.985  36.016  40.720  1.00  0.00     0.124 S 
ATOM     81  O   UNL A   1      40.272  35.989  41.409  1.00  0.00    -0.237 OA
ATOM     82  O   UNL A   1      38.618  37.300  40.127  1.00  0.00    -0.237 OA
ATOM     83  O   UNL A   1      37.898  35.318  41.402  1.00  0.00    -0.744 OA
ENDBRANCH  79  80
ENDBRANCH  53  74
ENDBRANCH  27  28
ENDBRANCH  20  22
ENDBRANCH  19  20
ENDBRANCH  18  19
ENDBRANCH   1  18
TORSDOF 18
ENDMDL
MODEL 3
REMARK VINA RESULT:      -8.1      4.153     11.309
REMARK SMILES C[C@H](Sc1ccnc(C(=O)OCCOC(=O)c2ccc(-c3c4nc(c(-c5ccc(S(=O)(=O)[O-])cc5)c5ccc([nH]5)c(-c5ccc(S(=O)(=O)[O-])cc5)c5nc(c(-c6ccc(S(=O)(=O)[O-])cc6)c6ccc3[nH]6)C=C5)C=C4)cc2)c1)[C@@H](C)O
REMARK SMILES IDX 12 1 11 2 9 3 10 4 8 5 4 6 5 7 77 8 6 9 7 10 3 11 2 12 1 13
REMARK SMILES IDX 78 14 79 15 80 16 13 18 14 19 15 20 16 21 17 22 18 23 76 24
REMARK SMILES IDX 19 25 75 26 20 27 21 28 22 29 69 30 23 31 74 32 68 33 70 34
REMARK SMILES IDX 24 35 73 36 67 37 66 38 25 40 55 41 36 42 54 43 37 44 40 45
REMARK SMILES IDX 53 46 71 47 38 48 39 49 52 51 72 52 41 53 26 54 27 55 35 56
REMARK SMILES IDX 28 57 34 58 29 59 30 60 31 61 32 62 33 63 56 64 57 65 65 66
REMARK SMILES IDX 58 67 64 68 59 69 60 70 61 71 62 72 63 73 42 74 43 75 51 76
REMARK SMILES IDX 44 77 50 78 45 79 46 80 47 81 48 82 49 83
REMARK H PARENT 80 17 70 39 40 50
REMARK Flexibility Score: inf
ROOT
ATOM      1  C   UNL A   1      34.675  31.861  27.762  1.00  0.00     0.275 C 
ENDROOT
BRANCH   1   2
ATOM      2  O   UNL A   1      33.650  30.877  27.516  1.00  0.00    -0.457 OA
BRANCH   2   3
ATOM      3  C   UNL A   1      34.104  29.635  27.196  1.00  0.00     0.357 C 
ATOM      4  O   UNL A   1      35.115  29.119  27.650  1.00  0.00    -0.244 OA
BRANCH   3   5
ATOM      5  C   UNL A   1      33.161  28.926  26.268  1.00  0.00     0.149 A 
ATOM      6  C   UNL A   1      32.353  27.009  25.059  1.00  0.00     0.012 A 
ATOM      7  C   UNL A   1      31.412  27.844  24.463  1.00  0.00     0.035 A 
ATOM      8  C   UNL A   1      33.257  27.571  25.975  1.00  0.00     0.051 A 
ATOM      9  C   UNL A   1      31.388  29.182  24.808  1.00  0.00     0.113 A 
ATOM     10  N   UNL A   1      32.218  29.729  25.711  1.00  0.00    -0.249 NA
BRANCH   6  11
ATOM     11  S   UNL A   1      32.542  25.264  24.705  1.00  0.00    -0.120 SA
BRANCH  11  12
ATOM     12  C   UNL A   1      32.172  24.353  26.281  1.00  0.00     0.077 C 
ATOM     13  C   UNL A   1      30.658  24.164  26.471  1.00  0.00     0.022 C 
BRANCH  12  14
ATOM     14  C   UNL A   1      32.880  22.966  26.271  1.00  0.00     0.124 C 
ATOM     15  C   UNL A   1      34.127  22.867  27.147  1.00  0.00     0.039 C 
BRANCH  14  16
ATOM     16  O   UNL A   1      31.979  21.944  26.727  1.00  0.00    -0.392 OA
ATOM     17  H   UNL A   1      31.891  21.999  27.692  1.00  0.00     0.210 HD
ENDBRANCH  14  16
ENDBRANCH  12  14
ENDBRANCH  11  12
ENDBRANCH   6  11
ENDBRANCH   3   5
ENDBRANCH   2   3
ENDBRANCH   1   2
BRANCH   1  18
ATOM     18  C   UNL A   1      34.818  32.175  29.255  1.00  0.00     0.275 C 
BRANCH  18  19
ATOM     19  O   UNL A   1      36.192  32.194  29.684  1.00  0.00    -0.458 OA
BRANCH  19  20
ATOM     20  C   UNL A   1      36.544  31.176  30.506  1.00  0.00     0.338 C 
ATOM     21  O   UNL A   1      35.909  30.751  31.458  1.00  0.00    -0.246 OA
BRANCH  20  22
ATOM     22  C   UNL A   1      37.786  30.544  30.036  1.00  0.00     0.060 A 
ATOM     23  C   UNL A   1      38.709  30.147  31.003  1.00  0.00     0.016 A 
ATOM     24  C   UNL A   1      38.105  30.452  28.681  1.00  0.00     0.016 A 
ATOM     25  C   UNL A   1      39.966  29.685  30.630  1.00  0.00     0.010 A 
ATOM     26  C   UNL A   1      39.364  29.961  28.304  1.00  0.00     0.010 A 
ATOM     27  C   UNL A   1      40.313  29.591  29.277  1.00  0.00    -0.014 A 
BRANCH  27  28
ATOM     28  C   UNL A   1      41.682  29.145  28.903  1.00  0.00     0.031 A 
ATOM     29  C   UNL A   1      42.840  30.103  28.980  1.00  0.00     0.074 A 
ATOM     30  C   UNL A   1      41.896  27.865  28.539  1.00  0.00     0.049 A 
ATOM     31  N   UNL A   1      44.091  29.915  28.642  1.00  0.00    -0.248 NA
ATOM     32  C   UNL A   1      42.555  31.447  29.506  1.00  0.00     0.031 C 
ATOM     33  C   UNL A   1      40.871  26.822  28.475  1.00  0.00     0.029 A 
ATOM     34  N   UNL A   1      43.050  27.220  28.164  1.00  0.00    -0.354 N 
ATOM     35  C   UNL A   1      44.735  31.125  28.879  1.00  0.00     0.074 A 
ATOM     36  C   UNL A   1      43.733  32.043  29.379  1.00  0.00     0.031 C 
ATOM     37  C   UNL A   1      41.445  25.665  28.109  1.00  0.00     0.029 A 
ATOM     38  C   UNL A   1      42.863  25.895  27.850  1.00  0.00     0.049 A 
ATOM     39  H   UNL A   1      43.927  27.665  28.125  1.00  0.00     0.167 HD
ATOM     40  C   UNL A   1      46.040  31.444  28.695  1.00  0.00     0.031 A 
ATOM     41  C   UNL A   1      43.725  24.973  27.379  1.00  0.00     0.031 A 
ATOM     42  C   UNL A   1      47.037  30.526  28.206  1.00  0.00     0.049 A 
ATOM     43  C   UNL A   1      45.156  25.362  27.134  1.00  0.00     0.074 A 
ATOM     44  C   UNL A   1      48.386  30.753  27.994  1.00  0.00     0.029 A 
ATOM     45  N   UNL A   1      46.795  29.205  27.859  1.00  0.00    -0.354 N 
ATOM     46  N   UNL A   1      45.742  26.516  27.343  1.00  0.00    -0.248 NA
ATOM     47  C   UNL A   1      46.040  24.327  26.583  1.00  0.00     0.031 C 
ATOM     48  C   UNL A   1      48.950  29.584  27.471  1.00  0.00     0.029 A 
ATOM     49  C   UNL A   1      47.964  28.611  27.411  1.00  0.00     0.049 A 
ATOM     50  H   UNL A   1      45.922  28.756  27.920  1.00  0.00     0.167 HD
ATOM     51  C   UNL A   1      47.068  26.342  26.963  1.00  0.00     0.074 A 
ATOM     52  C   UNL A   1      47.201  24.966  26.529  1.00  0.00     0.031 C 
ATOM     53  C   UNL A   1      48.082  27.242  26.973  1.00  0.00     0.031 A 
BRANCH  40  54
ATOM     54  C   UNL A   1      46.451  32.865  28.977  1.00  0.00    -0.014 A 
ATOM     55  C   UNL A   1      46.289  33.882  28.019  1.00  0.00     0.010 A 
ATOM     56  C   UNL A   1      46.998  33.192  30.233  1.00  0.00     0.010 A 
ATOM     57  C   UNL A   1      46.714  35.186  28.292  1.00  0.00     0.020 A 
ATOM     58  C   UNL A   1      47.399  34.499  30.519  1.00  0.00     0.020 A 
ATOM     59  C   UNL A   1      47.276  35.483  29.538  1.00  0.00     0.054 A 
BRANCH  59  60
ATOM     60  S   UNL A   1      47.830  37.180  29.866  1.00  0.00     0.124 S 
ATOM     61  O   UNL A   1      46.579  37.837  30.237  1.00  0.00    -0.237 OA
ATOM     62  O   UNL A   1      48.790  37.001  30.951  1.00  0.00    -0.237 OA
ATOM     63  O   UNL A   1      48.404  37.609  28.593  1.00  0.00    -0.744 OA
ENDBRANCH  59  60
ENDBRANCH  40  54
BRANCH  41  64
ATOM     64  C   UNL A   1      43.238  23.599  27.079  1.00  0.00    -0.014 A 
ATOM     65  C   UNL A   1      42.987  23.199  25.756  1.00  0.00     0.010 A 
ATOM     66  C   UNL A   1      43.062  22.668  28.121  1.00  0.00     0.010 A 
ATOM     67  C   UNL A   1      42.566  21.894  25.480  1.00  0.00     0.020 A 
ATOM     68  C   UNL A   1      42.670  21.356  27.846  1.00  0.00     0.020 A 
ATOM     69  C   UNL A   1      42.416  20.979  26.526  1.00  0.00     0.054 A 
BRANCH  69  70
ATOM     70  S   UNL A   1      41.947  19.270  26.138  1.00  0.00     0.124 S 
ATOM     71  O   UNL A   1      42.803  18.973  24.993  1.00  0.00    -0.237 OA
ATOM     72  O   UNL A   1      42.276  18.562  27.374  1.00  0.00    -0.237 OA
ATOM     73  O   UNL A   1      40.519  19.364  25.845  1.00  0.00    -0.744 OA
ENDBRANCH  69  70
ENDBRANCH  41  64
BRANCH  53  74
ATOM     74  C   UNL A   1      49.436  26.761  26.524  1.00  0.00    -0.014 A 
ATOM     75  C   UNL A   1      50.298  26.085  27.405  1.00  0.00     0.010 A 
ATOM     76  C   UNL A   1      49.830  26.948  25.187  1.00  0.00     0.010 A 
ATOM     77  C   UNL A   1      51.543  25.628  26.964  1.00  0.00     0.020 A 
ATOM     78  C   UNL A   1      51.063  26.470  24.735  1.00  0.00     0.020 A 
ATOM     79  C   UNL A   1      51.918  25.825  25.630  1.00  0.00     0.054 A 
BRANCH  79  80
ATOM     80  S   UNL A   1      53.519  25.185  25.068  1.00  0.00     0.124 S 
ATOM     81  O   UNL A   1      53.366  23.749  25.282  1.00  0.00    -0.237 OA
ATOM     82  O   UNL A   1      53.565  25.611  23.671  1.00  0.00    -0.237 OA
ATOM     83  O   UNL A   1      54.483  25.846  25.946  1.00  0.00    -0.744 OA
ENDBRANCH  79  80
ENDBRANCH  53  74
ENDBRANCH  27  28
ENDBRANCH  20  22
ENDBRANCH  19  20
ENDBRANCH  18  19
ENDBRANCH   1  18
TORSDOF 18
ENDMDL
