MODEL 1
REMARK VINA RESULT:      -9.9      0.000      0.000
REMARK SMILES O=C(N[C@@H](CS)C(=O)N[C@@H](CO)C(=O)OCCOC(=O)c1ccc(-c2c3nc(c(-c4ccc(S(=O)(=O)[O-])cc4)c4ccc([nH]4)c(-c4ccc(S(=O)(=O)[O-])cc4)c4nc(c(-c5ccc(S(=O)(=O)[O-])cc5)c5ccc2[nH]5)C=C4)C=C3)cc1)c1ccc(F)cc1
REMARK SMILES IDX 16 1 15 2 13 3 14 4 10 5 9 6 7 7 8 8 4 10 3 11 1 12 2 13
REMARK SMILES IDX 81 15 82 16 87 17 83 18 86 19 84 20 85 21 5 22 6 23 11 25
REMARK SMILES IDX 12 26 17 28 18 29 19 30 20 31 21 32 22 33 80 34 23 35 79 36
REMARK SMILES IDX 24 37 25 38 26 39 73 40 27 41 78 42 72 43 74 44 28 45 77 46
REMARK SMILES IDX 71 47 70 48 29 50 59 51 40 52 58 53 41 54 44 55 57 56 75 57
REMARK SMILES IDX 42 58 43 59 56 61 76 62 45 63 30 64 31 65 39 66 32 67 38 68
REMARK SMILES IDX 33 69 34 70 35 71 36 72 37 73 60 74 61 75 69 76 62 77 68 78
REMARK SMILES IDX 63 79 64 80 65 81 66 82 67 83 46 84 47 85 55 86 48 87 54 88
REMARK SMILES IDX 49 89 50 90 51 91 52 92 53 93
REMARK H PARENT 9 9 3 14 6 24 12 27 74 49 44 60
REMARK Flexibility Score: inf
ROOT
ATOM      1  C   UNL A   1      35.426  22.637  24.705  1.00  0.00     0.274 C 
ENDROOT
BRANCH   1   2
ATOM      2  O   UNL A   1      34.518  23.236  23.758  1.00  0.00    -0.460 OA
BRANCH   2   3
ATOM      3  C   UNL A   1      33.239  23.448  24.189  1.00  0.00     0.331 C 
ATOM      4  O   UNL A   1      32.926  23.747  25.335  1.00  0.00    -0.250 OA
BRANCH   3   5
ATOM      5  C   UNL A   1      32.209  23.152  23.087  1.00  0.00     0.218 C 
BRANCH   5   6
ATOM      6  N   UNL A   1      32.542  23.805  21.815  1.00  0.00    -0.339 N 
ATOM      7  C   UNL A   1      32.710  25.098  21.447  1.00  0.00     0.244 C 
ATOM      8  O   UNL A   1      33.100  25.279  20.287  1.00  0.00    -0.273 OA
ATOM      9  H   UNL A   1      32.671  23.170  21.074  1.00  0.00     0.164 HD
BRANCH   7  10
ATOM     10  C   UNL A   1      32.487  26.314  22.372  1.00  0.00     0.181 C 
BRANCH  10  11
ATOM     11  N   UNL A   1      33.545  27.327  22.295  1.00  0.00    -0.339 N 
ATOM     12  O   UNL A   1      34.553  29.260  22.861  1.00  0.00    -0.269 OA
ATOM     13  C   UNL A   1      33.822  28.333  23.192  1.00  0.00     0.251 C 
ATOM     14  H   UNL A   1      34.129  27.281  21.503  1.00  0.00     0.164 HD
BRANCH  13  15
ATOM     15  C   UNL A   1      33.203  28.328  24.537  1.00  0.00     0.040 A 
ATOM     16  C   UNL A   1      32.329  29.354  24.918  1.00  0.00     0.017 A 
ATOM     17  C   UNL A   1      33.454  27.256  25.404  1.00  0.00     0.017 A 
ATOM     18  C   UNL A   1      31.747  29.334  26.186  1.00  0.00     0.040 A 
ATOM     19  C   UNL A   1      32.862  27.238  26.670  1.00  0.00     0.040 A 
ATOM     20  C   UNL A   1      32.019  28.277  27.049  1.00  0.00     0.123 A 
ATOM     21  F   UNL A   1      31.444  28.256  28.258  1.00  0.00    -0.207 F 
ENDBRANCH  13  15
ENDBRANCH  10  11
BRANCH  10  22
ATOM     22  C   UNL A   1      31.052  26.870  22.294  1.00  0.00     0.101 C 
BRANCH  22  23
ATOM     23  S   UNL A   1      29.983  26.500  23.727  1.00  0.00    -0.177 SA
ATOM     24  H   UNL A   1      30.733  25.958  24.724  1.00  0.00     0.102 HD
ENDBRANCH  22  23
ENDBRANCH  10  22
ENDBRANCH   7  10
ENDBRANCH   5   6
BRANCH   5  25
ATOM     25  C   UNL A   1      32.157  21.627  22.913  1.00  0.00     0.193 C 
BRANCH  25  26
ATOM     26  O   UNL A   1      31.942  21.268  21.544  1.00  0.00    -0.394 OA
ATOM     27  H   UNL A   1      31.635  22.044  21.049  1.00  0.00     0.210 HD
ENDBRANCH  25  26
ENDBRANCH   5  25
ENDBRANCH   3   5
ENDBRANCH   2   3
ENDBRANCH   1   2
BRANCH   1  28
ATOM     28  C   UNL A   1      36.217  23.715  25.438  1.00  0.00     0.275 C 
BRANCH  28  29
ATOM     29  O   UNL A   1      37.565  23.727  24.944  1.00  0.00    -0.458 OA
BRANCH  29  30
ATOM     30  C   UNL A   1      38.489  23.134  25.735  1.00  0.00     0.338 C 
ATOM     31  O   UNL A   1      38.810  21.958  25.743  1.00  0.00    -0.246 OA
BRANCH  30  32
ATOM     32  C   UNL A   1      39.112  24.141  26.612  1.00  0.00     0.060 A 
ATOM     33  C   UNL A   1      38.841  24.141  27.977  1.00  0.00     0.016 A 
ATOM     34  C   UNL A   1      39.858  25.178  26.049  1.00  0.00     0.016 A 
ATOM     35  C   UNL A   1      39.234  25.232  28.755  1.00  0.00     0.010 A 
ATOM     36  C   UNL A   1      40.327  26.221  26.859  1.00  0.00     0.010 A 
ATOM     37  C   UNL A   1      39.979  26.295  28.219  1.00  0.00    -0.014 A 
BRANCH  37  38
ATOM     38  C   UNL A   1      40.341  27.498  29.039  1.00  0.00     0.031 A 
ATOM     39  C   UNL A   1      41.642  27.536  29.814  1.00  0.00     0.074 A 
ATOM     40  C   UNL A   1      39.535  28.580  29.107  1.00  0.00     0.049 A 
ATOM     41  N   UNL A   1      41.991  28.313  30.810  1.00  0.00    -0.248 NA
ATOM     42  C   UNL A   1      42.678  26.562  29.434  1.00  0.00     0.031 C 
ATOM     43  C   UNL A   1      38.285  28.766  28.369  1.00  0.00     0.029 A 
ATOM     44  N   UNL A   1      39.656  29.741  29.837  1.00  0.00    -0.354 N 
ATOM     45  C   UNL A   1      43.237  27.859  31.236  1.00  0.00     0.074 A 
ATOM     46  C   UNL A   1      43.597  26.757  30.370  1.00  0.00     0.031 C 
ATOM     47  C   UNL A   1      37.790  29.984  28.631  1.00  0.00     0.029 A 
ATOM     48  C   UNL A   1      38.602  30.610  29.666  1.00  0.00     0.049 A 
ATOM     49  H   UNL A   1      40.422  29.932  30.424  1.00  0.00     0.167 HD
ATOM     50  C   UNL A   1      43.998  28.310  32.262  1.00  0.00     0.031 A 
ATOM     51  C   UNL A   1      38.262  31.741  30.316  1.00  0.00     0.031 A 
ATOM     52  C   UNL A   1      43.677  29.461  33.068  1.00  0.00     0.049 A 
ATOM     53  C   UNL A   1      39.092  32.206  31.474  1.00  0.00     0.074 A 
ATOM     54  C   UNL A   1      44.392  29.999  34.125  1.00  0.00     0.029 A 
ATOM     55  N   UNL A   1      42.567  30.271  32.886  1.00  0.00    -0.354 N 
ATOM     56  N   UNL A   1      40.192  31.684  31.957  1.00  0.00    -0.248 NA
ATOM     57  C   UNL A   1      38.612  33.391  32.200  1.00  0.00     0.031 C 
ATOM     58  C   UNL A   1      43.696  31.115  34.605  1.00  0.00     0.029 A 
ATOM     59  C   UNL A   1      42.573  31.298  33.815  1.00  0.00     0.049 A 
ATOM     60  H   UNL A   1      41.876  30.136  32.198  1.00  0.00     0.167 HD
ATOM     61  C   UNL A   1      40.534  32.472  33.050  1.00  0.00     0.074 A 
ATOM     62  C   UNL A   1      39.537  33.520  33.142  1.00  0.00     0.031 C 
ATOM     63  C   UNL A   1      41.575  32.331  33.905  1.00  0.00     0.031 A 
BRANCH  50  64
ATOM     64  C   UNL A   1      45.234  27.527  32.629  1.00  0.00    -0.014 A 
ATOM     65  C   UNL A   1      45.210  26.500  33.588  1.00  0.00     0.010 A 
ATOM     66  C   UNL A   1      46.431  27.782  31.931  1.00  0.00     0.010 A 
ATOM     67  C   UNL A   1      46.369  25.764  33.862  1.00  0.00     0.020 A 
ATOM     68  C   UNL A   1      47.582  27.033  32.184  1.00  0.00     0.020 A 
ATOM     69  C   UNL A   1      47.548  26.037  33.160  1.00  0.00     0.054 A 
BRANCH  69  70
ATOM     70  S   UNL A   1      49.028  25.043  33.505  1.00  0.00     0.124 S 
ATOM     71  O   UNL A   1      49.738  25.887  34.464  1.00  0.00    -0.237 OA
ATOM     72  O   UNL A   1      48.469  23.808  34.048  1.00  0.00    -0.237 OA
ATOM     73  O   UNL A   1      49.669  24.911  32.199  1.00  0.00    -0.744 OA
ENDBRANCH  69  70
ENDBRANCH  50  64
BRANCH  51  74
ATOM     74  C   UNL A   1      37.003  32.441  29.942  1.00  0.00    -0.014 A 
ATOM     75  C   UNL A   1      35.809  32.198  30.641  1.00  0.00     0.010 A 
ATOM     76  C   UNL A   1      37.016  33.411  28.921  1.00  0.00     0.010 A 
ATOM     77  C   UNL A   1      34.657  32.930  30.340  1.00  0.00     0.020 A 
ATOM     78  C   UNL A   1      35.876  34.166  28.641  1.00  0.00     0.020 A 
ATOM     79  C   UNL A   1      34.701  33.917  29.351  1.00  0.00     0.054 A 
BRANCH  79  80
ATOM     80  S   UNL A   1      33.232  34.942  29.054  1.00  0.00     0.124 S 
ATOM     81  O   UNL A   1      33.823  36.189  28.582  1.00  0.00    -0.237 OA
ATOM     82  O   UNL A   1      32.498  34.170  28.055  1.00  0.00    -0.237 OA
ATOM     83  O   UNL A   1      32.595  35.006  30.368  1.00  0.00    -0.744 OA
ENDBRANCH  79  80
ENDBRANCH  51  74
BRANCH  63  84
ATOM     84  C   UNL A   1      41.707  33.349  35.003  1.00  0.00    -0.014 A 
ATOM     85  C   UNL A   1      41.031  33.187  36.224  1.00  0.00     0.010 A 
ATOM     86  C   UNL A   1      42.553  34.458  34.823  1.00  0.00     0.010 A 
ATOM     87  C   UNL A   1      41.180  34.132  37.242  1.00  0.00     0.020 A 
ATOM     88  C   UNL A   1      42.719  35.396  35.846  1.00  0.00     0.020 A 
ATOM     89  C   UNL A   1      42.020  35.233  37.045  1.00  0.00     0.054 A 
BRANCH  89  90
ATOM     90  S   UNL A   1      42.230  36.428  38.393  1.00  0.00     0.124 S 
ATOM     91  O   UNL A   1      41.003  37.215  38.294  1.00  0.00    -0.237 OA
ATOM     92  O   UNL A   1      42.332  35.570  39.572  1.00  0.00    -0.237 OA
ATOM     93  O   UNL A   1      43.457  37.138  38.039  1.00  0.00    -0.744 OA
ENDBRANCH  89  90
ENDBRANCH  63  84
ENDBRANCH  37  38
ENDBRANCH  30  32
ENDBRANCH  29  30
ENDBRANCH  28  29
ENDBRANCH   1  28
TORSDOF 22
ENDMDL
MODEL 2
REMARK VINA RESULT:      -9.8      1.766      2.687
REMARK SMILES O=C(N[C@@H](CS)C(=O)N[C@@H](CO)C(=O)OCCOC(=O)c1ccc(-c2c3nc(c(-c4ccc(S(=O)(=O)[O-])cc4)c4ccc([nH]4)c(-c4ccc(S(=O)(=O)[O-])cc4)c4nc(c(-c5ccc(S(=O)(=O)[O-])cc5)c5ccc2[nH]5)C=C4)C=C3)cc1)c1ccc(F)cc1
REMARK SMILES IDX 16 1 15 2 13 3 14 4 10 5 9 6 7 7 8 8 4 10 3 11 1 12 2 13
REMARK SMILES IDX 81 15 82 16 87 17 83 18 86 19 84 20 85 21 5 22 6 23 11 25
REMARK SMILES IDX 12 26 17 28 18 29 19 30 20 31 21 32 22 33 80 34 23 35 79 36
REMARK SMILES IDX 24 37 25 38 26 39 73 40 27 41 78 42 72 43 74 44 28 45 77 46
REMARK SMILES IDX 71 47 70 48 29 50 59 51 40 52 58 53 41 54 44 55 57 56 75 57
REMARK SMILES IDX 42 58 43 59 56 61 76 62 45 63 30 64 31 65 39 66 32 67 38 68
REMARK SMILES IDX 33 69 34 70 35 71 36 72 37 73 60 74 61 75 69 76 62 77 68 78
REMARK SMILES IDX 63 79 64 80 65 81 66 82 67 83 46 84 47 85 55 86 48 87 54 88
REMARK SMILES IDX 49 89 50 90 51 91 52 92 53 93
REMARK H PARENT 9 9 3 14 6 24 12 27 74 49 44 60
REMARK Flexibility Score: inf
ROOT
ATOM      1  C   UNL A   1      37.225  22.673  25.846  1.00  0.00     0.274 C 
ENDROOT
BRANCH   1   2
ATOM      2  O   UNL A   1      36.518  22.144  24.706  1.00  0.00    -0.460 OA
BRANCH   2   3
ATOM      3  C   UNL A   1      35.565  21.200  24.964  1.00  0.00     0.331 C 
ATOM      4  O   UNL A   1      35.765  19.991  24.988  1.00  0.00    -0.250 OA
BRANCH   3   5
ATOM      5  C   UNL A   1      34.168  21.824  25.108  1.00  0.00     0.218 C 
BRANCH   5   6
ATOM      6  N   UNL A   1      33.261  21.427  24.023  1.00  0.00    -0.339 N 
ATOM      7  C   UNL A   1      32.445  22.118  23.191  1.00  0.00     0.244 C 
ATOM      8  O   UNL A   1      31.893  21.452  22.306  1.00  0.00    -0.273 OA
ATOM      9  H   UNL A   1      33.240  20.455  23.870  1.00  0.00     0.164 HD
BRANCH   7  10
ATOM     10  C   UNL A   1      32.206  23.643  23.255  1.00  0.00     0.181 C 
BRANCH  10  11
ATOM     11  N   UNL A   1      32.937  24.407  22.239  1.00  0.00    -0.339 N 
ATOM     12  O   UNL A   1      33.786  26.284  21.330  1.00  0.00    -0.269 OA
ATOM     13  C   UNL A   1      33.444  25.682  22.342  1.00  0.00     0.251 C 
ATOM     14  H   UNL A   1      33.084  23.951  21.379  1.00  0.00     0.164 HD
BRANCH  13  15
ATOM     15  C   UNL A   1      33.534  26.350  23.660  1.00  0.00     0.040 A 
ATOM     16  C   UNL A   1      34.077  25.674  24.760  1.00  0.00     0.017 A 
ATOM     17  C   UNL A   1      33.125  27.685  23.783  1.00  0.00     0.017 A 
ATOM     18  C   UNL A   1      34.162  26.317  25.995  1.00  0.00     0.040 A 
ATOM     19  C   UNL A   1      33.220  28.325  25.021  1.00  0.00     0.040 A 
ATOM     20  C   UNL A   1      33.733  27.636  26.114  1.00  0.00     0.123 A 
ATOM     21  F   UNL A   1      33.833  28.252  27.298  1.00  0.00    -0.207 F 
ENDBRANCH  13  15
ENDBRANCH  10  11
BRANCH  10  22
ATOM     22  C   UNL A   1      30.715  24.008  23.391  1.00  0.00     0.101 C 
BRANCH  22  23
ATOM     23  S   UNL A   1      30.306  25.163  24.744  1.00  0.00    -0.177 SA
ATOM     24  H   UNL A   1      31.360  25.993  24.966  1.00  0.00     0.102 HD
ENDBRANCH  22  23
ENDBRANCH  10  22
ENDBRANCH   7  10
ENDBRANCH   5   6
BRANCH   5  25
ATOM     25  C   UNL A   1      33.610  21.377  26.467  1.00  0.00     0.193 C 
BRANCH  25  26
ATOM     26  O   UNL A   1      34.631  21.366  27.469  1.00  0.00    -0.394 OA
ATOM     27  H   UNL A   1      35.503  21.345  27.044  1.00  0.00     0.210 HD
ENDBRANCH  25  26
ENDBRANCH   5  25
ENDBRANCH   3   5
ENDBRANCH   2   3
ENDBRANCH   1   2
BRANCH   1  28
ATOM     28  C   UNL A   1      38.709  22.339  25.753  1.00  0.00     0.275 C 
BRANCH  28  29
ATOM     29  O   UNL A   1      39.370  22.794  26.945  1.00  0.00    -0.458 OA
BRANCH  29  30
ATOM     30  C   UNL A   1      40.529  23.466  26.758  1.00  0.00     0.338 C 
ATOM     31  O   UNL A   1      41.498  23.103  26.113  1.00  0.00    -0.246 OA
BRANCH  30  32
ATOM     32  C   UNL A   1      40.463  24.770  27.441  1.00  0.00     0.060 A 
ATOM     33  C   UNL A   1      41.519  25.670  27.329  1.00  0.00     0.016 A 
ATOM     34  C   UNL A   1      39.407  25.039  28.313  1.00  0.00     0.016 A 
ATOM     35  C   UNL A   1      41.560  26.787  28.166  1.00  0.00     0.010 A 
ATOM     36  C   UNL A   1      39.416  26.211  29.080  1.00  0.00     0.010 A 
ATOM     37  C   UNL A   1      40.518  27.083  29.060  1.00  0.00    -0.014 A 
BRANCH  37  38
ATOM     38  C   UNL A   1      40.596  28.245  30.006  1.00  0.00     0.031 A 
ATOM     39  C   UNL A   1      41.696  28.317  31.045  1.00  0.00     0.074 A 
ATOM     40  C   UNL A   1      39.705  29.259  29.959  1.00  0.00     0.049 A 
ATOM     41  N   UNL A   1      41.760  29.042  32.135  1.00  0.00    -0.248 NA
ATOM     42  C   UNL A   1      42.868  27.449  30.843  1.00  0.00     0.031 C 
ATOM     43  C   UNL A   1      38.628  29.410  28.980  1.00  0.00     0.029 A 
ATOM     44  N   UNL A   1      39.570  30.369  30.763  1.00  0.00    -0.354 N 
ATOM     45  C   UNL A   1      42.922  28.647  32.793  1.00  0.00     0.074 A 
ATOM     46  C   UNL A   1      43.549  27.639  31.965  1.00  0.00     0.031 C 
ATOM     47  C   UNL A   1      37.987  30.567  29.198  1.00  0.00     0.029 A 
ATOM     48  C   UNL A   1      38.507  31.171  30.418  1.00  0.00     0.049 A 
ATOM     49  H   UNL A   1      40.176  30.569  31.512  1.00  0.00     0.167 HD
ATOM     50  C   UNL A   1      43.408  29.073  33.984  1.00  0.00     0.031 A 
ATOM     51  C   UNL A   1      37.942  32.224  31.043  1.00  0.00     0.031 A 
ATOM     52  C   UNL A   1      42.828  30.137  34.765  1.00  0.00     0.049 A 
ATOM     53  C   UNL A   1      38.467  32.661  32.377  1.00  0.00     0.074 A 
ATOM     54  C   UNL A   1      43.256  30.644  35.981  1.00  0.00     0.029 A 
ATOM     55  N   UNL A   1      41.717  30.878  34.395  1.00  0.00    -0.354 N 
ATOM     56  N   UNL A   1      39.480  32.184  33.056  1.00  0.00    -0.248 NA
ATOM     57  C   UNL A   1      37.746  33.752  33.048  1.00  0.00     0.031 C 
ATOM     58  C   UNL A   1      42.383  31.671  36.361  1.00  0.00     0.029 A 
ATOM     59  C   UNL A   1      41.440  31.831  35.360  1.00  0.00     0.049 A 
ATOM     60  H   UNL A   1      41.201  30.745  33.567  1.00  0.00     0.167 HD
ATOM     61  C   UNL A   1      39.516  32.911  34.239  1.00  0.00     0.074 A 
ATOM     62  C   UNL A   1      38.437  33.876  34.173  1.00  0.00     0.031 C 
ATOM     63  C   UNL A   1      40.361  32.781  35.290  1.00  0.00     0.031 A 
BRANCH  50  64
ATOM     64  C   UNL A   1      44.601  28.355  34.564  1.00  0.00    -0.014 A 
ATOM     65  C   UNL A   1      45.915  28.813  34.371  1.00  0.00     0.010 A 
ATOM     66  C   UNL A   1      44.383  27.233  35.388  1.00  0.00     0.010 A 
ATOM     67  C   UNL A   1      46.991  28.145  34.969  1.00  0.00     0.020 A 
ATOM     68  C   UNL A   1      45.451  26.579  36.006  1.00  0.00     0.020 A 
ATOM     69  C   UNL A   1      46.752  27.030  35.781  1.00  0.00     0.054 A 
BRANCH  69  70
ATOM     70  S   UNL A   1      48.158  26.204  36.576  1.00  0.00     0.124 S 
ATOM     71  O   UNL A   1      47.621  25.908  37.902  1.00  0.00    -0.237 OA
ATOM     72  O   UNL A   1      48.382  25.045  35.715  1.00  0.00    -0.237 OA
ATOM     73  O   UNL A   1      49.216  27.211  36.544  1.00  0.00    -0.744 OA
ENDBRANCH  69  70
ENDBRANCH  50  64
BRANCH  51  74
ATOM     74  C   UNL A   1      36.735  32.859  30.445  1.00  0.00    -0.014 A 
ATOM     75  C   UNL A   1      35.450  32.543  30.914  1.00  0.00     0.010 A 
ATOM     76  C   UNL A   1      36.881  33.841  29.446  1.00  0.00     0.010 A 
ATOM     77  C   UNL A   1      34.333  33.215  30.408  1.00  0.00     0.020 A 
ATOM     78  C   UNL A   1      35.771  34.535  28.963  1.00  0.00     0.020 A 
ATOM     79  C   UNL A   1      34.502  34.215  29.445  1.00  0.00     0.054 A 
BRANCH  79  80
ATOM     80  S   UNL A   1      33.057  35.162  28.887  1.00  0.00     0.124 S 
ATOM     81  O   UNL A   1      33.679  36.324  28.263  1.00  0.00    -0.237 OA
ATOM     82  O   UNL A   1      32.396  34.231  27.976  1.00  0.00    -0.237 OA
ATOM     83  O   UNL A   1      32.329  35.427  30.126  1.00  0.00    -0.744 OA
ENDBRANCH  79  80
ENDBRANCH  51  74
BRANCH  63  84
ATOM     84  C   UNL A   1      40.172  33.722  36.446  1.00  0.00    -0.014 A 
ATOM     85  C   UNL A   1      40.798  34.981  36.462  1.00  0.00     0.010 A 
ATOM     86  C   UNL A   1      39.325  33.358  37.508  1.00  0.00     0.010 A 
ATOM     87  C   UNL A   1      40.597  35.853  37.535  1.00  0.00     0.020 A 
ATOM     88  C   UNL A   1      39.107  34.235  38.574  1.00  0.00     0.020 A 
ATOM     89  C   UNL A   1      39.755  35.473  38.586  1.00  0.00     0.054 A 
BRANCH  89  90
ATOM     90  S   UNL A   1      39.478  36.636  39.951  1.00  0.00     0.124 S 
ATOM     91  O   UNL A   1      40.831  36.831  40.463  1.00  0.00    -0.237 OA
ATOM     92  O   UNL A   1      38.888  37.790  39.276  1.00  0.00    -0.237 OA
ATOM     93  O   UNL A   1      38.572  35.914  40.841  1.00  0.00    -0.744 OA
ENDBRANCH  89  90
ENDBRANCH  63  84
ENDBRANCH  37  38
ENDBRANCH  30  32
ENDBRANCH  29  30
ENDBRANCH  28  29
ENDBRANCH   1  28
TORSDOF 22
ENDMDL
MODEL 3
REMARK VINA RESULT:      -9.6      4.162      9.983
REMARK SMILES O=C(N[C@@H](CS)C(=O)N[C@@H](CO)C(=O)OCCOC(=O)c1ccc(-c2c3nc(c(-c4ccc(S(=O)(=O)[O-])cc4)c4ccc([nH]4)c(-c4ccc(S(=O)(=O)[O-])cc4)c4nc(c(-c5ccc(S(=O)(=O)[O-])cc5)c5ccc2[nH]5)C=C4)C=C3)cc1)c1ccc(F)cc1
REMARK SMILES IDX 16 1 15 2 13 3 14 4 10 5 9 6 7 7 8 8 4 10 3 11 1 12 2 13
REMARK SMILES IDX 81 15 82 16 87 17 83 18 86 19 84 20 85 21 5 22 6 23 11 25
REMARK SMILES IDX 12 26 17 28 18 29 19 30 20 31 21 32 22 33 80 34 23 35 79 36
REMARK SMILES IDX 24 37 25 38 26 39 73 40 27 41 78 42 72 43 74 44 28 45 77 46
REMARK SMILES IDX 71 47 70 48 29 50 59 51 40 52 58 53 41 54 44 55 57 56 75 57
REMARK SMILES IDX 42 58 43 59 56 61 76 62 45 63 30 64 31 65 39 66 32 67 38 68
REMARK SMILES IDX 33 69 34 70 35 71 36 72 37 73 60 74 61 75 69 76 62 77 68 78
REMARK SMILES IDX 63 79 64 80 65 81 66 82 67 83 46 84 47 85 55 86 48 87 54 88
REMARK SMILES IDX 49 89 50 90 51 91 52 92 53 93
REMARK H PARENT 9 9 3 14 6 24 12 27 74 49 44 60
REMARK Flexibility Score: inf
ROOT
ATOM      1  C   UNL A   1      33.041  29.312  27.024  1.00  0.00     0.274 C 
ENDROOT
BRANCH   1   2
ATOM      2  O   UNL A   1      31.708  28.886  26.675  1.00  0.00    -0.460 OA
BRANCH   2   3
ATOM      3  C   UNL A   1      31.481  28.612  25.356  1.00  0.00     0.331 C 
ATOM      4  O   UNL A   1      31.275  29.454  24.491  1.00  0.00    -0.250 OA
BRANCH   3   5
ATOM      5  C   UNL A   1      31.397  27.100  25.094  1.00  0.00     0.218 C 
BRANCH   5   6
ATOM      6  N   UNL A   1      32.719  26.482  24.936  1.00  0.00    -0.339 N 
ATOM      7  C   UNL A   1      33.152  25.343  24.345  1.00  0.00     0.244 C 
ATOM      8  O   UNL A   1      34.379  25.188  24.312  1.00  0.00    -0.273 OA
ATOM      9  H   UNL A   1      33.444  27.006  25.348  1.00  0.00     0.164 HD
BRANCH   7  10
ATOM     10  C   UNL A   1      32.235  24.283  23.695  1.00  0.00     0.181 C 
BRANCH  10  11
ATOM     11  N   UNL A   1      31.338  23.609  24.640  1.00  0.00    -0.339 N 
ATOM     12  O   UNL A   1      30.591  21.847  25.828  1.00  0.00    -0.269 OA
ATOM     13  C   UNL A   1      31.536  22.411  25.288  1.00  0.00     0.251 C 
ATOM     14  H   UNL A   1      30.489  24.070  24.833  1.00  0.00     0.164 HD
BRANCH  13  15
ATOM     15  C   UNL A   1      32.873  21.776  25.296  1.00  0.00     0.040 A 
ATOM     16  C   UNL A   1      33.874  22.245  26.156  1.00  0.00     0.017 A 
ATOM     17  C   UNL A   1      33.110  20.663  24.479  1.00  0.00     0.017 A 
ATOM     18  C   UNL A   1      35.128  21.633  26.159  1.00  0.00     0.040 A 
ATOM     19  C   UNL A   1      34.365  20.049  24.492  1.00  0.00     0.040 A 
ATOM     20  C   UNL A   1      35.362  20.542  25.328  1.00  0.00     0.123 A 
ATOM     21  F   UNL A   1      36.562  19.949  25.348  1.00  0.00    -0.207 F 
ENDBRANCH  13  15
ENDBRANCH  10  11
BRANCH  10  22
ATOM     22  C   UNL A   1      31.558  24.788  22.406  1.00  0.00     0.101 C 
BRANCH  22  23
ATOM     23  S   UNL A   1      32.576  25.880  21.356  1.00  0.00    -0.177 SA
ATOM     24  H   UNL A   1      33.016  26.936  22.093  1.00  0.00     0.102 HD
ENDBRANCH  22  23
ENDBRANCH  10  22
ENDBRANCH   7  10
ENDBRANCH   5   6
BRANCH   5  25
ATOM     25  C   UNL A   1      30.648  26.475  26.279  1.00  0.00     0.193 C 
BRANCH  25  26
ATOM     26  O   UNL A   1      29.595  25.614  25.834  1.00  0.00    -0.394 OA
ATOM     27  H   UNL A   1      28.750  25.918  26.201  1.00  0.00     0.210 HD
ENDBRANCH  25  26
ENDBRANCH   5  25
ENDBRANCH   3   5
ENDBRANCH   2   3
ENDBRANCH   1   2
BRANCH   1  28
ATOM     28  C   UNL A   1      33.074  30.818  27.258  1.00  0.00     0.275 C 
BRANCH  28  29
ATOM     29  O   UNL A   1      34.440  31.247  27.368  1.00  0.00    -0.458 OA
BRANCH  29  30
ATOM     30  C   UNL A   1      34.941  31.309  28.623  1.00  0.00     0.338 C 
ATOM     31  O   UNL A   1      34.442  31.854  29.592  1.00  0.00    -0.246 OA
BRANCH  30  32
ATOM     32  C   UNL A   1      36.217  30.573  28.685  1.00  0.00     0.060 A 
ATOM     33  C   UNL A   1      36.711  30.138  29.911  1.00  0.00     0.016 A 
ATOM     34  C   UNL A   1      36.993  30.441  27.533  1.00  0.00     0.016 A 
ATOM     35  C   UNL A   1      38.022  29.663  29.993  1.00  0.00     0.010 A 
ATOM     36  C   UNL A   1      38.273  29.878  27.614  1.00  0.00     0.010 A 
ATOM     37  C   UNL A   1      38.833  29.525  28.855  1.00  0.00    -0.014 A 
BRANCH  37  38
ATOM     38  C   UNL A   1      40.263  29.081  28.953  1.00  0.00     0.031 A 
ATOM     39  C   UNL A   1      41.339  30.050  29.398  1.00  0.00     0.074 A 
ATOM     40  C   UNL A   1      40.635  27.815  28.662  1.00  0.00     0.049 A 
ATOM     41  N   UNL A   1      42.639  29.971  29.248  1.00  0.00    -0.248 NA
ATOM     42  C   UNL A   1      40.897  31.276  30.084  1.00  0.00     0.031 C 
ATOM     43  C   UNL A   1      39.735  26.720  28.298  1.00  0.00     0.029 A 
ATOM     44  N   UNL A   1      41.882  27.234  28.634  1.00  0.00    -0.354 N 
ATOM     45  C   UNL A   1      43.157  31.171  29.728  1.00  0.00     0.074 A 
ATOM     46  C   UNL A   1      42.033  31.951  30.202  1.00  0.00     0.031 C 
ATOM     47  C   UNL A   1      40.446  25.594  28.145  1.00  0.00     0.029 A 
ATOM     48  C   UNL A   1      41.863  25.912  28.254  1.00  0.00     0.049 A 
ATOM     49  H   UNL A   1      42.708  27.717  28.864  1.00  0.00     0.167 HD
ATOM     50  C   UNL A   1      44.446  31.589  29.753  1.00  0.00     0.031 A 
ATOM     51  C   UNL A   1      42.858  25.058  27.940  1.00  0.00     0.031 A 
ATOM     52  C   UNL A   1      45.570  30.777  29.359  1.00  0.00     0.049 A 
ATOM     53  C   UNL A   1      44.276  25.544  27.935  1.00  0.00     0.074 A 
ATOM     54  C   UNL A   1      46.914  31.112  29.358  1.00  0.00     0.029 A 
ATOM     55  N   UNL A   1      45.488  29.463  28.929  1.00  0.00    -0.354 N 
ATOM     56  N   UNL A   1      44.738  26.727  28.254  1.00  0.00    -0.248 NA
ATOM     57  C   UNL A   1      45.302  24.591  27.489  1.00  0.00     0.031 C 
ATOM     58  C   UNL A   1      47.642  30.009  28.894  1.00  0.00     0.029 A 
ATOM     59  C   UNL A   1      46.754  28.974  28.652  1.00  0.00     0.049 A 
ATOM     60  H   UNL A   1      44.652  28.952  28.833  1.00  0.00     0.167 HD
ATOM     61  C   UNL A   1      46.110  26.665  28.040  1.00  0.00     0.074 A 
ATOM     62  C   UNL A   1      46.405  25.320  27.588  1.00  0.00     0.031 C 
ATOM     63  C   UNL A   1      47.038  27.640  28.195  1.00  0.00     0.031 A 
BRANCH  50  64
ATOM     64  C   UNL A   1      44.724  33.013  30.164  1.00  0.00    -0.014 A 
ATOM     65  C   UNL A   1      44.661  34.079  29.251  1.00  0.00     0.010 A 
ATOM     66  C   UNL A   1      44.980  33.289  31.521  1.00  0.00     0.010 A 
ATOM     67  C   UNL A   1      44.877  35.393  29.684  1.00  0.00     0.020 A 
ATOM     68  C   UNL A   1      45.171  34.601  31.962  1.00  0.00     0.020 A 
ATOM     69  C   UNL A   1      45.134  35.645  31.037  1.00  0.00     0.054 A 
BRANCH  69  70
ATOM     70  S   UNL A   1      45.373  37.360  31.582  1.00  0.00     0.124 S 
ATOM     71  O   UNL A   1      44.241  38.035  30.952  1.00  0.00    -0.237 OA
ATOM     72  O   UNL A   1      45.309  37.249  33.037  1.00  0.00    -0.237 OA
ATOM     73  O   UNL A   1      46.685  37.714  31.046  1.00  0.00    -0.744 OA
ENDBRANCH  69  70
ENDBRANCH  50  64
BRANCH  51  74
ATOM     74  C   UNL A   1      42.516  23.680  27.492  1.00  0.00    -0.014 A 
ATOM     75  C   UNL A   1      42.354  23.386  26.129  1.00  0.00     0.010 A 
ATOM     76  C   UNL A   1      42.421  22.639  28.436  1.00  0.00     0.010 A 
ATOM     77  C   UNL A   1      42.125  22.069  25.715  1.00  0.00     0.020 A 
ATOM     78  C   UNL A   1      42.225  21.320  28.024  1.00  0.00     0.020 A 
ATOM     79  C   UNL A   1      42.074  21.044  26.665  1.00  0.00     0.054 A 
BRANCH  79  80
ATOM     80  S   UNL A   1      41.897  19.326  26.105  1.00  0.00     0.124 S 
ATOM     81  O   UNL A   1      40.467  19.243  25.830  1.00  0.00    -0.237 OA
ATOM     82  O   UNL A   1      42.772  19.278  24.936  1.00  0.00    -0.237 OA
ATOM     83  O   UNL A   1      42.364  18.549  27.251  1.00  0.00    -0.744 OA
ENDBRANCH  79  80
ENDBRANCH  51  74
BRANCH  63  84
ATOM     84  C   UNL A   1      48.467  27.283  27.899  1.00  0.00    -0.014 A 
ATOM     85  C   UNL A   1      49.050  27.604  26.661  1.00  0.00     0.010 A 
ATOM     86  C   UNL A   1      49.247  26.657  28.888  1.00  0.00     0.010 A 
ATOM     87  C   UNL A   1      50.387  27.283  26.408  1.00  0.00     0.020 A 
ATOM     88  C   UNL A   1      50.588  26.352  28.645  1.00  0.00     0.020 A 
ATOM     89  C   UNL A   1      51.146  26.656  27.400  1.00  0.00     0.054 A 
BRANCH  89  90
ATOM     90  S   UNL A   1      52.890  26.283  27.065  1.00  0.00     0.124 S 
ATOM     91  O   UNL A   1      53.248  27.334  26.117  1.00  0.00    -0.237 OA
ATOM     92  O   UNL A   1      53.503  26.394  28.387  1.00  0.00    -0.237 OA
ATOM     93  O   UNL A   1      52.855  24.930  26.514  1.00  0.00    -0.744 OA
ENDBRANCH  89  90
ENDBRANCH  63  84
ENDBRANCH  37  38
ENDBRANCH  30  32
ENDBRANCH  29  30
ENDBRANCH  28  29
ENDBRANCH   1  28
TORSDOF 22
ENDMDL
