MODEL 1
REMARK VINA RESULT:      -9.6      0.000      0.000
REMARK SMILES COC(=O)C[C@H](NC(=O)N[C@H]1CCCC1(C)C)C(=O)OCCOC(=O)c1ccc(-c2c3nc(c(-c4ccc(S(=O)(=O)[O-])cc4)c4ccc([nH]4)c(-c4ccc(S(=O)(=O)[O-])cc4)c4nc(c(-c5ccc(S(=O)(=O)[O-])cc5)c5ccc2[nH]5)C=C4)C=C3)cc1
REMARK SMILES IDX 21 1 20 2 18 3 19 4 6 5 5 6 3 7 4 8 2 9 1 10 7 11 8 12 9 14
REMARK SMILES IDX 10 15 11 17 12 18 15 19 13 20 14 21 16 22 17 23 22 24 23 25
REMARK SMILES IDX 24 26 25 27 26 28 27 29 85 30 28 31 84 32 29 33 30 34 31 35
REMARK SMILES IDX 78 36 32 37 83 38 77 39 79 40 33 41 82 42 76 43 75 44 34 46
REMARK SMILES IDX 64 47 45 48 63 49 46 50 49 51 62 52 80 53 47 54 48 55 61 57
REMARK SMILES IDX 81 58 50 59 35 60 36 61 44 62 37 63 43 64 38 65 39 66 40 67
REMARK SMILES IDX 41 68 42 69 65 70 66 71 74 72 67 73 73 74 68 75 69 76 70 77
REMARK SMILES IDX 71 78 72 79 51 80 52 81 60 82 53 83 59 84 54 85 55 86 56 87
REMARK SMILES IDX 57 88 58 89
REMARK H PARENT 7 13 10 16 79 45 49 56
REMARK Flexibility Score: inf
ROOT
ATOM      1  C   UNL A   1      31.709  27.529  25.718  1.00  0.00     0.274 C 
ENDROOT
BRANCH   1   2
ATOM      2  O   UNL A   1      32.659  26.419  25.879  1.00  0.00    -0.461 OA
BRANCH   2   3
ATOM      3  C   UNL A   1      32.179  25.136  26.066  1.00  0.00     0.329 C 
ATOM      4  O   UNL A   1      31.240  24.872  26.810  1.00  0.00    -0.250 OA
BRANCH   3   5
ATOM      5  C   UNL A   1      32.887  24.030  25.162  1.00  0.00     0.204 C 
BRANCH   5   6
ATOM      6  C   UNL A   1      32.168  23.633  23.875  1.00  0.00     0.159 C 
BRANCH   6   7
ATOM      7  C   UNL A   1      33.102  23.061  22.843  1.00  0.00     0.308 C 
ATOM      8  O   UNL A   1      33.591  23.705  21.942  1.00  0.00    -0.252 OA
BRANCH   7   9
ATOM      9  O   UNL A   1      33.299  21.728  23.067  1.00  0.00    -0.469 OA
ATOM     10  C   UNL A   1      32.110  20.944  22.929  1.00  0.00     0.282 C 
ENDBRANCH   7   9
ENDBRANCH   6   7
ENDBRANCH   5   6
BRANCH   5  11
ATOM     11  N   UNL A   1      33.157  22.819  25.895  1.00  0.00    -0.324 N 
ATOM     12  C   UNL A   1      34.115  22.794  26.800  1.00  0.00     0.315 C 
ATOM     13  H   UNL A   1      32.624  22.010  25.718  1.00  0.00     0.166 HD
ATOM     14  O   UNL A   1      33.638  22.540  27.911  1.00  0.00    -0.249 OA
ATOM     15  N   UNL A   1      35.373  23.241  26.639  1.00  0.00    -0.335 N 
ATOM     16  H   UNL A   1      35.700  23.618  27.487  1.00  0.00     0.165 HD
BRANCH  15  17
ATOM     17  C   UNL A   1      36.409  23.352  25.625  1.00  0.00     0.089 C 
ATOM     18  C   UNL A   1      37.753  23.893  26.129  1.00  0.00     0.025 C 
ATOM     19  C   UNL A   1      36.829  21.986  24.893  1.00  0.00    -0.015 C 
ATOM     20  C   UNL A   1      38.771  22.767  26.185  1.00  0.00     0.003 C 
ATOM     21  C   UNL A   1      38.139  21.551  25.569  1.00  0.00     0.008 C 
ATOM     22  C   UNL A   1      35.979  20.701  24.902  1.00  0.00     0.013 C 
ATOM     23  C   UNL A   1      37.008  22.361  23.412  1.00  0.00     0.013 C 
ENDBRANCH  15  17
ENDBRANCH   5  11
ENDBRANCH   3   5
ENDBRANCH   2   3
ENDBRANCH   1   2
BRANCH   1  24
ATOM     24  C   UNL A   1      32.265  28.995  26.154  1.00  0.00     0.275 C 
BRANCH  24  25
ATOM     25  O   UNL A   1      33.673  29.071  26.694  1.00  0.00    -0.458 OA
BRANCH  25  26
ATOM     26  C   UNL A   1      34.173  30.076  27.527  1.00  0.00     0.338 C 
ATOM     27  O   UNL A   1      33.505  31.021  27.913  1.00  0.00    -0.246 OA
BRANCH  26  28
ATOM     28  C   UNL A   1      35.674  29.853  27.972  1.00  0.00     0.060 A 
ATOM     29  C   UNL A   1      36.766  30.064  27.100  1.00  0.00     0.016 A 
ATOM     30  C   UNL A   1      36.035  29.426  29.257  1.00  0.00     0.016 A 
ATOM     31  C   UNL A   1      38.130  29.999  27.499  1.00  0.00     0.010 A 
ATOM     32  C   UNL A   1      37.404  29.335  29.668  1.00  0.00     0.010 A 
ATOM     33  C   UNL A   1      38.480  29.591  28.785  1.00  0.00    -0.014 A 
BRANCH  33  34
ATOM     34  C   UNL A   1      39.857  29.009  29.055  1.00  0.00     0.031 A 
ATOM     35  C   UNL A   1      40.839  29.944  29.743  1.00  0.00     0.074 A 
ATOM     36  C   UNL A   1      40.287  27.752  28.783  1.00  0.00     0.049 A 
ATOM     37  N   UNL A   1      42.118  29.800  29.990  1.00  0.00    -0.248 NA
ATOM     38  C   UNL A   1      40.291  31.239  30.180  1.00  0.00     0.031 C 
ATOM     39  C   UNL A   1      39.501  26.670  28.192  1.00  0.00     0.029 A 
ATOM     40  N   UNL A   1      41.537  27.174  28.967  1.00  0.00    -0.354 N 
ATOM     41  C   UNL A   1      42.527  31.005  30.555  1.00  0.00     0.074 A 
ATOM     42  C   UNL A   1      41.379  31.879  30.568  1.00  0.00     0.031 C 
ATOM     43  C   UNL A   1      40.284  25.579  28.046  1.00  0.00     0.029 A 
ATOM     44  C   UNL A   1      41.644  25.874  28.508  1.00  0.00     0.049 A 
ATOM     45  H   UNL A   1      42.286  27.652  29.389  1.00  0.00     0.167 HD
ATOM     46  C   UNL A   1      43.735  31.368  31.047  1.00  0.00     0.031 A 
ATOM     47  C   UNL A   1      42.701  25.026  28.449  1.00  0.00     0.031 A 
ATOM     48  C   UNL A   1      44.889  30.515  31.092  1.00  0.00     0.049 A 
ATOM     49  C   UNL A   1      44.065  25.459  28.961  1.00  0.00     0.074 A 
ATOM     50  C   UNL A   1      46.141  30.795  31.613  1.00  0.00     0.029 A 
ATOM     51  N   UNL A   1      44.937  29.220  30.609  1.00  0.00    -0.354 N 
ATOM     52  N   UNL A   1      44.421  26.598  29.505  1.00  0.00    -0.248 NA
ATOM     53  C   UNL A   1      45.167  24.483  28.861  1.00  0.00     0.031 C 
ATOM     54  C   UNL A   1      46.964  29.688  31.392  1.00  0.00     0.029 A 
ATOM     55  C   UNL A   1      46.203  28.694  30.798  1.00  0.00     0.049 A 
ATOM     56  H   UNL A   1      44.182  28.743  30.193  1.00  0.00     0.167 HD
ATOM     57  C   UNL A   1      45.769  26.460  29.840  1.00  0.00     0.074 A 
ATOM     58  C   UNL A   1      46.166  25.127  29.450  1.00  0.00     0.031 C 
ATOM     59  C   UNL A   1      46.600  27.361  30.424  1.00  0.00     0.031 A 
BRANCH  46  60
ATOM     60  C   UNL A   1      43.871  32.778  31.565  1.00  0.00    -0.014 A 
ATOM     61  C   UNL A   1      43.604  33.095  32.910  1.00  0.00     0.010 A 
ATOM     62  C   UNL A   1      44.285  33.799  30.690  1.00  0.00     0.010 A 
ATOM     63  C   UNL A   1      43.698  34.414  33.357  1.00  0.00     0.020 A 
ATOM     64  C   UNL A   1      44.418  35.114  31.144  1.00  0.00     0.020 A 
ATOM     65  C   UNL A   1      44.105  35.416  32.470  1.00  0.00     0.054 A 
BRANCH  65  66
ATOM     66  S   UNL A   1      44.246  37.114  33.087  1.00  0.00     0.124 S 
ATOM     67  O   UNL A   1      43.070  37.222  33.946  1.00  0.00    -0.237 OA
ATOM     68  O   UNL A   1      45.531  37.095  33.782  1.00  0.00    -0.237 OA
ATOM     69  O   UNL A   1      44.208  37.928  31.874  1.00  0.00    -0.744 OA
ENDBRANCH  65  66
ENDBRANCH  46  60
BRANCH  47  70
ATOM     70  C   UNL A   1      42.553  23.651  27.865  1.00  0.00    -0.014 A 
ATOM     71  C   UNL A   1      42.804  23.412  26.498  1.00  0.00     0.010 A 
ATOM     72  C   UNL A   1      42.107  22.578  28.660  1.00  0.00     0.010 A 
ATOM     73  C   UNL A   1      42.617  22.138  25.944  1.00  0.00     0.020 A 
ATOM     74  C   UNL A   1      41.945  21.296  28.115  1.00  0.00     0.020 A 
ATOM     75  C   UNL A   1      42.199  21.084  26.759  1.00  0.00     0.054 A 
BRANCH  75  76
ATOM     76  S   UNL A   1      42.046  19.422  26.039  1.00  0.00     0.124 S 
ATOM     77  O   UNL A   1      40.603  19.286  25.877  1.00  0.00    -0.237 OA
ATOM     78  O   UNL A   1      42.813  19.546  24.802  1.00  0.00    -0.237 OA
ATOM     79  O   UNL A   1      42.649  18.555  27.049  1.00  0.00    -0.744 OA
ENDBRANCH  75  76
ENDBRANCH  47  70
BRANCH  59  80
ATOM     80  C   UNL A   1      48.016  26.939  30.739  1.00  0.00    -0.014 A 
ATOM     81  C   UNL A   1      49.069  27.154  29.832  1.00  0.00     0.010 A 
ATOM     82  C   UNL A   1      48.309  26.395  32.004  1.00  0.00     0.010 A 
ATOM     83  C   UNL A   1      50.381  26.803  30.174  1.00  0.00     0.020 A 
ATOM     84  C   UNL A   1      49.622  26.070  32.360  1.00  0.00     0.020 A 
ATOM     85  C   UNL A   1      50.649  26.263  31.435  1.00  0.00     0.054 A 
BRANCH  85  86
ATOM     86  S   UNL A   1      52.364  25.856  31.868  1.00  0.00     0.124 S 
ATOM     87  O   UNL A   1      52.628  26.780  32.968  1.00  0.00    -0.237 OA
ATOM     88  O   UNL A   1      52.275  24.446  32.239  1.00  0.00    -0.237 OA
ATOM     89  O   UNL A   1      53.107  26.124  30.639  1.00  0.00    -0.744 OA
ENDBRANCH  85  86
ENDBRANCH  59  80
ENDBRANCH  33  34
ENDBRANCH  26  28
ENDBRANCH  25  26
ENDBRANCH  24  25
ENDBRANCH   1  24
TORSDOF 19
ENDMDL
MODEL 2
REMARK VINA RESULT:      -9.5      3.683      4.504
REMARK SMILES COC(=O)C[C@H](NC(=O)N[C@H]1CCCC1(C)C)C(=O)OCCOC(=O)c1ccc(-c2c3nc(c(-c4ccc(S(=O)(=O)[O-])cc4)c4ccc([nH]4)c(-c4ccc(S(=O)(=O)[O-])cc4)c4nc(c(-c5ccc(S(=O)(=O)[O-])cc5)c5ccc2[nH]5)C=C4)C=C3)cc1
REMARK SMILES IDX 21 1 20 2 18 3 19 4 6 5 5 6 3 7 4 8 2 9 1 10 7 11 8 12 9 14
REMARK SMILES IDX 10 15 11 17 12 18 15 19 13 20 14 21 16 22 17 23 22 24 23 25
REMARK SMILES IDX 24 26 25 27 26 28 27 29 85 30 28 31 84 32 29 33 30 34 31 35
REMARK SMILES IDX 78 36 32 37 83 38 77 39 79 40 33 41 82 42 76 43 75 44 34 46
REMARK SMILES IDX 64 47 45 48 63 49 46 50 49 51 62 52 80 53 47 54 48 55 61 57
REMARK SMILES IDX 81 58 50 59 35 60 36 61 44 62 37 63 43 64 38 65 39 66 40 67
REMARK SMILES IDX 41 68 42 69 65 70 66 71 74 72 67 73 73 74 68 75 69 76 70 77
REMARK SMILES IDX 71 78 72 79 51 80 52 81 60 82 53 83 59 84 54 85 55 86 56 87
REMARK SMILES IDX 57 88 58 89
REMARK H PARENT 7 13 10 16 79 45 49 56
REMARK Flexibility Score: inf
ROOT
ATOM      1  C   UNL A   1      33.409  29.013  25.727  1.00  0.00     0.274 C 
ENDROOT
BRANCH   1   2
ATOM      2  O   UNL A   1      33.078  27.891  26.618  1.00  0.00    -0.461 OA
BRANCH   2   3
ATOM      3  C   UNL A   1      31.792  27.382  26.620  1.00  0.00     0.329 C 
ATOM      4  O   UNL A   1      31.004  27.554  27.543  1.00  0.00    -0.250 OA
BRANCH   3   5
ATOM      5  C   UNL A   1      31.381  26.626  25.278  1.00  0.00     0.204 C 
BRANCH   5   6
ATOM      6  C   UNL A   1      30.349  27.316  24.390  1.00  0.00     0.159 C 
BRANCH   6   7
ATOM      7  C   UNL A   1      30.909  27.710  23.050  1.00  0.00     0.308 C 
ATOM      8  O   UNL A   1      32.080  27.620  22.754  1.00  0.00    -0.252 OA
BRANCH   7   9
ATOM      9  O   UNL A   1      29.918  28.188  22.242  1.00  0.00    -0.469 OA
ATOM     10  C   UNL A   1      29.818  29.615  22.243  1.00  0.00     0.282 C 
ENDBRANCH   7   9
ENDBRANCH   6   7
ENDBRANCH   5   6
BRANCH   5  11
ATOM     11  N   UNL A   1      30.906  25.289  25.531  1.00  0.00    -0.324 N 
ATOM     12  C   UNL A   1      31.645  24.444  26.224  1.00  0.00     0.315 C 
ATOM     13  H   UNL A   1      30.029  25.007  25.186  1.00  0.00     0.166 HD
ATOM     14  O   UNL A   1      31.048  24.108  27.252  1.00  0.00    -0.249 OA
ATOM     15  N   UNL A   1      32.949  24.184  26.028  1.00  0.00    -0.335 N 
ATOM     16  H   UNL A   1      33.383  24.003  26.892  1.00  0.00     0.165 HD
BRANCH  15  17
ATOM     17  C   UNL A   1      33.930  24.080  24.959  1.00  0.00     0.089 C 
ATOM     18  C   UNL A   1      35.378  24.362  25.380  1.00  0.00     0.025 C 
ATOM     19  C   UNL A   1      34.042  22.648  24.240  1.00  0.00    -0.015 C 
ATOM     20  C   UNL A   1      36.165  23.062  25.411  1.00  0.00     0.003 C 
ATOM     21  C   UNL A   1      35.281  21.981  24.858  1.00  0.00     0.008 C 
ATOM     22  C   UNL A   1      32.965  21.549  24.324  1.00  0.00     0.013 C 
ATOM     23  C   UNL A   1      34.207  22.961  22.743  1.00  0.00     0.013 C 
ENDBRANCH  15  17
ENDBRANCH   5  11
ENDBRANCH   3   5
ENDBRANCH   2   3
ENDBRANCH   1   2
BRANCH   1  24
ATOM     24  C   UNL A   1      32.777  30.452  26.151  1.00  0.00     0.275 C 
BRANCH  24  25
ATOM     25  O   UNL A   1      33.133  30.992  27.516  1.00  0.00    -0.458 OA
BRANCH  25  26
ATOM     26  C   UNL A   1      34.189  31.863  27.797  1.00  0.00     0.338 C 
ATOM     27  O   UNL A   1      34.075  33.077  27.797  1.00  0.00    -0.246 OA
BRANCH  26  28
ATOM     28  C   UNL A   1      35.541  31.131  28.169  1.00  0.00     0.060 A 
ATOM     29  C   UNL A   1      35.665  29.725  28.191  1.00  0.00     0.016 A 
ATOM     30  C   UNL A   1      36.715  31.820  28.507  1.00  0.00     0.016 A 
ATOM     31  C   UNL A   1      36.892  29.033  28.394  1.00  0.00     0.010 A 
ATOM     32  C   UNL A   1      37.953  31.139  28.735  1.00  0.00     0.010 A 
ATOM     33  C   UNL A   1      38.058  29.728  28.712  1.00  0.00    -0.014 A 
BRANCH  33  34
ATOM     34  C   UNL A   1      39.192  29.025  29.439  1.00  0.00     0.031 A 
ATOM     35  C   UNL A   1      39.356  29.393  30.906  1.00  0.00     0.074 A 
ATOM     36  C   UNL A   1      40.042  28.095  28.936  1.00  0.00     0.049 A 
ATOM     37  N   UNL A   1      40.297  29.076  31.760  1.00  0.00    -0.248 NA
ATOM     38  C   UNL A   1      38.316  30.271  31.465  1.00  0.00     0.031 C 
ATOM     39  C   UNL A   1      40.028  27.544  27.583  1.00  0.00     0.029 A 
ATOM     40  N   UNL A   1      41.117  27.450  29.533  1.00  0.00    -0.354 N 
ATOM     41  C   UNL A   1      39.985  29.762  32.931  1.00  0.00     0.074 A 
ATOM     42  C   UNL A   1      38.803  30.547  32.661  1.00  0.00     0.031 C 
ATOM     43  C   UNL A   1      41.048  26.667  27.449  1.00  0.00     0.029 A 
ATOM     44  C   UNL A   1      41.816  26.600  28.695  1.00  0.00     0.049 A 
ATOM     45  H   UNL A   1      41.362  27.586  30.477  1.00  0.00     0.167 HD
ATOM     46  C   UNL A   1      40.596  29.744  34.139  1.00  0.00     0.031 A 
ATOM     47  C   UNL A   1      42.941  25.867  28.893  1.00  0.00     0.031 A 
ATOM     48  C   UNL A   1      41.746  28.946  34.460  1.00  0.00     0.049 A 
ATOM     49  C   UNL A   1      43.646  25.888  30.239  1.00  0.00     0.074 A 
ATOM     50  C   UNL A   1      42.401  28.839  35.676  1.00  0.00     0.029 A 
ATOM     51  N   UNL A   1      42.408  28.116  33.574  1.00  0.00    -0.354 N 
ATOM     52  N   UNL A   1      43.322  26.534  31.334  1.00  0.00    -0.248 NA
ATOM     53  C   UNL A   1      44.866  25.068  30.377  1.00  0.00     0.031 C 
ATOM     54  C   UNL A   1      43.496  27.988  35.508  1.00  0.00     0.029 A 
ATOM     55  C   UNL A   1      43.479  27.510  34.208  1.00  0.00     0.049 A 
ATOM     56  H   UNL A   1      42.155  27.977  32.633  1.00  0.00     0.167 HD
ATOM     57  C   UNL A   1      44.271  26.172  32.291  1.00  0.00     0.074 A 
ATOM     58  C   UNL A   1      45.177  25.243  31.655  1.00  0.00     0.031 C 
ATOM     59  C   UNL A   1      44.377  26.573  33.583  1.00  0.00     0.031 A 
BRANCH  46  60
ATOM     60  C   UNL A   1      40.031  30.642  35.210  1.00  0.00    -0.014 A 
ATOM     61  C   UNL A   1      40.798  31.673  35.784  1.00  0.00     0.010 A 
ATOM     62  C   UNL A   1      38.703  30.457  35.638  1.00  0.00     0.010 A 
ATOM     63  C   UNL A   1      40.266  32.466  36.803  1.00  0.00     0.020 A 
ATOM     64  C   UNL A   1      38.155  31.275  36.630  1.00  0.00     0.020 A 
ATOM     65  C   UNL A   1      38.947  32.262  37.218  1.00  0.00     0.054 A 
BRANCH  65  66
ATOM     66  S   UNL A   1      38.274  33.327  38.522  1.00  0.00     0.124 S 
ATOM     67  O   UNL A   1      36.876  32.908  38.562  1.00  0.00    -0.237 OA
ATOM     68  O   UNL A   1      39.075  32.952  39.685  1.00  0.00    -0.237 OA
ATOM     69  O   UNL A   1      38.505  34.679  38.020  1.00  0.00    -0.744 OA
ENDBRANCH  65  66
ENDBRANCH  46  60
BRANCH  47  70
ATOM     70  C   UNL A   1      43.521  25.034  27.787  1.00  0.00    -0.014 A 
ATOM     71  C   UNL A   1      44.440  25.584  26.870  1.00  0.00     0.010 A 
ATOM     72  C   UNL A   1      43.118  23.697  27.609  1.00  0.00     0.010 A 
ATOM     73  C   UNL A   1      44.942  24.819  25.808  1.00  0.00     0.020 A 
ATOM     74  C   UNL A   1      43.639  22.920  26.564  1.00  0.00     0.020 A 
ATOM     75  C   UNL A   1      44.547  23.487  25.668  1.00  0.00     0.054 A 
BRANCH  75  76
ATOM     76  S   UNL A   1      45.277  22.488  24.336  1.00  0.00     0.124 S 
ATOM     77  O   UNL A   1      44.159  22.342  23.410  1.00  0.00    -0.237 OA
ATOM     78  O   UNL A   1      46.374  23.336  23.875  1.00  0.00    -0.237 OA
ATOM     79  O   UNL A   1      45.692  21.263  25.016  1.00  0.00    -0.744 OA
ENDBRANCH  75  76
ENDBRANCH  47  70
BRANCH  59  80
ATOM     80  C   UNL A   1      45.472  25.980  34.436  1.00  0.00    -0.014 A 
ATOM     81  C   UNL A   1      46.720  26.612  34.581  1.00  0.00     0.010 A 
ATOM     82  C   UNL A   1      45.215  24.809  35.176  1.00  0.00     0.010 A 
ATOM     83  C   UNL A   1      47.697  26.068  35.423  1.00  0.00     0.020 A 
ATOM     84  C   UNL A   1      46.177  24.278  36.039  1.00  0.00     0.020 A 
ATOM     85  C   UNL A   1      47.420  24.904  36.146  1.00  0.00     0.054 A 
BRANCH  85  86
ATOM     86  S   UNL A   1      48.690  24.242  37.262  1.00  0.00     0.124 S 
ATOM     87  O   UNL A   1      49.683  25.312  37.261  1.00  0.00    -0.237 OA
ATOM     88  O   UNL A   1      47.957  24.065  38.513  1.00  0.00    -0.237 OA
ATOM     89  O   UNL A   1      49.111  23.002  36.614  1.00  0.00    -0.744 OA
ENDBRANCH  85  86
ENDBRANCH  59  80
ENDBRANCH  33  34
ENDBRANCH  26  28
ENDBRANCH  25  26
ENDBRANCH  24  25
ENDBRANCH   1  24
TORSDOF 19
ENDMDL
MODEL 3
REMARK VINA RESULT:      -9.0      3.233      9.242
REMARK SMILES COC(=O)C[C@H](NC(=O)N[C@H]1CCCC1(C)C)C(=O)OCCOC(=O)c1ccc(-c2c3nc(c(-c4ccc(S(=O)(=O)[O-])cc4)c4ccc([nH]4)c(-c4ccc(S(=O)(=O)[O-])cc4)c4nc(c(-c5ccc(S(=O)(=O)[O-])cc5)c5ccc2[nH]5)C=C4)C=C3)cc1
REMARK SMILES IDX 21 1 20 2 18 3 19 4 6 5 5 6 3 7 4 8 2 9 1 10 7 11 8 12 9 14
REMARK SMILES IDX 10 15 11 17 12 18 15 19 13 20 14 21 16 22 17 23 22 24 23 25
REMARK SMILES IDX 24 26 25 27 26 28 27 29 85 30 28 31 84 32 29 33 30 34 31 35
REMARK SMILES IDX 78 36 32 37 83 38 77 39 79 40 33 41 82 42 76 43 75 44 34 46
REMARK SMILES IDX 64 47 45 48 63 49 46 50 49 51 62 52 80 53 47 54 48 55 61 57
REMARK SMILES IDX 81 58 50 59 35 60 36 61 44 62 37 63 43 64 38 65 39 66 40 67
REMARK SMILES IDX 41 68 42 69 65 70 66 71 74 72 67 73 73 74 68 75 69 76 70 77
REMARK SMILES IDX 71 78 72 79 51 80 52 81 60 82 53 83 59 84 54 85 55 86 56 87
REMARK SMILES IDX 57 88 58 89
REMARK H PARENT 7 13 10 16 79 45 49 56
REMARK Flexibility Score: inf
ROOT
ATOM      1  C   UNL A   1      37.806  20.801  24.979  1.00  0.00     0.274 C 
ENDROOT
BRANCH   1   2
ATOM      2  O   UNL A   1      36.750  21.781  25.272  1.00  0.00    -0.461 OA
BRANCH   2   3
ATOM      3  C   UNL A   1      36.343  22.657  24.282  1.00  0.00     0.329 C 
ATOM      4  O   UNL A   1      36.858  22.699  23.170  1.00  0.00    -0.250 OA
BRANCH   3   5
ATOM      5  C   UNL A   1      35.082  23.551  24.672  1.00  0.00     0.204 C 
BRANCH   5   6
ATOM      6  C   UNL A   1      34.618  23.485  26.125  1.00  0.00     0.159 C 
BRANCH   6   7
ATOM      7  C   UNL A   1      33.216  22.956  26.261  1.00  0.00     0.308 C 
ATOM      8  O   UNL A   1      32.935  21.779  26.262  1.00  0.00    -0.252 OA
BRANCH   7   9
ATOM      9  O   UNL A   1      32.327  23.987  26.368  1.00  0.00    -0.469 OA
ATOM     10  C   UNL A   1      30.961  23.578  26.253  1.00  0.00     0.282 C 
ENDBRANCH   7   9
ENDBRANCH   6   7
ENDBRANCH   5   6
BRANCH   5  11
ATOM     11  N   UNL A   1      33.938  23.271  23.841  1.00  0.00    -0.324 N 
ATOM     12  C   UNL A   1      33.582  24.119  22.897  1.00  0.00     0.315 C 
ATOM     13  H   UNL A   1      33.422  22.444  23.980  1.00  0.00     0.166 HD
ATOM     14  O   UNL A   1      33.651  23.572  21.792  1.00  0.00    -0.249 OA
ATOM     15  N   UNL A   1      33.435  25.448  23.037  1.00  0.00    -0.335 N 
ATOM     16  H   UNL A   1      33.706  25.900  22.206  1.00  0.00     0.165 HD
BRANCH  15  17
ATOM     17  C   UNL A   1      33.007  26.439  24.012  1.00  0.00     0.089 C 
ATOM     18  C   UNL A   1      34.027  27.548  24.299  1.00  0.00     0.025 C 
ATOM     19  C   UNL A   1      31.680  27.264  23.643  1.00  0.00    -0.015 C 
ATOM     20  C   UNL A   1      33.560  28.849  23.667  1.00  0.00     0.003 C 
ATOM     21  C   UNL A   1      32.178  28.621  23.123  1.00  0.00     0.008 C 
ATOM     22  C   UNL A   1      30.655  26.828  22.578  1.00  0.00     0.013 C 
ATOM     23  C   UNL A   1      30.894  27.373  24.961  1.00  0.00     0.013 C 
ENDBRANCH  15  17
ENDBRANCH   5  11
ENDBRANCH   3   5
ENDBRANCH   2   3
ENDBRANCH   1   2
BRANCH   1  24
ATOM     24  C   UNL A   1      39.143  20.917  25.900  1.00  0.00     0.275 C 
BRANCH  24  25
ATOM     25  O   UNL A   1      39.961  19.664  26.098  1.00  0.00    -0.458 OA
BRANCH  25  26
ATOM     26  C   UNL A   1      41.358  19.599  26.126  1.00  0.00     0.338 C 
ATOM     27  O   UNL A   1      41.985  18.574  25.916  1.00  0.00    -0.246 OA
BRANCH  26  28
ATOM     28  C   UNL A   1      42.059  20.989  26.403  1.00  0.00     0.060 A 
ATOM     29  C   UNL A   1      42.261  21.493  27.707  1.00  0.00     0.016 A 
ATOM     30  C   UNL A   1      42.527  21.826  25.380  1.00  0.00     0.016 A 
ATOM     31  C   UNL A   1      42.999  22.673  28.001  1.00  0.00     0.010 A 
ATOM     32  C   UNL A   1      43.254  23.027  25.660  1.00  0.00     0.010 A 
ATOM     33  C   UNL A   1      43.478  23.490  26.978  1.00  0.00    -0.014 A 
BRANCH  33  34
ATOM     34  C   UNL A   1      43.768  24.957  27.243  1.00  0.00     0.031 A 
ATOM     35  C   UNL A   1      45.202  25.397  26.988  1.00  0.00     0.074 A 
ATOM     36  C   UNL A   1      42.891  25.911  27.647  1.00  0.00     0.049 A 
ATOM     37  N   UNL A   1      45.798  26.536  27.242  1.00  0.00    -0.248 NA
ATOM     38  C   UNL A   1      46.085  24.383  26.389  1.00  0.00     0.031 C 
ATOM     39  C   UNL A   1      41.461  25.734  27.886  1.00  0.00     0.029 A 
ATOM     40  N   UNL A   1      43.101  27.251  27.944  1.00  0.00    -0.354 N 
ATOM     41  C   UNL A   1      47.131  26.347  26.884  1.00  0.00     0.074 A 
ATOM     42  C   UNL A   1      47.263  24.978  26.446  1.00  0.00     0.031 C 
ATOM     43  C   UNL A   1      40.931  26.903  28.306  1.00  0.00     0.029 A 
ATOM     44  C   UNL A   1      41.981  27.923  28.397  1.00  0.00     0.049 A 
ATOM     45  H   UNL A   1      43.977  27.688  27.840  1.00  0.00     0.167 HD
ATOM     46  C   UNL A   1      48.165  27.221  26.890  1.00  0.00     0.031 A 
ATOM     47  C   UNL A   1      41.813  29.193  28.843  1.00  0.00     0.031 A 
ATOM     48  C   UNL A   1      48.066  28.600  27.277  1.00  0.00     0.049 A 
ATOM     49  C   UNL A   1      42.989  30.154  28.889  1.00  0.00     0.074 A 
ATOM     50  C   UNL A   1      49.060  29.564  27.271  1.00  0.00     0.029 A 
ATOM     51  N   UNL A   1      46.914  29.216  27.729  1.00  0.00    -0.354 N 
ATOM     52  N   UNL A   1      44.236  29.955  28.531  1.00  0.00    -0.248 NA
ATOM     53  C   UNL A   1      42.731  31.518  29.390  1.00  0.00     0.031 C 
ATOM     54  C   UNL A   1      48.522  30.750  27.776  1.00  0.00     0.029 A 
ATOM     55  C   UNL A   1      47.176  30.542  28.028  1.00  0.00     0.049 A 
ATOM     56  H   UNL A   1      46.037  28.777  27.825  1.00  0.00     0.167 HD
ATOM     57  C   UNL A   1      44.893  31.170  28.730  1.00  0.00     0.074 A 
ATOM     58  C   UNL A   1      43.910  32.104  29.228  1.00  0.00     0.031 C 
ATOM     59  C   UNL A   1      46.196  31.481  28.512  1.00  0.00     0.031 A 
BRANCH  46  60
ATOM     60  C   UNL A   1      49.514  26.692  26.476  1.00  0.00    -0.014 A 
ATOM     61  C   UNL A   1      50.375  26.070  27.400  1.00  0.00     0.010 A 
ATOM     62  C   UNL A   1      49.922  26.810  25.134  1.00  0.00     0.010 A 
ATOM     63  C   UNL A   1      51.636  25.624  27.002  1.00  0.00     0.020 A 
ATOM     64  C   UNL A   1      51.168  26.330  24.724  1.00  0.00     0.020 A 
ATOM     65  C   UNL A   1      52.025  25.757  25.665  1.00  0.00     0.054 A 
BRANCH  65  66
ATOM     66  S   UNL A   1      53.657  25.142  25.172  1.00  0.00     0.124 S 
ATOM     67  O   UNL A   1      53.440  23.697  25.148  1.00  0.00    -0.237 OA
ATOM     68  O   UNL A   1      53.852  25.768  23.866  1.00  0.00    -0.237 OA
ATOM     69  O   UNL A   1      54.543  25.621  26.229  1.00  0.00    -0.744 OA
ENDBRANCH  65  66
ENDBRANCH  46  60
BRANCH  47  70
ATOM     70  C   UNL A   1      40.471  29.673  29.314  1.00  0.00    -0.014 A 
ATOM     71  C   UNL A   1      39.454  30.000  28.395  1.00  0.00     0.010 A 
ATOM     72  C   UNL A   1      40.216  29.857  30.686  1.00  0.00     0.010 A 
ATOM     73  C   UNL A   1      38.218  30.495  28.834  1.00  0.00     0.020 A 
ATOM     74  C   UNL A   1      38.972  30.325  31.132  1.00  0.00     0.020 A 
ATOM     75  C   UNL A   1      37.980  30.644  30.202  1.00  0.00     0.054 A 
BRANCH  75  76
ATOM     76  S   UNL A   1      36.341  31.205  30.754  1.00  0.00     0.124 S 
ATOM     77  O   UNL A   1      36.638  32.513  31.326  1.00  0.00    -0.237 OA
ATOM     78  O   UNL A   1      35.579  31.217  29.508  1.00  0.00    -0.237 OA
ATOM     79  O   UNL A   1      35.934  30.179  31.712  1.00  0.00    -0.744 OA
ENDBRANCH  75  76
ENDBRANCH  47  70
BRANCH  59  80
ATOM     80  C   UNL A   1      46.650  32.902  28.752  1.00  0.00    -0.014 A 
ATOM     81  C   UNL A   1      47.199  33.304  29.983  1.00  0.00     0.010 A 
ATOM     82  C   UNL A   1      46.602  33.830  27.695  1.00  0.00     0.010 A 
ATOM     83  C   UNL A   1      47.662  34.613  30.159  1.00  0.00     0.020 A 
ATOM     84  C   UNL A   1      47.090  35.130  27.857  1.00  0.00     0.020 A 
ATOM     85  C   UNL A   1      47.604  35.518  29.095  1.00  0.00     0.054 A 
BRANCH  85  86
ATOM     86  S   UNL A   1      48.249  37.198  29.337  1.00  0.00     0.124 S 
ATOM     87  O   UNL A   1      49.342  36.971  30.278  1.00  0.00    -0.237 OA
ATOM     88  O   UNL A   1      48.651  37.585  27.987  1.00  0.00    -0.237 OA
ATOM     89  O   UNL A   1      47.108  37.935  29.875  1.00  0.00    -0.744 OA
ENDBRANCH  85  86
ENDBRANCH  59  80
ENDBRANCH  33  34
ENDBRANCH  26  28
ENDBRANCH  25  26
ENDBRANCH  24  25
ENDBRANCH   1  24
TORSDOF 19
ENDMDL
