MODEL 1
REMARK VINA RESULT:      -9.8      0.000      0.000
REMARK SMILES O=C(OCCOC(=O)c1ccc(-c2c3nc(c(-c4ccc(S(=O)(=O)[O-])cc4)c4ccc([nH]4)c(-c4ccc(S(=O)(=O)[O-])cc4)c4nc(c(-c5ccc(S(=O)(=O)[O-])cc5)c5ccc2[nH]5)C=C4)C=C3)cc1)C1=Cc2cc(Cl)ccc2O[C@@H]1C(F)(F)F
REMARK SMILES IDX 5 1 4 2 3 3 2 4 1 5 69 6 70 7 79 8 71 9 78 10 72 11 77 12
REMARK SMILES IDX 73 13 76 14 74 15 75 16 80 17 81 18 82 19 83 20 6 21 7 22
REMARK SMILES IDX 8 23 9 24 10 25 68 26 11 27 67 28 12 29 13 30 14 31 61 32
REMARK SMILES IDX 15 33 66 34 60 35 62 36 16 37 65 38 59 39 58 40 17 42 47 43
REMARK SMILES IDX 28 44 46 45 29 46 32 47 45 48 63 49 30 50 31 51 44 53 64 54
REMARK SMILES IDX 33 55 18 56 19 57 27 58 20 59 26 60 21 61 22 62 23 63 24 64
REMARK SMILES IDX 25 65 48 66 49 67 57 68 50 69 56 70 51 71 52 72 53 73 54 74
REMARK SMILES IDX 55 75 34 76 35 77 43 78 36 79 42 80 37 81 38 82 39 83 40 84
REMARK SMILES IDX 41 85
REMARK H PARENT 62 41 32 52
REMARK Flexibility Score: inf
ROOT
ATOM      1  C   UNL A   1      33.866  32.992  28.667  1.00  0.00     0.275 C 
ENDROOT
BRANCH   1   2
ATOM      2  C   UNL A   1      34.823  33.977  29.371  1.00  0.00     0.275 C 
BRANCH   2   3
ATOM      3  O   UNL A   1      36.098  33.365  29.636  1.00  0.00    -0.459 OA
BRANCH   3   4
ATOM      4  C   UNL A   1      36.704  33.804  30.762  1.00  0.00     0.338 C 
ATOM      5  O   UNL A   1      37.679  34.541  30.760  1.00  0.00    -0.246 OA
BRANCH   4   6
ATOM      6  C   UNL A   1      36.025  33.310  32.002  1.00  0.00     0.087 C 
ATOM      7  C   UNL A   1      35.896  31.968  31.959  1.00  0.00     0.027 C 
ATOM      8  C   UNL A   1      36.483  33.928  33.306  1.00  0.00     0.316 C 
ATOM      9  C   UNL A   1      36.949  31.251  32.703  1.00  0.00     0.019 A 
ATOM     10  O   UNL A   1      37.667  33.281  33.843  1.00  0.00    -0.475 OA
ATOM     11  C   UNL A   1      37.160  29.889  32.471  1.00  0.00     0.032 A 
ATOM     12  C   UNL A   1      37.822  31.954  33.545  1.00  0.00     0.128 A 
ATOM     13  C   UNL A   1      38.278  29.264  33.022  1.00  0.00     0.041 A 
ATOM     14  C   UNL A   1      38.951  31.330  34.072  1.00  0.00     0.048 A 
ATOM     15  Cl  UNL A   1      38.563  27.596  32.709  1.00  0.00    -0.084 Cl
ATOM     16  C   UNL A   1      39.188  29.984  33.797  1.00  0.00     0.024 A 
BRANCH   8  17
ATOM     17  C   UNL A   1      35.372  34.052  34.354  1.00  0.00     0.430 C 
ATOM     18  F   UNL A   1      34.348  33.217  34.061  1.00  0.00    -0.167 F 
ATOM     19  F   UNL A   1      35.797  33.755  35.602  1.00  0.00    -0.167 F 
ATOM     20  F   UNL A   1      34.866  35.307  34.385  1.00  0.00    -0.167 F 
ENDBRANCH   8  17
ENDBRANCH   4   6
ENDBRANCH   3   4
ENDBRANCH   2   3
ENDBRANCH   1   2
BRANCH   1  21
ATOM     21  O   UNL A   1      34.518  32.241  27.629  1.00  0.00    -0.458 OA
BRANCH  21  22
ATOM     22  C   UNL A   1      34.419  30.895  27.778  1.00  0.00     0.338 C 
ATOM     23  O   UNL A   1      33.420  30.223  27.575  1.00  0.00    -0.246 OA
BRANCH  22  24
ATOM     24  C   UNL A   1      35.768  30.316  27.998  1.00  0.00     0.060 A 
ATOM     25  C   UNL A   1      35.991  29.661  29.213  1.00  0.00     0.016 A 
ATOM     26  C   UNL A   1      36.780  30.345  27.029  1.00  0.00     0.016 A 
ATOM     27  C   UNL A   1      37.229  29.074  29.481  1.00  0.00     0.010 A 
ATOM     28  C   UNL A   1      38.015  29.732  27.291  1.00  0.00     0.010 A 
ATOM     29  C   UNL A   1      38.262  29.125  28.534  1.00  0.00    -0.014 A 
BRANCH  29  30
ATOM     30  C   UNL A   1      39.621  28.671  28.939  1.00  0.00     0.031 A 
ATOM     31  C   UNL A   1      40.448  29.553  29.838  1.00  0.00     0.074 A 
ATOM     32  C   UNL A   1      40.082  27.448  28.607  1.00  0.00     0.049 A 
ATOM     33  N   UNL A   1      41.554  29.275  30.480  1.00  0.00    -0.248 NA
ATOM     34  C   UNL A   1      39.961  30.927  30.050  1.00  0.00     0.031 C 
ATOM     35  C   UNL A   1      39.401  26.488  27.739  1.00  0.00     0.029 A 
ATOM     36  N   UNL A   1      41.232  26.796  28.985  1.00  0.00    -0.354 N 
ATOM     37  C   UNL A   1      41.869  30.418  31.203  1.00  0.00     0.074 A 
ATOM     38  C   UNL A   1      40.884  31.420  30.861  1.00  0.00     0.031 C 
ATOM     39  C   UNL A   1      40.141  25.368  27.656  1.00  0.00     0.029 A 
ATOM     40  C   UNL A   1      41.344  25.524  28.471  1.00  0.00     0.049 A 
ATOM     41  H   UNL A   1      41.913  27.201  29.569  1.00  0.00     0.167 HD
ATOM     42  C   UNL A   1      42.863  30.613  32.101  1.00  0.00     0.031 A 
ATOM     43  C   UNL A   1      42.296  24.586  28.651  1.00  0.00     0.031 A 
ATOM     44  C   UNL A   1      43.870  29.642  32.427  1.00  0.00     0.049 A 
ATOM     45  C   UNL A   1      43.434  24.851  29.607  1.00  0.00     0.074 A 
ATOM     46  C   UNL A   1      44.916  29.753  33.328  1.00  0.00     0.029 A 
ATOM     47  N   UNL A   1      43.965  28.383  31.856  1.00  0.00    -0.354 N 
ATOM     48  N   UNL A   1      43.661  25.907  30.350  1.00  0.00    -0.248 NA
ATOM     49  C   UNL A   1      44.427  23.778  29.769  1.00  0.00     0.031 C 
ATOM     50  C   UNL A   1      45.670  28.576  33.267  1.00  0.00     0.029 A 
ATOM     51  C   UNL A   1      45.064  27.714  32.370  1.00  0.00     0.049 A 
ATOM     52  H   UNL A   1      43.343  28.018  31.186  1.00  0.00     0.167 HD
ATOM     53  C   UNL A   1      44.802  25.610  31.092  1.00  0.00     0.074 A 
ATOM     54  C   UNL A   1      45.206  24.270  30.723  1.00  0.00     0.031 C 
ATOM     55  C   UNL A   1      45.457  26.378  31.999  1.00  0.00     0.031 A 
BRANCH  42  56
ATOM     56  C   UNL A   1      42.893  31.942  32.806  1.00  0.00    -0.014 A 
ATOM     57  C   UNL A   1      42.353  32.074  34.100  1.00  0.00     0.010 A 
ATOM     58  C   UNL A   1      43.479  33.060  32.189  1.00  0.00     0.010 A 
ATOM     59  C   UNL A   1      42.364  33.311  34.748  1.00  0.00     0.020 A 
ATOM     60  C   UNL A   1      43.512  34.295  32.845  1.00  0.00     0.020 A 
ATOM     61  C   UNL A   1      42.939  34.415  34.112  1.00  0.00     0.054 A 
BRANCH  61  62
ATOM     62  S   UNL A   1      42.948  36.006  34.983  1.00  0.00     0.124 S 
ATOM     63  O   UNL A   1      41.545  36.405  34.893  1.00  0.00    -0.237 OA
ATOM     64  O   UNL A   1      43.411  35.639  36.318  1.00  0.00    -0.237 OA
ATOM     65  O   UNL A   1      43.878  36.821  34.206  1.00  0.00    -0.744 OA
ENDBRANCH  61  62
ENDBRANCH  42  56
BRANCH  43  66
ATOM     66  C   UNL A   1      42.226  23.286  27.922  1.00  0.00    -0.014 A 
ATOM     67  C   UNL A   1      41.506  22.198  28.449  1.00  0.00     0.010 A 
ATOM     68  C   UNL A   1      42.940  23.115  26.724  1.00  0.00     0.010 A 
ATOM     69  C   UNL A   1      41.543  20.950  27.818  1.00  0.00     0.020 A 
ATOM     70  C   UNL A   1      42.958  21.877  26.074  1.00  0.00     0.020 A 
ATOM     71  C   UNL A   1      42.277  20.796  26.637  1.00  0.00     0.054 A 
BRANCH  71  72
ATOM     72  S   UNL A   1      42.319  19.168  25.835  1.00  0.00     0.124 S 
ATOM     73  O   UNL A   1      40.902  18.913  25.593  1.00  0.00    -0.237 OA
ATOM     74  O   UNL A   1      43.129  19.421  24.647  1.00  0.00    -0.237 OA
ATOM     75  O   UNL A   1      42.946  18.311  26.839  1.00  0.00    -0.744 OA
ENDBRANCH  71  72
ENDBRANCH  43  66
BRANCH  55  76
ATOM     76  C   UNL A   1      46.658  25.779  32.683  1.00  0.00    -0.014 A 
ATOM     77  C   UNL A   1      47.959  25.982  32.186  1.00  0.00     0.010 A 
ATOM     78  C   UNL A   1      46.488  25.035  33.865  1.00  0.00     0.010 A 
ATOM     79  C   UNL A   1      49.060  25.416  32.835  1.00  0.00     0.020 A 
ATOM     80  C   UNL A   1      47.589  24.492  34.533  1.00  0.00     0.020 A 
ATOM     81  C   UNL A   1      48.868  24.671  34.002  1.00  0.00     0.054 A 
BRANCH  81  82
ATOM     82  S   UNL A   1      50.316  23.970  34.843  1.00  0.00     0.124 S 
ATOM     83  O   UNL A   1      51.333  24.988  34.593  1.00  0.00    -0.237 OA
ATOM     84  O   UNL A   1      49.862  23.860  36.227  1.00  0.00    -0.237 OA
ATOM     85  O   UNL A   1      50.528  22.695  34.160  1.00  0.00    -0.744 OA
ENDBRANCH  81  82
ENDBRANCH  55  76
ENDBRANCH  29  30
ENDBRANCH  22  24
ENDBRANCH  21  22
ENDBRANCH   1  21
TORSDOF 15
ENDMDL
MODEL 2
REMARK VINA RESULT:      -9.5      4.897     11.724
REMARK SMILES O=C(OCCOC(=O)c1ccc(-c2c3nc(c(-c4ccc(S(=O)(=O)[O-])cc4)c4ccc([nH]4)c(-c4ccc(S(=O)(=O)[O-])cc4)c4nc(c(-c5ccc(S(=O)(=O)[O-])cc5)c5ccc2[nH]5)C=C4)C=C3)cc1)C1=Cc2cc(Cl)ccc2O[C@@H]1C(F)(F)F
REMARK SMILES IDX 5 1 4 2 3 3 2 4 1 5 69 6 70 7 79 8 71 9 78 10 72 11 77 12
REMARK SMILES IDX 73 13 76 14 74 15 75 16 80 17 81 18 82 19 83 20 6 21 7 22
REMARK SMILES IDX 8 23 9 24 10 25 68 26 11 27 67 28 12 29 13 30 14 31 61 32
REMARK SMILES IDX 15 33 66 34 60 35 62 36 16 37 65 38 59 39 58 40 17 42 47 43
REMARK SMILES IDX 28 44 46 45 29 46 32 47 45 48 63 49 30 50 31 51 44 53 64 54
REMARK SMILES IDX 33 55 18 56 19 57 27 58 20 59 26 60 21 61 22 62 23 63 24 64
REMARK SMILES IDX 25 65 48 66 49 67 57 68 50 69 56 70 51 71 52 72 53 73 54 74
REMARK SMILES IDX 55 75 34 76 35 77 43 78 36 79 42 80 37 81 38 82 39 83 40 84
REMARK SMILES IDX 41 85
REMARK H PARENT 62 41 32 52
REMARK Flexibility Score: inf
ROOT
ATOM      1  C   UNL A   1      40.383  20.683  26.398  1.00  0.00     0.275 C 
ENDROOT
BRANCH   1   2
ATOM      2  C   UNL A   1      41.751  20.020  26.135  1.00  0.00     0.275 C 
BRANCH   2   3
ATOM      3  O   UNL A   1      42.723  20.423  27.116  1.00  0.00    -0.459 OA
BRANCH   3   4
ATOM      4  C   UNL A   1      43.073  21.728  27.052  1.00  0.00     0.338 C 
ATOM      5  O   UNL A   1      42.819  22.538  27.930  1.00  0.00    -0.246 OA
BRANCH   4   6
ATOM      6  C   UNL A   1      43.831  22.051  25.801  1.00  0.00     0.087 C 
ATOM      7  C   UNL A   1      43.368  23.197  25.259  1.00  0.00     0.027 C 
ATOM      8  C   UNL A   1      45.331  21.860  25.861  1.00  0.00     0.316 C 
ATOM      9  C   UNL A   1      44.177  24.381  25.606  1.00  0.00     0.019 A 
ATOM     10  O   UNL A   1      46.016  23.009  26.427  1.00  0.00    -0.475 OA
ATOM     11  C   UNL A   1      43.651  25.661  25.423  1.00  0.00     0.032 A 
ATOM     12  C   UNL A   1      45.420  24.226  26.236  1.00  0.00     0.128 A 
ATOM     13  C   UNL A   1      44.332  26.765  25.936  1.00  0.00     0.041 A 
ATOM     14  C   UNL A   1      46.085  25.329  26.768  1.00  0.00     0.048 A 
ATOM     15  Cl  UNL A   1      43.669  28.341  25.747  1.00  0.00    -0.084 Cl
ATOM     16  C   UNL A   1      45.532  26.602  26.630  1.00  0.00     0.024 A 
BRANCH   8  17
ATOM     17  C   UNL A   1      45.951  21.422  24.530  1.00  0.00     0.430 C 
ATOM     18  F   UNL A   1      44.994  20.966  23.688  1.00  0.00    -0.167 F 
ATOM     19  F   UNL A   1      46.603  22.425  23.903  1.00  0.00    -0.167 F 
ATOM     20  F   UNL A   1      46.835  20.412  24.711  1.00  0.00    -0.167 F 
ENDBRANCH   8  17
ENDBRANCH   4   6
ENDBRANCH   3   4
ENDBRANCH   2   3
ENDBRANCH   1   2
BRANCH   1  21
ATOM     21  O   UNL A   1      40.294  22.001  25.830  1.00  0.00    -0.458 OA
BRANCH  21  22
ATOM     22  C   UNL A   1      39.104  22.617  26.051  1.00  0.00     0.338 C 
ATOM     23  O   UNL A   1      38.001  22.130  25.859  1.00  0.00    -0.246 OA
BRANCH  22  24
ATOM     24  C   UNL A   1      39.327  23.887  26.784  1.00  0.00     0.060 A 
ATOM     25  C   UNL A   1      40.034  24.893  26.117  1.00  0.00     0.016 A 
ATOM     26  C   UNL A   1      38.809  24.133  28.063  1.00  0.00     0.016 A 
ATOM     27  C   UNL A   1      40.263  26.122  26.737  1.00  0.00     0.010 A 
ATOM     28  C   UNL A   1      39.020  25.379  28.673  1.00  0.00     0.010 A 
ATOM     29  C   UNL A   1      39.781  26.370  28.030  1.00  0.00    -0.014 A 
BRANCH  29  30
ATOM     30  C   UNL A   1      40.221  27.610  28.729  1.00  0.00     0.031 A 
ATOM     31  C   UNL A   1      41.653  27.719  29.187  1.00  0.00     0.074 A 
ATOM     32  C   UNL A   1      39.401  28.670  28.863  1.00  0.00     0.049 A 
ATOM     33  N   UNL A   1      42.304  28.769  29.619  1.00  0.00    -0.248 NA
ATOM     34  C   UNL A   1      42.460  26.488  29.144  1.00  0.00     0.031 C 
ATOM     35  C   UNL A   1      37.990  28.711  28.478  1.00  0.00     0.029 A 
ATOM     36  N   UNL A   1      39.648  29.933  29.348  1.00  0.00    -0.354 N 
ATOM     37  C   UNL A   1      43.603  28.336  29.856  1.00  0.00     0.074 A 
ATOM     38  C   UNL A   1      43.629  26.914  29.597  1.00  0.00     0.031 C 
ATOM     39  C   UNL A   1      37.500  29.937  28.733  1.00  0.00     0.029 A 
ATOM     40  C   UNL A   1      38.560  30.774  29.292  1.00  0.00     0.049 A 
ATOM     41  H   UNL A   1      40.523  30.211  29.703  1.00  0.00     0.167 HD
ATOM     42  C   UNL A   1      44.690  29.057  30.220  1.00  0.00     0.031 A 
ATOM     43  C   UNL A   1      38.436  32.073  29.632  1.00  0.00     0.031 A 
ATOM     44  C   UNL A   1      44.674  30.462  30.516  1.00  0.00     0.049 A 
ATOM     45  C   UNL A   1      39.648  32.840  30.101  1.00  0.00     0.074 A 
ATOM     46  C   UNL A   1      45.730  31.276  30.891  1.00  0.00     0.029 A 
ATOM     47  N   UNL A   1      43.545  31.263  30.480  1.00  0.00    -0.354 N 
ATOM     48  N   UNL A   1      40.887  32.431  30.230  1.00  0.00    -0.248 NA
ATOM     49  C   UNL A   1      39.445  34.258  30.440  1.00  0.00     0.031 C 
ATOM     50  C   UNL A   1      45.228  32.561  31.127  1.00  0.00     0.029 A 
ATOM     51  C   UNL A   1      43.873  32.558  30.847  1.00  0.00     0.049 A 
ATOM     52  H   UNL A   1      42.643  30.958  30.230  1.00  0.00     0.167 HD
ATOM     53  C   UNL A   1      41.615  33.549  30.631  1.00  0.00     0.074 A 
ATOM     54  C   UNL A   1      40.682  34.654  30.703  1.00  0.00     0.031 C 
ATOM     55  C   UNL A   1      42.938  33.653  30.913  1.00  0.00     0.031 A 
BRANCH  42  56
ATOM     56  C   UNL A   1      45.998  28.319  30.305  1.00  0.00    -0.014 A 
ATOM     57  C   UNL A   1      46.348  27.621  31.477  1.00  0.00     0.010 A 
ATOM     58  C   UNL A   1      46.875  28.301  29.207  1.00  0.00     0.010 A 
ATOM     59  C   UNL A   1      47.570  26.952  31.562  1.00  0.00     0.020 A 
ATOM     60  C   UNL A   1      48.089  27.611  29.280  1.00  0.00     0.020 A 
ATOM     61  C   UNL A   1      48.435  26.955  30.464  1.00  0.00     0.054 A 
BRANCH  61  62
ATOM     62  S   UNL A   1      50.011  26.068  30.601  1.00  0.00     0.124 S 
ATOM     63  O   UNL A   1      49.722  25.103  31.659  1.00  0.00    -0.237 OA
ATOM     64  O   UNL A   1      50.177  25.502  29.265  1.00  0.00    -0.237 OA
ATOM     65  O   UNL A   1      50.967  27.113  30.955  1.00  0.00    -0.744 OA
ENDBRANCH  61  62
ENDBRANCH  42  56
BRANCH  43  66
ATOM     66  C   UNL A   1      37.114  32.757  29.538  1.00  0.00    -0.014 A 
ATOM     67  C   UNL A   1      36.572  33.118  28.291  1.00  0.00     0.010 A 
ATOM     68  C   UNL A   1      36.422  33.111  30.710  1.00  0.00     0.010 A 
ATOM     69  C   UNL A   1      35.389  33.862  28.219  1.00  0.00     0.020 A 
ATOM     70  C   UNL A   1      35.225  33.831  30.643  1.00  0.00     0.020 A 
ATOM     71  C   UNL A   1      34.728  34.221  29.398  1.00  0.00     0.054 A 
BRANCH  71  72
ATOM     72  S   UNL A   1      33.199  35.193  29.286  1.00  0.00     0.124 S 
ATOM     73  O   UNL A   1      32.676  35.093  30.645  1.00  0.00    -0.237 OA
ATOM     74  O   UNL A   1      33.689  36.511  28.891  1.00  0.00    -0.237 OA
ATOM     75  O   UNL A   1      32.424  34.492  28.264  1.00  0.00    -0.744 OA
ENDBRANCH  71  72
ENDBRANCH  43  66
BRANCH  55  76
ATOM     76  C   UNL A   1      43.467  35.012  31.292  1.00  0.00    -0.014 A 
ATOM     77  C   UNL A   1      43.565  35.409  32.639  1.00  0.00     0.010 A 
ATOM     78  C   UNL A   1      43.911  35.892  30.288  1.00  0.00     0.010 A 
ATOM     79  C   UNL A   1      44.056  36.675  32.970  1.00  0.00     0.020 A 
ATOM     80  C   UNL A   1      44.430  37.147  30.616  1.00  0.00     0.020 A 
ATOM     81  C   UNL A   1      44.482  37.537  31.956  1.00  0.00     0.054 A 
BRANCH  81  82
ATOM     82  S   UNL A   1      45.144  39.165  32.411  1.00  0.00     0.124 S 
ATOM     83  O   UNL A   1      45.348  39.018  33.850  1.00  0.00    -0.237 OA
ATOM     84  O   UNL A   1      46.362  39.254  31.609  1.00  0.00    -0.237 OA
ATOM     85  O   UNL A   1      44.082  40.091  32.024  1.00  0.00    -0.744 OA
ENDBRANCH  81  82
ENDBRANCH  55  76
ENDBRANCH  29  30
ENDBRANCH  22  24
ENDBRANCH  21  22
ENDBRANCH   1  21
TORSDOF 15
ENDMDL
MODEL 3
REMARK VINA RESULT:      -9.4      5.259     11.297
REMARK SMILES O=C(OCCOC(=O)c1ccc(-c2c3nc(c(-c4ccc(S(=O)(=O)[O-])cc4)c4ccc([nH]4)c(-c4ccc(S(=O)(=O)[O-])cc4)c4nc(c(-c5ccc(S(=O)(=O)[O-])cc5)c5ccc2[nH]5)C=C4)C=C3)cc1)C1=Cc2cc(Cl)ccc2O[C@@H]1C(F)(F)F
REMARK SMILES IDX 5 1 4 2 3 3 2 4 1 5 69 6 70 7 79 8 71 9 78 10 72 11 77 12
REMARK SMILES IDX 73 13 76 14 74 15 75 16 80 17 81 18 82 19 83 20 6 21 7 22
REMARK SMILES IDX 8 23 9 24 10 25 68 26 11 27 67 28 12 29 13 30 14 31 61 32
REMARK SMILES IDX 15 33 66 34 60 35 62 36 16 37 65 38 59 39 58 40 17 42 47 43
REMARK SMILES IDX 28 44 46 45 29 46 32 47 45 48 63 49 30 50 31 51 44 53 64 54
REMARK SMILES IDX 33 55 18 56 19 57 27 58 20 59 26 60 21 61 22 62 23 63 24 64
REMARK SMILES IDX 25 65 48 66 49 67 57 68 50 69 56 70 51 71 52 72 53 73 54 74
REMARK SMILES IDX 55 75 34 76 35 77 43 78 36 79 42 80 37 81 38 82 39 83 40 84
REMARK SMILES IDX 41 85
REMARK H PARENT 62 41 32 52
REMARK Flexibility Score: inf
ROOT
ATOM      1  C   UNL A   1      37.087  22.493  24.330  1.00  0.00     0.275 C 
ENDROOT
BRANCH   1   2
ATOM      2  C   UNL A   1      35.982  23.034  23.399  1.00  0.00     0.275 C 
BRANCH   2   3
ATOM      3  O   UNL A   1      35.189  24.037  24.059  1.00  0.00    -0.459 OA
BRANCH   3   4
ATOM      4  C   UNL A   1      34.100  24.436  23.362  1.00  0.00     0.338 C 
ATOM      5  O   UNL A   1      34.163  25.025  22.294  1.00  0.00    -0.246 OA
BRANCH   4   6
ATOM      6  C   UNL A   1      32.821  24.044  24.035  1.00  0.00     0.087 C 
ATOM      7  C   UNL A   1      32.198  23.080  23.326  1.00  0.00     0.027 C 
ATOM      8  C   UNL A   1      32.880  23.881  25.538  1.00  0.00     0.316 C 
ATOM      9  C   UNL A   1      32.446  21.719  23.840  1.00  0.00     0.019 A 
ATOM     10  O   UNL A   1      33.350  22.567  25.938  1.00  0.00    -0.475 OA
ATOM     11  C   UNL A   1      32.172  20.611  23.034  1.00  0.00     0.032 A 
ATOM     12  C   UNL A   1      33.073  21.537  25.080  1.00  0.00     0.128 A 
ATOM     13  C   UNL A   1      32.592  19.345  23.441  1.00  0.00     0.041 A 
ATOM     14  C   UNL A   1      33.513  20.273  25.470  1.00  0.00     0.048 A 
ATOM     15  Cl  UNL A   1      32.291  17.982  22.436  1.00  0.00    -0.084 Cl
ATOM     16  C   UNL A   1      33.285  19.175  24.641  1.00  0.00     0.024 A 
BRANCH   8  17
ATOM     17  C   UNL A   1      31.580  24.266  26.252  1.00  0.00     0.430 C 
ATOM     18  F   UNL A   1      31.292  23.374  27.228  1.00  0.00    -0.167 F 
ATOM     19  F   UNL A   1      31.639  25.490  26.822  1.00  0.00    -0.167 F 
ATOM     20  F   UNL A   1      30.532  24.268  25.394  1.00  0.00    -0.167 F 
ENDBRANCH   8  17
ENDBRANCH   4   6
ENDBRANCH   3   4
ENDBRANCH   2   3
ENDBRANCH   1   2
BRANCH   1  21
ATOM     21  O   UNL A   1      37.473  23.445  25.336  1.00  0.00    -0.458 OA
BRANCH  21  22
ATOM     22  C   UNL A   1      38.606  23.112  26.005  1.00  0.00     0.338 C 
ATOM     23  O   UNL A   1      39.208  22.053  25.909  1.00  0.00    -0.246 OA
BRANCH  22  24
ATOM     24  C   UNL A   1      39.149  24.307  26.696  1.00  0.00     0.060 A 
ATOM     25  C   UNL A   1      38.820  24.467  28.046  1.00  0.00     0.016 A 
ATOM     26  C   UNL A   1      40.011  25.222  26.078  1.00  0.00     0.016 A 
ATOM     27  C   UNL A   1      39.312  25.557  28.766  1.00  0.00     0.010 A 
ATOM     28  C   UNL A   1      40.524  26.303  26.812  1.00  0.00     0.010 A 
ATOM     29  C   UNL A   1      40.148  26.500  28.151  1.00  0.00    -0.014 A 
BRANCH  29  30
ATOM     30  C   UNL A   1      40.480  27.748  28.893  1.00  0.00     0.031 A 
ATOM     31  C   UNL A   1      41.867  27.914  29.458  1.00  0.00     0.074 A 
ATOM     32  C   UNL A   1      39.605  28.770  28.976  1.00  0.00     0.049 A 
ATOM     33  N   UNL A   1      42.437  28.985  29.948  1.00  0.00    -0.248 NA
ATOM     34  C   UNL A   1      42.728  26.720  29.463  1.00  0.00     0.031 C 
ATOM     35  C   UNL A   1      38.227  28.755  28.487  1.00  0.00     0.029 A 
ATOM     36  N   UNL A   1      39.760  30.036  29.491  1.00  0.00    -0.354 N 
ATOM     37  C   UNL A   1      43.732  28.606  30.277  1.00  0.00     0.074 A 
ATOM     38  C   UNL A   1      43.841  27.190  30.006  1.00  0.00     0.031 C 
ATOM     39  C   UNL A   1      37.665  29.955  28.717  1.00  0.00     0.029 A 
ATOM     40  C   UNL A   1      38.642  30.829  29.362  1.00  0.00     0.049 A 
ATOM     41  H   UNL A   1      40.593  30.347  29.913  1.00  0.00     0.167 HD
ATOM     42  C   UNL A   1      44.756  29.368  30.729  1.00  0.00     0.031 A 
ATOM     43  C   UNL A   1      38.436  32.117  29.705  1.00  0.00     0.031 A 
ATOM     44  C   UNL A   1      44.657  30.768  31.037  1.00  0.00     0.049 A 
ATOM     45  C   UNL A   1      39.574  32.930  30.271  1.00  0.00     0.074 A 
ATOM     46  C   UNL A   1      45.645  31.621  31.498  1.00  0.00     0.029 A 
ATOM     47  N   UNL A   1      43.498  31.519  30.925  1.00  0.00    -0.354 N 
ATOM     48  N   UNL A   1      40.818  32.574  30.488  1.00  0.00    -0.248 NA
ATOM     49  C   UNL A   1      39.284  34.333  30.607  1.00  0.00     0.031 C 
ATOM     50  C   UNL A   1      45.070  32.880  31.709  1.00  0.00     0.029 A 
ATOM     51  C   UNL A   1      43.741  32.822  31.328  1.00  0.00     0.049 A 
ATOM     52  H   UNL A   1      42.632  31.178  30.605  1.00  0.00     0.167 HD
ATOM     53  C   UNL A   1      41.463  33.717  30.954  1.00  0.00     0.074 A 
ATOM     54  C   UNL A   1      40.480  34.779  30.967  1.00  0.00     0.031 C 
ATOM     55  C   UNL A   1      42.756  33.874  31.335  1.00  0.00     0.031 A 
BRANCH  42  56
ATOM     56  C   UNL A   1      46.086  28.687  30.904  1.00  0.00    -0.014 A 
ATOM     57  C   UNL A   1      47.001  28.626  29.835  1.00  0.00     0.010 A 
ATOM     58  C   UNL A   1      46.438  28.124  32.142  1.00  0.00     0.010 A 
ATOM     59  C   UNL A   1      48.228  27.978  29.991  1.00  0.00     0.020 A 
ATOM     60  C   UNL A   1      47.676  27.495  32.309  1.00  0.00     0.020 A 
ATOM     61  C   UNL A   1      48.555  27.412  31.227  1.00  0.00     0.054 A 
BRANCH  61  62
ATOM     62  S   UNL A   1      50.160  26.587  31.403  1.00  0.00     0.124 S 
ATOM     63  O   UNL A   1      50.138  25.646  30.285  1.00  0.00    -0.237 OA
ATOM     64  O   UNL A   1      51.106  27.693  31.272  1.00  0.00    -0.237 OA
ATOM     65  O   UNL A   1      50.095  25.980  32.729  1.00  0.00    -0.744 OA
ENDBRANCH  61  62
ENDBRANCH  42  56
BRANCH  43  66
ATOM     66  C   UNL A   1      37.095  32.745  29.519  1.00  0.00    -0.014 A 
ATOM     67  C   UNL A   1      36.744  33.357  28.302  1.00  0.00     0.010 A 
ATOM     68  C   UNL A   1      36.187  32.788  30.591  1.00  0.00     0.010 A 
ATOM     69  C   UNL A   1      35.533  34.044  28.177  1.00  0.00     0.020 A 
ATOM     70  C   UNL A   1      34.962  33.451  30.462  1.00  0.00     0.020 A 
ATOM     71  C   UNL A   1      34.652  34.093  29.262  1.00  0.00     0.054 A 
BRANCH  71  72
ATOM     72  S   UNL A   1      33.087  34.995  29.083  1.00  0.00     0.124 S 
ATOM     73  O   UNL A   1      33.542  36.303  28.621  1.00  0.00    -0.237 OA
ATOM     74  O   UNL A   1      32.368  34.191  28.099  1.00  0.00    -0.237 OA
ATOM     75  O   UNL A   1      32.523  34.969  30.431  1.00  0.00    -0.744 OA
ENDBRANCH  71  72
ENDBRANCH  43  66
BRANCH  55  76
ATOM     76  C   UNL A   1      43.194  35.250  31.766  1.00  0.00    -0.014 A 
ATOM     77  C   UNL A   1      43.105  35.657  33.110  1.00  0.00     0.010 A 
ATOM     78  C   UNL A   1      43.742  36.135  30.820  1.00  0.00     0.010 A 
ATOM     79  C   UNL A   1      43.516  36.939  33.490  1.00  0.00     0.020 A 
ATOM     80  C   UNL A   1      44.181  37.406  31.201  1.00  0.00     0.020 A 
ATOM     81  C   UNL A   1      44.047  37.806  32.532  1.00  0.00     0.054 A 
BRANCH  81  82
ATOM     82  S   UNL A   1      44.600  39.454  33.053  1.00  0.00     0.124 S 
ATOM     83  O   UNL A   1      43.356  40.059  33.519  1.00  0.00    -0.237 OA
ATOM     84  O   UNL A   1      45.581  39.151  34.094  1.00  0.00    -0.237 OA
ATOM     85  O   UNL A   1      45.157  40.035  31.833  1.00  0.00    -0.744 OA
ENDBRANCH  81  82
ENDBRANCH  55  76
ENDBRANCH  29  30
ENDBRANCH  22  24
ENDBRANCH  21  22
ENDBRANCH   1  21
TORSDOF 15
ENDMDL
