MODEL 1
REMARK VINA RESULT:     -10.6      0.000      0.000
REMARK SMILES N#C/C(=C\c1ccc(Oc2ccccc2Cl)c([N+](=O)[O-])c1)C(=O)OCCOC(=O)c1ccc(-c2c3nc(c(-c4ccc(S(=O)(=O)[O-])cc4)c4ccc([nH]4)c(-c4ccc(S(=O)(=O)[O-])cc4)c4nc(c(-c5ccc(S(=O)(=O)[O-])cc5)c5ccc2[nH]5)C=C4)C=C3)cc1
REMARK SMILES IDX 25 1 24 2 22 3 23 4 3 5 4 6 2 7 1 8 5 9 6 10 21 11 7 12
REMARK SMILES IDX 17 13 8 14 18 15 19 16 20 17 9 18 10 19 11 20 15 21 12 22
REMARK SMILES IDX 14 23 16 24 13 25 26 26 27 27 28 28 29 29 30 30 31 31 89 32
REMARK SMILES IDX 32 33 88 34 33 35 34 36 35 37 82 38 36 39 87 40 81 41 83 42
REMARK SMILES IDX 37 43 86 44 80 45 79 46 38 48 68 49 49 50 67 51 50 52 53 53
REMARK SMILES IDX 66 54 84 55 51 56 52 57 65 59 85 60 54 61 39 62 40 63 48 64
REMARK SMILES IDX 41 65 47 66 42 67 43 68 44 69 45 70 46 71 69 72 70 73 78 74
REMARK SMILES IDX 71 75 77 76 72 77 73 78 74 79 75 80 76 81 55 82 56 83 64 84
REMARK SMILES IDX 57 85 63 86 58 87 59 88 60 89 61 90 62 91
REMARK H PARENT 83 47 53 58
REMARK Flexibility Score: inf
ROOT
ATOM      1  C   UNL A   1      41.963  20.831  26.487  1.00  0.00     0.275 C 
ENDROOT
BRANCH   1   2
ATOM      2  O   UNL A   1      40.581  20.788  26.893  1.00  0.00    -0.458 OA
BRANCH   2   3
ATOM      3  C   UNL A   1      39.712  20.271  25.989  1.00  0.00     0.349 C 
ATOM      4  O   UNL A   1      39.701  19.114  25.592  1.00  0.00    -0.245 OA
BRANCH   3   5
ATOM      5  C   UNL A   1      38.747  21.291  25.547  1.00  0.00     0.138 C 
ATOM      6  C   UNL A   1      37.703  20.902  24.773  1.00  0.00     0.035 C 
BRANCH   5   7
ATOM      7  C   UNL A   1      38.719  22.677  26.170  1.00  0.00     0.107 C 
ATOM      8  N   UNL A   1      38.695  23.827  26.687  1.00  0.00    -0.192 NA
ENDBRANCH   5   7
BRANCH   6   9
ATOM      9  C   UNL A   1      36.513  21.737  24.512  1.00  0.00    -0.017 A 
ATOM     10  C   UNL A   1      36.540  22.670  23.469  1.00  0.00     0.012 A 
ATOM     11  C   UNL A   1      35.312  21.548  25.200  1.00  0.00     0.098 A 
ATOM     12  C   UNL A   1      35.379  23.368  23.106  1.00  0.00     0.055 A 
ATOM     13  C   UNL A   1      34.133  22.169  24.755  1.00  0.00     0.312 A 
ATOM     14  C   UNL A   1      34.148  23.127  23.738  1.00  0.00     0.204 A 
BRANCH  13  15
ATOM     15  N   UNL A   1      32.912  21.629  25.321  1.00  0.00     0.066 N 
ATOM     16  O   UNL A   1      32.454  22.196  26.320  1.00  0.00    -0.258 OA
ATOM     17  O   UNL A   1      32.393  20.676  24.724  1.00  0.00    -0.258 OA
ENDBRANCH  13  15
BRANCH  14  18
ATOM     18  O   UNL A   1      33.128  23.898  23.221  1.00  0.00    -0.449 OA
BRANCH  18  19
ATOM     19  C   UNL A   1      33.193  25.268  23.260  1.00  0.00     0.146 A 
ATOM     20  C   UNL A   1      33.371  25.827  24.531  1.00  0.00     0.049 A 
ATOM     21  C   UNL A   1      33.067  26.102  22.143  1.00  0.00     0.083 A 
ATOM     22  C   UNL A   1      33.538  27.204  24.672  1.00  0.00     0.004 A 
ATOM     23  C   UNL A   1      33.265  27.477  22.285  1.00  0.00     0.024 A 
ATOM     24  Cl  UNL A   1      32.693  25.486  20.574  1.00  0.00    -0.080 Cl
ATOM     25  C   UNL A   1      33.514  28.025  23.545  1.00  0.00     0.002 A 
ENDBRANCH  18  19
ENDBRANCH  14  18
ENDBRANCH   6   9
ENDBRANCH   3   5
ENDBRANCH   2   3
ENDBRANCH   1   2
BRANCH   1  26
ATOM     26  C   UNL A   1      42.274  22.172  25.817  1.00  0.00     0.275 C 
BRANCH  26  27
ATOM     27  O   UNL A   1      42.267  23.250  26.776  1.00  0.00    -0.458 OA
BRANCH  27  28
ATOM     28  C   UNL A   1      42.374  24.489  26.241  1.00  0.00     0.338 C 
ATOM     29  O   UNL A   1      42.711  24.769  25.102  1.00  0.00    -0.246 OA
BRANCH  28  30
ATOM     30  C   UNL A   1      41.853  25.504  27.168  1.00  0.00     0.060 A 
ATOM     31  C   UNL A   1      42.391  26.778  27.084  1.00  0.00     0.016 A 
ATOM     32  C   UNL A   1      41.052  25.165  28.252  1.00  0.00     0.016 A 
ATOM     33  C   UNL A   1      42.289  27.657  28.151  1.00  0.00     0.010 A 
ATOM     34  C   UNL A   1      40.809  26.122  29.252  1.00  0.00     0.010 A 
ATOM     35  C   UNL A   1      41.466  27.367  29.239  1.00  0.00    -0.014 A 
BRANCH  35  36
ATOM     36  C   UNL A   1      41.340  28.363  30.344  1.00  0.00     0.031 A 
ATOM     37  C   UNL A   1      42.310  28.343  31.498  1.00  0.00     0.074 A 
ATOM     38  C   UNL A   1      40.383  29.317  30.298  1.00  0.00     0.049 A 
ATOM     39  N   UNL A   1      42.242  28.974  32.644  1.00  0.00    -0.248 NA
ATOM     40  C   UNL A   1      43.502  27.488  31.360  1.00  0.00     0.031 C 
ATOM     41  C   UNL A   1      39.428  29.522  29.202  1.00  0.00     0.029 A 
ATOM     42  N   UNL A   1      40.061  30.311  31.190  1.00  0.00    -0.354 N 
ATOM     43  C   UNL A   1      43.337  28.540  33.384  1.00  0.00     0.074 A 
ATOM     44  C   UNL A   1      44.053  27.590  32.561  1.00  0.00     0.031 C 
ATOM     45  C   UNL A   1      38.681  30.603  29.454  1.00  0.00     0.029 A 
ATOM     46  C   UNL A   1      38.998  31.089  30.788  1.00  0.00     0.049 A 
ATOM     47  H   UNL A   1      40.544  30.455  32.035  1.00  0.00     0.167 HD
ATOM     48  C   UNL A   1      43.701  28.898  34.639  1.00  0.00     0.031 A 
ATOM     49  C   UNL A   1      38.302  32.043  31.436  1.00  0.00     0.031 A 
ATOM     50  C   UNL A   1      43.009  29.889  35.423  1.00  0.00     0.049 A 
ATOM     51  C   UNL A   1      38.681  32.368  32.851  1.00  0.00     0.074 A 
ATOM     52  C   UNL A   1      43.300  30.332  36.701  1.00  0.00     0.029 A 
ATOM     53  N   UNL A   1      41.900  30.607  34.995  1.00  0.00    -0.354 N 
ATOM     54  N   UNL A   1      39.669  31.891  33.569  1.00  0.00    -0.248 NA
ATOM     55  C   UNL A   1      37.840  33.346  33.553  1.00  0.00     0.031 C 
ATOM     56  C   UNL A   1      42.330  31.269  37.071  1.00  0.00     0.029 A 
ATOM     57  C   UNL A   1      41.480  31.467  35.995  1.00  0.00     0.049 A 
ATOM     58  H   UNL A   1      41.477  30.519  34.111  1.00  0.00     0.167 HD
ATOM     59  C   UNL A   1      39.583  32.530  34.800  1.00  0.00     0.074 A 
ATOM     60  C   UNL A   1      38.459  33.440  34.721  1.00  0.00     0.031 C 
ATOM     61  C   UNL A   1      40.362  32.372  35.897  1.00  0.00     0.031 A 
BRANCH  48  62
ATOM     62  C   UNL A   1      44.863  28.177  35.275  1.00  0.00    -0.014 A 
ATOM     63  C   UNL A   1      46.177  28.669  35.210  1.00  0.00     0.010 A 
ATOM     64  C   UNL A   1      44.612  27.003  36.014  1.00  0.00     0.010 A 
ATOM     65  C   UNL A   1      47.222  27.988  35.846  1.00  0.00     0.020 A 
ATOM     66  C   UNL A   1      45.647  26.336  36.675  1.00  0.00     0.020 A 
ATOM     67  C   UNL A   1      46.949  26.827  36.576  1.00  0.00     0.054 A 
BRANCH  67  68
ATOM     68  S   UNL A   1      48.315  25.986  37.425  1.00  0.00     0.124 S 
ATOM     69  O   UNL A   1      48.308  24.673  36.785  1.00  0.00    -0.237 OA
ATOM     70  O   UNL A   1      49.460  26.834  37.106  1.00  0.00    -0.237 OA
ATOM     71  O   UNL A   1      47.910  25.993  38.830  1.00  0.00    -0.744 OA
ENDBRANCH  67  68
ENDBRANCH  48  62
BRANCH  49  72
ATOM     72  C   UNL A   1      37.127  32.691  30.785  1.00  0.00    -0.014 A 
ATOM     73  C   UNL A   1      35.817  32.286  31.093  1.00  0.00     0.010 A 
ATOM     74  C   UNL A   1      37.316  33.722  29.844  1.00  0.00     0.010 A 
ATOM     75  C   UNL A   1      34.723  32.881  30.457  1.00  0.00     0.020 A 
ATOM     76  C   UNL A   1      36.224  34.348  29.236  1.00  0.00     0.020 A 
ATOM     77  C   UNL A   1      34.934  33.911  29.534  1.00  0.00     0.054 A 
BRANCH  77  78
ATOM     78  S   UNL A   1      33.499  34.689  28.744  1.00  0.00     0.124 S 
ATOM     79  O   UNL A   1      32.598  34.886  29.876  1.00  0.00    -0.237 OA
ATOM     80  O   UNL A   1      34.072  35.904  28.171  1.00  0.00    -0.237 OA
ATOM     81  O   UNL A   1      33.064  33.693  27.766  1.00  0.00    -0.744 OA
ENDBRANCH  77  78
ENDBRANCH  49  72
BRANCH  61  82
ATOM     82  C   UNL A   1      40.058  33.244  37.085  1.00  0.00    -0.014 A 
ATOM     83  C   UNL A   1      40.645  34.513  37.232  1.00  0.00     0.010 A 
ATOM     84  C   UNL A   1      39.134  32.800  38.048  1.00  0.00     0.010 A 
ATOM     85  C   UNL A   1      40.339  35.307  38.340  1.00  0.00     0.020 A 
ATOM     86  C   UNL A   1      38.799  33.604  39.138  1.00  0.00     0.020 A 
ATOM     87  C   UNL A   1      39.417  34.847  39.285  1.00  0.00     0.054 A 
BRANCH  87  88
ATOM     88  S   UNL A   1      39.003  35.916  40.689  1.00  0.00     0.124 S 
ATOM     89  O   UNL A   1      40.253  35.924  41.444  1.00  0.00    -0.237 OA
ATOM     90  O   UNL A   1      38.654  37.178  40.040  1.00  0.00    -0.237 OA
ATOM     91  O   UNL A   1      37.889  35.226  41.336  1.00  0.00    -0.744 OA
ENDBRANCH  87  88
ENDBRANCH  61  82
ENDBRANCH  35  36
ENDBRANCH  28  30
ENDBRANCH  27  28
ENDBRANCH  26  27
ENDBRANCH   1  26
TORSDOF 19
ENDMDL
MODEL 2
REMARK VINA RESULT:     -10.3      6.267     11.584
REMARK SMILES N#C/C(=C\c1ccc(Oc2ccccc2Cl)c([N+](=O)[O-])c1)C(=O)OCCOC(=O)c1ccc(-c2c3nc(c(-c4ccc(S(=O)(=O)[O-])cc4)c4ccc([nH]4)c(-c4ccc(S(=O)(=O)[O-])cc4)c4nc(c(-c5ccc(S(=O)(=O)[O-])cc5)c5ccc2[nH]5)C=C4)C=C3)cc1
REMARK SMILES IDX 25 1 24 2 22 3 23 4 3 5 4 6 2 7 1 8 5 9 6 10 21 11 7 12
REMARK SMILES IDX 17 13 8 14 18 15 19 16 20 17 9 18 10 19 11 20 15 21 12 22
REMARK SMILES IDX 14 23 16 24 13 25 26 26 27 27 28 28 29 29 30 30 31 31 89 32
REMARK SMILES IDX 32 33 88 34 33 35 34 36 35 37 82 38 36 39 87 40 81 41 83 42
REMARK SMILES IDX 37 43 86 44 80 45 79 46 38 48 68 49 49 50 67 51 50 52 53 53
REMARK SMILES IDX 66 54 84 55 51 56 52 57 65 59 85 60 54 61 39 62 40 63 48 64
REMARK SMILES IDX 41 65 47 66 42 67 43 68 44 69 45 70 46 71 69 72 70 73 78 74
REMARK SMILES IDX 71 75 77 76 72 77 73 78 74 79 75 80 76 81 55 82 56 83 64 84
REMARK SMILES IDX 57 85 63 86 58 87 59 88 60 89 61 90 62 91
REMARK H PARENT 83 47 53 58
REMARK Flexibility Score: inf
ROOT
ATOM      1  C   UNL A   1      34.543  31.003  27.612  1.00  0.00     0.275 C 
ENDROOT
BRANCH   1   2
ATOM      2  O   UNL A   1      33.401  30.129  27.696  1.00  0.00    -0.458 OA
BRANCH   2   3
ATOM      3  C   UNL A   1      32.630  30.050  26.582  1.00  0.00     0.349 C 
ATOM      4  O   UNL A   1      31.702  30.795  26.303  1.00  0.00    -0.245 OA
BRANCH   3   5
ATOM      5  C   UNL A   1      33.071  28.943  25.718  1.00  0.00     0.138 C 
ATOM      6  C   UNL A   1      33.077  27.687  26.229  1.00  0.00     0.035 C 
BRANCH   5   7
ATOM      7  C   UNL A   1      33.225  29.123  24.216  1.00  0.00     0.107 C 
ATOM      8  N   UNL A   1      33.353  29.273  22.971  1.00  0.00    -0.192 NA
ENDBRANCH   5   7
BRANCH   6   9
ATOM      9  C   UNL A   1      33.200  26.463  25.409  1.00  0.00    -0.017 A 
ATOM     10  C   UNL A   1      34.465  25.915  25.174  1.00  0.00     0.012 A 
ATOM     11  C   UNL A   1      32.079  25.765  24.953  1.00  0.00     0.098 A 
ATOM     12  C   UNL A   1      34.597  24.676  24.528  1.00  0.00     0.055 A 
ATOM     13  C   UNL A   1      32.218  24.477  24.408  1.00  0.00     0.312 A 
ATOM     14  C   UNL A   1      33.475  23.928  24.136  1.00  0.00     0.204 A 
BRANCH  13  15
ATOM     15  N   UNL A   1      30.982  23.727  24.301  1.00  0.00     0.066 N 
ATOM     16  O   UNL A   1      30.599  23.124  25.311  1.00  0.00    -0.258 OA
ATOM     17  O   UNL A   1      30.379  23.796  23.222  1.00  0.00    -0.258 OA
ENDBRANCH  13  15
BRANCH  14  18
ATOM     18  O   UNL A   1      33.817  22.734  23.538  1.00  0.00    -0.449 OA
BRANCH  18  19
ATOM     19  C   UNL A   1      33.488  21.535  24.121  1.00  0.00     0.146 A 
ATOM     20  C   UNL A   1      34.128  21.259  25.334  1.00  0.00     0.049 A 
ATOM     21  C   UNL A   1      32.602  20.602  23.572  1.00  0.00     0.083 A 
ATOM     22  C   UNL A   1      33.799  20.110  26.053  1.00  0.00     0.004 A 
ATOM     23  C   UNL A   1      32.252  19.468  24.308  1.00  0.00     0.024 A 
ATOM     24  Cl  UNL A   1      31.899  20.812  22.008  1.00  0.00    -0.080 Cl
ATOM     25  C   UNL A   1      32.840  19.230  25.553  1.00  0.00     0.002 A 
ENDBRANCH  18  19
ENDBRANCH  14  18
ENDBRANCH   6   9
ENDBRANCH   3   5
ENDBRANCH   2   3
ENDBRANCH   1   2
BRANCH   1  26
ATOM     26  C   UNL A   1      35.353  30.936  28.909  1.00  0.00     0.275 C 
BRANCH  26  27
ATOM     27  O   UNL A   1      36.008  29.658  29.051  1.00  0.00    -0.458 OA
BRANCH  27  28
ATOM     28  C   UNL A   1      36.765  29.527  30.167  1.00  0.00     0.338 C 
ATOM     29  O   UNL A   1      36.374  29.251  31.288  1.00  0.00    -0.246 OA
BRANCH  28  30
ATOM     30  C   UNL A   1      38.196  29.589  29.836  1.00  0.00     0.060 A 
ATOM     31  C   UNL A   1      38.533  29.893  28.526  1.00  0.00     0.016 A 
ATOM     32  C   UNL A   1      39.171  29.119  30.708  1.00  0.00     0.016 A 
ATOM     33  C   UNL A   1      39.785  29.564  28.029  1.00  0.00     0.010 A 
ATOM     34  C   UNL A   1      40.486  28.950  30.240  1.00  0.00     0.010 A 
ATOM     35  C   UNL A   1      40.799  29.124  28.878  1.00  0.00    -0.014 A 
BRANCH  35  36
ATOM     36  C   UNL A   1      42.149  28.832  28.313  1.00  0.00     0.031 A 
ATOM     37  C   UNL A   1      42.469  27.457  27.783  1.00  0.00     0.074 A 
ATOM     38  C   UNL A   1      43.082  29.808  28.231  1.00  0.00     0.049 A 
ATOM     39  N   UNL A   1      43.630  26.949  27.453  1.00  0.00    -0.248 NA
ATOM     40  C   UNL A   1      41.344  26.521  27.619  1.00  0.00     0.031 C 
ATOM     41  C   UNL A   1      42.891  31.211  28.618  1.00  0.00     0.029 A 
ATOM     42  N   UNL A   1      44.378  29.777  27.778  1.00  0.00    -0.354 N 
ATOM     43  C   UNL A   1      43.385  25.622  27.115  1.00  0.00     0.074 A 
ATOM     44  C   UNL A   1      41.965  25.401  27.280  1.00  0.00     0.031 C 
ATOM     45  C   UNL A   1      43.994  31.910  28.328  1.00  0.00     0.029 A 
ATOM     46  C   UNL A   1      45.023  30.991  27.868  1.00  0.00     0.049 A 
ATOM     47  H   UNL A   1      44.806  28.965  27.422  1.00  0.00     0.167 HD
ATOM     48  C   UNL A   1      44.269  24.678  26.712  1.00  0.00     0.031 A 
ATOM     49  C   UNL A   1      46.313  31.327  27.671  1.00  0.00     0.031 A 
ATOM     50  C   UNL A   1      45.671  24.932  26.498  1.00  0.00     0.049 A 
ATOM     51  C   UNL A   1      47.284  30.246  27.297  1.00  0.00     0.074 A 
ATOM     52  C   UNL A   1      46.651  24.048  26.082  1.00  0.00     0.029 A 
ATOM     53  N   UNL A   1      46.288  26.164  26.660  1.00  0.00    -0.354 N 
ATOM     54  N   UNL A   1      47.053  28.978  27.059  1.00  0.00    -0.248 NA
ATOM     55  C   UNL A   1      48.695  30.637  27.185  1.00  0.00     0.031 C 
ATOM     56  C   UNL A   1      47.872  24.728  26.057  1.00  0.00     0.029 A 
ATOM     57  C   UNL A   1      47.641  26.055  26.382  1.00  0.00     0.049 A 
ATOM     58  H   UNL A   1      45.833  26.993  26.932  1.00  0.00     0.167 HD
ATOM     59  C   UNL A   1      48.287  28.423  26.744  1.00  0.00     0.074 A 
ATOM     60  C   UNL A   1      49.257  29.498  26.803  1.00  0.00     0.031 C 
ATOM     61  C   UNL A   1      48.590  27.138  26.439  1.00  0.00     0.031 A 
BRANCH  48  62
ATOM     62  C   UNL A   1      43.769  23.266  26.535  1.00  0.00    -0.014 A 
ATOM     63  C   UNL A   1      44.149  22.468  25.442  1.00  0.00     0.010 A 
ATOM     64  C   UNL A   1      42.944  22.707  27.531  1.00  0.00     0.010 A 
ATOM     65  C   UNL A   1      43.692  21.150  25.335  1.00  0.00     0.020 A 
ATOM     66  C   UNL A   1      42.509  21.382  27.443  1.00  0.00     0.020 A 
ATOM     67  C   UNL A   1      42.877  20.614  26.338  1.00  0.00     0.054 A 
BRANCH  67  68
ATOM     68  S   UNL A   1      42.332  18.889  26.194  1.00  0.00     0.124 S 
ATOM     69  O   UNL A   1      42.534  18.393  27.552  1.00  0.00    -0.237 OA
ATOM     70  O   UNL A   1      40.939  19.027  25.775  1.00  0.00    -0.237 OA
ATOM     71  O   UNL A   1      43.228  18.323  25.187  1.00  0.00    -0.744 OA
ENDBRANCH  67  68
ENDBRANCH  48  62
BRANCH  49  72
ATOM     72  C   UNL A   1      46.770  32.726  27.911  1.00  0.00    -0.014 A 
ATOM     73  C   UNL A   1      47.195  33.137  29.186  1.00  0.00     0.010 A 
ATOM     74  C   UNL A   1      46.781  33.660  26.857  1.00  0.00     0.010 A 
ATOM     75  C   UNL A   1      47.596  34.459  29.407  1.00  0.00     0.020 A 
ATOM     76  C   UNL A   1      47.220  34.970  27.064  1.00  0.00     0.020 A 
ATOM     77  C   UNL A   1      47.609  35.366  28.343  1.00  0.00     0.054 A 
BRANCH  77  78
ATOM     78  S   UNL A   1      48.163  37.066  28.646  1.00  0.00     0.124 S 
ATOM     79  O   UNL A   1      49.578  36.876  28.951  1.00  0.00    -0.237 OA
ATOM     80  O   UNL A   1      47.872  37.726  27.376  1.00  0.00    -0.237 OA
ATOM     81  O   UNL A   1      47.335  37.501  29.770  1.00  0.00    -0.744 OA
ENDBRANCH  77  78
ENDBRANCH  49  72
BRANCH  61  82
ATOM     82  C   UNL A   1      50.023  26.835  26.089  1.00  0.00    -0.014 A 
ATOM     83  C   UNL A   1      50.932  26.378  27.059  1.00  0.00     0.010 A 
ATOM     84  C   UNL A   1      50.450  26.972  24.757  1.00  0.00     0.010 A 
ATOM     85  C   UNL A   1      52.254  26.096  26.707  1.00  0.00     0.020 A 
ATOM     86  C   UNL A   1      51.761  26.658  24.394  1.00  0.00     0.020 A 
ATOM     87  C   UNL A   1      52.659  26.237  25.376  1.00  0.00     0.054 A 
BRANCH  87  88
ATOM     88  S   UNL A   1      54.368  25.820  24.938  1.00  0.00     0.124 S 
ATOM     89  O   UNL A   1      54.393  24.376  25.149  1.00  0.00    -0.237 OA
ATOM     90  O   UNL A   1      54.456  26.253  23.545  1.00  0.00    -0.237 OA
ATOM     91  O   UNL A   1      55.169  26.601  25.879  1.00  0.00    -0.744 OA
ENDBRANCH  87  88
ENDBRANCH  61  82
ENDBRANCH  35  36
ENDBRANCH  28  30
ENDBRANCH  27  28
ENDBRANCH  26  27
ENDBRANCH   1  26
TORSDOF 19
ENDMDL
MODEL 3
REMARK VINA RESULT:     -10.2      6.389     12.128
REMARK SMILES N#C/C(=C\c1ccc(Oc2ccccc2Cl)c([N+](=O)[O-])c1)C(=O)OCCOC(=O)c1ccc(-c2c3nc(c(-c4ccc(S(=O)(=O)[O-])cc4)c4ccc([nH]4)c(-c4ccc(S(=O)(=O)[O-])cc4)c4nc(c(-c5ccc(S(=O)(=O)[O-])cc5)c5ccc2[nH]5)C=C4)C=C3)cc1
REMARK SMILES IDX 25 1 24 2 22 3 23 4 3 5 4 6 2 7 1 8 5 9 6 10 21 11 7 12
REMARK SMILES IDX 17 13 8 14 18 15 19 16 20 17 9 18 10 19 11 20 15 21 12 22
REMARK SMILES IDX 14 23 16 24 13 25 26 26 27 27 28 28 29 29 30 30 31 31 89 32
REMARK SMILES IDX 32 33 88 34 33 35 34 36 35 37 82 38 36 39 87 40 81 41 83 42
REMARK SMILES IDX 37 43 86 44 80 45 79 46 38 48 68 49 49 50 67 51 50 52 53 53
REMARK SMILES IDX 66 54 84 55 51 56 52 57 65 59 85 60 54 61 39 62 40 63 48 64
REMARK SMILES IDX 41 65 47 66 42 67 43 68 44 69 45 70 46 71 69 72 70 73 78 74
REMARK SMILES IDX 71 75 77 76 72 77 73 78 74 79 75 80 76 81 55 82 56 83 64 84
REMARK SMILES IDX 57 85 63 86 58 87 59 88 60 89 61 90 62 91
REMARK H PARENT 83 47 53 58
REMARK Flexibility Score: inf
ROOT
ATOM      1  C   UNL A   1      34.602  31.950  28.047  1.00  0.00     0.275 C 
ENDROOT
BRANCH   1   2
ATOM      2  O   UNL A   1      34.395  30.906  27.075  1.00  0.00    -0.458 OA
BRANCH   2   3
ATOM      3  C   UNL A   1      33.113  30.709  26.678  1.00  0.00     0.349 C 
ATOM      4  O   UNL A   1      32.153  31.391  27.006  1.00  0.00    -0.245 OA
BRANCH   3   5
ATOM      5  C   UNL A   1      33.018  29.557  25.767  1.00  0.00     0.138 C 
ATOM      6  C   UNL A   1      33.997  28.618  25.807  1.00  0.00     0.035 C 
BRANCH   5   7
ATOM      7  C   UNL A   1      31.733  29.243  25.018  1.00  0.00     0.107 C 
ATOM      8  N   UNL A   1      30.667  28.982  24.397  1.00  0.00    -0.192 NA
ENDBRANCH   5   7
BRANCH   6   9
ATOM      9  C   UNL A   1      33.885  27.283  25.183  1.00  0.00    -0.017 A 
ATOM     10  C   UNL A   1      33.886  26.142  25.992  1.00  0.00     0.012 A 
ATOM     11  C   UNL A   1      33.661  27.124  23.813  1.00  0.00     0.098 A 
ATOM     12  C   UNL A   1      33.633  24.876  25.442  1.00  0.00     0.055 A 
ATOM     13  C   UNL A   1      33.300  25.870  23.294  1.00  0.00     0.312 A 
ATOM     14  C   UNL A   1      33.328  24.715  24.081  1.00  0.00     0.204 A 
BRANCH  13  15
ATOM     15  N   UNL A   1      32.759  25.904  21.949  1.00  0.00     0.066 N 
ATOM     16  O   UNL A   1      33.540  25.662  21.021  1.00  0.00    -0.258 OA
ATOM     17  O   UNL A   1      31.544  26.115  21.840  1.00  0.00    -0.258 OA
ENDBRANCH  13  15
BRANCH  14  18
ATOM     18  O   UNL A   1      33.091  23.399  23.744  1.00  0.00    -0.449 OA
BRANCH  18  19
ATOM     19  C   UNL A   1      33.993  22.417  24.069  1.00  0.00     0.146 A 
ATOM     20  C   UNL A   1      35.338  22.738  23.854  1.00  0.00     0.049 A 
ATOM     21  C   UNL A   1      33.648  21.151  24.557  1.00  0.00     0.083 A 
ATOM     22  C   UNL A   1      36.339  21.845  24.232  1.00  0.00     0.004 A 
ATOM     23  C   UNL A   1      34.654  20.272  24.964  1.00  0.00     0.024 A 
ATOM     24  Cl  UNL A   1      32.005  20.637  24.699  1.00  0.00    -0.080 Cl
ATOM     25  C   UNL A   1      35.997  20.624  24.814  1.00  0.00     0.002 A 
ENDBRANCH  18  19
ENDBRANCH  14  18
ENDBRANCH   6   9
ENDBRANCH   3   5
ENDBRANCH   2   3
ENDBRANCH   1   2
BRANCH   1  26
ATOM     26  C   UNL A   1      35.422  31.418  29.224  1.00  0.00     0.275 C 
BRANCH  26  27
ATOM     27  O   UNL A   1      36.648  30.804  28.773  1.00  0.00    -0.458 OA
BRANCH  27  28
ATOM     28  C   UNL A   1      37.022  29.704  29.468  1.00  0.00     0.338 C 
ATOM     29  O   UNL A   1      36.356  29.091  30.285  1.00  0.00    -0.246 OA
BRANCH  28  30
ATOM     30  C   UNL A   1      38.317  29.201  28.987  1.00  0.00     0.060 A 
ATOM     31  C   UNL A   1      39.174  28.650  29.928  1.00  0.00     0.016 A 
ATOM     32  C   UNL A   1      38.788  29.486  27.711  1.00  0.00     0.016 A 
ATOM     33  C   UNL A   1      40.532  28.548  29.667  1.00  0.00     0.010 A 
ATOM     34  C   UNL A   1      40.131  29.218  27.398  1.00  0.00     0.010 A 
ATOM     35  C   UNL A   1      41.036  28.790  28.389  1.00  0.00    -0.014 A 
BRANCH  35  36
ATOM     36  C   UNL A   1      42.496  28.617  28.135  1.00  0.00     0.031 A 
ATOM     37  C   UNL A   1      43.462  29.725  28.473  1.00  0.00     0.074 A 
ATOM     38  C   UNL A   1      42.970  27.452  27.640  1.00  0.00     0.049 A 
ATOM     39  N   UNL A   1      44.721  29.852  28.137  1.00  0.00    -0.248 NA
ATOM     40  C   UNL A   1      42.945  30.846  29.276  1.00  0.00     0.031 C 
ATOM     41  C   UNL A   1      42.170  26.255  27.350  1.00  0.00     0.029 A 
ATOM     42  N   UNL A   1      44.247  27.068  27.308  1.00  0.00    -0.354 N 
ATOM     43  C   UNL A   1      45.122  31.092  28.623  1.00  0.00     0.074 A 
ATOM     44  C   UNL A   1      43.974  31.681  29.277  1.00  0.00     0.031 C 
ATOM     45  C   UNL A   1      42.976  25.264  26.949  1.00  0.00     0.029 A 
ATOM     46  C   UNL A   1      44.327  25.785  26.816  1.00  0.00     0.049 A 
ATOM     47  H   UNL A   1      45.030  27.655  27.412  1.00  0.00     0.167 HD
ATOM     48  C   UNL A   1      46.337  31.684  28.523  1.00  0.00     0.031 A 
ATOM     49  C   UNL A   1      45.351  25.113  26.255  1.00  0.00     0.031 A 
ATOM     50  C   UNL A   1      47.486  31.059  27.919  1.00  0.00     0.049 A 
ATOM     51  C   UNL A   1      46.665  25.818  26.090  1.00  0.00     0.074 A 
ATOM     52  C   UNL A   1      48.765  31.567  27.773  1.00  0.00     0.029 A 
ATOM     53  N   UNL A   1      47.502  29.779  27.380  1.00  0.00    -0.354 N 
ATOM     54  N   UNL A   1      47.008  27.021  26.481  1.00  0.00    -0.248 NA
ATOM     55  C   UNL A   1      47.725  25.083  25.388  1.00  0.00     0.031 C 
ATOM     56  C   UNL A   1      49.536  30.623  27.089  1.00  0.00     0.029 A 
ATOM     57  C   UNL A   1      48.760  29.495  26.876  1.00  0.00     0.049 A 
ATOM     58  H   UNL A   1      46.733  29.165  27.361  1.00  0.00     0.167 HD
ATOM     59  C   UNL A   1      48.333  27.179  26.095  1.00  0.00     0.074 A 
ATOM     60  C   UNL A   1      48.733  25.941  25.458  1.00  0.00     0.031 C 
ATOM     61  C   UNL A   1      49.143  28.254  26.251  1.00  0.00     0.031 A 
BRANCH  48  62
ATOM     62  C   UNL A   1      46.480  33.101  29.019  1.00  0.00    -0.014 A 
ATOM     63  C   UNL A   1      46.921  33.399  30.320  1.00  0.00     0.010 A 
ATOM     64  C   UNL A   1      46.225  34.162  28.127  1.00  0.00     0.010 A 
ATOM     65  C   UNL A   1      47.076  34.728  30.728  1.00  0.00     0.020 A 
ATOM     66  C   UNL A   1      46.407  35.491  28.522  1.00  0.00     0.020 A 
ATOM     67  C   UNL A   1      46.820  35.766  29.826  1.00  0.00     0.054 A 
BRANCH  67  68
ATOM     68  S   UNL A   1      47.068  37.480  30.369  1.00  0.00     0.124 S 
ATOM     69  O   UNL A   1      46.608  38.236  29.208  1.00  0.00    -0.237 OA
ATOM     70  O   UNL A   1      46.218  37.566  31.553  1.00  0.00    -0.237 OA
ATOM     71  O   UNL A   1      48.505  37.558  30.631  1.00  0.00    -0.744 OA
ENDBRANCH  67  68
ENDBRANCH  48  62
BRANCH  49  72
ATOM     72  C   UNL A   1      45.146  23.731  25.730  1.00  0.00    -0.014 A 
ATOM     73  C   UNL A   1      44.436  23.510  24.538  1.00  0.00     0.010 A 
ATOM     74  C   UNL A   1      45.662  22.623  26.429  1.00  0.00     0.010 A 
ATOM     75  C   UNL A   1      44.226  22.210  24.069  1.00  0.00     0.020 A 
ATOM     76  C   UNL A   1      45.490  21.324  25.943  1.00  0.00     0.020 A 
ATOM     77  C   UNL A   1      44.757  21.125  24.773  1.00  0.00     0.054 A 
BRANCH  77  78
ATOM     78  S   UNL A   1      44.499  19.449  24.130  1.00  0.00     0.124 S 
ATOM     79  O   UNL A   1      44.463  19.678  22.689  1.00  0.00    -0.237 OA
ATOM     80  O   UNL A   1      45.671  18.734  24.628  1.00  0.00    -0.237 OA
ATOM     81  O   UNL A   1      43.230  19.043  24.730  1.00  0.00    -0.744 OA
ENDBRANCH  77  78
ENDBRANCH  49  72
BRANCH  61  82
ATOM     82  C   UNL A   1      50.563  28.118  25.771  1.00  0.00    -0.014 A 
ATOM     83  C   UNL A   1      50.916  28.394  24.439  1.00  0.00     0.010 A 
ATOM     84  C   UNL A   1      51.566  27.749  26.686  1.00  0.00     0.010 A 
ATOM     85  C   UNL A   1      52.243  28.268  24.021  1.00  0.00     0.020 A 
ATOM     86  C   UNL A   1      52.899  27.656  26.280  1.00  0.00     0.020 A 
ATOM     87  C   UNL A   1      53.226  27.902  24.946  1.00  0.00     0.054 A 
BRANCH  87  88
ATOM     88  S   UNL A   1      54.947  27.790  24.389  1.00  0.00     0.124 S 
ATOM     89  O   UNL A   1      55.517  29.029  24.911  1.00  0.00    -0.237 OA
ATOM     90  O   UNL A   1      55.413  26.564  25.032  1.00  0.00    -0.237 OA
ATOM     91  O   UNL A   1      54.838  27.721  22.933  1.00  0.00    -0.744 OA
ENDBRANCH  87  88
ENDBRANCH  61  82
ENDBRANCH  35  36
ENDBRANCH  28  30
ENDBRANCH  27  28
ENDBRANCH  26  27
ENDBRANCH   1  26
TORSDOF 19
ENDMDL
