MODEL 1
REMARK VINA RESULT:     -13.1      0.000      0.000
REMARK SMILES O=C(OCCOC(=O)c1ccc(-c2c3nc(c(-c4ccc(S(=O)(=O)[O-])cc4)c4ccc([nH]4)c(-c4ccc(S(=O)(=O)[O-])cc4)c4nc(c(-c5ccc(S(=O)(=O)[O-])cc5)c5ccc2[nH]5)C=C4)C=C3)cc1)C1=Cc2cc(Cl)cc(-c3ccc(CO)cc3)c2O[C@@H]1C(F)(F)F
REMARK SMILES IDX 4 1 3 2 2 3 1 4 69 5 70 6 87 7 71 8 86 9 72 10 85 11 73 12
REMARK SMILES IDX 76 13 74 14 75 15 88 16 89 17 90 18 91 19 77 20 78 21 84 22
REMARK SMILES IDX 79 23 83 24 80 25 81 26 82 27 5 29 6 30 7 31 8 32 9 33 10 34
REMARK SMILES IDX 68 35 11 36 67 37 12 38 13 39 14 40 61 41 15 42 66 43 60 44
REMARK SMILES IDX 62 45 16 46 65 47 59 48 58 49 17 51 47 52 28 53 46 54 29 55
REMARK SMILES IDX 32 56 45 57 63 58 30 59 31 60 44 62 64 63 33 64 18 65 19 66
REMARK SMILES IDX 27 67 20 68 26 69 21 70 22 71 23 72 24 73 25 74 48 75 49 76
REMARK SMILES IDX 57 77 50 78 56 79 51 80 52 81 53 82 54 83 55 84 34 85 35 86
REMARK SMILES IDX 43 87 36 88 42 89 37 90 38 91 39 92 40 93 41 94
REMARK H PARENT 82 28 62 50 32 61
REMARK Flexibility Score: inf
ROOT
ATOM      1  C   UNL A   1      32.336  28.317  26.276  1.00  0.00     0.275 C 
ENDROOT
BRANCH   1   2
ATOM      2  O   UNL A   1      33.288  27.095  26.401  1.00  0.00    -0.459 OA
BRANCH   2   3
ATOM      3  C   UNL A   1      32.700  25.940  26.067  1.00  0.00     0.338 C 
ATOM      4  O   UNL A   1      31.973  25.225  26.707  1.00  0.00    -0.246 OA
BRANCH   3   5
ATOM      5  C   UNL A   1      33.562  25.693  24.938  1.00  0.00     0.087 C 
ATOM      6  C   UNL A   1      34.920  25.378  25.285  1.00  0.00     0.027 C 
ATOM      7  C   UNL A   1      32.340  24.562  23.991  1.00  0.00     0.316 C 
ATOM      8  C   UNL A   1      35.614  23.757  25.102  1.00  0.00     0.019 A 
ATOM      9  O   UNL A   1      33.019  22.730  23.916  1.00  0.00    -0.475 OA
ATOM     10  C   UNL A   1      36.891  23.616  25.569  1.00  0.00     0.032 A 
ATOM     11  C   UNL A   1      34.689  22.370  24.604  1.00  0.00     0.135 A 
ATOM     12  C   UNL A   1      37.345  22.306  25.627  1.00  0.00     0.042 A 
ATOM     13  C   UNL A   1      35.191  21.102  24.795  1.00  0.00     0.026 A 
ATOM     14  Cl  UNL A   1      38.948  22.053  26.230  1.00  0.00    -0.084 Cl
ATOM     15  C   UNL A   1      36.550  21.146  25.283  1.00  0.00     0.033 A 
BRANCH   7  16
ATOM     16  C   UNL A   1      32.234  25.867  22.989  1.00  0.00     0.430 C 
ATOM     17  F   UNL A   1      33.308  26.547  22.708  1.00  0.00    -0.167 F 
ATOM     18  F   UNL A   1      31.793  25.420  21.778  1.00  0.00    -0.167 F 
ATOM     19  F   UNL A   1      31.336  26.823  23.360  1.00  0.00    -0.167 F 
ENDBRANCH   7  16
BRANCH  13  20
ATOM     20  C   UNL A   1      34.562  19.788  24.773  1.00  0.00    -0.015 A 
ATOM     21  C   UNL A   1      33.329  19.622  25.447  1.00  0.00     0.009 A 
ATOM     22  C   UNL A   1      35.231  18.644  24.341  1.00  0.00     0.009 A 
ATOM     23  C   UNL A   1      32.804  18.359  25.717  1.00  0.00     0.007 A 
ATOM     24  C   UNL A   1      34.703  17.371  24.609  1.00  0.00     0.007 A 
ATOM     25  C   UNL A   1      33.496  17.217  25.308  1.00  0.00    -0.023 A 
BRANCH  25  26
ATOM     26  C   UNL A   1      32.948  15.855  25.642  1.00  0.00     0.191 C 
BRANCH  26  27
ATOM     27  O   UNL A   1      31.553  15.789  25.359  1.00  0.00    -0.392 OA
ATOM     28  H   UNL A   1      31.230  14.891  25.534  1.00  0.00     0.211 HD
ENDBRANCH  26  27
ENDBRANCH  25  26
ENDBRANCH  13  20
ENDBRANCH   3   5
ENDBRANCH   2   3
ENDBRANCH   1   2
BRANCH   1  29
ATOM     29  C   UNL A   1      32.556  30.248  27.246  1.00  0.00     0.275 C 
BRANCH  29  30
ATOM     30  O   UNL A   1      34.127  30.980  27.608  1.00  0.00    -0.458 OA
BRANCH  30  31
ATOM     31  C   UNL A   1      35.008  31.165  28.679  1.00  0.00     0.338 C 
ATOM     32  O   UNL A   1      34.929  31.958  29.601  1.00  0.00    -0.246 OA
BRANCH  31  33
ATOM     33  C   UNL A   1      35.952  29.982  28.744  1.00  0.00     0.060 A 
ATOM     34  C   UNL A   1      36.613  29.561  27.557  1.00  0.00     0.016 A 
ATOM     35  C   UNL A   1      36.512  29.670  29.982  1.00  0.00     0.016 A 
ATOM     36  C   UNL A   1      37.961  29.110  27.628  1.00  0.00     0.010 A 
ATOM     37  C   UNL A   1      37.833  29.202  30.041  1.00  0.00     0.010 A 
ATOM     38  C   UNL A   1      38.613  29.028  28.874  1.00  0.00    -0.014 A 
BRANCH  38  39
ATOM     39  C   UNL A   1      40.044  28.614  29.046  1.00  0.00     0.031 A 
ATOM     40  C   UNL A   1      40.985  29.723  29.403  1.00  0.00     0.074 A 
ATOM     41  C   UNL A   1      40.548  27.386  28.759  1.00  0.00     0.049 A 
ATOM     42  N   UNL A   1      42.289  29.746  29.397  1.00  0.00    -0.248 NA
ATOM     43  C   UNL A   1      40.350  31.000  29.771  1.00  0.00     0.031 C 
ATOM     44  C   UNL A   1      39.779  26.195  28.398  1.00  0.00     0.029 A 
ATOM     45  N   UNL A   1      41.859  26.938  28.698  1.00  0.00    -0.354 N 
ATOM     46  C   UNL A   1      42.627  31.053  29.716  1.00  0.00     0.074 A 
ATOM     47  C   UNL A   1      41.399  31.795  29.879  1.00  0.00     0.031 C 
ATOM     48  C   UNL A   1      40.621  25.170  28.142  1.00  0.00     0.029 A 
ATOM     49  C   UNL A   1      42.003  25.626  28.280  1.00  0.00     0.049 A 
ATOM     50  H   UNL A   1      42.626  27.509  28.933  1.00  0.00     0.167 HD
ATOM     51  C   UNL A   1      43.853  31.597  29.866  1.00  0.00     0.031 A 
ATOM     52  C   UNL A   1      43.111  24.889  28.018  1.00  0.00     0.031 A 
ATOM     53  C   UNL A   1      45.079  30.874  29.715  1.00  0.00     0.049 A 
ATOM     54  C   UNL A   1      44.478  25.537  28.167  1.00  0.00     0.074 A 
ATOM     55  C   UNL A   1      46.367  31.336  29.904  1.00  0.00     0.029 A 
ATOM     56  N   UNL A   1      45.172  29.548  29.331  1.00  0.00    -0.354 N 
ATOM     57  N   UNL A   1      44.777  26.752  28.565  1.00  0.00    -0.248 NA
ATOM     58  C   UNL A   1      45.659  24.719  27.829  1.00  0.00     0.031 C 
ATOM     59  C   UNL A   1      47.247  30.304  29.573  1.00  0.00     0.029 A 
ATOM     60  C   UNL A   1      46.502  29.183  29.243  1.00  0.00     0.049 A 
ATOM     61  H   UNL A   1      44.407  28.955  29.149  1.00  0.00     0.167 HD
ATOM     62  C   UNL A   1      46.169  26.828  28.553  1.00  0.00     0.074 A 
ATOM     63  C   UNL A   1      46.659  25.535  28.131  1.00  0.00     0.031 C 
ATOM     64  C   UNL A   1      46.973  27.879  28.853  1.00  0.00     0.031 A 
BRANCH  51  65
ATOM     65  C   UNL A   1      43.908  33.059  30.187  1.00  0.00    -0.014 A 
ATOM     66  C   UNL A   1      43.915  34.024  29.165  1.00  0.00     0.010 A 
ATOM     67  C   UNL A   1      43.947  33.468  31.531  1.00  0.00     0.010 A 
ATOM     68  C   UNL A   1      43.987  35.378  29.482  1.00  0.00     0.020 A 
ATOM     69  C   UNL A   1      43.987  34.825  31.852  1.00  0.00     0.020 A 
ATOM     70  C   UNL A   1      44.017  35.770  30.825  1.00  0.00     0.054 A 
BRANCH  70  71
ATOM     71  S   UNL A   1      44.047  37.541  31.204  1.00  0.00     0.124 S 
ATOM     72  O   UNL A   1      45.481  37.822  31.218  1.00  0.00    -0.237 OA
ATOM     73  O   UNL A   1      43.305  38.117  30.086  1.00  0.00    -0.237 OA
ATOM     74  O   UNL A   1      43.382  37.629  32.501  1.00  0.00    -0.744 OA
ENDBRANCH  70  71
ENDBRANCH  51  65
BRANCH  52  75
ATOM     75  C   UNL A   1      43.040  23.463  27.540  1.00  0.00    -0.014 A 
ATOM     76  C   UNL A   1      43.246  23.143  26.181  1.00  0.00     0.010 A 
ATOM     77  C   UNL A   1      42.643  22.430  28.408  1.00  0.00     0.010 A 
ATOM     78  C   UNL A   1      43.011  21.847  25.695  1.00  0.00     0.020 A 
ATOM     79  C   UNL A   1      42.438  21.123  27.935  1.00  0.00     0.020 A 
ATOM     80  C   UNL A   1      42.602  20.844  26.577  1.00  0.00     0.054 A 
BRANCH  80  81
ATOM     81  S   UNL A   1      42.294  19.172  25.931  1.00  0.00     0.124 S 
ATOM     82  O   UNL A   1      40.848  19.180  25.734  1.00  0.00    -0.237 OA
ATOM     83  O   UNL A   1      43.097  19.151  24.711  1.00  0.00    -0.237 OA
ATOM     84  O   UNL A   1      42.773  18.298  26.999  1.00  0.00    -0.744 OA
ENDBRANCH  80  81
ENDBRANCH  52  75
BRANCH  64  85
ATOM     85  C   UNL A   1      48.466  27.686  28.787  1.00  0.00    -0.014 A 
ATOM     86  C   UNL A   1      49.168  27.074  29.840  1.00  0.00     0.010 A 
ATOM     87  C   UNL A   1      49.149  27.995  27.595  1.00  0.00     0.010 A 
ATOM     88  C   UNL A   1      50.528  26.780  29.702  1.00  0.00     0.020 A 
ATOM     89  C   UNL A   1      50.499  27.675  27.443  1.00  0.00     0.020 A 
ATOM     90  C   UNL A   1      51.182  27.072  28.501  1.00  0.00     0.054 A 
BRANCH  90  91
ATOM     91  S   UNL A   1      52.921  26.591  28.316  1.00  0.00     0.124 S 
ATOM     92  O   UNL A   1      53.270  26.181  29.674  1.00  0.00    -0.237 OA
ATOM     93  O   UNL A   1      52.852  25.513  27.332  1.00  0.00    -0.237 OA
ATOM     94  O   UNL A   1      53.573  27.811  27.848  1.00  0.00    -0.744 OA
ENDBRANCH  90  91
ENDBRANCH  64  85
ENDBRANCH  38  39
ENDBRANCH  31  33
ENDBRANCH  30  31
ENDBRANCH  29  30
ENDBRANCH   1  29
TORSDOF 18
ENDMDL
MODEL 2
REMARK VINA RESULT:     -12.7      3.278      9.908
REMARK SMILES O=C(OCCOC(=O)c1ccc(-c2c3nc(c(-c4ccc(S(=O)(=O)[O-])cc4)c4ccc([nH]4)c(-c4ccc(S(=O)(=O)[O-])cc4)c4nc(c(-c5ccc(S(=O)(=O)[O-])cc5)c5ccc2[nH]5)C=C4)C=C3)cc1)C1=Cc2cc(Cl)cc(-c3ccc(CO)cc3)c2O[C@@H]1C(F)(F)F
REMARK SMILES IDX 4 1 3 2 2 3 1 4 69 5 70 6 87 7 71 8 86 9 72 10 85 11 73 12
REMARK SMILES IDX 76 13 74 14 75 15 88 16 89 17 90 18 91 19 77 20 78 21 84 22
REMARK SMILES IDX 79 23 83 24 80 25 81 26 82 27 5 29 6 30 7 31 8 32 9 33 10 34
REMARK SMILES IDX 68 35 11 36 67 37 12 38 13 39 14 40 61 41 15 42 66 43 60 44
REMARK SMILES IDX 62 45 16 46 65 47 59 48 58 49 17 51 47 52 28 53 46 54 29 55
REMARK SMILES IDX 32 56 45 57 63 58 30 59 31 60 44 62 64 63 33 64 18 65 19 66
REMARK SMILES IDX 27 67 20 68 26 69 21 70 22 71 23 72 24 73 25 74 48 75 49 76
REMARK SMILES IDX 57 77 50 78 56 79 51 80 52 81 53 82 54 83 55 84 34 85 35 86
REMARK SMILES IDX 43 87 36 88 42 89 37 90 38 91 39 92 40 93 41 94
REMARK H PARENT 82 28 62 50 32 61
REMARK Flexibility Score: inf
ROOT
ATOM      1  C   UNL A   1      35.452  22.521  24.240  1.00  0.00     0.275 C 
ENDROOT
BRANCH   1   2
ATOM      2  O   UNL A   1      35.296  24.062  24.367  1.00  0.00    -0.459 OA
BRANCH   2   3
ATOM      3  C   UNL A   1      34.215  24.530  23.728  1.00  0.00     0.338 C 
ATOM      4  O   UNL A   1      34.092  24.920  22.597  1.00  0.00    -0.246 OA
BRANCH   3   5
ATOM      5  C   UNL A   1      33.471  24.788  24.935  1.00  0.00     0.087 C 
ATOM      6  C   UNL A   1      33.946  25.908  25.699  1.00  0.00     0.027 C 
ATOM      7  C   UNL A   1      31.734  24.606  24.146  1.00  0.00     0.316 C 
ATOM      8  C   UNL A   1      33.060  27.440  25.824  1.00  0.00     0.019 A 
ATOM      9  O   UNL A   1      30.803  26.324  24.133  1.00  0.00    -0.475 OA
ATOM     10  C   UNL A   1      33.705  28.428  26.514  1.00  0.00     0.032 A 
ATOM     11  C   UNL A   1      31.601  27.776  24.938  1.00  0.00     0.135 A 
ATOM     12  C   UNL A   1      33.114  29.680  26.419  1.00  0.00     0.042 A 
ATOM     13  C   UNL A   1      31.149  29.072  24.821  1.00  0.00     0.026 A 
ATOM     14  Cl  UNL A   1      33.890  30.983  27.253  1.00  0.00    -0.084 Cl
ATOM     15  C   UNL A   1      31.942  29.976  25.623  1.00  0.00     0.033 A 
BRANCH   7  16
ATOM     16  C   UNL A   1      31.710  23.211  25.024  1.00  0.00     0.430 C 
ATOM     17  F   UNL A   1      30.590  22.803  25.547  1.00  0.00    -0.167 F 
ATOM     18  F   UNL A   1      32.082  22.196  24.193  1.00  0.00    -0.167 F 
ATOM     19  F   UNL A   1      32.589  23.156  26.065  1.00  0.00    -0.167 F 
ENDBRANCH   7  16
BRANCH  13  20
ATOM     20  C   UNL A   1      30.178  29.693  23.929  1.00  0.00    -0.015 A 
ATOM     21  C   UNL A   1      30.151  29.280  22.575  1.00  0.00     0.009 A 
ATOM     22  C   UNL A   1      29.459  30.833  24.280  1.00  0.00     0.009 A 
ATOM     23  C   UNL A   1      29.465  30.005  21.602  1.00  0.00     0.007 A 
ATOM     24  C   UNL A   1      28.766  31.563  23.301  1.00  0.00     0.007 A 
ATOM     25  C   UNL A   1      28.773  31.164  21.956  1.00  0.00    -0.023 A 
BRANCH  25  26
ATOM     26  C   UNL A   1      28.072  31.968  20.893  1.00  0.00     0.191 C 
BRANCH  26  27
ATOM     27  O   UNL A   1      27.949  33.330  21.290  1.00  0.00    -0.392 OA
ATOM     28  H   UNL A   1      28.381  33.457  22.150  1.00  0.00     0.211 HD
ENDBRANCH  26  27
ENDBRANCH  25  26
ENDBRANCH  13  20
ENDBRANCH   3   5
ENDBRANCH   2   3
ENDBRANCH   1   2
BRANCH   1  29
ATOM     29  C   UNL A   1      37.059  21.302  25.047  1.00  0.00     0.275 C 
BRANCH  29  30
ATOM     30  O   UNL A   1      38.685  21.924  25.366  1.00  0.00    -0.458 OA
BRANCH  30  31
ATOM     31  C   UNL A   1      39.729  21.787  26.287  1.00  0.00     0.338 C 
ATOM     32  O   UNL A   1      40.693  21.044  26.239  1.00  0.00    -0.246 OA
BRANCH  31  33
ATOM     33  C   UNL A   1      39.695  22.963  27.242  1.00  0.00     0.060 A 
ATOM     34  C   UNL A   1      40.821  23.206  28.076  1.00  0.00     0.016 A 
ATOM     35  C   UNL A   1      38.830  24.014  26.943  1.00  0.00     0.016 A 
ATOM     36  C   UNL A   1      41.223  24.547  28.337  1.00  0.00     0.010 A 
ATOM     37  C   UNL A   1      39.223  25.330  27.226  1.00  0.00     0.010 A 
ATOM     38  C   UNL A   1      40.472  25.621  27.819  1.00  0.00    -0.014 A 
BRANCH  38  39
ATOM     39  C   UNL A   1      40.842  27.064  27.997  1.00  0.00     0.031 A 
ATOM     40  C   UNL A   1      42.247  27.409  27.608  1.00  0.00     0.074 A 
ATOM     41  C   UNL A   1      40.075  28.004  28.606  1.00  0.00     0.049 A 
ATOM     42  N   UNL A   1      42.939  28.488  27.848  1.00  0.00    -0.248 NA
ATOM     43  C   UNL A   1      42.983  26.356  26.887  1.00  0.00     0.031 C 
ATOM     44  C   UNL A   1      38.689  27.841  29.046  1.00  0.00     0.029 A 
ATOM     45  N   UNL A   1      40.372  29.302  28.992  1.00  0.00    -0.354 N 
ATOM     46  C   UNL A   1      44.204  28.224  27.347  1.00  0.00     0.074 A 
ATOM     47  C   UNL A   1      44.194  26.880  26.820  1.00  0.00     0.031 C 
ATOM     48  C   UNL A   1      38.267  28.975  29.647  1.00  0.00     0.029 A 
ATOM     49  C   UNL A   1      39.357  29.948  29.679  1.00  0.00     0.049 A 
ATOM     50  H   UNL A   1      41.237  29.730  28.795  1.00  0.00     0.167 HD
ATOM     51  C   UNL A   1      45.289  29.027  27.321  1.00  0.00     0.031 A 
ATOM     52  C   UNL A   1      39.319  31.165  30.277  1.00  0.00     0.031 A 
ATOM     53  C   UNL A   1      45.314  30.364  27.832  1.00  0.00     0.049 A 
ATOM     54  C   UNL A   1      40.564  32.035  30.257  1.00  0.00     0.074 A 
ATOM     55  C   UNL A   1      46.357  31.268  27.796  1.00  0.00     0.029 A 
ATOM     56  N   UNL A   1      44.258  30.982  28.478  1.00  0.00    -0.354 N 
ATOM     57  N   UNL A   1      41.725  31.803  29.692  1.00  0.00    -0.248 NA
ATOM     58  C   UNL A   1      40.498  33.332  30.959  1.00  0.00     0.031 C 
ATOM     59  C   UNL A   1      45.953  32.418  28.477  1.00  0.00     0.029 A 
ATOM     60  C   UNL A   1      44.638  32.249  28.878  1.00  0.00     0.049 A 
ATOM     61  H   UNL A   1      43.372  30.580  28.630  1.00  0.00     0.167 HD
ATOM     62  C   UNL A   1      42.508  32.928  29.943  1.00  0.00     0.074 A 
ATOM     63  C   UNL A   1      41.688  33.854  30.692  1.00  0.00     0.031 C 
ATOM     64  C   UNL A   1      43.796  33.172  29.595  1.00  0.00     0.031 A 
BRANCH  51  65
ATOM     65  C   UNL A   1      46.542  28.451  26.736  1.00  0.00    -0.014 A 
ATOM     66  C   UNL A   1      47.541  27.906  27.560  1.00  0.00     0.010 A 
ATOM     67  C   UNL A   1      46.714  28.450  25.341  1.00  0.00     0.010 A 
ATOM     68  C   UNL A   1      48.709  27.394  26.999  1.00  0.00     0.020 A 
ATOM     69  C   UNL A   1      47.867  27.909  24.774  1.00  0.00     0.020 A 
ATOM     70  C   UNL A   1      48.861  27.393  25.609  1.00  0.00     0.054 A 
BRANCH  70  71
ATOM     71  S   UNL A   1      50.362  26.662  24.909  1.00  0.00     0.124 S 
ATOM     72  O   UNL A   1      49.963  26.422  23.523  1.00  0.00    -0.237 OA
ATOM     73  O   UNL A   1      51.351  27.718  25.103  1.00  0.00    -0.237 OA
ATOM     74  O   UNL A   1      50.571  25.460  25.713  1.00  0.00    -0.744 OA
ENDBRANCH  70  71
ENDBRANCH  51  65
BRANCH  52  75
ATOM     75  C   UNL A   1      38.100  31.669  31.005  1.00  0.00    -0.014 A 
ATOM     76  C   UNL A   1      37.138  32.462  30.344  1.00  0.00     0.010 A 
ATOM     77  C   UNL A   1      37.951  31.469  32.389  1.00  0.00     0.010 A 
ATOM     78  C   UNL A   1      36.094  33.079  31.052  1.00  0.00     0.020 A 
ATOM     79  C   UNL A   1      36.890  32.056  33.098  1.00  0.00     0.020 A 
ATOM     80  C   UNL A   1      35.980  32.876  32.429  1.00  0.00     0.054 A 
BRANCH  80  81
ATOM     81  S   UNL A   1      34.627  33.689  33.332  1.00  0.00     0.124 S 
ATOM     82  O   UNL A   1      35.033  33.508  34.722  1.00  0.00    -0.237 OA
ATOM     83  O   UNL A   1      34.689  35.059  32.830  1.00  0.00    -0.237 OA
ATOM     84  O   UNL A   1      33.442  32.936  32.925  1.00  0.00    -0.744 OA
ENDBRANCH  80  81
ENDBRANCH  52  75
BRANCH  64  85
ATOM     85  C   UNL A   1      44.405  34.498  29.970  1.00  0.00    -0.014 A 
ATOM     86  C   UNL A   1      44.256  35.626  29.145  1.00  0.00     0.010 A 
ATOM     87  C   UNL A   1      45.012  34.646  31.231  1.00  0.00     0.010 A 
ATOM     88  C   UNL A   1      44.709  36.878  29.574  1.00  0.00     0.020 A 
ATOM     89  C   UNL A   1      45.436  35.900  31.676  1.00  0.00     0.020 A 
ATOM     90  C   UNL A   1      45.286  37.009  30.842  1.00  0.00     0.054 A 
BRANCH  90  91
ATOM     91  S   UNL A   1      45.774  38.660  31.411  1.00  0.00     0.124 S 
ATOM     92  O   UNL A   1      47.189  38.701  31.049  1.00  0.00    -0.237 OA
ATOM     93  O   UNL A   1      44.901  39.537  30.634  1.00  0.00    -0.237 OA
ATOM     94  O   UNL A   1      45.500  38.630  32.845  1.00  0.00    -0.744 OA
ENDBRANCH  90  91
ENDBRANCH  64  85
ENDBRANCH  38  39
ENDBRANCH  31  33
ENDBRANCH  30  31
ENDBRANCH  29  30
ENDBRANCH   1  29
TORSDOF 18
ENDMDL
MODEL 3
REMARK VINA RESULT:     -12.5      3.554     10.160
REMARK SMILES O=C(OCCOC(=O)c1ccc(-c2c3nc(c(-c4ccc(S(=O)(=O)[O-])cc4)c4ccc([nH]4)c(-c4ccc(S(=O)(=O)[O-])cc4)c4nc(c(-c5ccc(S(=O)(=O)[O-])cc5)c5ccc2[nH]5)C=C4)C=C3)cc1)C1=Cc2cc(Cl)cc(-c3ccc(CO)cc3)c2O[C@@H]1C(F)(F)F
REMARK SMILES IDX 4 1 3 2 2 3 1 4 69 5 70 6 87 7 71 8 86 9 72 10 85 11 73 12
REMARK SMILES IDX 76 13 74 14 75 15 88 16 89 17 90 18 91 19 77 20 78 21 84 22
REMARK SMILES IDX 79 23 83 24 80 25 81 26 82 27 5 29 6 30 7 31 8 32 9 33 10 34
REMARK SMILES IDX 68 35 11 36 67 37 12 38 13 39 14 40 61 41 15 42 66 43 60 44
REMARK SMILES IDX 62 45 16 46 65 47 59 48 58 49 17 51 47 52 28 53 46 54 29 55
REMARK SMILES IDX 32 56 45 57 63 58 30 59 31 60 44 62 64 63 33 64 18 65 19 66
REMARK SMILES IDX 27 67 20 68 26 69 21 70 22 71 23 72 24 73 25 74 48 75 49 76
REMARK SMILES IDX 57 77 50 78 56 79 51 80 52 81 53 82 54 83 55 84 34 85 35 86
REMARK SMILES IDX 43 87 36 88 42 89 37 90 38 91 39 92 40 93 41 94
REMARK H PARENT 82 28 62 50 32 61
REMARK Flexibility Score: inf
ROOT
ATOM      1  C   UNL A   1      36.335  22.697  24.259  1.00  0.00     0.275 C 
ENDROOT
BRANCH   1   2
ATOM      2  O   UNL A   1      35.648  24.017  24.706  1.00  0.00    -0.459 OA
BRANCH   2   3
ATOM      3  C   UNL A   1      34.556  24.306  23.987  1.00  0.00     0.338 C 
ATOM      4  O   UNL A   1      34.445  24.569  22.818  1.00  0.00    -0.246 OA
BRANCH   3   5
ATOM      5  C   UNL A   1      33.735  24.600  25.134  1.00  0.00     0.087 C 
ATOM      6  C   UNL A   1      34.219  25.679  25.950  1.00  0.00     0.027 C 
ATOM      7  C   UNL A   1      32.059  24.541  24.207  1.00  0.00     0.316 C 
ATOM      8  C   UNL A   1      33.428  27.264  26.027  1.00  0.00     0.019 A 
ATOM      9  O   UNL A   1      31.245  26.316  24.147  1.00  0.00    -0.475 OA
ATOM     10  C   UNL A   1      34.078  28.201  26.782  1.00  0.00     0.032 A 
ATOM     11  C   UNL A   1      32.069  27.705  25.034  1.00  0.00     0.135 A 
ATOM     12  C   UNL A   1      33.578  29.490  26.659  1.00  0.00     0.042 A 
ATOM     13  C   UNL A   1      31.712  29.028  24.901  1.00  0.00     0.026 A 
ATOM     14  Cl  UNL A   1      34.368  30.731  27.571  1.00  0.00    -0.084 Cl
ATOM     15  C   UNL A   1      32.495  29.870  25.777  1.00  0.00     0.033 A 
BRANCH   7  16
ATOM     16  C   UNL A   1      31.875  23.141  25.060  1.00  0.00     0.430 C 
ATOM     17  F   UNL A   1      30.690  22.795  25.473  1.00  0.00    -0.167 F 
ATOM     18  F   UNL A   1      32.263  22.114  24.252  1.00  0.00    -0.167 F 
ATOM     19  F   UNL A   1      32.650  23.025  26.176  1.00  0.00    -0.167 F 
ENDBRANCH   7  16
BRANCH  13  20
ATOM     20  C   UNL A   1      30.858  29.720  23.945  1.00  0.00    -0.015 A 
ATOM     21  C   UNL A   1      30.079  30.808  24.406  1.00  0.00     0.009 A 
ATOM     22  C   UNL A   1      30.585  29.211  22.677  1.00  0.00     0.009 A 
ATOM     23  C   UNL A   1      29.039  31.340  23.646  1.00  0.00     0.007 A 
ATOM     24  C   UNL A   1      29.539  29.746  21.909  1.00  0.00     0.007 A 
ATOM     25  C   UNL A   1      28.751  30.803  22.389  1.00  0.00    -0.023 A 
BRANCH  25  26
ATOM     26  C   UNL A   1      27.597  31.350  21.592  1.00  0.00     0.191 C 
BRANCH  26  27
ATOM     27  O   UNL A   1      27.538  30.740  20.306  1.00  0.00    -0.392 OA
ATOM     28  H   UNL A   1      26.754  31.059  19.832  1.00  0.00     0.211 HD
ENDBRANCH  26  27
ENDBRANCH  25  26
ENDBRANCH  13  20
ENDBRANCH   3   5
ENDBRANCH   2   3
ENDBRANCH   1   2
BRANCH   1  29
ATOM     29  C   UNL A   1      37.685  21.466  25.434  1.00  0.00     0.275 C 
BRANCH  29  30
ATOM     30  O   UNL A   1      39.391  21.865  25.689  1.00  0.00    -0.458 OA
BRANCH  30  31
ATOM     31  C   UNL A   1      40.218  22.516  26.611  1.00  0.00     0.338 C 
ATOM     32  O   UNL A   1      41.315  22.177  27.020  1.00  0.00    -0.246 OA
BRANCH  31  33
ATOM     33  C   UNL A   1      39.714  23.931  26.806  1.00  0.00     0.060 A 
ATOM     34  C   UNL A   1      39.054  24.266  28.022  1.00  0.00     0.016 A 
ATOM     35  C   UNL A   1      40.316  24.941  26.058  1.00  0.00     0.016 A 
ATOM     36  C   UNL A   1      39.276  25.544  28.609  1.00  0.00     0.010 A 
ATOM     37  C   UNL A   1      40.507  26.204  26.636  1.00  0.00     0.010 A 
ATOM     38  C   UNL A   1      40.095  26.487  27.958  1.00  0.00    -0.014 A 
BRANCH  38  39
ATOM     39  C   UNL A   1      40.428  27.837  28.520  1.00  0.00     0.031 A 
ATOM     40  C   UNL A   1      41.776  27.940  29.164  1.00  0.00     0.074 A 
ATOM     41  C   UNL A   1      39.567  28.883  28.619  1.00  0.00     0.049 A 
ATOM     42  N   UNL A   1      42.267  28.874  29.930  1.00  0.00    -0.248 NA
ATOM     43  C   UNL A   1      42.674  26.792  28.945  1.00  0.00     0.031 C 
ATOM     44  C   UNL A   1      38.221  28.955  28.050  1.00  0.00     0.029 A 
ATOM     45  N   UNL A   1      39.692  30.098  29.274  1.00  0.00    -0.354 N 
ATOM     46  C   UNL A   1      43.512  28.404  30.319  1.00  0.00     0.074 A 
ATOM     47  C   UNL A   1      43.688  27.096  29.733  1.00  0.00     0.031 C 
ATOM     48  C   UNL A   1      37.647  30.130  28.389  1.00  0.00     0.029 A 
ATOM     49  C   UNL A   1      38.560  30.895  29.236  1.00  0.00     0.049 A 
ATOM     50  H   UNL A   1      40.521  30.372  29.731  1.00  0.00     0.167 HD
ATOM     51  C   UNL A   1      44.438  29.005  31.095  1.00  0.00     0.031 A 
ATOM     52  C   UNL A   1      38.285  32.084  29.828  1.00  0.00     0.031 A 
ATOM     53  C   UNL A   1      44.283  30.303  31.677  1.00  0.00     0.049 A 
ATOM     54  C   UNL A   1      39.337  32.723  30.720  1.00  0.00     0.074 A 
ATOM     55  C   UNL A   1      45.197  31.011  32.433  1.00  0.00     0.029 A 
ATOM     56  N   UNL A   1      43.143  31.081  31.578  1.00  0.00    -0.354 N 
ATOM     57  N   UNL A   1      40.549  32.304  30.998  1.00  0.00    -0.248 NA
ATOM     58  C   UNL A   1      38.984  33.993  31.384  1.00  0.00     0.031 C 
ATOM     59  C   UNL A   1      44.587  32.196  32.847  1.00  0.00     0.029 A 
ATOM     60  C   UNL A   1      43.318  32.252  32.292  1.00  0.00     0.049 A 
ATOM     61  H   UNL A   1      42.332  30.838  31.077  1.00  0.00     0.167 HD
ATOM     62  C   UNL A   1      41.107  33.268  31.837  1.00  0.00     0.074 A 
ATOM     63  C   UNL A   1      40.113  34.304  32.007  1.00  0.00     0.031 C 
ATOM     64  C   UNL A   1      42.329  33.290  32.424  1.00  0.00     0.031 A 
BRANCH  51  65
ATOM     65  C   UNL A   1      45.692  28.232  31.371  1.00  0.00    -0.014 A 
ATOM     66  C   UNL A   1      45.813  27.439  32.524  1.00  0.00     0.010 A 
ATOM     67  C   UNL A   1      46.757  28.298  30.457  1.00  0.00     0.010 A 
ATOM     68  C   UNL A   1      46.995  26.744  32.775  1.00  0.00     0.020 A 
ATOM     69  C   UNL A   1      47.929  27.578  30.688  1.00  0.00     0.020 A 
ATOM     70  C   UNL A   1      48.043  26.813  31.852  1.00  0.00     0.054 A 
BRANCH  70  71
ATOM     71  S   UNL A   1      49.540  25.847  32.175  1.00  0.00     0.124 S 
ATOM     72  O   UNL A   1      48.993  24.648  32.807  1.00  0.00    -0.237 OA
ATOM     73  O   UNL A   1      50.089  25.656  30.836  1.00  0.00    -0.237 OA
ATOM     74  O   UNL A   1      50.327  26.709  33.053  1.00  0.00    -0.744 OA
ENDBRANCH  70  71
ENDBRANCH  51  65
BRANCH  52  75
ATOM     75  C   UNL A   1      36.957  32.777  29.672  1.00  0.00    -0.014 A 
ATOM     76  C   UNL A   1      36.672  33.550  28.526  1.00  0.00     0.010 A 
ATOM     77  C   UNL A   1      36.015  32.775  30.717  1.00  0.00     0.010 A 
ATOM     78  C   UNL A   1      35.512  34.337  28.451  1.00  0.00     0.020 A 
ATOM     79  C   UNL A   1      34.837  33.534  30.634  1.00  0.00     0.020 A 
ATOM     80  C   UNL A   1      34.603  34.329  29.510  1.00  0.00     0.054 A 
BRANCH  80  81
ATOM     81  S   UNL A   1      33.108  35.360  29.399  1.00  0.00     0.124 S 
ATOM     82  O   UNL A   1      32.361  34.705  28.331  1.00  0.00    -0.237 OA
ATOM     83  O   UNL A   1      32.537  35.235  30.738  1.00  0.00    -0.237 OA
ATOM     84  O   UNL A   1      33.631  36.686  29.074  1.00  0.00    -0.744 OA
ENDBRANCH  80  81
ENDBRANCH  52  75
BRANCH  64  85
ATOM     85  C   UNL A   1      42.699  34.479  33.272  1.00  0.00    -0.014 A 
ATOM     86  C   UNL A   1      42.489  34.475  34.662  1.00  0.00     0.010 A 
ATOM     87  C   UNL A   1      43.394  35.554  32.686  1.00  0.00     0.010 A 
ATOM     88  C   UNL A   1      42.964  35.529  35.449  1.00  0.00     0.020 A 
ATOM     89  C   UNL A   1      43.897  36.592  33.473  1.00  0.00     0.020 A 
ATOM     90  C   UNL A   1      43.675  36.575  34.851  1.00  0.00     0.054 A 
BRANCH  90  91
ATOM     91  S   UNL A   1      44.363  37.878  35.909  1.00  0.00     0.124 S 
ATOM     92  O   UNL A   1      44.004  39.088  35.174  1.00  0.00    -0.237 OA
ATOM     93  O   UNL A   1      43.653  37.675  37.169  1.00  0.00    -0.237 OA
ATOM     94  O   UNL A   1      45.791  37.575  35.950  1.00  0.00    -0.744 OA
ENDBRANCH  90  91
ENDBRANCH  64  85
ENDBRANCH  38  39
ENDBRANCH  31  33
ENDBRANCH  30  31
ENDBRANCH  29  30
ENDBRANCH   1  29
TORSDOF 18
ENDMDL
