MODEL 1
REMARK VINA RESULT:      -9.7      0.000      0.000
REMARK SMILES CCOC(=O)c1ccc(-c2ccc(C(=O)OCCOC(=O)c3ccc(-c4c5nc(c(-c6ccc(S(=O)(=O)[O-])cc6)c6ccc([nH]6)c(-c6ccc(S(=O)(=O)[O-])cc6)c6nc(c(-c7ccc(S(=O)(=O)[O-])cc7)c7ccc4[nH]7)C=C6)C=C5)cc3)o2)cc1
REMARK SMILES IDX 17 1 16 2 14 3 15 4 13 5 10 6 11 7 82 8 12 9 9 10 6 11 7 12
REMARK SMILES IDX 84 13 8 14 83 15 4 16 5 17 3 18 2 19 1 20 18 21 19 22 20 23
REMARK SMILES IDX 21 24 22 25 23 26 81 27 24 28 80 29 25 30 26 31 27 32 74 33
REMARK SMILES IDX 28 34 79 35 73 36 75 37 29 38 78 39 72 40 71 41 30 43 60 44
REMARK SMILES IDX 41 45 59 46 42 47 45 48 58 49 76 50 43 51 44 52 57 54 77 55
REMARK SMILES IDX 46 56 31 57 32 58 40 59 33 60 39 61 34 62 35 63 36 64 37 65
REMARK SMILES IDX 38 66 61 67 62 68 70 69 63 70 69 71 64 72 65 73 66 74 67 75
REMARK SMILES IDX 68 76 47 77 48 78 56 79 49 80 55 81 50 82 51 83 52 84 53 85
REMARK SMILES IDX 54 86
REMARK H PARENT 75 42 45 53
REMARK Flexibility Score: inf
ROOT
ATOM      1  C   UNL A   1      40.615  19.939  26.592  1.00  0.00     0.275 C 
ENDROOT
BRANCH   1   2
ATOM      2  O   UNL A   1      41.437  19.702  25.435  1.00  0.00    -0.456 OA
BRANCH   2   3
ATOM      3  C   UNL A   1      42.588  18.995  25.657  1.00  0.00     0.374 C 
ATOM      4  O   UNL A   1      42.620  17.859  26.106  1.00  0.00    -0.242 OA
BRANCH   3   5
ATOM      5  C   UNL A   1      43.730  19.757  25.205  1.00  0.00     0.212 A 
ATOM      6  C   UNL A   1      44.834  21.639  24.874  1.00  0.00     0.135 A 
ATOM      7  C   UNL A   1      45.735  20.621  24.653  1.00  0.00     0.052 A 
ATOM      8  O   UNL A   1      43.605  21.124  25.151  1.00  0.00    -0.449 OA
ATOM      9  C   UNL A   1      45.027  19.411  24.866  1.00  0.00     0.059 A 
BRANCH   6  10
ATOM     10  C   UNL A   1      44.943  23.083  24.947  1.00  0.00     0.017 A 
ATOM     11  C   UNL A   1      45.114  25.872  25.173  1.00  0.00     0.060 A 
ATOM     12  C   UNL A   1      43.864  25.260  25.032  1.00  0.00     0.016 A 
ATOM     13  C   UNL A   1      46.279  25.095  25.184  1.00  0.00     0.016 A 
ATOM     14  C   UNL A   1      43.782  23.870  24.913  1.00  0.00     0.013 A 
ATOM     15  C   UNL A   1      46.191  23.703  25.071  1.00  0.00     0.013 A 
BRANCH  11  16
ATOM     16  C   UNL A   1      45.169  27.334  25.396  1.00  0.00     0.338 C 
ATOM     17  O   UNL A   1      45.649  28.114  24.591  1.00  0.00    -0.246 OA
BRANCH  16  18
ATOM     18  O   UNL A   1      44.611  27.634  26.593  1.00  0.00    -0.462 OA
BRANCH  18  19
ATOM     19  C   UNL A   1      43.804  28.821  26.624  1.00  0.00     0.230 C 
ATOM     20  C   UNL A   1      42.482  28.631  25.903  1.00  0.00     0.049 C 
ENDBRANCH  18  19
ENDBRANCH  16  18
ENDBRANCH  11  16
ENDBRANCH   6  10
ENDBRANCH   3   5
ENDBRANCH   2   3
ENDBRANCH   1   2
BRANCH   1  21
ATOM     21  C   UNL A   1      40.305  21.430  26.768  1.00  0.00     0.275 C 
BRANCH  21  22
ATOM     22  O   UNL A   1      39.508  21.950  25.688  1.00  0.00    -0.458 OA
BRANCH  22  23
ATOM     23  C   UNL A   1      38.560  22.847  26.051  1.00  0.00     0.338 C 
ATOM     24  O   UNL A   1      37.352  22.713  25.945  1.00  0.00    -0.246 OA
BRANCH  23  25
ATOM     25  C   UNL A   1      39.184  23.991  26.741  1.00  0.00     0.060 A 
ATOM     26  C   UNL A   1      38.808  24.229  28.065  1.00  0.00     0.016 A 
ATOM     27  C   UNL A   1      40.070  24.855  26.095  1.00  0.00     0.016 A 
ATOM     28  C   UNL A   1      39.313  25.328  28.753  1.00  0.00     0.010 A 
ATOM     29  C   UNL A   1      40.572  25.968  26.783  1.00  0.00     0.010 A 
ATOM     30  C   UNL A   1      40.187  26.216  28.113  1.00  0.00    -0.014 A 
BRANCH  30  31
ATOM     31  C   UNL A   1      40.645  27.425  28.839  1.00  0.00     0.031 A 
ATOM     32  C   UNL A   1      42.036  27.476  29.406  1.00  0.00     0.074 A 
ATOM     33  C   UNL A   1      39.835  28.495  28.937  1.00  0.00     0.049 A 
ATOM     34  N   UNL A   1      42.627  28.445  30.055  1.00  0.00    -0.248 NA
ATOM     35  C   UNL A   1      42.872  26.280  29.214  1.00  0.00     0.031 C 
ATOM     36  C   UNL A   1      38.481  28.582  28.388  1.00  0.00     0.029 A 
ATOM     37  N   UNL A   1      40.040  29.719  29.523  1.00  0.00    -0.354 N 
ATOM     38  C   UNL A   1      43.900  27.978  30.358  1.00  0.00     0.074 A 
ATOM     39  C   UNL A   1      43.989  26.629  29.838  1.00  0.00     0.031 C 
ATOM     40  C   UNL A   1      37.980  29.800  28.655  1.00  0.00     0.029 A 
ATOM     41  C   UNL A   1      38.963  30.566  29.418  1.00  0.00     0.049 A 
ATOM     42  H   UNL A   1      40.878  29.967  29.976  1.00  0.00     0.167 HD
ATOM     43  C   UNL A   1      44.905  28.615  31.006  1.00  0.00     0.031 A 
ATOM     44  C   UNL A   1      38.782  31.814  29.893  1.00  0.00     0.031 A 
ATOM     45  C   UNL A   1      44.814  29.953  31.528  1.00  0.00     0.049 A 
ATOM     46  C   UNL A   1      39.894  32.479  30.655  1.00  0.00     0.074 A 
ATOM     47  C   UNL A   1      45.779  30.683  32.200  1.00  0.00     0.029 A 
ATOM     48  N   UNL A   1      43.691  30.762  31.439  1.00  0.00    -0.354 N 
ATOM     49  N   UNL A   1      41.093  32.024  30.929  1.00  0.00    -0.248 NA
ATOM     50  C   UNL A   1      39.630  33.831  31.169  1.00  0.00     0.031 C 
ATOM     51  C   UNL A   1      45.225  31.919  32.552  1.00  0.00     0.029 A 
ATOM     52  C   UNL A   1      43.932  31.976  32.060  1.00  0.00     0.049 A 
ATOM     53  H   UNL A   1      42.848  30.511  30.998  1.00  0.00     0.167 HD
ATOM     54  C   UNL A   1      41.733  33.038  31.633  1.00  0.00     0.074 A 
ATOM     55  C   UNL A   1      40.793  34.137  31.730  1.00  0.00     0.031 C 
ATOM     56  C   UNL A   1      42.985  33.057  32.153  1.00  0.00     0.031 A 
BRANCH  43  57
ATOM     57  C   UNL A   1      46.182  27.849  31.218  1.00  0.00    -0.014 A 
ATOM     58  C   UNL A   1      46.361  27.030  32.346  1.00  0.00     0.010 A 
ATOM     59  C   UNL A   1      47.210  27.933  30.260  1.00  0.00     0.010 A 
ATOM     60  C   UNL A   1      47.563  26.340  32.534  1.00  0.00     0.020 A 
ATOM     61  C   UNL A   1      48.403  27.229  30.434  1.00  0.00     0.020 A 
ATOM     62  C   UNL A   1      48.580  26.452  31.581  1.00  0.00     0.054 A 
BRANCH  62  63
ATOM     63  S   UNL A   1      50.130  25.545  31.843  1.00  0.00     0.124 S 
ATOM     64  O   UNL A   1      50.370  24.974  30.520  1.00  0.00    -0.237 OA
ATOM     65  O   UNL A   1      51.057  26.598  32.251  1.00  0.00    -0.237 OA
ATOM     66  O   UNL A   1      49.793  24.580  32.887  1.00  0.00    -0.744 OA
ENDBRANCH  62  63
ENDBRANCH  43  57
BRANCH  44  67
ATOM     67  C   UNL A   1      37.485  32.507  29.674  1.00  0.00    -0.014 A 
ATOM     68  C   UNL A   1      36.515  32.555  30.691  1.00  0.00     0.010 A 
ATOM     69  C   UNL A   1      37.219  33.134  28.443  1.00  0.00     0.010 A 
ATOM     70  C   UNL A   1      35.299  33.211  30.476  1.00  0.00     0.020 A 
ATOM     71  C   UNL A   1      36.014  33.810  28.233  1.00  0.00     0.020 A 
ATOM     72  C   UNL A   1      35.057  33.835  29.249  1.00  0.00     0.054 A 
BRANCH  72  73
ATOM     73  S   UNL A   1      33.496  34.730  29.008  1.00  0.00     0.124 S 
ATOM     74  O   UNL A   1      33.960  36.017  28.502  1.00  0.00    -0.237 OA
ATOM     75  O   UNL A   1      32.791  33.888  28.044  1.00  0.00    -0.237 OA
ATOM     76  O   UNL A   1      32.908  34.755  30.345  1.00  0.00    -0.744 OA
ENDBRANCH  72  73
ENDBRANCH  44  67
BRANCH  56  77
ATOM     77  C   UNL A   1      43.419  34.315  32.855  1.00  0.00    -0.014 A 
ATOM     78  C   UNL A   1      43.242  34.469  34.241  1.00  0.00     0.010 A 
ATOM     79  C   UNL A   1      44.055  35.335  32.125  1.00  0.00     0.010 A 
ATOM     80  C   UNL A   1      43.667  35.637  34.881  1.00  0.00     0.020 A 
ATOM     81  C   UNL A   1      44.501  36.494  32.764  1.00  0.00     0.020 A 
ATOM     82  C   UNL A   1      44.290  36.644  34.137  1.00  0.00     0.054 A 
BRANCH  82  83
ATOM     83  S   UNL A   1      44.870  38.135  34.993  1.00  0.00     0.124 S 
ATOM     84  O   UNL A   1      46.011  38.532  34.173  1.00  0.00    -0.237 OA
ATOM     85  O   UNL A   1      43.710  39.020  34.925  1.00  0.00    -0.237 OA
ATOM     86  O   UNL A   1      45.202  37.657  36.333  1.00  0.00    -0.744 OA
ENDBRANCH  82  83
ENDBRANCH  56  77
ENDBRANCH  30  31
ENDBRANCH  23  25
ENDBRANCH  22  23
ENDBRANCH  21  22
ENDBRANCH   1  21
TORSDOF 18
ENDMDL
MODEL 2
REMARK VINA RESULT:      -9.3      3.978      6.305
REMARK SMILES CCOC(=O)c1ccc(-c2ccc(C(=O)OCCOC(=O)c3ccc(-c4c5nc(c(-c6ccc(S(=O)(=O)[O-])cc6)c6ccc([nH]6)c(-c6ccc(S(=O)(=O)[O-])cc6)c6nc(c(-c7ccc(S(=O)(=O)[O-])cc7)c7ccc4[nH]7)C=C6)C=C5)cc3)o2)cc1
REMARK SMILES IDX 17 1 16 2 14 3 15 4 13 5 10 6 11 7 82 8 12 9 9 10 6 11 7 12
REMARK SMILES IDX 84 13 8 14 83 15 4 16 5 17 3 18 2 19 1 20 18 21 19 22 20 23
REMARK SMILES IDX 21 24 22 25 23 26 81 27 24 28 80 29 25 30 26 31 27 32 74 33
REMARK SMILES IDX 28 34 79 35 73 36 75 37 29 38 78 39 72 40 71 41 30 43 60 44
REMARK SMILES IDX 41 45 59 46 42 47 45 48 58 49 76 50 43 51 44 52 57 54 77 55
REMARK SMILES IDX 46 56 31 57 32 58 40 59 33 60 39 61 34 62 35 63 36 64 37 65
REMARK SMILES IDX 38 66 61 67 62 68 70 69 63 70 69 71 64 72 65 73 66 74 67 75
REMARK SMILES IDX 68 76 47 77 48 78 56 79 49 80 55 81 50 82 51 83 52 84 53 85
REMARK SMILES IDX 54 86
REMARK H PARENT 75 42 45 53
REMARK Flexibility Score: inf
ROOT
ATOM      1  C   UNL A   1      42.935  21.699  26.359  1.00  0.00     0.275 C 
ENDROOT
BRANCH   1   2
ATOM      2  O   UNL A   1      41.667  21.484  25.713  1.00  0.00    -0.456 OA
BRANCH   2   3
ATOM      3  C   UNL A   1      40.609  21.239  26.546  1.00  0.00     0.374 C 
ATOM      4  O   UNL A   1      40.586  20.351  27.384  1.00  0.00    -0.242 OA
BRANCH   3   5
ATOM      5  C   UNL A   1      39.579  22.232  26.340  1.00  0.00     0.212 A 
ATOM      6  C   UNL A   1      37.599  22.895  25.627  1.00  0.00     0.135 A 
ATOM      7  C   UNL A   1      38.093  23.923  26.398  1.00  0.00     0.052 A 
ATOM      8  O   UNL A   1      38.516  21.894  25.538  1.00  0.00    -0.449 OA
ATOM      9  C   UNL A   1      39.366  23.498  26.858  1.00  0.00     0.059 A 
BRANCH   6  10
ATOM     10  C   UNL A   1      36.324  22.641  24.984  1.00  0.00     0.017 A 
ATOM     11  C   UNL A   1      33.818  22.202  23.806  1.00  0.00     0.060 A 
ATOM     12  C   UNL A   1      34.112  21.633  25.049  1.00  0.00     0.016 A 
ATOM     13  C   UNL A   1      34.779  22.977  23.143  1.00  0.00     0.016 A 
ATOM     14  C   UNL A   1      35.365  21.847  25.631  1.00  0.00     0.013 A 
ATOM     15  C   UNL A   1      36.029  23.194  23.733  1.00  0.00     0.013 A 
BRANCH  11  16
ATOM     16  C   UNL A   1      32.454  22.043  23.257  1.00  0.00     0.338 C 
ATOM     17  O   UNL A   1      32.216  21.438  22.224  1.00  0.00    -0.246 OA
BRANCH  16  18
ATOM     18  O   UNL A   1      31.560  22.656  24.069  1.00  0.00    -0.462 OA
BRANCH  18  19
ATOM     19  C   UNL A   1      30.989  23.872  23.563  1.00  0.00     0.230 C 
ATOM     20  C   UNL A   1      31.476  25.091  24.326  1.00  0.00     0.049 C 
ENDBRANCH  18  19
ENDBRANCH  16  18
ENDBRANCH  11  16
ENDBRANCH   6  10
ENDBRANCH   3   5
ENDBRANCH   2   3
ENDBRANCH   1   2
BRANCH   1  21
ATOM     21  C   UNL A   1      43.521  23.072  26.009  1.00  0.00     0.275 C 
BRANCH  21  22
ATOM     22  O   UNL A   1      42.569  24.135  26.206  1.00  0.00    -0.458 OA
BRANCH  22  23
ATOM     23  C   UNL A   1      43.078  25.387  26.116  1.00  0.00     0.338 C 
ATOM     24  O   UNL A   1      43.754  25.834  25.204  1.00  0.00    -0.246 OA
BRANCH  23  25
ATOM     25  C   UNL A   1      42.582  26.216  27.229  1.00  0.00     0.060 A 
ATOM     26  C   UNL A   1      43.137  27.487  27.386  1.00  0.00     0.016 A 
ATOM     27  C   UNL A   1      41.639  25.742  28.145  1.00  0.00     0.016 A 
ATOM     28  C   UNL A   1      42.758  28.295  28.453  1.00  0.00     0.010 A 
ATOM     29  C   UNL A   1      41.263  26.550  29.226  1.00  0.00     0.010 A 
ATOM     30  C   UNL A   1      41.829  27.827  29.392  1.00  0.00    -0.014 A 
BRANCH  30  31
ATOM     31  C   UNL A   1      41.504  28.672  30.566  1.00  0.00     0.031 A 
ATOM     32  C   UNL A   1      42.353  28.591  31.804  1.00  0.00     0.074 A 
ATOM     33  C   UNL A   1      40.487  29.551  30.499  1.00  0.00     0.049 A 
ATOM     34  N   UNL A   1      42.243  29.258  32.924  1.00  0.00    -0.248 NA
ATOM     35  C   UNL A   1      43.473  27.638  31.776  1.00  0.00     0.031 C 
ATOM     36  C   UNL A   1      39.620  29.753  29.337  1.00  0.00     0.029 A 
ATOM     37  N   UNL A   1      40.019  30.447  31.428  1.00  0.00    -0.354 N 
ATOM     38  C   UNL A   1      43.272  28.803  33.739  1.00  0.00     0.074 A 
ATOM     39  C   UNL A   1      43.984  27.787  32.991  1.00  0.00     0.031 C 
ATOM     40  C   UNL A   1      38.732  30.721  29.618  1.00  0.00     0.029 A 
ATOM     41  C   UNL A   1      38.946  31.184  30.988  1.00  0.00     0.049 A 
ATOM     42  H   UNL A   1      40.414  30.552  32.323  1.00  0.00     0.167 HD
ATOM     43  C   UNL A   1      43.597  29.195  34.993  1.00  0.00     0.031 A 
ATOM     44  C   UNL A   1      38.209  32.119  31.619  1.00  0.00     0.031 A 
ATOM     45  C   UNL A   1      42.886  30.201  35.739  1.00  0.00     0.049 A 
ATOM     46  C   UNL A   1      38.559  32.501  33.031  1.00  0.00     0.074 A 
ATOM     47  C   UNL A   1      43.140  30.666  37.017  1.00  0.00     0.029 A 
ATOM     48  N   UNL A   1      41.778  30.893  35.274  1.00  0.00    -0.354 N 
ATOM     49  N   UNL A   1      39.538  32.061  33.786  1.00  0.00    -0.248 NA
ATOM     50  C   UNL A   1      37.705  33.509  33.676  1.00  0.00     0.031 C 
ATOM     51  C   UNL A   1      42.161  31.613  37.340  1.00  0.00     0.029 A 
ATOM     52  C   UNL A   1      41.325  31.769  36.247  1.00  0.00     0.049 A 
ATOM     53  H   UNL A   1      41.374  30.781  34.384  1.00  0.00     0.167 HD
ATOM     54  C   UNL A   1      39.428  32.750  34.988  1.00  0.00     0.074 A 
ATOM     55  C   UNL A   1      38.297  33.647  34.856  1.00  0.00     0.031 C 
ATOM     56  C   UNL A   1      40.195  32.650  36.102  1.00  0.00     0.031 A 
BRANCH  43  57
ATOM     57  C   UNL A   1      44.759  28.504  35.652  1.00  0.00    -0.014 A 
ATOM     58  C   UNL A   1      46.066  29.011  35.543  1.00  0.00     0.010 A 
ATOM     59  C   UNL A   1      44.535  27.340  36.412  1.00  0.00     0.010 A 
ATOM     60  C   UNL A   1      47.135  28.344  36.148  1.00  0.00     0.020 A 
ATOM     61  C   UNL A   1      45.599  26.683  37.035  1.00  0.00     0.020 A 
ATOM     62  C   UNL A   1      46.895  27.178  36.883  1.00  0.00     0.054 A 
BRANCH  62  63
ATOM     63  S   UNL A   1      48.297  26.331  37.663  1.00  0.00     0.124 S 
ATOM     64  O   UNL A   1      47.758  24.989  37.871  1.00  0.00    -0.237 OA
ATOM     65  O   UNL A   1      49.345  26.435  36.649  1.00  0.00    -0.237 OA
ATOM     66  O   UNL A   1      48.535  27.103  38.880  1.00  0.00    -0.744 OA
ENDBRANCH  62  63
ENDBRANCH  43  57
BRANCH  44  67
ATOM     67  C   UNL A   1      37.056  32.746  30.922  1.00  0.00    -0.014 A 
ATOM     68  C   UNL A   1      37.258  33.753  29.961  1.00  0.00     0.010 A 
ATOM     69  C   UNL A   1      35.744  32.328  31.211  1.00  0.00     0.010 A 
ATOM     70  C   UNL A   1      36.167  34.336  29.309  1.00  0.00     0.020 A 
ATOM     71  C   UNL A   1      34.653  32.893  30.545  1.00  0.00     0.020 A 
ATOM     72  C   UNL A   1      34.871  33.901  29.605  1.00  0.00     0.054 A 
BRANCH  72  73
ATOM     73  S   UNL A   1      33.471  34.629  28.708  1.00  0.00     0.124 S 
ATOM     74  O   UNL A   1      33.087  33.543  27.812  1.00  0.00    -0.237 OA
ATOM     75  O   UNL A   1      32.526  34.928  29.781  1.00  0.00    -0.237 OA
ATOM     76  O   UNL A   1      34.055  35.802  28.061  1.00  0.00    -0.744 OA
ENDBRANCH  72  73
ENDBRANCH  44  67
BRANCH  56  77
ATOM     77  C   UNL A   1      39.849  33.546  37.259  1.00  0.00    -0.014 A 
ATOM     78  C   UNL A   1      39.012  33.101  38.297  1.00  0.00     0.010 A 
ATOM     79  C   UNL A   1      40.407  34.836  37.332  1.00  0.00     0.010 A 
ATOM     80  C   UNL A   1      38.714  33.940  39.373  1.00  0.00     0.020 A 
ATOM     81  C   UNL A   1      40.129  35.670  38.417  1.00  0.00     0.020 A 
ATOM     82  C   UNL A   1      39.272  35.222  39.425  1.00  0.00     0.054 A 
BRANCH  82  83
ATOM     83  S   UNL A   1      38.904  36.282  40.850  1.00  0.00     0.124 S 
ATOM     84  O   UNL A   1      38.523  37.536  40.206  1.00  0.00    -0.237 OA
ATOM     85  O   UNL A   1      37.822  35.565  41.518  1.00  0.00    -0.237 OA
ATOM     86  O   UNL A   1      40.165  36.319  41.587  1.00  0.00    -0.744 OA
ENDBRANCH  82  83
ENDBRANCH  56  77
ENDBRANCH  30  31
ENDBRANCH  23  25
ENDBRANCH  22  23
ENDBRANCH  21  22
ENDBRANCH   1  21
TORSDOF 18
ENDMDL
MODEL 3
REMARK VINA RESULT:      -9.2      4.360      7.584
REMARK SMILES CCOC(=O)c1ccc(-c2ccc(C(=O)OCCOC(=O)c3ccc(-c4c5nc(c(-c6ccc(S(=O)(=O)[O-])cc6)c6ccc([nH]6)c(-c6ccc(S(=O)(=O)[O-])cc6)c6nc(c(-c7ccc(S(=O)(=O)[O-])cc7)c7ccc4[nH]7)C=C6)C=C5)cc3)o2)cc1
REMARK SMILES IDX 17 1 16 2 14 3 15 4 13 5 10 6 11 7 82 8 12 9 9 10 6 11 7 12
REMARK SMILES IDX 84 13 8 14 83 15 4 16 5 17 3 18 2 19 1 20 18 21 19 22 20 23
REMARK SMILES IDX 21 24 22 25 23 26 81 27 24 28 80 29 25 30 26 31 27 32 74 33
REMARK SMILES IDX 28 34 79 35 73 36 75 37 29 38 78 39 72 40 71 41 30 43 60 44
REMARK SMILES IDX 41 45 59 46 42 47 45 48 58 49 76 50 43 51 44 52 57 54 77 55
REMARK SMILES IDX 46 56 31 57 32 58 40 59 33 60 39 61 34 62 35 63 36 64 37 65
REMARK SMILES IDX 38 66 61 67 62 68 70 69 63 70 69 71 64 72 65 73 66 74 67 75
REMARK SMILES IDX 68 76 47 77 48 78 56 79 49 80 55 81 50 82 51 83 52 84 53 85
REMARK SMILES IDX 54 86
REMARK H PARENT 75 42 45 53
REMARK Flexibility Score: inf
ROOT
ATOM      1  C   UNL A   1      41.860  19.533  27.047  1.00  0.00     0.275 C 
ENDROOT
BRANCH   1   2
ATOM      2  O   UNL A   1      41.145  20.575  26.358  1.00  0.00    -0.456 OA
BRANCH   2   3
ATOM      3  C   UNL A   1      41.058  21.772  27.015  1.00  0.00     0.374 C 
ATOM      4  O   UNL A   1      41.911  22.201  27.778  1.00  0.00    -0.242 OA
BRANCH   3   5
ATOM      5  C   UNL A   1      39.862  22.474  26.605  1.00  0.00     0.212 A 
ATOM      6  C   UNL A   1      37.762  22.557  25.934  1.00  0.00     0.135 A 
ATOM      7  C   UNL A   1      38.113  23.849  26.260  1.00  0.00     0.052 A 
ATOM      8  O   UNL A   1      38.832  21.730  26.083  1.00  0.00    -0.449 OA
ATOM      9  C   UNL A   1      39.462  23.796  26.693  1.00  0.00     0.059 A 
BRANCH   6  10
ATOM     10  C   UNL A   1      36.518  21.916  25.556  1.00  0.00     0.017 A 
ATOM     11  C   UNL A   1      34.121  20.619  24.899  1.00  0.00     0.060 A 
ATOM     12  C   UNL A   1      35.337  19.940  24.774  1.00  0.00     0.016 A 
ATOM     13  C   UNL A   1      34.102  21.949  25.337  1.00  0.00     0.016 A 
ATOM     14  C   UNL A   1      36.531  20.590  25.095  1.00  0.00     0.013 A 
ATOM     15  C   UNL A   1      35.299  22.594  25.663  1.00  0.00     0.013 A 
BRANCH  11  16
ATOM     16  C   UNL A   1      32.864  19.879  24.648  1.00  0.00     0.338 C 
ATOM     17  O   UNL A   1      32.140  20.099  23.691  1.00  0.00    -0.246 OA
BRANCH  16  18
ATOM     18  O   UNL A   1      32.676  18.955  25.620  1.00  0.00    -0.462 OA
BRANCH  18  19
ATOM     19  C   UNL A   1      32.397  17.622  25.167  1.00  0.00     0.230 C 
ATOM     20  C   UNL A   1      33.557  16.677  25.426  1.00  0.00     0.049 C 
ENDBRANCH  18  19
ENDBRANCH  16  18
ENDBRANCH  11  16
ENDBRANCH   6  10
ENDBRANCH   3   5
ENDBRANCH   2   3
ENDBRANCH   1   2
BRANCH   1  21
ATOM     21  C   UNL A   1      42.776  18.753  26.096  1.00  0.00     0.275 C 
BRANCH  21  22
ATOM     22  O   UNL A   1      42.985  19.448  24.852  1.00  0.00    -0.458 OA
BRANCH  22  23
ATOM     23  C   UNL A   1      44.282  19.661  24.523  1.00  0.00     0.338 C 
ATOM     24  O   UNL A   1      45.025  18.881  23.950  1.00  0.00    -0.246 OA
BRANCH  23  25
ATOM     25  C   UNL A   1      44.659  21.053  24.830  1.00  0.00     0.060 A 
ATOM     26  C   UNL A   1      45.130  21.326  26.116  1.00  0.00     0.016 A 
ATOM     27  C   UNL A   1      44.496  22.088  23.906  1.00  0.00     0.016 A 
ATOM     28  C   UNL A   1      45.444  22.629  26.489  1.00  0.00     0.010 A 
ATOM     29  C   UNL A   1      44.803  23.402  24.283  1.00  0.00     0.010 A 
ATOM     30  C   UNL A   1      45.269  23.680  25.581  1.00  0.00    -0.014 A 
BRANCH  30  31
ATOM     31  C   UNL A   1      45.530  25.070  26.028  1.00  0.00     0.031 A 
ATOM     32  C   UNL A   1      46.917  25.639  25.932  1.00  0.00     0.074 A 
ATOM     33  C   UNL A   1      44.513  25.836  26.464  1.00  0.00     0.049 A 
ATOM     34  N   UNL A   1      47.343  26.833  26.254  1.00  0.00    -0.248 NA
ATOM     35  C   UNL A   1      47.962  24.749  25.402  1.00  0.00     0.031 C 
ATOM     36  C   UNL A   1      43.115  25.410  26.559  1.00  0.00     0.029 A 
ATOM     37  N   UNL A   1      44.498  27.139  26.896  1.00  0.00    -0.354 N 
ATOM     38  C   UNL A   1      48.704  26.839  25.975  1.00  0.00     0.074 A 
ATOM     39  C   UNL A   1      49.037  25.521  25.475  1.00  0.00     0.031 C 
ATOM     40  C   UNL A   1      42.376  26.438  27.011  1.00  0.00     0.029 A 
ATOM     41  C   UNL A   1      43.251  27.581  27.266  1.00  0.00     0.049 A 
ATOM     42  H   UNL A   1      45.304  27.702  26.937  1.00  0.00     0.167 HD
ATOM     43  C   UNL A   1      49.594  27.849  26.117  1.00  0.00     0.031 A 
ATOM     44  C   UNL A   1      42.856  28.769  27.765  1.00  0.00     0.031 A 
ATOM     45  C   UNL A   1      49.264  29.157  26.619  1.00  0.00     0.049 A 
ATOM     46  C   UNL A   1      43.874  29.858  27.963  1.00  0.00     0.074 A 
ATOM     47  C   UNL A   1      50.098  30.246  26.800  1.00  0.00     0.029 A 
ATOM     48  N   UNL A   1      47.998  29.552  27.024  1.00  0.00    -0.354 N 
ATOM     49  N   UNL A   1      45.157  29.847  27.690  1.00  0.00    -0.248 NA
ATOM     50  C   UNL A   1      43.389  31.123  28.533  1.00  0.00     0.031 C 
ATOM     51  C   UNL A   1      49.343  31.288  27.352  1.00  0.00     0.029 A 
ATOM     52  C   UNL A   1      48.031  30.862  27.472  1.00  0.00     0.049 A 
ATOM     53  H   UNL A   1      47.193  28.986  26.996  1.00  0.00     0.167 HD
ATOM     54  C   UNL A   1      45.630  31.106  28.040  1.00  0.00     0.074 A 
ATOM     55  C   UNL A   1      44.493  31.859  28.530  1.00  0.00     0.031 C 
ATOM     56  C   UNL A   1      46.892  31.595  27.963  1.00  0.00     0.031 A 
BRANCH  43  57
ATOM     57  C   UNL A   1      51.026  27.562  25.755  1.00  0.00    -0.014 A 
ATOM     58  C   UNL A   1      51.462  27.603  24.419  1.00  0.00     0.010 A 
ATOM     59  C   UNL A   1      51.954  27.269  26.772  1.00  0.00     0.010 A 
ATOM     60  C   UNL A   1      52.792  27.316  24.102  1.00  0.00     0.020 A 
ATOM     61  C   UNL A   1      53.289  27.001  26.460  1.00  0.00     0.020 A 
ATOM     62  C   UNL A   1      53.696  27.007  25.124  1.00  0.00     0.054 A 
BRANCH  62  63
ATOM     63  S   UNL A   1      55.419  26.641  24.689  1.00  0.00     0.124 S 
ATOM     64  O   UNL A   1      55.446  26.973  23.267  1.00  0.00    -0.237 OA
ATOM     65  O   UNL A   1      56.171  27.543  25.558  1.00  0.00    -0.237 OA
ATOM     66  O   UNL A   1      55.560  25.221  25.001  1.00  0.00    -0.744 OA
ENDBRANCH  62  63
ENDBRANCH  43  57
BRANCH  44  67
ATOM     67  C   UNL A   1      41.430  28.981  28.129  1.00  0.00    -0.014 A 
ATOM     68  C   UNL A   1      41.028  29.001  29.477  1.00  0.00     0.010 A 
ATOM     69  C   UNL A   1      40.466  29.175  27.124  1.00  0.00     0.010 A 
ATOM     70  C   UNL A   1      39.685  29.203  29.810  1.00  0.00     0.020 A 
ATOM     71  C   UNL A   1      39.127  29.400  27.454  1.00  0.00     0.020 A 
ATOM     72  C   UNL A   1      38.743  29.401  28.796  1.00  0.00     0.054 A 
BRANCH  72  73
ATOM     73  S   UNL A   1      37.014  29.718  29.248  1.00  0.00     0.124 S 
ATOM     74  O   UNL A   1      36.893  28.991  30.507  1.00  0.00    -0.237 OA
ATOM     75  O   UNL A   1      36.974  31.175  29.352  1.00  0.00    -0.237 OA
ATOM     76  O   UNL A   1      36.262  29.162  28.126  1.00  0.00    -0.744 OA
ENDBRANCH  72  73
ENDBRANCH  44  67
BRANCH  56  77
ATOM     77  C   UNL A   1      47.107  33.019  28.398  1.00  0.00    -0.014 A 
ATOM     78  C   UNL A   1      46.933  34.086  27.500  1.00  0.00     0.010 A 
ATOM     79  C   UNL A   1      47.443  33.295  29.736  1.00  0.00     0.010 A 
ATOM     80  C   UNL A   1      47.120  35.404  27.925  1.00  0.00     0.020 A 
ATOM     81  C   UNL A   1      47.609  34.611  30.171  1.00  0.00     0.020 A 
ATOM     82  C   UNL A   1      47.461  35.658  29.258  1.00  0.00     0.054 A 
BRANCH  82  83
ATOM     83  S   UNL A   1      47.661  37.378  29.799  1.00  0.00     0.124 S 
ATOM     84  O   UNL A   1      48.435  37.954  28.703  1.00  0.00    -0.237 OA
ATOM     85  O   UNL A   1      46.282  37.846  29.909  1.00  0.00    -0.237 OA
ATOM     86  O   UNL A   1      48.374  37.259  31.069  1.00  0.00    -0.744 OA
ENDBRANCH  82  83
ENDBRANCH  56  77
ENDBRANCH  30  31
ENDBRANCH  23  25
ENDBRANCH  22  23
ENDBRANCH  21  22
ENDBRANCH   1  21
TORSDOF 18
ENDMDL
