MODEL 1
REMARK VINA RESULT:     -12.0      0.000      0.000
REMARK SMILES O=C(OCCOC(=O)[C@H]1CCCCN1c1cc(-c2ccccc2)nc(-c2cccc(Cl)c2)n1)c1ccc(-c2c3nc(c(-c4ccc(S(=O)(=O)[O-])cc4)c4ccc([nH]4)c(-c4ccc(S(=O)(=O)[O-])cc4)c4nc(c(-c5ccc(S(=O)(=O)[O-])cc5)c5ccc2[nH]5)C=C4)C=C3)cc1
REMARK SMILES IDX 4 1 3 2 2 3 1 4 34 5 35 6 93 7 36 8 92 9 37 10 38 11 39 12
REMARK SMILES IDX 86 13 40 14 91 15 85 16 87 17 41 18 90 19 84 20 83 21 42 23
REMARK SMILES IDX 72 24 53 25 71 26 54 27 57 28 70 29 88 30 55 31 56 32 69 34
REMARK SMILES IDX 89 35 58 36 43 37 44 38 52 39 45 40 51 41 46 42 47 43 48 44
REMARK SMILES IDX 49 45 50 46 73 47 74 48 82 49 75 50 81 51 76 52 77 53 78 54
REMARK SMILES IDX 79 55 80 56 59 57 60 58 68 59 61 60 67 61 62 62 63 63 64 64
REMARK SMILES IDX 65 65 66 66 5 67 6 68 7 69 8 70 9 71 10 72 14 73 11 74 13 75
REMARK SMILES IDX 12 76 15 77 16 78 33 79 17 80 25 81 24 82 18 83 19 84 23 85
REMARK SMILES IDX 20 86 22 87 21 88 26 89 27 90 32 91 28 92 30 93 29 94 31 95
REMARK H PARENT 87 22 57 33
REMARK Flexibility Score: inf
ROOT
ATOM      1  C   UNL A   1      33.043  28.919  27.178  1.00  0.00     0.275 C 
ENDROOT
BRANCH   1   2
ATOM      2  O   UNL A   1      33.801  30.126  26.942  1.00  0.00    -0.458 OA
BRANCH   2   3
ATOM      3  C   UNL A   1      34.453  30.970  27.776  1.00  0.00     0.338 C 
ATOM      4  O   UNL A   1      33.932  32.064  28.002  1.00  0.00    -0.246 OA
BRANCH   3   5
ATOM      5  C   UNL A   1      35.803  30.721  28.387  1.00  0.00     0.060 A 
ATOM      6  C   UNL A   1      36.956  31.477  28.169  1.00  0.00     0.016 A 
ATOM      7  C   UNL A   1      35.919  29.593  29.232  1.00  0.00     0.016 A 
ATOM      8  C   UNL A   1      38.157  31.169  28.831  1.00  0.00     0.010 A 
ATOM      9  C   UNL A   1      37.124  29.267  29.879  1.00  0.00     0.010 A 
ATOM     10  C   UNL A   1      38.254  30.065  29.693  1.00  0.00    -0.014 A 
BRANCH  10  11
ATOM     11  C   UNL A   1      39.588  29.716  30.253  1.00  0.00     0.031 A 
ATOM     12  C   UNL A   1      40.015  30.398  31.509  1.00  0.00     0.074 A 
ATOM     13  C   UNL A   1      40.359  28.744  29.726  1.00  0.00     0.049 A 
ATOM     14  N   UNL A   1      41.034  30.128  32.275  1.00  0.00    -0.248 NA
ATOM     15  C   UNL A   1      39.193  31.535  31.951  1.00  0.00     0.031 C 
ATOM     16  C   UNL A   1      40.085  28.093  28.465  1.00  0.00     0.029 A 
ATOM     17  N   UNL A   1      41.497  28.110  30.155  1.00  0.00    -0.354 N 
ATOM     18  C   UNL A   1      40.972  31.053  33.304  1.00  0.00     0.074 A 
ATOM     19  C   UNL A   1      39.829  31.905  33.052  1.00  0.00     0.031 C 
ATOM     20  C   UNL A   1      40.939  27.086  28.247  1.00  0.00     0.029 A 
ATOM     21  C   UNL A   1      41.892  27.065  29.339  1.00  0.00     0.049 A 
ATOM     22  H   UNL A   1      41.987  28.374  30.967  1.00  0.00     0.167 HD
ATOM     23  C   UNL A   1      41.805  31.178  34.360  1.00  0.00     0.031 A 
ATOM     24  C   UNL A   1      42.917  26.197  29.447  1.00  0.00     0.031 A 
ATOM     25  C   UNL A   1      42.988  30.382  34.535  1.00  0.00     0.049 A 
ATOM     26  C   UNL A   1      43.834  26.374  30.619  1.00  0.00     0.074 A 
ATOM     27  C   UNL A   1      43.954  30.476  35.518  1.00  0.00     0.029 A 
ATOM     28  N   UNL A   1      43.375  29.351  33.687  1.00  0.00    -0.354 N 
ATOM     29  N   UNL A   1      43.745  27.244  31.598  1.00  0.00    -0.248 NA
ATOM     30  C   UNL A   1      44.997  25.484  30.698  1.00  0.00     0.031 C 
ATOM     31  C   UNL A   1      44.944  29.525  35.244  1.00  0.00     0.029 A 
ATOM     32  C   UNL A   1      44.567  28.801  34.123  1.00  0.00     0.049 A 
ATOM     33  H   UNL A   1      42.874  29.056  32.892  1.00  0.00     0.167 HD
ATOM     34  C   UNL A   1      44.848  27.017  32.403  1.00  0.00     0.074 A 
ATOM     35  C   UNL A   1      45.563  25.895  31.824  1.00  0.00     0.031 C 
ATOM     36  C   UNL A   1      45.250  27.689  33.510  1.00  0.00     0.031 A 
BRANCH  23  37
ATOM     37  C   UNL A   1      41.462  32.250  35.351  1.00  0.00    -0.014 A 
ATOM     38  C   UNL A   1      40.585  31.982  36.419  1.00  0.00     0.010 A 
ATOM     39  C   UNL A   1      41.968  33.551  35.186  1.00  0.00     0.010 A 
ATOM     40  C   UNL A   1      40.185  33.005  37.279  1.00  0.00     0.020 A 
ATOM     41  C   UNL A   1      41.589  34.573  36.059  1.00  0.00     0.020 A 
ATOM     42  C   UNL A   1      40.685  34.297  37.088  1.00  0.00     0.054 A 
BRANCH  42  43
ATOM     43  S   UNL A   1      40.140  35.609  38.214  1.00  0.00     0.124 S 
ATOM     44  O   UNL A   1      39.870  36.707  37.290  1.00  0.00    -0.237 OA
ATOM     45  O   UNL A   1      38.965  35.018  38.848  1.00  0.00    -0.237 OA
ATOM     46  O   UNL A   1      41.288  35.806  39.096  1.00  0.00    -0.744 OA
ENDBRANCH  42  43
ENDBRANCH  23  37
BRANCH  24  47
ATOM     47  C   UNL A   1      43.158  25.141  28.416  1.00  0.00    -0.014 A 
ATOM     48  C   UNL A   1      42.844  23.792  28.667  1.00  0.00     0.010 A 
ATOM     49  C   UNL A   1      43.728  25.475  27.172  1.00  0.00     0.010 A 
ATOM     50  C   UNL A   1      43.120  22.802  27.713  1.00  0.00     0.020 A 
ATOM     51  C   UNL A   1      43.974  24.497  26.203  1.00  0.00     0.020 A 
ATOM     52  C   UNL A   1      43.687  23.161  26.487  1.00  0.00     0.054 A 
BRANCH  52  53
ATOM     53  S   UNL A   1      44.019  21.872  25.252  1.00  0.00     0.124 S 
ATOM     54  O   UNL A   1      45.390  21.492  25.571  1.00  0.00    -0.237 OA
ATOM     55  O   UNL A   1      42.997  20.872  25.552  1.00  0.00    -0.237 OA
ATOM     56  O   UNL A   1      43.841  22.568  23.979  1.00  0.00    -0.744 OA
ENDBRANCH  52  53
ENDBRANCH  24  47
BRANCH  36  57
ATOM     57  C   UNL A   1      46.508  27.202  34.164  1.00  0.00    -0.014 A 
ATOM     58  C   UNL A   1      47.761  27.732  33.811  1.00  0.00     0.010 A 
ATOM     59  C   UNL A   1      46.424  26.224  35.170  1.00  0.00     0.010 A 
ATOM     60  C   UNL A   1      48.919  27.265  34.433  1.00  0.00     0.020 A 
ATOM     61  C   UNL A   1      47.577  25.774  35.813  1.00  0.00     0.020 A 
ATOM     62  C   UNL A   1      48.818  26.288  35.430  1.00  0.00     0.054 A 
BRANCH  62  63
ATOM     63  S   UNL A   1      50.330  25.724  36.254  1.00  0.00     0.124 S 
ATOM     64  O   UNL A   1      49.796  25.028  37.421  1.00  0.00    -0.237 OA
ATOM     65  O   UNL A   1      50.949  24.873  35.241  1.00  0.00    -0.237 OA
ATOM     66  O   UNL A   1      51.049  26.963  36.541  1.00  0.00    -0.744 OA
ENDBRANCH  62  63
ENDBRANCH  36  57
ENDBRANCH  10  11
ENDBRANCH   3   5
ENDBRANCH   2   3
ENDBRANCH   1   2
BRANCH   1  67
ATOM     67  C   UNL A   1      32.594  28.223  25.897  1.00  0.00     0.274 C 
BRANCH  67  68
ATOM     68  O   UNL A   1      32.770  26.811  26.016  1.00  0.00    -0.461 OA
BRANCH  68  69
ATOM     69  C   UNL A   1      31.649  26.037  26.084  1.00  0.00     0.328 C 
ATOM     70  O   UNL A   1      30.618  26.359  26.686  1.00  0.00    -0.250 OA
BRANCH  69  71
ATOM     71  C   UNL A   1      31.813  24.775  25.228  1.00  0.00     0.193 C 
ATOM     72  C   UNL A   1      30.690  24.591  24.231  1.00  0.00     0.037 C 
ATOM     73  N   UNL A   1      33.067  24.756  24.473  1.00  0.00    -0.343 N 
ATOM     74  C   UNL A   1      30.728  25.596  23.086  1.00  0.00     0.005 C 
ATOM     75  C   UNL A   1      33.225  25.626  23.313  1.00  0.00     0.119 C 
ATOM     76  C   UNL A   1      32.052  25.469  22.347  1.00  0.00     0.022 C 
BRANCH  73  77
ATOM     77  C   UNL A   1      33.850  23.619  24.567  1.00  0.00     0.134 A 
ATOM     78  C   UNL A   1      35.142  23.820  24.973  1.00  0.00     0.076 A 
ATOM     79  N   UNL A   1      33.358  22.384  24.343  1.00  0.00    -0.211 NA
ATOM     80  C   UNL A   1      35.924  22.710  25.171  1.00  0.00     0.076 A 
ATOM     81  C   UNL A   1      34.210  21.349  24.531  1.00  0.00     0.162 A 
ATOM     82  N   UNL A   1      35.487  21.462  24.951  1.00  0.00    -0.228 NA
BRANCH  80  83
ATOM     83  C   UNL A   1      37.294  22.893  25.634  1.00  0.00     0.000 A 
ATOM     84  C   UNL A   1      37.685  24.094  26.239  1.00  0.00     0.010 A 
ATOM     85  C   UNL A   1      38.184  21.807  25.636  1.00  0.00     0.010 A 
ATOM     86  C   UNL A   1      38.920  24.188  26.880  1.00  0.00     0.001 A 
ATOM     87  C   UNL A   1      39.420  21.903  26.272  1.00  0.00     0.001 A 
ATOM     88  C   UNL A   1      39.780  23.090  26.906  1.00  0.00     0.000 A 
ENDBRANCH  80  83
BRANCH  81  89
ATOM     89  C   UNL A   1      33.752  19.972  24.259  1.00  0.00     0.021 A 
ATOM     90  C   UNL A   1      32.613  19.701  23.479  1.00  0.00     0.012 A 
ATOM     91  C   UNL A   1      34.503  18.870  24.718  1.00  0.00     0.032 A 
ATOM     92  C   UNL A   1      32.257  18.386  23.145  1.00  0.00     0.002 A 
ATOM     93  C   UNL A   1      34.138  17.560  24.395  1.00  0.00     0.041 A 
ATOM     94  C   UNL A   1      33.022  17.314  23.603  1.00  0.00     0.020 A 
ATOM     95  Cl  UNL A   1      35.088  16.243  24.968  1.00  0.00    -0.084 Cl
ENDBRANCH  81  89
ENDBRANCH  73  77
ENDBRANCH  69  71
ENDBRANCH  68  69
ENDBRANCH  67  68
ENDBRANCH   1  67
TORSDOF 17
ENDMDL
MODEL 2
REMARK VINA RESULT:     -11.8      0.556      7.943
REMARK SMILES O=C(OCCOC(=O)[C@H]1CCCCN1c1cc(-c2ccccc2)nc(-c2cccc(Cl)c2)n1)c1ccc(-c2c3nc(c(-c4ccc(S(=O)(=O)[O-])cc4)c4ccc([nH]4)c(-c4ccc(S(=O)(=O)[O-])cc4)c4nc(c(-c5ccc(S(=O)(=O)[O-])cc5)c5ccc2[nH]5)C=C4)C=C3)cc1
REMARK SMILES IDX 4 1 3 2 2 3 1 4 34 5 35 6 93 7 36 8 92 9 37 10 38 11 39 12
REMARK SMILES IDX 86 13 40 14 91 15 85 16 87 17 41 18 90 19 84 20 83 21 42 23
REMARK SMILES IDX 72 24 53 25 71 26 54 27 57 28 70 29 88 30 55 31 56 32 69 34
REMARK SMILES IDX 89 35 58 36 43 37 44 38 52 39 45 40 51 41 46 42 47 43 48 44
REMARK SMILES IDX 49 45 50 46 73 47 74 48 82 49 75 50 81 51 76 52 77 53 78 54
REMARK SMILES IDX 79 55 80 56 59 57 60 58 68 59 61 60 67 61 62 62 63 63 64 64
REMARK SMILES IDX 65 65 66 66 5 67 6 68 7 69 8 70 9 71 10 72 14 73 11 74 13 75
REMARK SMILES IDX 12 76 15 77 16 78 33 79 17 80 25 81 24 82 18 83 19 84 23 85
REMARK SMILES IDX 20 86 22 87 21 88 26 89 27 90 32 91 28 92 30 93 29 94 31 95
REMARK H PARENT 87 22 57 33
REMARK Flexibility Score: inf
ROOT
ATOM      1  C   UNL A   1      33.292  29.029  27.115  1.00  0.00     0.275 C 
ENDROOT
BRANCH   1   2
ATOM      2  O   UNL A   1      33.917  30.315  26.913  1.00  0.00    -0.458 OA
BRANCH   2   3
ATOM      3  C   UNL A   1      34.722  31.071  27.697  1.00  0.00     0.338 C 
ATOM      4  O   UNL A   1      34.504  32.283  27.736  1.00  0.00    -0.246 OA
BRANCH   3   5
ATOM      5  C   UNL A   1      35.913  30.569  28.462  1.00  0.00     0.060 A 
ATOM      6  C   UNL A   1      35.886  29.668  29.527  1.00  0.00     0.016 A 
ATOM      7  C   UNL A   1      37.173  31.090  28.087  1.00  0.00     0.016 A 
ATOM      8  C   UNL A   1      37.076  29.240  30.141  1.00  0.00     0.010 A 
ATOM      9  C   UNL A   1      38.365  30.682  28.713  1.00  0.00     0.010 A 
ATOM     10  C   UNL A   1      38.325  29.738  29.741  1.00  0.00    -0.014 A 
BRANCH  10  11
ATOM     11  C   UNL A   1      39.530  29.348  30.523  1.00  0.00     0.031 A 
ATOM     12  C   UNL A   1      40.395  28.266  29.971  1.00  0.00     0.074 A 
ATOM     13  C   UNL A   1      39.909  30.003  31.638  1.00  0.00     0.049 A 
ATOM     14  N   UNL A   1      41.578  27.887  30.370  1.00  0.00    -0.248 NA
ATOM     15  C   UNL A   1      39.855  27.507  28.832  1.00  0.00     0.031 C 
ATOM     16  C   UNL A   1      39.098  30.996  32.305  1.00  0.00     0.029 A 
ATOM     17  N   UNL A   1      41.047  29.976  32.404  1.00  0.00    -0.354 N 
ATOM     18  C   UNL A   1      41.934  26.853  29.520  1.00  0.00     0.074 A 
ATOM     19  C   UNL A   1      40.835  26.649  28.601  1.00  0.00     0.031 C 
ATOM     20  C   UNL A   1      39.768  31.571  33.309  1.00  0.00     0.029 A 
ATOM     21  C   UNL A   1      41.062  30.924  33.411  1.00  0.00     0.049 A 
ATOM     22  H   UNL A   1      41.784  29.342  32.250  1.00  0.00     0.167 HD
ATOM     23  C   UNL A   1      43.080  26.137  29.520  1.00  0.00     0.031 A 
ATOM     24  C   UNL A   1      42.001  31.227  34.327  1.00  0.00     0.031 A 
ATOM     25  C   UNL A   1      44.113  26.294  30.504  1.00  0.00     0.049 A 
ATOM     26  C   UNL A   1      43.252  30.401  34.313  1.00  0.00     0.074 A 
ATOM     27  C   UNL A   1      45.278  25.567  30.657  1.00  0.00     0.029 A 
ATOM     28  N   UNL A   1      44.093  27.240  31.522  1.00  0.00    -0.354 N 
ATOM     29  N   UNL A   1      43.583  29.438  33.483  1.00  0.00    -0.248 NA
ATOM     30  C   UNL A   1      44.244  30.672  35.359  1.00  0.00     0.031 C 
ATOM     31  C   UNL A   1      45.945  26.050  31.789  1.00  0.00     0.029 A 
ATOM     32  C   UNL A   1      45.224  27.115  32.308  1.00  0.00     0.049 A 
ATOM     33  H   UNL A   1      43.378  27.902  31.663  1.00  0.00     0.167 HD
ATOM     34  C   UNL A   1      44.815  28.977  33.916  1.00  0.00     0.074 A 
ATOM     35  C   UNL A   1      45.194  29.801  35.049  1.00  0.00     0.031 C 
ATOM     36  C   UNL A   1      45.558  27.951  33.435  1.00  0.00     0.031 A 
BRANCH  23  37
ATOM     37  C   UNL A   1      43.212  25.100  28.443  1.00  0.00    -0.014 A 
ATOM     38  C   UNL A   1      42.885  23.756  28.703  1.00  0.00     0.010 A 
ATOM     39  C   UNL A   1      43.719  25.455  27.182  1.00  0.00     0.010 A 
ATOM     40  C   UNL A   1      43.105  22.776  27.733  1.00  0.00     0.020 A 
ATOM     41  C   UNL A   1      43.919  24.481  26.201  1.00  0.00     0.020 A 
ATOM     42  C   UNL A   1      43.628  23.145  26.491  1.00  0.00     0.054 A 
BRANCH  42  43
ATOM     43  S   UNL A   1      43.914  21.850  25.255  1.00  0.00     0.124 S 
ATOM     44  O   UNL A   1      45.285  21.445  25.553  1.00  0.00    -0.237 OA
ATOM     45  O   UNL A   1      42.884  20.867  25.578  1.00  0.00    -0.237 OA
ATOM     46  O   UNL A   1      43.733  22.542  23.981  1.00  0.00    -0.744 OA
ENDBRANCH  42  43
ENDBRANCH  23  37
BRANCH  24  47
ATOM     47  C   UNL A   1      41.784  32.301  35.345  1.00  0.00    -0.014 A 
ATOM     48  C   UNL A   1      41.154  32.025  36.573  1.00  0.00     0.010 A 
ATOM     49  C   UNL A   1      42.190  33.624  35.083  1.00  0.00     0.010 A 
ATOM     50  C   UNL A   1      40.910  33.049  37.499  1.00  0.00     0.020 A 
ATOM     51  C   UNL A   1      41.980  34.643  36.018  1.00  0.00     0.020 A 
ATOM     52  C   UNL A   1      41.322  34.353  37.214  1.00  0.00     0.054 A 
BRANCH  52  53
ATOM     53  S   UNL A   1      41.020  35.665  38.432  1.00  0.00     0.124 S 
ATOM     54  O   UNL A   1      39.564  35.743  38.440  1.00  0.00    -0.237 OA
ATOM     55  O   UNL A   1      41.633  35.125  39.643  1.00  0.00    -0.237 OA
ATOM     56  O   UNL A   1      41.706  36.823  37.861  1.00  0.00    -0.744 OA
ENDBRANCH  52  53
ENDBRANCH  24  47
BRANCH  36  57
ATOM     57  C   UNL A   1      46.861  27.690  34.130  1.00  0.00    -0.014 A 
ATOM     58  C   UNL A   1      46.941  26.784  35.202  1.00  0.00     0.010 A 
ATOM     59  C   UNL A   1      48.022  28.338  33.678  1.00  0.00     0.010 A 
ATOM     60  C   UNL A   1      48.163  26.555  35.834  1.00  0.00     0.020 A 
ATOM     61  C   UNL A   1      49.250  28.091  34.290  1.00  0.00     0.020 A 
ATOM     62  C   UNL A   1      49.310  27.212  35.374  1.00  0.00     0.054 A 
BRANCH  62  63
ATOM     63  S   UNL A   1      50.895  26.870  36.183  1.00  0.00     0.124 S 
ATOM     64  O   UNL A   1      51.791  26.717  35.040  1.00  0.00    -0.237 OA
ATOM     65  O   UNL A   1      51.106  28.067  36.993  1.00  0.00    -0.237 OA
ATOM     66  O   UNL A   1      50.638  25.648  36.942  1.00  0.00    -0.744 OA
ENDBRANCH  62  63
ENDBRANCH  36  57
ENDBRANCH  10  11
ENDBRANCH   3   5
ENDBRANCH   2   3
ENDBRANCH   1   2
BRANCH   1  67
ATOM     67  C   UNL A   1      33.533  28.049  25.972  1.00  0.00     0.274 C 
BRANCH  67  68
ATOM     68  O   UNL A   1      33.300  26.710  26.412  1.00  0.00    -0.461 OA
BRANCH  68  69
ATOM     69  C   UNL A   1      32.019  26.243  26.369  1.00  0.00     0.328 C 
ATOM     70  O   UNL A   1      31.034  26.879  26.762  1.00  0.00    -0.250 OA
BRANCH  69  71
ATOM     71  C   UNL A   1      31.968  24.878  25.670  1.00  0.00     0.193 C 
ATOM     72  C   UNL A   1      30.626  24.593  25.033  1.00  0.00     0.037 C 
ATOM     73  N   UNL A   1      32.981  24.734  24.624  1.00  0.00    -0.343 N 
ATOM     74  C   UNL A   1      30.352  25.442  23.798  1.00  0.00     0.005 C 
ATOM     75  C   UNL A   1      32.820  25.443  23.360  1.00  0.00     0.119 C 
ATOM     76  C   UNL A   1      31.437  25.191  22.762  1.00  0.00     0.022 C 
BRANCH  73  77
ATOM     77  C   UNL A   1      33.774  23.600  24.658  1.00  0.00     0.134 A 
ATOM     78  C   UNL A   1      35.073  23.796  25.042  1.00  0.00     0.076 A 
ATOM     79  N   UNL A   1      33.285  22.370  24.399  1.00  0.00    -0.211 NA
ATOM     80  C   UNL A   1      35.868  22.686  25.180  1.00  0.00     0.076 A 
ATOM     81  C   UNL A   1      34.149  21.335  24.529  1.00  0.00     0.162 A 
ATOM     82  N   UNL A   1      35.434  21.443  24.923  1.00  0.00    -0.228 NA
BRANCH  80  83
ATOM     83  C   UNL A   1      37.246  22.863  25.618  1.00  0.00     0.000 A 
ATOM     84  C   UNL A   1      37.653  24.059  26.223  1.00  0.00     0.010 A 
ATOM     85  C   UNL A   1      38.134  21.774  25.596  1.00  0.00     0.010 A 
ATOM     86  C   UNL A   1      38.899  24.146  26.841  1.00  0.00     0.001 A 
ATOM     87  C   UNL A   1      39.382  21.863  26.209  1.00  0.00     0.001 A 
ATOM     88  C   UNL A   1      39.757  23.045  26.844  1.00  0.00     0.000 A 
ENDBRANCH  80  83
BRANCH  81  89
ATOM     89  C   UNL A   1      33.695  19.966  24.217  1.00  0.00     0.021 A 
ATOM     90  C   UNL A   1      32.583  19.715  23.392  1.00  0.00     0.012 A 
ATOM     91  C   UNL A   1      34.424  18.852  24.682  1.00  0.00     0.032 A 
ATOM     92  C   UNL A   1      32.233  18.408  23.023  1.00  0.00     0.002 A 
ATOM     93  C   UNL A   1      34.065  17.550  24.323  1.00  0.00     0.041 A 
ATOM     94  C   UNL A   1      32.976  17.324  23.488  1.00  0.00     0.020 A 
ATOM     95  Cl  UNL A   1      34.988  16.218  24.906  1.00  0.00    -0.084 Cl
ENDBRANCH  81  89
ENDBRANCH  73  77
ENDBRANCH  69  71
ENDBRANCH  68  69
ENDBRANCH  67  68
ENDBRANCH   1  67
TORSDOF 17
ENDMDL
MODEL 3
REMARK VINA RESULT:     -11.6      4.857      8.648
REMARK SMILES O=C(OCCOC(=O)[C@H]1CCCCN1c1cc(-c2ccccc2)nc(-c2cccc(Cl)c2)n1)c1ccc(-c2c3nc(c(-c4ccc(S(=O)(=O)[O-])cc4)c4ccc([nH]4)c(-c4ccc(S(=O)(=O)[O-])cc4)c4nc(c(-c5ccc(S(=O)(=O)[O-])cc5)c5ccc2[nH]5)C=C4)C=C3)cc1
REMARK SMILES IDX 4 1 3 2 2 3 1 4 34 5 35 6 93 7 36 8 92 9 37 10 38 11 39 12
REMARK SMILES IDX 86 13 40 14 91 15 85 16 87 17 41 18 90 19 84 20 83 21 42 23
REMARK SMILES IDX 72 24 53 25 71 26 54 27 57 28 70 29 88 30 55 31 56 32 69 34
REMARK SMILES IDX 89 35 58 36 43 37 44 38 52 39 45 40 51 41 46 42 47 43 48 44
REMARK SMILES IDX 49 45 50 46 73 47 74 48 82 49 75 50 81 51 76 52 77 53 78 54
REMARK SMILES IDX 79 55 80 56 59 57 60 58 68 59 61 60 67 61 62 62 63 63 64 64
REMARK SMILES IDX 65 65 66 66 5 67 6 68 7 69 8 70 9 71 10 72 14 73 11 74 13 75
REMARK SMILES IDX 12 76 15 77 16 78 33 79 17 80 25 81 24 82 18 83 19 84 23 85
REMARK SMILES IDX 20 86 22 87 21 88 26 89 27 90 32 91 28 92 30 93 29 94 31 95
REMARK H PARENT 87 22 57 33
REMARK Flexibility Score: inf
ROOT
ATOM      1  C   UNL A   1      34.160  32.658  28.200  1.00  0.00     0.275 C 
ENDROOT
BRANCH   1   2
ATOM      2  O   UNL A   1      33.861  31.246  28.247  1.00  0.00    -0.458 OA
BRANCH   2   3
ATOM      3  C   UNL A   1      34.534  30.157  27.804  1.00  0.00     0.338 C 
ATOM      4  O   UNL A   1      33.897  29.311  27.172  1.00  0.00    -0.246 OA
BRANCH   3   5
ATOM      5  C   UNL A   1      35.976  29.849  28.088  1.00  0.00     0.060 A 
ATOM      6  C   UNL A   1      37.039  29.994  27.196  1.00  0.00     0.016 A 
ATOM      7  C   UNL A   1      36.273  29.328  29.369  1.00  0.00     0.016 A 
ATOM      8  C   UNL A   1      38.358  29.710  27.591  1.00  0.00     0.010 A 
ATOM      9  C   UNL A   1      37.588  29.020  29.763  1.00  0.00     0.010 A 
ATOM     10  C   UNL A   1      38.646  29.224  28.876  1.00  0.00    -0.014 A 
BRANCH  10  11
ATOM     11  C   UNL A   1      40.044  28.814  29.183  1.00  0.00     0.031 A 
ATOM     12  C   UNL A   1      40.859  29.715  30.047  1.00  0.00     0.074 A 
ATOM     13  C   UNL A   1      40.548  27.625  28.796  1.00  0.00     0.049 A 
ATOM     14  N   UNL A   1      42.019  29.487  30.596  1.00  0.00    -0.248 NA
ATOM     15  C   UNL A   1      40.299  31.049  30.319  1.00  0.00     0.031 C 
ATOM     16  C   UNL A   1      39.882  26.726  27.882  1.00  0.00     0.029 A 
ATOM     17  N   UNL A   1      41.696  26.943  29.111  1.00  0.00    -0.354 N 
ATOM     18  C   UNL A   1      42.326  30.643  31.295  1.00  0.00     0.074 A 
ATOM     19  C   UNL A   1      41.242  31.579  31.081  1.00  0.00     0.031 C 
ATOM     20  C   UNL A   1      40.546  25.570  27.773  1.00  0.00     0.029 A 
ATOM     21  C   UNL A   1      41.754  25.672  28.568  1.00  0.00     0.049 A 
ATOM     22  H   UNL A   1      42.411  27.322  29.672  1.00  0.00     0.167 HD
ATOM     23  C   UNL A   1      43.424  30.895  32.041  1.00  0.00     0.031 A 
ATOM     24  C   UNL A   1      42.684  24.704  28.679  1.00  0.00     0.031 A 
ATOM     25  C   UNL A   1      44.529  29.987  32.157  1.00  0.00     0.049 A 
ATOM     26  C   UNL A   1      43.898  25.022  29.498  1.00  0.00     0.074 A 
ATOM     27  C   UNL A   1      45.731  30.169  32.813  1.00  0.00     0.029 A 
ATOM     28  N   UNL A   1      44.573  28.723  31.581  1.00  0.00    -0.354 N 
ATOM     29  N   UNL A   1      44.161  26.117  30.173  1.00  0.00    -0.248 NA
ATOM     30  C   UNL A   1      44.951  24.002  29.557  1.00  0.00     0.031 C 
ATOM     31  C   UNL A   1      46.516  29.029  32.604  1.00  0.00     0.029 A 
ATOM     32  C   UNL A   1      45.782  28.113  31.865  1.00  0.00     0.049 A 
ATOM     33  H   UNL A   1      43.849  28.320  31.048  1.00  0.00     0.167 HD
ATOM     34  C   UNL A   1      45.416  25.925  30.725  1.00  0.00     0.074 A 
ATOM     35  C   UNL A   1      45.838  24.589  30.348  1.00  0.00     0.031 C 
ATOM     36  C   UNL A   1      46.165  26.783  31.460  1.00  0.00     0.031 A 
BRANCH  23  37
ATOM     37  C   UNL A   1      43.465  32.229  32.727  1.00  0.00    -0.014 A 
ATOM     38  C   UNL A   1      42.757  32.436  33.926  1.00  0.00     0.010 A 
ATOM     39  C   UNL A   1      44.164  33.299  32.146  1.00  0.00     0.010 A 
ATOM     40  C   UNL A   1      42.712  33.704  34.508  1.00  0.00     0.020 A 
ATOM     41  C   UNL A   1      44.141  34.564  32.738  1.00  0.00     0.020 A 
ATOM     42  C   UNL A   1      43.399  34.762  33.905  1.00  0.00     0.054 A 
BRANCH  42  43
ATOM     43  S   UNL A   1      43.314  36.400  34.678  1.00  0.00     0.124 S 
ATOM     44  O   UNL A   1      41.982  36.382  35.276  1.00  0.00    -0.237 OA
ATOM     45  O   UNL A   1      44.427  36.365  35.623  1.00  0.00    -0.237 OA
ATOM     46  O   UNL A   1      43.481  37.320  33.556  1.00  0.00    -0.744 OA
ENDBRANCH  42  43
ENDBRANCH  23  37
BRANCH  24  47
ATOM     47  C   UNL A   1      42.535  23.393  27.975  1.00  0.00    -0.014 A 
ATOM     48  C   UNL A   1      41.554  22.462  28.365  1.00  0.00     0.010 A 
ATOM     49  C   UNL A   1      43.395  23.053  26.912  1.00  0.00     0.010 A 
ATOM     50  C   UNL A   1      41.455  21.216  27.732  1.00  0.00     0.020 A 
ATOM     51  C   UNL A   1      43.279  21.824  26.254  1.00  0.00     0.020 A 
ATOM     52  C   UNL A   1      42.322  20.903  26.681  1.00  0.00     0.054 A 
BRANCH  52  53
ATOM     53  S   UNL A   1      42.168  19.294  25.854  1.00  0.00     0.124 S 
ATOM     54  O   UNL A   1      42.655  18.378  26.879  1.00  0.00    -0.237 OA
ATOM     55  O   UNL A   1      40.739  19.219  25.563  1.00  0.00    -0.237 OA
ATOM     56  O   UNL A   1      43.027  19.433  24.679  1.00  0.00    -0.744 OA
ENDBRANCH  52  53
ENDBRANCH  24  47
BRANCH  36  57
ATOM     57  C   UNL A   1      47.503  26.279  31.913  1.00  0.00    -0.014 A 
ATOM     58  C   UNL A   1      47.640  25.575  33.121  1.00  0.00     0.010 A 
ATOM     59  C   UNL A   1      48.627  26.488  31.097  1.00  0.00     0.010 A 
ATOM     60  C   UNL A   1      48.894  25.113  33.523  1.00  0.00     0.020 A 
ATOM     61  C   UNL A   1      49.876  26.005  31.483  1.00  0.00     0.020 A 
ATOM     62  C   UNL A   1      50.004  25.333  32.701  1.00  0.00     0.054 A 
BRANCH  62  63
ATOM     63  S   UNL A   1      51.616  24.691  33.222  1.00  0.00     0.124 S 
ATOM     64  O   UNL A   1      51.901  25.507  34.399  1.00  0.00    -0.237 OA
ATOM     65  O   UNL A   1      51.331  23.283  33.486  1.00  0.00    -0.237 OA
ATOM     66  O   UNL A   1      52.476  24.940  32.067  1.00  0.00    -0.744 OA
ENDBRANCH  62  63
ENDBRANCH  36  57
ENDBRANCH  10  11
ENDBRANCH   3   5
ENDBRANCH   2   3
ENDBRANCH   1   2
BRANCH   1  67
ATOM     67  C   UNL A   1      34.207  33.315  29.576  1.00  0.00     0.274 C 
BRANCH  67  68
ATOM     68  O   UNL A   1      34.486  32.339  30.580  1.00  0.00    -0.461 OA
BRANCH  68  69
ATOM     69  C   UNL A   1      34.883  32.787  31.806  1.00  0.00     0.328 C 
ATOM     70  O   UNL A   1      34.144  33.379  32.601  1.00  0.00    -0.250 OA
BRANCH  69  71
ATOM     71  C   UNL A   1      36.328  32.360  32.094  1.00  0.00     0.193 C 
ATOM     72  C   UNL A   1      37.211  32.407  30.866  1.00  0.00     0.037 C 
ATOM     73  N   UNL A   1      36.972  33.181  33.119  1.00  0.00    -0.343 N 
ATOM     74  C   UNL A   1      37.527  33.825  30.404  1.00  0.00     0.005 C 
ATOM     75  C   UNL A   1      37.384  34.543  32.802  1.00  0.00     0.119 C 
ATOM     76  C   UNL A   1      38.225  34.577  31.527  1.00  0.00     0.022 C 
BRANCH  73  77
ATOM     77  C   UNL A   1      37.595  32.521  34.164  1.00  0.00     0.134 A 
ATOM     78  C   UNL A   1      38.452  31.515  33.804  1.00  0.00     0.076 A 
ATOM     79  N   UNL A   1      37.429  32.888  35.451  1.00  0.00    -0.211 NA
ATOM     80  C   UNL A   1      39.162  30.899  34.804  1.00  0.00     0.076 A 
ATOM     81  C   UNL A   1      38.145  32.204  36.374  1.00  0.00     0.162 A 
ATOM     82  N   UNL A   1      39.023  31.218  36.098  1.00  0.00    -0.228 NA
BRANCH  80  83
ATOM     83  C   UNL A   1      40.104  29.846  34.446  1.00  0.00     0.000 A 
ATOM     84  C   UNL A   1      41.214  29.580  35.255  1.00  0.00     0.010 A 
ATOM     85  C   UNL A   1      39.811  28.976  33.382  1.00  0.00     0.010 A 
ATOM     86  C   UNL A   1      41.984  28.437  35.040  1.00  0.00     0.001 A 
ATOM     87  C   UNL A   1      40.584  27.837  33.163  1.00  0.00     0.001 A 
ATOM     88  C   UNL A   1      41.661  27.562  34.002  1.00  0.00     0.000 A 
ENDBRANCH  80  83
BRANCH  81  89
ATOM     89  C   UNL A   1      37.977  32.521  37.805  1.00  0.00     0.021 A 
ATOM     90  C   UNL A   1      38.723  33.530  38.443  1.00  0.00     0.012 A 
ATOM     91  C   UNL A   1      36.991  31.861  38.568  1.00  0.00     0.032 A 
ATOM     92  C   UNL A   1      38.473  33.885  39.776  1.00  0.00     0.002 A 
ATOM     93  C   UNL A   1      36.754  32.209  39.901  1.00  0.00     0.041 A 
ATOM     94  C   UNL A   1      37.485  33.225  40.506  1.00  0.00     0.020 A 
ATOM     95  Cl  UNL A   1      35.533  31.384  40.794  1.00  0.00    -0.084 Cl
ENDBRANCH  81  89
ENDBRANCH  73  77
ENDBRANCH  69  71
ENDBRANCH  68  69
ENDBRANCH  67  68
ENDBRANCH   1  67
TORSDOF 17
ENDMDL
