MODEL 1
REMARK VINA RESULT:     -10.7      0.000      0.000
REMARK SMILES CCCc1cc(OC(F)(F)F)cc2c1O[C@@H](C(F)(F)F)C(C(=O)OCCOC(=O)c1ccc(-c3c4nc(c(-c5ccc(S(=O)(=O)[O-])cc5)c5ccc([nH]5)c(-c5ccc(S(=O)(=O)[O-])cc5)c5nc(c(-c6ccc(S(=O)(=O)[O-])cc6)c6ccc3[nH]6)C=C5)C=C4)cc1)=C2
REMARK SMILES IDX 26 1 25 2 24 3 22 4 23 5 21 6 4 7 5 8 14 9 6 10 13 11 15 12
REMARK SMILES IDX 12 13 90 14 16 15 3 16 2 17 1 18 7 19 8 20 9 21 10 22 11 23
REMARK SMILES IDX 17 24 18 25 19 26 20 27 27 28 28 29 29 30 30 31 31 32 89 33
REMARK SMILES IDX 32 34 88 35 33 36 34 37 35 38 82 39 36 40 87 41 81 42 83 43
REMARK SMILES IDX 37 44 86 45 80 46 79 47 38 49 68 50 49 51 67 52 50 53 53 54
REMARK SMILES IDX 66 55 84 56 51 57 52 58 65 60 85 61 54 62 39 63 40 64 48 65
REMARK SMILES IDX 41 66 47 67 42 68 43 69 44 70 45 71 46 72 69 73 70 74 78 75
REMARK SMILES IDX 71 76 77 77 72 78 73 79 74 80 75 81 76 82 55 83 56 84 64 85
REMARK SMILES IDX 57 86 63 87 58 88 59 89 60 90 61 91 62 92
REMARK H PARENT 83 48 53 59
REMARK Flexibility Score: inf
ROOT
ATOM      1  C   UNL A   1      37.457  21.680  25.510  1.00  0.00     0.275 C 
ENDROOT
BRANCH   1   2
ATOM      2  C   UNL A   1      35.934  21.513  25.499  1.00  0.00     0.275 C 
BRANCH   2   3
ATOM      3  O   UNL A   1      35.402  21.615  24.162  1.00  0.00    -0.459 OA
BRANCH   3   4
ATOM      4  C   UNL A   1      35.443  22.847  23.594  1.00  0.00     0.338 C 
ATOM      5  O   UNL A   1      36.200  23.188  22.702  1.00  0.00    -0.246 OA
BRANCH   4   6
ATOM      6  C   UNL A   1      34.413  23.746  24.163  1.00  0.00     0.087 C 
ATOM      7  C   UNL A   1      31.333  26.180  25.623  1.00  0.00    -0.002 A 
ATOM      8  C   UNL A   1      31.662  27.251  26.469  1.00  0.00     0.054 A 
ATOM      9  C   UNL A   1      32.384  25.442  25.055  1.00  0.00     0.131 A 
ATOM     10  C   UNL A   1      32.994  27.613  26.685  1.00  0.00     0.130 A 
ATOM     11  C   UNL A   1      33.724  25.734  25.334  1.00  0.00     0.021 A 
ATOM     12  O   UNL A   1      32.054  24.470  24.149  1.00  0.00    -0.475 OA
ATOM     13  C   UNL A   1      34.021  26.831  26.145  1.00  0.00     0.058 A 
ATOM     14  C   UNL A   1      34.776  24.899  24.754  1.00  0.00     0.027 C 
ATOM     15  C   UNL A   1      32.956  23.335  24.084  1.00  0.00     0.316 C 
BRANCH   7  16
ATOM     16  C   UNL A   1      29.894  25.749  25.404  1.00  0.00     0.039 C 
BRANCH  16  17
ATOM     17  C   UNL A   1      29.097  26.470  24.310  1.00  0.00     0.001 C 
ATOM     18  C   UNL A   1      29.980  27.249  23.347  1.00  0.00     0.004 C 
ENDBRANCH  16  17
ENDBRANCH   7  16
BRANCH  10  19
ATOM     19  O   UNL A   1      33.410  28.690  27.419  1.00  0.00    -0.406 OA
BRANCH  19  20
ATOM     20  C   UNL A   1      33.135  29.974  26.875  1.00  0.00     0.573 C 
ATOM     21  F   UNL A   1      31.869  30.369  27.134  1.00  0.00    -0.132 F 
ATOM     22  F   UNL A   1      34.001  30.894  27.351  1.00  0.00    -0.132 F 
ATOM     23  F   UNL A   1      33.283  29.917  25.532  1.00  0.00    -0.132 F 
ENDBRANCH  19  20
ENDBRANCH  10  19
BRANCH  15  24
ATOM     24  C   UNL A   1      32.494  22.465  22.899  1.00  0.00     0.430 C 
ATOM     25  F   UNL A   1      32.694  21.148  23.134  1.00  0.00    -0.167 F 
ATOM     26  F   UNL A   1      31.156  22.607  22.711  1.00  0.00    -0.167 F 
ATOM     27  F   UNL A   1      33.094  22.804  21.740  1.00  0.00    -0.167 F 
ENDBRANCH  15  24
ENDBRANCH   4   6
ENDBRANCH   3   4
ENDBRANCH   2   3
ENDBRANCH   1   2
BRANCH   1  28
ATOM     28  O   UNL A   1      37.853  22.870  26.215  1.00  0.00    -0.458 OA
BRANCH  28  29
ATOM     29  C   UNL A   1      39.188  23.012  26.395  1.00  0.00     0.338 C 
ATOM     30  O   UNL A   1      40.064  22.291  25.943  1.00  0.00    -0.246 OA
BRANCH  29  31
ATOM     31  C   UNL A   1      39.473  24.286  27.083  1.00  0.00     0.060 A 
ATOM     32  C   UNL A   1      40.202  25.242  26.369  1.00  0.00     0.016 A 
ATOM     33  C   UNL A   1      39.067  24.551  28.392  1.00  0.00     0.016 A 
ATOM     34  C   UNL A   1      40.469  26.491  26.922  1.00  0.00     0.010 A 
ATOM     35  C   UNL A   1      39.388  25.783  28.974  1.00  0.00     0.010 A 
ATOM     36  C   UNL A   1      40.083  26.759  28.238  1.00  0.00    -0.014 A 
BRANCH  36  37
ATOM     37  C   UNL A   1      40.520  28.015  28.886  1.00  0.00     0.031 A 
ATOM     38  C   UNL A   1      41.896  28.082  29.483  1.00  0.00     0.074 A 
ATOM     39  C   UNL A   1      39.704  29.084  28.930  1.00  0.00     0.049 A 
ATOM     40  N   UNL A   1      42.445  29.036  30.185  1.00  0.00    -0.248 NA
ATOM     41  C   UNL A   1      42.773  26.923  29.244  1.00  0.00     0.031 C 
ATOM     42  C   UNL A   1      38.390  29.172  28.293  1.00  0.00     0.029 A 
ATOM     43  N   UNL A   1      39.862  30.300  29.546  1.00  0.00    -0.354 N 
ATOM     44  C   UNL A   1      43.728  28.594  30.479  1.00  0.00     0.074 A 
ATOM     45  C   UNL A   1      43.878  27.286  29.878  1.00  0.00     0.031 C 
ATOM     46  C   UNL A   1      37.850  30.370  28.576  1.00  0.00     0.029 A 
ATOM     47  C   UNL A   1      38.757  31.112  29.449  1.00  0.00     0.049 A 
ATOM     48  H   UNL A   1      40.688  30.565  30.013  1.00  0.00     0.167 HD
ATOM     49  C   UNL A   1      44.689  29.215  31.201  1.00  0.00     0.031 A 
ATOM     50  C   UNL A   1      38.495  32.298  30.035  1.00  0.00     0.031 A 
ATOM     51  C   UNL A   1      44.514  30.490  31.840  1.00  0.00     0.049 A 
ATOM     52  C   UNL A   1      39.531  32.911  30.945  1.00  0.00     0.074 A 
ATOM     53  C   UNL A   1      45.408  31.184  32.635  1.00  0.00     0.029 A 
ATOM     54  N   UNL A   1      43.362  31.257  31.766  1.00  0.00    -0.354 N 
ATOM     55  N   UNL A   1      40.733  32.473  31.236  1.00  0.00    -0.248 NA
ATOM     56  C   UNL A   1      39.173  34.172  31.612  1.00  0.00     0.031 C 
ATOM     57  C   UNL A   1      44.775  32.347  33.086  1.00  0.00     0.029 A 
ATOM     58  C   UNL A   1      43.510  32.405  32.521  1.00  0.00     0.049 A 
ATOM     59  H   UNL A   1      42.556  31.018  31.252  1.00  0.00     0.167 HD
ATOM     60  C   UNL A   1      41.286  33.421  32.093  1.00  0.00     0.074 A 
ATOM     61  C   UNL A   1      40.288  34.454  32.273  1.00  0.00     0.031 C 
ATOM     62  C   UNL A   1      42.511  33.435  32.672  1.00  0.00     0.031 A 
BRANCH  49  63
ATOM     63  C   UNL A   1      45.988  28.483  31.393  1.00  0.00    -0.014 A 
ATOM     64  C   UNL A   1      46.166  27.579  32.456  1.00  0.00     0.010 A 
ATOM     65  C   UNL A   1      47.042  28.696  30.487  1.00  0.00     0.010 A 
ATOM     66  C   UNL A   1      47.392  26.931  32.630  1.00  0.00     0.020 A 
ATOM     67  C   UNL A   1      48.261  28.033  30.645  1.00  0.00     0.020 A 
ATOM     68  C   UNL A   1      48.434  27.167  31.727  1.00  0.00     0.054 A 
BRANCH  68  69
ATOM     69  S   UNL A   1      50.015  26.314  31.977  1.00  0.00     0.124 S 
ATOM     70  O   UNL A   1      50.499  26.172  30.605  1.00  0.00    -0.237 OA
ATOM     71  O   UNL A   1      50.760  27.254  32.811  1.00  0.00    -0.237 OA
ATOM     72  O   UNL A   1      49.635  25.066  32.635  1.00  0.00    -0.744 OA
ENDBRANCH  68  69
ENDBRANCH  49  63
BRANCH  50  73
ATOM     73  C   UNL A   1      37.176  32.959  29.829  1.00  0.00    -0.014 A 
ATOM     74  C   UNL A   1      36.909  33.684  28.655  1.00  0.00     0.010 A 
ATOM     75  C   UNL A   1      36.181  32.875  30.821  1.00  0.00     0.010 A 
ATOM     76  C   UNL A   1      35.676  34.326  28.484  1.00  0.00     0.020 A 
ATOM     77  C   UNL A   1      34.939  33.493  30.642  1.00  0.00     0.020 A 
ATOM     78  C   UNL A   1      34.700  34.226  29.479  1.00  0.00     0.054 A 
BRANCH  78  79
ATOM     79  S   UNL A   1      33.096  35.035  29.221  1.00  0.00     0.124 S 
ATOM     80  O   UNL A   1      32.484  34.180  28.209  1.00  0.00    -0.237 OA
ATOM     81  O   UNL A   1      32.493  34.973  30.550  1.00  0.00    -0.237 OA
ATOM     82  O   UNL A   1      33.458  36.378  28.772  1.00  0.00    -0.744 OA
ENDBRANCH  78  79
ENDBRANCH  50  73
BRANCH  62  83
ATOM     83  C   UNL A   1      42.883  34.624  33.515  1.00  0.00    -0.014 A 
ATOM     84  C   UNL A   1      42.645  34.640  34.900  1.00  0.00     0.010 A 
ATOM     85  C   UNL A   1      43.591  35.688  32.925  1.00  0.00     0.010 A 
ATOM     86  C   UNL A   1      43.114  35.700  35.682  1.00  0.00     0.020 A 
ATOM     87  C   UNL A   1      44.080  36.737  33.707  1.00  0.00     0.020 A 
ATOM     88  C   UNL A   1      43.835  36.738  35.081  1.00  0.00     0.054 A 
BRANCH  88  89
ATOM     89  S   UNL A   1      44.521  38.049  36.130  1.00  0.00     0.124 S 
ATOM     90  O   UNL A   1      43.859  37.796  37.407  1.00  0.00    -0.237 OA
ATOM     91  O   UNL A   1      45.956  37.768  36.100  1.00  0.00    -0.237 OA
ATOM     92  O   UNL A   1      44.121  39.281  35.454  1.00  0.00    -0.744 OA
ENDBRANCH  88  89
ENDBRANCH  62  83
ENDBRANCH  36  37
ENDBRANCH  29  31
ENDBRANCH  28  29
ENDBRANCH   1  28
TORSDOF 19
ENDMDL
MODEL 2
REMARK VINA RESULT:     -10.4      2.495      3.130
REMARK SMILES CCCc1cc(OC(F)(F)F)cc2c1O[C@@H](C(F)(F)F)C(C(=O)OCCOC(=O)c1ccc(-c3c4nc(c(-c5ccc(S(=O)(=O)[O-])cc5)c5ccc([nH]5)c(-c5ccc(S(=O)(=O)[O-])cc5)c5nc(c(-c6ccc(S(=O)(=O)[O-])cc6)c6ccc3[nH]6)C=C5)C=C4)cc1)=C2
REMARK SMILES IDX 26 1 25 2 24 3 22 4 23 5 21 6 4 7 5 8 14 9 6 10 13 11 15 12
REMARK SMILES IDX 12 13 90 14 16 15 3 16 2 17 1 18 7 19 8 20 9 21 10 22 11 23
REMARK SMILES IDX 17 24 18 25 19 26 20 27 27 28 28 29 29 30 30 31 31 32 89 33
REMARK SMILES IDX 32 34 88 35 33 36 34 37 35 38 82 39 36 40 87 41 81 42 83 43
REMARK SMILES IDX 37 44 86 45 80 46 79 47 38 49 68 50 49 51 67 52 50 53 53 54
REMARK SMILES IDX 66 55 84 56 51 57 52 58 65 60 85 61 54 62 39 63 40 64 48 65
REMARK SMILES IDX 41 66 47 67 42 68 43 69 44 70 45 71 46 72 69 73 70 74 78 75
REMARK SMILES IDX 71 76 77 77 72 78 73 79 74 80 75 81 76 82 55 83 56 84 64 85
REMARK SMILES IDX 57 86 63 87 58 88 59 89 60 90 61 91 62 92
REMARK H PARENT 83 48 53 59
REMARK Flexibility Score: inf
ROOT
ATOM      1  C   UNL A   1      37.293  21.140  25.294  1.00  0.00     0.275 C 
ENDROOT
BRANCH   1   2
ATOM      2  C   UNL A   1      35.772  21.297  25.390  1.00  0.00     0.275 C 
BRANCH   2   3
ATOM      3  O   UNL A   1      35.353  22.623  25.007  1.00  0.00    -0.459 OA
BRANCH   3   4
ATOM      4  C   UNL A   1      34.039  22.912  25.186  1.00  0.00     0.338 C 
ATOM      5  O   UNL A   1      33.181  22.116  25.525  1.00  0.00    -0.246 OA
BRANCH   4   6
ATOM      6  C   UNL A   1      33.759  24.347  24.955  1.00  0.00     0.087 C 
ATOM      7  C   UNL A   1      32.962  28.360  24.056  1.00  0.00    -0.002 A 
ATOM      8  C   UNL A   1      33.031  29.310  25.088  1.00  0.00     0.054 A 
ATOM      9  C   UNL A   1      33.339  27.040  24.350  1.00  0.00     0.131 A 
ATOM     10  C   UNL A   1      33.524  28.966  26.350  1.00  0.00     0.130 A 
ATOM     11  C   UNL A   1      33.747  26.657  25.633  1.00  0.00     0.021 A 
ATOM     12  O   UNL A   1      33.369  26.148  23.312  1.00  0.00    -0.475 OA
ATOM     13  C   UNL A   1      33.846  27.633  26.628  1.00  0.00     0.058 A 
ATOM     14  C   UNL A   1      34.078  25.256  25.893  1.00  0.00     0.027 C 
ATOM     15  C   UNL A   1      33.093  24.766  23.658  1.00  0.00     0.316 C 
BRANCH   7  16
ATOM     16  C   UNL A   1      32.398  28.706  22.691  1.00  0.00     0.039 C 
BRANCH  16  17
ATOM     17  C   UNL A   1      30.899  29.016  22.601  1.00  0.00     0.001 C 
ATOM     18  C   UNL A   1      30.024  27.852  23.040  1.00  0.00     0.004 C 
ENDBRANCH  16  17
ENDBRANCH   7  16
BRANCH  10  19
ATOM     19  O   UNL A   1      33.712  29.836  27.388  1.00  0.00    -0.406 OA
BRANCH  19  20
ATOM     20  C   UNL A   1      35.042  30.286  27.609  1.00  0.00     0.573 C 
ATOM     21  F   UNL A   1      35.186  31.595  27.310  1.00  0.00    -0.132 F 
ATOM     22  F   UNL A   1      35.416  30.071  28.889  1.00  0.00    -0.132 F 
ATOM     23  F   UNL A   1      35.874  29.585  26.807  1.00  0.00    -0.132 F 
ENDBRANCH  19  20
ENDBRANCH  10  19
BRANCH  15  24
ATOM     24  C   UNL A   1      33.347  23.928  22.391  1.00  0.00     0.430 C 
ATOM     25  F   UNL A   1      32.534  22.849  22.330  1.00  0.00    -0.167 F 
ATOM     26  F   UNL A   1      33.066  24.663  21.283  1.00  0.00    -0.167 F 
ATOM     27  F   UNL A   1      34.629  23.523  22.283  1.00  0.00    -0.167 F 
ENDBRANCH  15  24
ENDBRANCH   4   6
ENDBRANCH   3   4
ENDBRANCH   2   3
ENDBRANCH   1   2
BRANCH   1  28
ATOM     28  O   UNL A   1      37.976  22.325  25.740  1.00  0.00    -0.458 OA
BRANCH  28  29
ATOM     29  C   UNL A   1      39.167  22.106  26.347  1.00  0.00     0.338 C 
ATOM     30  O   UNL A   1      39.790  21.056  26.369  1.00  0.00    -0.246 OA
BRANCH  29  31
ATOM     31  C   UNL A   1      39.722  23.379  26.847  1.00  0.00     0.060 A 
ATOM     32  C   UNL A   1      39.417  24.532  26.117  1.00  0.00     0.016 A 
ATOM     33  C   UNL A   1      40.533  23.462  27.980  1.00  0.00     0.016 A 
ATOM     34  C   UNL A   1      39.853  25.781  26.548  1.00  0.00     0.010 A 
ATOM     35  C   UNL A   1      41.026  24.709  28.381  1.00  0.00     0.010 A 
ATOM     36  C   UNL A   1      40.681  25.873  27.670  1.00  0.00    -0.014 A 
BRANCH  36  37
ATOM     37  C   UNL A   1      41.290  27.174  28.025  1.00  0.00     0.031 A 
ATOM     38  C   UNL A   1      42.778  27.333  27.909  1.00  0.00     0.074 A 
ATOM     39  C   UNL A   1      40.523  28.201  28.432  1.00  0.00     0.049 A 
ATOM     40  N   UNL A   1      43.531  28.340  28.263  1.00  0.00    -0.248 NA
ATOM     41  C   UNL A   1      43.514  26.211  27.301  1.00  0.00     0.031 C 
ATOM     42  C   UNL A   1      39.061  28.199  28.482  1.00  0.00     0.029 A 
ATOM     43  N   UNL A   1      40.874  29.447  28.890  1.00  0.00    -0.354 N 
ATOM     44  C   UNL A   1      44.828  27.975  27.927  1.00  0.00     0.074 A 
ATOM     45  C   UNL A   1      44.762  26.654  27.341  1.00  0.00     0.031 C 
ATOM     46  C   UNL A   1      38.641  29.378  28.971  1.00  0.00     0.029 A 
ATOM     47  C   UNL A   1      39.802  30.199  29.311  1.00  0.00     0.049 A 
ATOM     48  H   UNL A   1      41.804  29.771  28.914  1.00  0.00     0.167 HD
ATOM     49  C   UNL A   1      45.974  28.672  28.110  1.00  0.00     0.031 A 
ATOM     50  C   UNL A   1      39.770  31.392  29.938  1.00  0.00     0.031 A 
ATOM     51  C   UNL A   1      46.037  29.960  28.742  1.00  0.00     0.049 A 
ATOM     52  C   UNL A   1      41.070  32.091  30.252  1.00  0.00     0.074 A 
ATOM     53  C   UNL A   1      47.152  30.729  29.019  1.00  0.00     0.029 A 
ATOM     54  N   UNL A   1      44.937  30.665  29.206  1.00  0.00    -0.354 N 
ATOM     55  N   UNL A   1      42.294  31.726  29.952  1.00  0.00    -0.248 NA
ATOM     56  C   UNL A   1      40.986  33.358  30.994  1.00  0.00     0.031 C 
ATOM     57  C   UNL A   1      46.730  31.875  29.701  1.00  0.00     0.029 A 
ATOM     58  C   UNL A   1      45.348  31.848  29.792  1.00  0.00     0.049 A 
ATOM     59  H   UNL A   1      44.001  30.366  29.131  1.00  0.00     0.167 HD
ATOM     60  C   UNL A   1      43.122  32.733  30.441  1.00  0.00     0.074 A 
ATOM     61  C   UNL A   1      42.260  33.722  31.054  1.00  0.00     0.031 C 
ATOM     62  C   UNL A   1      44.472  32.831  30.380  1.00  0.00     0.031 A 
BRANCH  49  63
ATOM     63  C   UNL A   1      47.255  28.013  27.682  1.00  0.00    -0.014 A 
ATOM     64  C   UNL A   1      47.943  27.131  28.534  1.00  0.00     0.010 A 
ATOM     65  C   UNL A   1      47.772  28.275  26.399  1.00  0.00     0.010 A 
ATOM     66  C   UNL A   1      49.147  26.552  28.123  1.00  0.00     0.020 A 
ATOM     67  C   UNL A   1      48.963  27.681  25.979  1.00  0.00     0.020 A 
ATOM     68  C   UNL A   1      49.653  26.837  26.851  1.00  0.00     0.054 A 
BRANCH  68  69
ATOM     69  S   UNL A   1      51.219  26.074  26.344  1.00  0.00     0.124 S 
ATOM     70  O   UNL A   1      52.200  26.975  26.945  1.00  0.00    -0.237 OA
ATOM     71  O   UNL A   1      51.138  24.744  26.944  1.00  0.00    -0.237 OA
ATOM     72  O   UNL A   1      51.161  26.101  24.884  1.00  0.00    -0.744 OA
ENDBRANCH  68  69
ENDBRANCH  49  63
BRANCH  50  73
ATOM     73  C   UNL A   1      38.468  31.978  30.364  1.00  0.00    -0.014 A 
ATOM     74  C   UNL A   1      37.746  32.829  29.510  1.00  0.00     0.010 A 
ATOM     75  C   UNL A   1      37.950  31.693  31.641  1.00  0.00     0.010 A 
ATOM     76  C   UNL A   1      36.538  33.397  29.931  1.00  0.00     0.020 A 
ATOM     77  C   UNL A   1      36.731  32.238  32.056  1.00  0.00     0.020 A 
ATOM     78  C   UNL A   1      36.038  33.098  31.202  1.00  0.00     0.054 A 
BRANCH  78  79
ATOM     79  S   UNL A   1      34.453  33.816  31.715  1.00  0.00     0.124 S 
ATOM     80  O   UNL A   1      33.849  32.717  32.462  1.00  0.00    -0.237 OA
ATOM     81  O   UNL A   1      34.869  34.967  32.512  1.00  0.00    -0.237 OA
ATOM     82  O   UNL A   1      33.801  34.147  30.450  1.00  0.00    -0.744 OA
ENDBRANCH  78  79
ENDBRANCH  50  73
BRANCH  62  83
ATOM     83  C   UNL A   1      45.118  34.070  30.938  1.00  0.00    -0.014 A 
ATOM     84  C   UNL A   1      45.593  34.113  32.259  1.00  0.00     0.010 A 
ATOM     85  C   UNL A   1      45.359  35.162  30.083  1.00  0.00     0.010 A 
ATOM     86  C   UNL A   1      46.304  35.227  32.715  1.00  0.00     0.020 A 
ATOM     87  C   UNL A   1      46.087  36.267  30.529  1.00  0.00     0.020 A 
ATOM     88  C   UNL A   1      46.553  36.294  31.844  1.00  0.00     0.054 A 
BRANCH  88  89
ATOM     89  S   UNL A   1      47.564  37.683  32.428  1.00  0.00     0.124 S 
ATOM     90  O   UNL A   1      48.217  38.123  31.197  1.00  0.00    -0.237 OA
ATOM     91  O   UNL A   1      46.565  38.602  32.971  1.00  0.00    -0.237 OA
ATOM     92  O   UNL A   1      48.447  37.077  33.421  1.00  0.00    -0.744 OA
ENDBRANCH  88  89
ENDBRANCH  62  83
ENDBRANCH  36  37
ENDBRANCH  29  31
ENDBRANCH  28  29
ENDBRANCH   1  28
TORSDOF 19
ENDMDL
MODEL 3
REMARK VINA RESULT:     -10.0      4.115      9.234
REMARK SMILES CCCc1cc(OC(F)(F)F)cc2c1O[C@@H](C(F)(F)F)C(C(=O)OCCOC(=O)c1ccc(-c3c4nc(c(-c5ccc(S(=O)(=O)[O-])cc5)c5ccc([nH]5)c(-c5ccc(S(=O)(=O)[O-])cc5)c5nc(c(-c6ccc(S(=O)(=O)[O-])cc6)c6ccc3[nH]6)C=C5)C=C4)cc1)=C2
REMARK SMILES IDX 26 1 25 2 24 3 22 4 23 5 21 6 4 7 5 8 14 9 6 10 13 11 15 12
REMARK SMILES IDX 12 13 90 14 16 15 3 16 2 17 1 18 7 19 8 20 9 21 10 22 11 23
REMARK SMILES IDX 17 24 18 25 19 26 20 27 27 28 28 29 29 30 30 31 31 32 89 33
REMARK SMILES IDX 32 34 88 35 33 36 34 37 35 38 82 39 36 40 87 41 81 42 83 43
REMARK SMILES IDX 37 44 86 45 80 46 79 47 38 49 68 50 49 51 67 52 50 53 53 54
REMARK SMILES IDX 66 55 84 56 51 57 52 58 65 60 85 61 54 62 39 63 40 64 48 65
REMARK SMILES IDX 41 66 47 67 42 68 43 69 44 70 45 71 46 72 69 73 70 74 78 75
REMARK SMILES IDX 71 76 77 77 72 78 73 79 74 80 75 81 76 82 55 83 56 84 64 85
REMARK SMILES IDX 57 86 63 87 58 88 59 89 60 90 61 91 62 92
REMARK H PARENT 83 48 53 59
REMARK Flexibility Score: inf
ROOT
ATOM      1  C   UNL A   1      39.051  20.750  25.687  1.00  0.00     0.275 C 
ENDROOT
BRANCH   1   2
ATOM      2  C   UNL A   1      38.336  22.078  25.954  1.00  0.00     0.275 C 
BRANCH   2   3
ATOM      3  O   UNL A   1      36.903  21.930  25.879  1.00  0.00    -0.459 OA
BRANCH   3   4
ATOM      4  C   UNL A   1      36.313  22.374  24.740  1.00  0.00     0.338 C 
ATOM      5  O   UNL A   1      36.695  22.136  23.608  1.00  0.00    -0.246 OA
BRANCH   4   6
ATOM      6  C   UNL A   1      35.098  23.169  25.029  1.00  0.00     0.087 C 
ATOM      7  C   UNL A   1      31.525  25.214  25.801  1.00  0.00    -0.002 A 
ATOM      8  C   UNL A   1      31.567  26.607  25.973  1.00  0.00     0.054 A 
ATOM      9  C   UNL A   1      32.711  24.559  25.435  1.00  0.00     0.131 A 
ATOM     10  C   UNL A   1      32.739  27.327  25.721  1.00  0.00     0.130 A 
ATOM     11  C   UNL A   1      33.915  25.253  25.269  1.00  0.00     0.021 A 
ATOM     12  O   UNL A   1      32.634  23.219  25.166  1.00  0.00    -0.475 OA
ATOM     13  C   UNL A   1      33.918  26.643  25.405  1.00  0.00     0.058 A 
ATOM     14  C   UNL A   1      35.132  24.511  24.936  1.00  0.00     0.027 C 
ATOM     15  C   UNL A   1      33.831  22.448  25.448  1.00  0.00     0.316 C 
BRANCH   7  16
ATOM     16  C   UNL A   1      30.273  24.411  26.103  1.00  0.00     0.039 C 
BRANCH  16  17
ATOM     17  C   UNL A   1      30.421  23.177  27.002  1.00  0.00     0.001 C 
ATOM     18  C   UNL A   1      29.084  22.573  27.404  1.00  0.00     0.004 C 
ENDBRANCH  16  17
ENDBRANCH   7  16
BRANCH  10  19
ATOM     19  O   UNL A   1      32.855  28.689  25.775  1.00  0.00    -0.406 OA
BRANCH  19  20
ATOM     20  C   UNL A   1      32.845  29.277  27.069  1.00  0.00     0.573 C 
ATOM     21  F   UNL A   1      33.125  28.375  28.034  1.00  0.00    -0.132 F 
ATOM     22  F   UNL A   1      33.724  30.300  27.139  1.00  0.00    -0.132 F 
ATOM     23  F   UNL A   1      31.610  29.771  27.311  1.00  0.00    -0.132 F 
ENDBRANCH  19  20
ENDBRANCH  10  19
BRANCH  15  24
ATOM     24  C   UNL A   1      33.580  21.023  24.917  1.00  0.00     0.430 C 
ATOM     25  F   UNL A   1      33.560  20.986  23.566  1.00  0.00    -0.167 F 
ATOM     26  F   UNL A   1      34.596  20.202  25.293  1.00  0.00    -0.167 F 
ATOM     27  F   UNL A   1      32.439  20.484  25.393  1.00  0.00    -0.167 F 
ENDBRANCH  15  24
ENDBRANCH   4   6
ENDBRANCH   3   4
ENDBRANCH   2   3
ENDBRANCH   1   2
BRANCH   1  28
ATOM     28  O   UNL A   1      39.918  20.387  26.776  1.00  0.00    -0.458 OA
BRANCH  28  29
ATOM     29  C   UNL A   1      41.219  20.213  26.440  1.00  0.00     0.338 C 
ATOM     30  O   UNL A   1      41.708  19.227  25.911  1.00  0.00    -0.246 OA
BRANCH  29  31
ATOM     31  C   UNL A   1      41.966  21.470  26.641  1.00  0.00     0.060 A 
ATOM     32  C   UNL A   1      42.297  21.805  27.957  1.00  0.00     0.016 A 
ATOM     33  C   UNL A   1      42.323  22.317  25.591  1.00  0.00     0.016 A 
ATOM     34  C   UNL A   1      43.048  22.945  28.232  1.00  0.00     0.010 A 
ATOM     35  C   UNL A   1      43.023  23.497  25.871  1.00  0.00     0.010 A 
ATOM     36  C   UNL A   1      43.394  23.810  27.190  1.00  0.00    -0.014 A 
BRANCH  36  37
ATOM     37  C   UNL A   1      44.034  25.107  27.501  1.00  0.00     0.031 A 
ATOM     38  C   UNL A   1      43.186  26.225  28.033  1.00  0.00     0.074 A 
ATOM     39  C   UNL A   1      45.356  25.280  27.320  1.00  0.00     0.049 A 
ATOM     40  N   UNL A   1      43.512  27.467  28.272  1.00  0.00    -0.248 NA
ATOM     41  C   UNL A   1      41.786  25.894  28.350  1.00  0.00     0.031 C 
ATOM     42  C   UNL A   1      46.297  24.237  26.911  1.00  0.00     0.029 A 
ATOM     43  N   UNL A   1      46.134  26.403  27.454  1.00  0.00    -0.354 N 
ATOM     44  C   UNL A   1      42.360  28.069  28.762  1.00  0.00     0.074 A 
ATOM     45  C   UNL A   1      41.326  27.057  28.787  1.00  0.00     0.031 C 
ATOM     46  C   UNL A   1      47.523  24.779  26.800  1.00  0.00     0.029 A 
ATOM     47  C   UNL A   1      47.444  26.210  27.085  1.00  0.00     0.049 A 
ATOM     48  H   UNL A   1      45.786  27.264  27.783  1.00  0.00     0.167 HD
ATOM     49  C   UNL A   1      42.177  29.356  29.138  1.00  0.00     0.031 A 
ATOM     50  C   UNL A   1      48.450  27.099  26.951  1.00  0.00     0.031 A 
ATOM     51  C   UNL A   1      43.194  30.367  29.059  1.00  0.00     0.049 A 
ATOM     52  C   UNL A   1      48.187  28.554  27.250  1.00  0.00     0.074 A 
ATOM     53  C   UNL A   1      43.097  31.712  29.369  1.00  0.00     0.029 A 
ATOM     54  N   UNL A   1      44.492  30.147  28.627  1.00  0.00    -0.354 N 
ATOM     55  N   UNL A   1      47.086  29.118  27.689  1.00  0.00    -0.248 NA
ATOM     56  C   UNL A   1      49.296  29.493  27.027  1.00  0.00     0.031 C 
ATOM     57  C   UNL A   1      44.323  32.315  29.073  1.00  0.00     0.029 A 
ATOM     58  C   UNL A   1      45.200  31.335  28.638  1.00  0.00     0.049 A 
ATOM     59  H   UNL A   1      44.856  29.274  28.353  1.00  0.00     0.167 HD
ATOM     60  C   UNL A   1      47.382  30.472  27.826  1.00  0.00     0.074 A 
ATOM     61  C   UNL A   1      48.763  30.642  27.423  1.00  0.00     0.031 C 
ATOM     62  C   UNL A   1      46.583  31.480  28.253  1.00  0.00     0.031 A 
BRANCH  49  63
ATOM     63  C   UNL A   1      40.801  29.748  29.600  1.00  0.00    -0.014 A 
ATOM     64  C   UNL A   1      40.515  29.935  30.964  1.00  0.00     0.010 A 
ATOM     65  C   UNL A   1      39.782  29.944  28.650  1.00  0.00     0.010 A 
ATOM     66  C   UNL A   1      39.221  30.272  31.372  1.00  0.00     0.020 A 
ATOM     67  C   UNL A   1      38.494  30.302  29.053  1.00  0.00     0.020 A 
ATOM     68  C   UNL A   1      38.217  30.447  30.414  1.00  0.00     0.054 A 
BRANCH  68  69
ATOM     69  S   UNL A   1      36.547  30.883  30.969  1.00  0.00     0.124 S 
ATOM     70  O   UNL A   1      36.169  29.700  31.740  1.00  0.00    -0.237 OA
ATOM     71  O   UNL A   1      36.775  32.095  31.752  1.00  0.00    -0.237 OA
ATOM     72  O   UNL A   1      35.807  31.077  29.725  1.00  0.00    -0.744 OA
ENDBRANCH  68  69
ENDBRANCH  49  63
BRANCH  50  73
ATOM     73  C   UNL A   1      49.783  26.651  26.460  1.00  0.00    -0.014 A 
ATOM     74  C   UNL A   1      50.754  26.165  27.352  1.00  0.00     0.010 A 
ATOM     75  C   UNL A   1      50.090  26.723  25.088  1.00  0.00     0.010 A 
ATOM     76  C   UNL A   1      52.014  25.774  26.883  1.00  0.00     0.020 A 
ATOM     77  C   UNL A   1      51.339  26.309  24.613  1.00  0.00     0.020 A 
ATOM     78  C   UNL A   1      52.298  25.849  25.516  1.00  0.00     0.054 A 
BRANCH  78  79
ATOM     79  S   UNL A   1      53.925  25.303  24.925  1.00  0.00     0.124 S 
ATOM     80  O   UNL A   1      54.817  25.848  25.944  1.00  0.00    -0.237 OA
ATOM     81  O   UNL A   1      53.788  23.850  24.917  1.00  0.00    -0.237 OA
ATOM     82  O   UNL A   1      54.033  25.918  23.604  1.00  0.00    -0.744 OA
ENDBRANCH  78  79
ENDBRANCH  50  73
BRANCH  62  83
ATOM     83  C   UNL A   1      47.179  32.856  28.366  1.00  0.00    -0.014 A 
ATOM     84  C   UNL A   1      47.877  33.257  29.518  1.00  0.00     0.010 A 
ATOM     85  C   UNL A   1      47.142  33.713  27.250  1.00  0.00     0.010 A 
ATOM     86  C   UNL A   1      48.532  34.492  29.550  1.00  0.00     0.020 A 
ATOM     87  C   UNL A   1      47.813  34.938  27.272  1.00  0.00     0.020 A 
ATOM     88  C   UNL A   1      48.502  35.321  28.424  1.00  0.00     0.054 A 
BRANCH  88  89
ATOM     89  S   UNL A   1      49.443  36.872  28.453  1.00  0.00     0.124 S 
ATOM     90  O   UNL A   1      50.299  36.687  29.622  1.00  0.00    -0.237 OA
ATOM     91  O   UNL A   1      50.129  36.856  27.162  1.00  0.00    -0.237 OA
ATOM     92  O   UNL A   1      48.414  37.900  28.589  1.00  0.00    -0.744 OA
ENDBRANCH  88  89
ENDBRANCH  62  83
ENDBRANCH  36  37
ENDBRANCH  29  31
ENDBRANCH  28  29
ENDBRANCH   1  28
TORSDOF 19
ENDMDL
