MODEL 1
REMARK VINA RESULT:     -11.4      0.000      0.000
REMARK SMILES C[C@@H](C(=O)OCCOC(=O)c1ccc(-c2c3nc(c(-c4ccc(S(=O)(=O)[O-])cc4)c4ccc([nH]4)c(-c4ccc(S(=O)(=O)[O-])cc4)c4nc(c(-c5ccc(S(=O)(=O)[O-])cc5)c5ccc2[nH]5)C=C4)C=C3)cc1)N1C(=O)/C(=C/c2ccc(-c3ccc([N+](=O)[O-])cc3Cl)o2)SC1=S
REMARK SMILES IDX 6 1 5 2 3 3 4 4 2 5 1 6 71 7 72 8 92 9 73 10 74 11 91 12
REMARK SMILES IDX 93 13 75 14 76 15 77 16 90 17 78 18 79 19 80 20 81 21 88 22
REMARK SMILES IDX 82 23 87 24 89 25 83 26 84 27 85 28 86 29 7 30 8 31 9 32
REMARK SMILES IDX 10 33 11 34 12 35 70 36 13 37 69 38 14 39 15 40 16 41 63 42
REMARK SMILES IDX 17 43 68 44 62 45 64 46 18 47 67 48 61 49 60 50 19 52 49 53
REMARK SMILES IDX 30 54 48 55 31 56 34 57 47 58 65 59 32 60 33 61 46 63 66 64
REMARK SMILES IDX 35 65 20 66 21 67 29 68 22 69 28 70 23 71 24 72 25 73 26 74
REMARK SMILES IDX 27 75 50 76 51 77 59 78 52 79 58 80 53 81 54 82 55 83 56 84
REMARK SMILES IDX 57 85 36 86 37 87 45 88 38 89 44 90 39 91 40 92 41 93 42 94
REMARK SMILES IDX 43 95
REMARK H PARENT 64 51 34 62
REMARK Flexibility Score: inf
ROOT
ATOM      1  C   UNL A   1      31.850  30.776  26.174  1.00  0.00     0.274 C 
ENDROOT
BRANCH   1   2
ATOM      2  O   UNL A   1      31.172  29.697  25.492  1.00  0.00    -0.461 OA
BRANCH   2   3
ATOM      3  C   UNL A   1      30.538  30.019  24.329  1.00  0.00     0.329 C 
ATOM      4  O   UNL A   1      29.834  31.012  24.186  1.00  0.00    -0.250 OA
BRANCH   3   5
ATOM      5  C   UNL A   1      30.747  28.979  23.217  1.00  0.00     0.199 C 
ATOM      6  C   UNL A   1      29.485  28.641  22.423  1.00  0.00     0.044 C 
BRANCH   5   7
ATOM      7  N   UNL A   1      31.547  27.817  23.694  1.00  0.00    -0.279 N 
ATOM      8  C   UNL A   1      30.892  26.859  24.467  1.00  0.00     0.267 C 
ATOM      9  C   UNL A   1      32.869  27.543  23.408  1.00  0.00     0.149 C 
ATOM     10  O   UNL A   1      29.724  26.916  24.829  1.00  0.00    -0.268 OA
ATOM     11  C   UNL A   1      31.811  25.742  24.847  1.00  0.00     0.084 C 
ATOM     12  S   UNL A   1      33.378  26.088  24.246  1.00  0.00    -0.054 SA
ATOM     13  S   UNL A   1      33.950  28.371  22.450  1.00  0.00    -0.052 S 
ATOM     14  C   UNL A   1      31.377  24.667  25.527  1.00  0.00     0.068 C 
BRANCH  14  15
ATOM     15  C   UNL A   1      32.154  23.539  25.946  1.00  0.00     0.128 A 
ATOM     16  C   UNL A   1      32.942  23.309  27.070  1.00  0.00     0.051 A 
ATOM     17  O   UNL A   1      32.206  22.375  25.190  1.00  0.00    -0.457 OA
ATOM     18  C   UNL A   1      33.527  22.030  26.958  1.00  0.00     0.051 A 
ATOM     19  C   UNL A   1      33.070  21.497  25.777  1.00  0.00     0.136 A 
BRANCH  19  20
ATOM     20  C   UNL A   1      33.371  20.234  25.103  1.00  0.00     0.036 A 
ATOM     21  C   UNL A   1      32.284  19.403  24.748  1.00  0.00     0.020 A 
ATOM     22  C   UNL A   1      34.671  19.738  24.907  1.00  0.00     0.058 A 
ATOM     23  C   UNL A   1      32.476  18.094  24.295  1.00  0.00     0.086 A 
ATOM     24  C   UNL A   1      34.869  18.428  24.445  1.00  0.00     0.106 A 
ATOM     25  Cl  UNL A   1      36.090  20.663  25.253  1.00  0.00    -0.083 Cl
ATOM     26  C   UNL A   1      33.775  17.601  24.183  1.00  0.00     0.270 A 
BRANCH  26  27
ATOM     27  N   UNL A   1      33.998  16.203  23.804  1.00  0.00     0.062 N 
ATOM     28  O   UNL A   1      34.399  15.981  22.654  1.00  0.00    -0.258 OA
ATOM     29  O   UNL A   1      33.790  15.336  24.665  1.00  0.00    -0.258 OA
ENDBRANCH  26  27
ENDBRANCH  19  20
ENDBRANCH  14  15
ENDBRANCH   5   7
ENDBRANCH   3   5
ENDBRANCH   2   3
ENDBRANCH   1   2
BRANCH   1  30
ATOM     30  C   UNL A   1      32.784  30.244  27.258  1.00  0.00     0.275 C 
BRANCH  30  31
ATOM     31  O   UNL A   1      34.112  30.719  27.000  1.00  0.00    -0.458 OA
BRANCH  31  32
ATOM     32  C   UNL A   1      34.533  31.750  27.766  1.00  0.00     0.338 C 
ATOM     33  O   UNL A   1      34.044  32.863  27.829  1.00  0.00    -0.246 OA
BRANCH  32  34
ATOM     34  C   UNL A   1      35.721  31.330  28.535  1.00  0.00     0.060 A 
ATOM     35  C   UNL A   1      36.893  32.090  28.526  1.00  0.00     0.016 A 
ATOM     36  C   UNL A   1      35.684  30.116  29.220  1.00  0.00     0.016 A 
ATOM     37  C   UNL A   1      38.047  31.607  29.135  1.00  0.00     0.010 A 
ATOM     38  C   UNL A   1      36.818  29.675  29.904  1.00  0.00     0.010 A 
ATOM     39  C   UNL A   1      38.021  30.397  29.837  1.00  0.00    -0.014 A 
BRANCH  39  40
ATOM     40  C   UNL A   1      39.253  29.875  30.483  1.00  0.00     0.031 A 
ATOM     41  C   UNL A   1      39.750  30.508  31.757  1.00  0.00     0.074 A 
ATOM     42  C   UNL A   1      39.933  28.863  29.906  1.00  0.00     0.049 A 
ATOM     43  N   UNL A   1      40.879  30.319  32.386  1.00  0.00    -0.248 NA
ATOM     44  C   UNL A   1      38.874  31.510  32.391  1.00  0.00     0.031 C 
ATOM     45  C   UNL A   1      39.529  28.168  28.680  1.00  0.00     0.029 A 
ATOM     46  N   UNL A   1      41.102  28.239  30.264  1.00  0.00    -0.354 N 
ATOM     47  C   UNL A   1      40.892  31.241  33.428  1.00  0.00     0.074 A 
ATOM     48  C   UNL A   1      39.646  31.971  33.364  1.00  0.00     0.031 C 
ATOM     49  C   UNL A   1      40.410  27.193  28.413  1.00  0.00     0.029 A 
ATOM     50  C   UNL A   1      41.482  27.236  29.398  1.00  0.00     0.049 A 
ATOM     51  H   UNL A   1      41.621  28.486  31.065  1.00  0.00     0.167 HD
ATOM     52  C   UNL A   1      41.871  31.467  34.335  1.00  0.00     0.031 A 
ATOM     53  C   UNL A   1      42.576  26.448  29.390  1.00  0.00     0.031 A 
ATOM     54  C   UNL A   1      43.077  30.684  34.408  1.00  0.00     0.049 A 
ATOM     55  C   UNL A   1      43.574  26.621  30.503  1.00  0.00     0.074 A 
ATOM     56  C   UNL A   1      44.135  30.810  35.291  1.00  0.00     0.029 A 
ATOM     57  N   UNL A   1      43.374  29.615  33.573  1.00  0.00    -0.354 N 
ATOM     58  N   UNL A   1      43.563  27.490  31.489  1.00  0.00    -0.248 NA
ATOM     59  C   UNL A   1      44.725  25.710  30.519  1.00  0.00     0.031 C 
ATOM     60  C   UNL A   1      45.083  29.831  34.974  1.00  0.00     0.029 A 
ATOM     61  C   UNL A   1      44.595  29.068  33.922  1.00  0.00     0.049 A 
ATOM     62  H   UNL A   1      42.800  29.294  32.841  1.00  0.00     0.167 HD
ATOM     63  C   UNL A   1      44.715  27.248  32.225  1.00  0.00     0.074 A 
ATOM     64  C   UNL A   1      45.367  26.108  31.611  1.00  0.00     0.031 C 
ATOM     65  C   UNL A   1      45.210  27.926  33.292  1.00  0.00     0.031 A 
BRANCH  52  66
ATOM     66  C   UNL A   1      41.707  32.632  35.277  1.00  0.00    -0.014 A 
ATOM     67  C   UNL A   1      42.177  33.918  34.957  1.00  0.00     0.010 A 
ATOM     68  C   UNL A   1      41.038  32.438  36.501  1.00  0.00     0.010 A 
ATOM     69  C   UNL A   1      42.011  34.977  35.857  1.00  0.00     0.020 A 
ATOM     70  C   UNL A   1      40.849  33.498  37.393  1.00  0.00     0.020 A 
ATOM     71  C   UNL A   1      41.353  34.760  37.073  1.00  0.00     0.054 A 
BRANCH  71  72
ATOM     72  S   UNL A   1      41.131  36.153  38.214  1.00  0.00     0.124 S 
ATOM     73  O   UNL A   1      40.975  35.472  39.495  1.00  0.00    -0.237 OA
ATOM     74  O   UNL A   1      42.375  36.904  38.051  1.00  0.00    -0.237 OA
ATOM     75  O   UNL A   1      39.935  36.825  37.714  1.00  0.00    -0.744 OA
ENDBRANCH  71  72
ENDBRANCH  52  66
BRANCH  53  76
ATOM     76  C   UNL A   1      42.735  25.412  28.323  1.00  0.00    -0.014 A 
ATOM     77  C   UNL A   1      43.500  25.687  27.179  1.00  0.00     0.010 A 
ATOM     78  C   UNL A   1      42.211  24.115  28.471  1.00  0.00     0.010 A 
ATOM     79  C   UNL A   1      43.771  24.702  26.225  1.00  0.00     0.020 A 
ATOM     80  C   UNL A   1      42.494  23.112  27.531  1.00  0.00     0.020 A 
ATOM     81  C   UNL A   1      43.276  23.413  26.414  1.00  0.00     0.054 A 
BRANCH  81  82
ATOM     82  S   UNL A   1      43.737  22.124  25.224  1.00  0.00     0.124 S 
ATOM     83  O   UNL A   1      43.510  22.792  23.947  1.00  0.00    -0.237 OA
ATOM     84  O   UNL A   1      45.136  21.865  25.561  1.00  0.00    -0.237 OA
ATOM     85  O   UNL A   1      42.819  21.031  25.534  1.00  0.00    -0.744 OA
ENDBRANCH  81  82
ENDBRANCH  53  76
BRANCH  65  86
ATOM     86  C   UNL A   1      46.524  27.458  33.852  1.00  0.00    -0.014 A 
ATOM     87  C   UNL A   1      47.734  28.003  33.386  1.00  0.00     0.010 A 
ATOM     88  C   UNL A   1      46.547  26.536  34.914  1.00  0.00     0.010 A 
ATOM     89  C   UNL A   1      48.948  27.616  33.955  1.00  0.00     0.020 A 
ATOM     90  C   UNL A   1      47.759  26.162  35.500  1.00  0.00     0.020 A 
ATOM     91  C   UNL A   1      48.954  26.698  35.009  1.00  0.00     0.054 A 
BRANCH  91  92
ATOM     92  S   UNL A   1      50.536  26.260  35.781  1.00  0.00     0.124 S 
ATOM     93  O   UNL A   1      51.326  25.829  34.631  1.00  0.00    -0.237 OA
ATOM     94  O   UNL A   1      50.955  27.517  36.397  1.00  0.00    -0.237 OA
ATOM     95  O   UNL A   1      50.177  25.203  36.724  1.00  0.00    -0.744 OA
ENDBRANCH  91  92
ENDBRANCH  65  86
ENDBRANCH  39  40
ENDBRANCH  32  34
ENDBRANCH  31  32
ENDBRANCH  30  31
ENDBRANCH   1  30
TORSDOF 18
ENDMDL
MODEL 2
REMARK VINA RESULT:     -11.3      0.624      7.966
REMARK SMILES C[C@@H](C(=O)OCCOC(=O)c1ccc(-c2c3nc(c(-c4ccc(S(=O)(=O)[O-])cc4)c4ccc([nH]4)c(-c4ccc(S(=O)(=O)[O-])cc4)c4nc(c(-c5ccc(S(=O)(=O)[O-])cc5)c5ccc2[nH]5)C=C4)C=C3)cc1)N1C(=O)/C(=C/c2ccc(-c3ccc([N+](=O)[O-])cc3Cl)o2)SC1=S
REMARK SMILES IDX 6 1 5 2 3 3 4 4 2 5 1 6 71 7 72 8 92 9 73 10 74 11 91 12
REMARK SMILES IDX 93 13 75 14 76 15 77 16 90 17 78 18 79 19 80 20 81 21 88 22
REMARK SMILES IDX 82 23 87 24 89 25 83 26 84 27 85 28 86 29 7 30 8 31 9 32
REMARK SMILES IDX 10 33 11 34 12 35 70 36 13 37 69 38 14 39 15 40 16 41 63 42
REMARK SMILES IDX 17 43 68 44 62 45 64 46 18 47 67 48 61 49 60 50 19 52 49 53
REMARK SMILES IDX 30 54 48 55 31 56 34 57 47 58 65 59 32 60 33 61 46 63 66 64
REMARK SMILES IDX 35 65 20 66 21 67 29 68 22 69 28 70 23 71 24 72 25 73 26 74
REMARK SMILES IDX 27 75 50 76 51 77 59 78 52 79 58 80 53 81 54 82 55 83 56 84
REMARK SMILES IDX 57 85 36 86 37 87 45 88 38 89 44 90 39 91 40 92 41 93 42 94
REMARK SMILES IDX 43 95
REMARK H PARENT 64 51 34 62
REMARK Flexibility Score: inf
ROOT
ATOM      1  C   UNL A   1      31.790  30.808  26.121  1.00  0.00     0.274 C 
ENDROOT
BRANCH   1   2
ATOM      2  O   UNL A   1      31.008  29.785  25.464  1.00  0.00    -0.461 OA
BRANCH   2   3
ATOM      3  C   UNL A   1      30.460  30.118  24.261  1.00  0.00     0.329 C 
ATOM      4  O   UNL A   1      29.806  31.136  24.066  1.00  0.00    -0.250 OA
BRANCH   3   5
ATOM      5  C   UNL A   1      30.699  29.060  23.173  1.00  0.00     0.199 C 
ATOM      6  C   UNL A   1      29.451  28.684  22.373  1.00  0.00     0.044 C 
BRANCH   5   7
ATOM      7  N   UNL A   1      31.512  27.921  23.682  1.00  0.00    -0.279 N 
ATOM      8  C   UNL A   1      30.840  26.895  24.346  1.00  0.00     0.267 C 
ATOM      9  C   UNL A   1      32.870  27.730  23.521  1.00  0.00     0.149 C 
ATOM     10  O   UNL A   1      29.640  26.874  24.589  1.00  0.00    -0.268 OA
ATOM     11  C   UNL A   1      31.779  25.812  24.772  1.00  0.00     0.084 C 
ATOM     12  S   UNL A   1      33.376  26.268  24.349  1.00  0.00    -0.054 SA
ATOM     13  S   UNL A   1      33.992  28.658  22.713  1.00  0.00    -0.052 S 
ATOM     14  C   UNL A   1      31.342  24.686  25.361  1.00  0.00     0.068 C 
BRANCH  14  15
ATOM     15  C   UNL A   1      32.137  23.584  25.812  1.00  0.00     0.128 A 
ATOM     16  C   UNL A   1      32.925  23.396  26.943  1.00  0.00     0.051 A 
ATOM     17  O   UNL A   1      32.211  22.400  25.087  1.00  0.00    -0.457 OA
ATOM     18  C   UNL A   1      33.532  22.125  26.866  1.00  0.00     0.051 A 
ATOM     19  C   UNL A   1      33.088  21.553  25.698  1.00  0.00     0.136 A 
BRANCH  19  20
ATOM     20  C   UNL A   1      33.412  20.278  25.059  1.00  0.00     0.036 A 
ATOM     21  C   UNL A   1      32.339  19.429  24.706  1.00  0.00     0.020 A 
ATOM     22  C   UNL A   1      34.720  19.791  24.896  1.00  0.00     0.058 A 
ATOM     23  C   UNL A   1      32.552  18.111  24.286  1.00  0.00     0.086 A 
ATOM     24  C   UNL A   1      34.938  18.473  24.468  1.00  0.00     0.106 A 
ATOM     25  Cl  UNL A   1      36.124  20.738  25.244  1.00  0.00    -0.083 Cl
ATOM     26  C   UNL A   1      33.857  17.629  24.207  1.00  0.00     0.270 A 
BRANCH  26  27
ATOM     27  N   UNL A   1      34.100  16.225  23.864  1.00  0.00     0.062 N 
ATOM     28  O   UNL A   1      34.389  15.967  22.688  1.00  0.00    -0.258 OA
ATOM     29  O   UNL A   1      34.020  15.390  24.776  1.00  0.00    -0.258 OA
ENDBRANCH  26  27
ENDBRANCH  19  20
ENDBRANCH  14  15
ENDBRANCH   5   7
ENDBRANCH   3   5
ENDBRANCH   2   3
ENDBRANCH   1   2
BRANCH   1  30
ATOM     30  C   UNL A   1      32.701  30.207  27.188  1.00  0.00     0.275 C 
BRANCH  30  31
ATOM     31  O   UNL A   1      34.053  30.599  26.916  1.00  0.00    -0.458 OA
BRANCH  31  32
ATOM     32  C   UNL A   1      34.550  31.593  27.685  1.00  0.00     0.338 C 
ATOM     33  O   UNL A   1      34.057  32.691  27.871  1.00  0.00    -0.246 OA
BRANCH  32  34
ATOM     34  C   UNL A   1      35.828  31.155  28.281  1.00  0.00     0.060 A 
ATOM     35  C   UNL A   1      35.961  29.889  28.856  1.00  0.00     0.016 A 
ATOM     36  C   UNL A   1      36.890  32.057  28.329  1.00  0.00     0.016 A 
ATOM     37  C   UNL A   1      37.123  29.549  29.541  1.00  0.00     0.010 A 
ATOM     38  C   UNL A   1      38.087  31.681  28.942  1.00  0.00     0.010 A 
ATOM     39  C   UNL A   1      38.203  30.438  29.586  1.00  0.00    -0.014 A 
BRANCH  39  40
ATOM     40  C   UNL A   1      39.443  30.080  30.322  1.00  0.00     0.031 A 
ATOM     41  C   UNL A   1      40.352  29.014  29.770  1.00  0.00     0.074 A 
ATOM     42  C   UNL A   1      39.724  30.689  31.492  1.00  0.00     0.049 A 
ATOM     43  N   UNL A   1      41.384  28.439  30.330  1.00  0.00    -0.248 NA
ATOM     44  C   UNL A   1      40.043  28.502  28.423  1.00  0.00     0.031 C 
ATOM     45  C   UNL A   1      38.918  31.749  32.106  1.00  0.00     0.029 A 
ATOM     46  N   UNL A   1      40.759  30.513  32.376  1.00  0.00    -0.354 N 
ATOM     47  C   UNL A   1      41.785  27.438  29.451  1.00  0.00     0.074 A 
ATOM     48  C   UNL A   1      40.903  27.501  28.306  1.00  0.00     0.031 C 
ATOM     49  C   UNL A   1      39.507  32.152  33.241  1.00  0.00     0.029 A 
ATOM     50  C   UNL A   1      40.690  31.336  33.480  1.00  0.00     0.049 A 
ATOM     51  H   UNL A   1      41.483  29.859  32.236  1.00  0.00     0.167 HD
ATOM     52  C   UNL A   1      42.783  26.537  29.604  1.00  0.00     0.031 A 
ATOM     53  C   UNL A   1      41.482  31.417  34.569  1.00  0.00     0.031 A 
ATOM     54  C   UNL A   1      43.681  26.537  30.730  1.00  0.00     0.049 A 
ATOM     55  C   UNL A   1      42.676  30.503  34.638  1.00  0.00     0.074 A 
ATOM     56  C   UNL A   1      44.738  25.684  30.990  1.00  0.00     0.029 A 
ATOM     57  N   UNL A   1      43.634  27.451  31.775  1.00  0.00    -0.354 N 
ATOM     58  N   UNL A   1      43.047  29.571  33.788  1.00  0.00    -0.248 NA
ATOM     59  C   UNL A   1      43.566  30.650  35.796  1.00  0.00     0.031 C 
ATOM     60  C   UNL A   1      45.316  26.067  32.206  1.00  0.00     0.029 A 
ATOM     61  C   UNL A   1      44.646  27.186  32.680  1.00  0.00     0.049 A 
ATOM     62  H   UNL A   1      42.978  28.179  31.859  1.00  0.00     0.167 HD
ATOM     63  C   UNL A   1      44.197  29.005  34.323  1.00  0.00     0.074 A 
ATOM     64  C   UNL A   1      44.499  29.742  35.534  1.00  0.00     0.031 C 
ATOM     65  C   UNL A   1      44.921  27.949  33.873  1.00  0.00     0.031 A 
BRANCH  52  66
ATOM     66  C   UNL A   1      42.922  25.452  28.569  1.00  0.00    -0.014 A 
ATOM     67  C   UNL A   1      42.185  24.257  28.641  1.00  0.00     0.010 A 
ATOM     68  C   UNL A   1      43.792  25.648  27.479  1.00  0.00     0.010 A 
ATOM     69  C   UNL A   1      42.341  23.267  27.663  1.00  0.00     0.020 A 
ATOM     70  C   UNL A   1      43.935  24.673  26.487  1.00  0.00     0.020 A 
ATOM     71  C   UNL A   1      43.220  23.479  26.595  1.00  0.00     0.054 A 
BRANCH  71  72
ATOM     72  S   UNL A   1      43.390  22.190  25.329  1.00  0.00     0.124 S 
ATOM     73  O   UNL A   1      43.406  22.976  24.099  1.00  0.00    -0.237 OA
ATOM     74  O   UNL A   1      44.657  21.555  25.684  1.00  0.00    -0.237 OA
ATOM     75  O   UNL A   1      42.206  21.356  25.521  1.00  0.00    -0.744 OA
ENDBRANCH  71  72
ENDBRANCH  52  66
BRANCH  53  76
ATOM     76  C   UNL A   1      41.181  32.427  35.630  1.00  0.00    -0.014 A 
ATOM     77  C   UNL A   1      40.322  32.103  36.691  1.00  0.00     0.010 A 
ATOM     78  C   UNL A   1      41.814  33.683  35.652  1.00  0.00     0.010 A 
ATOM     79  C   UNL A   1      40.119  32.978  37.762  1.00  0.00     0.020 A 
ATOM     80  C   UNL A   1      41.635  34.561  36.732  1.00  0.00     0.020 A 
ATOM     81  C   UNL A   1      40.789  34.200  37.783  1.00  0.00     0.054 A 
BRANCH  81  82
ATOM     82  S   UNL A   1      40.602  35.268  39.237  1.00  0.00     0.124 S 
ATOM     83  O   UNL A   1      39.152  35.410  39.327  1.00  0.00    -0.237 OA
ATOM     84  O   UNL A   1      41.225  34.476  40.296  1.00  0.00    -0.237 OA
ATOM     85  O   UNL A   1      41.330  36.479  38.867  1.00  0.00    -0.744 OA
ENDBRANCH  81  82
ENDBRANCH  53  76
BRANCH  65  86
ATOM     86  C   UNL A   1      46.101  27.523  34.702  1.00  0.00    -0.014 A 
ATOM     87  C   UNL A   1      45.952  26.553  35.711  1.00  0.00     0.010 A 
ATOM     88  C   UNL A   1      47.382  28.025  34.412  1.00  0.00     0.010 A 
ATOM     89  C   UNL A   1      47.061  26.112  36.433  1.00  0.00     0.020 A 
ATOM     90  C   UNL A   1      48.497  27.568  35.119  1.00  0.00     0.020 A 
ATOM     91  C   UNL A   1      48.327  26.621  36.133  1.00  0.00     0.054 A 
BRANCH  91  92
ATOM     92  S   UNL A   1      49.765  25.982  37.037  1.00  0.00     0.124 S 
ATOM     93  O   UNL A   1      50.121  24.807  36.249  1.00  0.00    -0.237 OA
ATOM     94  O   UNL A   1      50.710  27.095  36.970  1.00  0.00    -0.237 OA
ATOM     95  O   UNL A   1      49.236  25.704  38.371  1.00  0.00    -0.744 OA
ENDBRANCH  91  92
ENDBRANCH  65  86
ENDBRANCH  39  40
ENDBRANCH  32  34
ENDBRANCH  31  32
ENDBRANCH  30  31
ENDBRANCH   1  30
TORSDOF 18
ENDMDL
MODEL 3
REMARK VINA RESULT:     -10.5      5.910     13.220
REMARK SMILES C[C@@H](C(=O)OCCOC(=O)c1ccc(-c2c3nc(c(-c4ccc(S(=O)(=O)[O-])cc4)c4ccc([nH]4)c(-c4ccc(S(=O)(=O)[O-])cc4)c4nc(c(-c5ccc(S(=O)(=O)[O-])cc5)c5ccc2[nH]5)C=C4)C=C3)cc1)N1C(=O)/C(=C/c2ccc(-c3ccc([N+](=O)[O-])cc3Cl)o2)SC1=S
REMARK SMILES IDX 6 1 5 2 3 3 4 4 2 5 1 6 71 7 72 8 92 9 73 10 74 11 91 12
REMARK SMILES IDX 93 13 75 14 76 15 77 16 90 17 78 18 79 19 80 20 81 21 88 22
REMARK SMILES IDX 82 23 87 24 89 25 83 26 84 27 85 28 86 29 7 30 8 31 9 32
REMARK SMILES IDX 10 33 11 34 12 35 70 36 13 37 69 38 14 39 15 40 16 41 63 42
REMARK SMILES IDX 17 43 68 44 62 45 64 46 18 47 67 48 61 49 60 50 19 52 49 53
REMARK SMILES IDX 30 54 48 55 31 56 34 57 47 58 65 59 32 60 33 61 46 63 66 64
REMARK SMILES IDX 35 65 20 66 21 67 29 68 22 69 28 70 23 71 24 72 25 73 26 74
REMARK SMILES IDX 27 75 50 76 51 77 59 78 52 79 58 80 53 81 54 82 55 83 56 84
REMARK SMILES IDX 57 85 36 86 37 87 45 88 38 89 44 90 39 91 40 92 41 93 42 94
REMARK SMILES IDX 43 95
REMARK H PARENT 64 51 34 62
REMARK Flexibility Score: inf
ROOT
ATOM      1  C   UNL A   1      46.207  23.717  39.675  1.00  0.00     0.274 C 
ENDROOT
BRANCH   1   2
ATOM      2  O   UNL A   1      45.582  22.964  38.611  1.00  0.00    -0.461 OA
BRANCH   2   3
ATOM      3  C   UNL A   1      46.142  21.759  38.309  1.00  0.00     0.329 C 
ATOM      4  O   UNL A   1      46.702  21.040  39.130  1.00  0.00    -0.250 OA
BRANCH   3   5
ATOM      5  C   UNL A   1      46.051  21.405  36.816  1.00  0.00     0.199 C 
ATOM      6  C   UNL A   1      46.386  19.949  36.491  1.00  0.00     0.044 C 
BRANCH   5   7
ATOM      7  N   UNL A   1      46.714  22.432  35.966  1.00  0.00    -0.279 N 
ATOM      8  C   UNL A   1      45.893  23.289  35.233  1.00  0.00     0.267 C 
ATOM      9  C   UNL A   1      48.068  22.676  35.860  1.00  0.00     0.149 C 
ATOM     10  O   UNL A   1      44.671  23.238  35.192  1.00  0.00    -0.268 OA
ATOM     11  C   UNL A   1      46.696  24.280  34.453  1.00  0.00     0.084 C 
ATOM     12  S   UNL A   1      48.362  23.950  34.689  1.00  0.00    -0.054 SA
ATOM     13  S   UNL A   1      49.350  21.953  36.639  1.00  0.00    -0.052 S 
ATOM     14  C   UNL A   1      46.115  25.255  33.734  1.00  0.00     0.068 C 
BRANCH  14  15
ATOM     15  C   UNL A   1      46.771  26.258  32.951  1.00  0.00     0.128 A 
ATOM     16  C   UNL A   1      47.661  27.275  33.284  1.00  0.00     0.051 A 
ATOM     17  O   UNL A   1      46.592  26.335  31.575  1.00  0.00    -0.457 OA
ATOM     18  C   UNL A   1      47.964  28.012  32.120  1.00  0.00     0.051 A 
ATOM     19  C   UNL A   1      47.268  27.418  31.094  1.00  0.00     0.136 A 
BRANCH  19  20
ATOM     20  C   UNL A   1      47.143  27.767  29.679  1.00  0.00     0.036 A 
ATOM     21  C   UNL A   1      46.463  28.961  29.353  1.00  0.00     0.020 A 
ATOM     22  C   UNL A   1      47.540  26.926  28.625  1.00  0.00     0.058 A 
ATOM     23  C   UNL A   1      46.111  29.272  28.036  1.00  0.00     0.086 A 
ATOM     24  C   UNL A   1      47.196  27.237  27.301  1.00  0.00     0.106 A 
ATOM     25  Cl  UNL A   1      48.419  25.458  28.875  1.00  0.00    -0.083 Cl
ATOM     26  C   UNL A   1      46.449  28.382  27.018  1.00  0.00     0.270 A 
BRANCH  26  27
ATOM     27  N   UNL A   1      46.007  28.637  25.644  1.00  0.00     0.062 N 
ATOM     28  O   UNL A   1      45.113  27.912  25.189  1.00  0.00    -0.258 OA
ATOM     29  O   UNL A   1      46.543  29.573  25.034  1.00  0.00    -0.258 OA
ENDBRANCH  26  27
ENDBRANCH  19  20
ENDBRANCH  14  15
ENDBRANCH   5   7
ENDBRANCH   3   5
ENDBRANCH   2   3
ENDBRANCH   1   2
BRANCH   1  30
ATOM     30  C   UNL A   1      47.514  24.353  39.209  1.00  0.00     0.275 C 
BRANCH  30  31
ATOM     31  O   UNL A   1      47.239  25.212  38.095  1.00  0.00    -0.458 OA
BRANCH  31  32
ATOM     32  C   UNL A   1      47.146  26.532  38.372  1.00  0.00     0.338 C 
ATOM     33  O   UNL A   1      47.742  27.142  39.241  1.00  0.00    -0.246 OA
BRANCH  32  34
ATOM     34  C   UNL A   1      46.172  27.155  37.453  1.00  0.00     0.060 A 
ATOM     35  C   UNL A   1      46.519  28.261  36.675  1.00  0.00     0.016 A 
ATOM     36  C   UNL A   1      44.867  26.664  37.425  1.00  0.00     0.016 A 
ATOM     37  C   UNL A   1      45.551  28.923  35.926  1.00  0.00     0.010 A 
ATOM     38  C   UNL A   1      43.917  27.278  36.606  1.00  0.00     0.010 A 
ATOM     39  C   UNL A   1      44.240  28.435  35.877  1.00  0.00    -0.014 A 
BRANCH  39  40
ATOM     40  C   UNL A   1      43.202  29.143  35.084  1.00  0.00     0.031 A 
ATOM     41  C   UNL A   1      42.436  30.279  35.710  1.00  0.00     0.074 A 
ATOM     42  C   UNL A   1      42.933  28.741  33.825  1.00  0.00     0.049 A 
ATOM     43  N   UNL A   1      41.388  30.916  35.257  1.00  0.00    -0.248 NA
ATOM     44  C   UNL A   1      42.889  30.743  37.033  1.00  0.00     0.031 C 
ATOM     45  C   UNL A   1      43.629  27.661  33.119  1.00  0.00     0.029 A 
ATOM     46  N   UNL A   1      42.009  29.184  32.912  1.00  0.00    -0.354 N 
ATOM     47  C   UNL A   1      41.000  31.781  36.275  1.00  0.00     0.074 A 
ATOM     48  C   UNL A   1      41.941  31.610  37.359  1.00  0.00     0.031 C 
ATOM     49  C   UNL A   1      43.136  27.554  31.877  1.00  0.00     0.029 A 
ATOM     50  C   UNL A   1      42.040  28.501  31.716  1.00  0.00     0.049 A 
ATOM     51  H   UNL A   1      41.381  29.922  33.096  1.00  0.00     0.167 HD
ATOM     52  C   UNL A   1      39.938  32.620  36.303  1.00  0.00     0.031 A 
ATOM     53  C   UNL A   1      41.267  28.614  30.617  1.00  0.00     0.031 A 
ATOM     54  C   UNL A   1      39.052  32.810  35.185  1.00  0.00     0.049 A 
ATOM     55  C   UNL A   1      40.189  29.664  30.622  1.00  0.00     0.074 A 
ATOM     56  C   UNL A   1      37.950  33.641  35.089  1.00  0.00     0.029 A 
ATOM     57  N   UNL A   1      39.180  32.169  33.960  1.00  0.00    -0.354 N 
ATOM     58  N   UNL A   1      39.846  30.484  31.591  1.00  0.00    -0.248 NA
ATOM     59  C   UNL A   1      39.400  29.822  29.394  1.00  0.00     0.031 C 
ATOM     60  C   UNL A   1      37.398  33.485  33.813  1.00  0.00     0.029 A 
ATOM     61  C   UNL A   1      38.183  32.590  33.099  1.00  0.00     0.049 A 
ATOM     62  H   UNL A   1      39.879  31.513  33.736  1.00  0.00     0.167 HD
ATOM     63  C   UNL A   1      38.785  31.234  31.098  1.00  0.00     0.074 A 
ATOM     64  C   UNL A   1      38.587  30.818  29.723  1.00  0.00     0.031 C 
ATOM     65  C   UNL A   1      38.022  32.158  31.732  1.00  0.00     0.031 A 
BRANCH  52  66
ATOM     66  C   UNL A   1      39.645  33.347  37.590  1.00  0.00    -0.014 A 
ATOM     67  C   UNL A   1      38.850  32.778  38.601  1.00  0.00     0.010 A 
ATOM     68  C   UNL A   1      40.207  34.621  37.803  1.00  0.00     0.010 A 
ATOM     69  C   UNL A   1      38.595  33.483  39.782  1.00  0.00     0.020 A 
ATOM     70  C   UNL A   1      39.974  35.320  38.992  1.00  0.00     0.020 A 
ATOM     71  C   UNL A   1      39.153  34.752  39.969  1.00  0.00     0.054 A 
BRANCH  71  72
ATOM     72  S   UNL A   1      38.825  35.638  41.519  1.00  0.00     0.124 S 
ATOM     73  O   UNL A   1      39.852  35.092  42.401  1.00  0.00    -0.237 OA
ATOM     74  O   UNL A   1      39.007  37.037  41.135  1.00  0.00    -0.237 OA
ATOM     75  O   UNL A   1      37.454  35.262  41.850  1.00  0.00    -0.744 OA
ENDBRANCH  71  72
ENDBRANCH  52  66
BRANCH  53  76
ATOM     76  C   UNL A   1      41.532  27.740  29.432  1.00  0.00    -0.014 A 
ATOM     77  C   UNL A   1      42.661  27.961  28.629  1.00  0.00     0.010 A 
ATOM     78  C   UNL A   1      40.723  26.626  29.143  1.00  0.00     0.010 A 
ATOM     79  C   UNL A   1      43.004  27.089  27.592  1.00  0.00     0.020 A 
ATOM     80  C   UNL A   1      41.069  25.731  28.119  1.00  0.00     0.020 A 
ATOM     81  C   UNL A   1      42.211  25.969  27.351  1.00  0.00     0.054 A 
BRANCH  81  82
ATOM     82  S   UNL A   1      42.740  24.790  26.077  1.00  0.00     0.124 S 
ATOM     83  O   UNL A   1      41.867  23.649  26.337  1.00  0.00    -0.237 OA
ATOM     84  O   UNL A   1      42.475  25.518  24.838  1.00  0.00    -0.237 OA
ATOM     85  O   UNL A   1      44.154  24.579  26.375  1.00  0.00    -0.744 OA
ENDBRANCH  81  82
ENDBRANCH  53  76
BRANCH  65  86
ATOM     86  C   UNL A   1      36.894  32.772  30.948  1.00  0.00    -0.014 A 
ATOM     87  C   UNL A   1      37.132  33.862  30.091  1.00  0.00     0.010 A 
ATOM     88  C   UNL A   1      35.611  32.200  30.997  1.00  0.00     0.010 A 
ATOM     89  C   UNL A   1      36.098  34.386  29.314  1.00  0.00     0.020 A 
ATOM     90  C   UNL A   1      34.579  32.709  30.204  1.00  0.00     0.020 A 
ATOM     91  C   UNL A   1      34.827  33.807  29.375  1.00  0.00     0.054 A 
BRANCH  91  92
ATOM     92  S   UNL A   1      33.515  34.459  28.305  1.00  0.00     0.124 S 
ATOM     93  O   UNL A   1      32.674  35.175  29.260  1.00  0.00    -0.237 OA
ATOM     94  O   UNL A   1      34.253  35.298  27.363  1.00  0.00    -0.237 OA
ATOM     95  O   UNL A   1      32.918  33.258  27.724  1.00  0.00    -0.744 OA
ENDBRANCH  91  92
ENDBRANCH  65  86
ENDBRANCH  39  40
ENDBRANCH  32  34
ENDBRANCH  31  32
ENDBRANCH  30  31
ENDBRANCH   1  30
TORSDOF 18
ENDMDL
