MODEL 1
REMARK VINA RESULT:     -16.4      0.000      0.000
REMARK SMILES O=C(OCCOC(=O)[C@H]1CC2(CC[NH+](C(=O)C3CC3)CC2)CN1C(=O)CCn1cccn1)c1ccc(-c2c3nc(c(-c4ccc(S(=O)(=O)[O-])cc4)c4ccc([nH]4)c(-c4ccc(S(=O)(=O)[O-])cc4)c4nc(c(-c5ccc(S(=O)(=O)[O-])cc5)c5ccc2[nH]5)C=C4)C=C3)cc1
REMARK SMILES IDX 5 1 4 2 3 3 2 4 1 5 33 6 34 7 92 8 35 9 91 10 36 11 37 12
REMARK SMILES IDX 38 13 85 14 39 15 90 16 84 17 86 18 40 19 89 20 83 21 82 22
REMARK SMILES IDX 41 24 71 25 52 26 70 27 53 28 56 29 69 30 87 31 54 32 55 33
REMARK SMILES IDX 68 35 88 36 57 37 42 38 43 39 51 40 44 41 50 42 45 43 46 44
REMARK SMILES IDX 47 45 48 46 49 47 72 48 73 49 81 50 74 51 80 52 75 53 76 54
REMARK SMILES IDX 77 55 78 56 79 57 58 58 59 59 67 60 60 61 66 62 61 63 62 64
REMARK SMILES IDX 63 65 64 66 65 67 6 68 7 69 8 70 9 71 10 72 23 73 11 74
REMARK SMILES IDX 22 75 12 76 21 77 13 78 20 79 14 80 24 82 25 83 26 84 27 85
REMARK SMILES IDX 28 86 29 87 32 88 30 89 31 90 15 91 16 92 17 93 18 94 19 95
REMARK H PARENT 86 23 56 34 14 81
REMARK Flexibility Score: inf
ROOT
ATOM      1  C   UNL A   1      37.004  23.841  25.566  1.00  0.00     0.274 C 
ENDROOT
BRANCH   1   2
ATOM      2  C   UNL A   1      38.724  23.594  26.493  1.00  0.00     0.275 C 
BRANCH   2   3
ATOM      3  O   UNL A   1      39.320  21.796  26.585  1.00  0.00    -0.458 OA
BRANCH   3   4
ATOM      4  C   UNL A   1      40.938  21.332  27.337  1.00  0.00     0.338 C 
ATOM      5  O   UNL A   1      40.801  20.107  27.539  1.00  0.00    -0.246 OA
BRANCH   4   6
ATOM      6  C   UNL A   1      42.554  22.604  27.251  1.00  0.00     0.060 A 
ATOM      7  C   UNL A   1      43.422  23.049  28.392  1.00  0.00     0.016 A 
ATOM      8  C   UNL A   1      42.947  23.646  26.388  1.00  0.00     0.016 A 
ATOM      9  C   UNL A   1      43.401  24.337  28.938  1.00  0.00     0.010 A 
ATOM     10  C   UNL A   1      42.885  24.981  26.826  1.00  0.00     0.010 A 
ATOM     11  C   UNL A   1      42.773  25.264  28.184  1.00  0.00    -0.014 A 
BRANCH  11  12
ATOM     12  C   UNL A   1      42.256  26.527  28.694  1.00  0.00     0.031 A 
ATOM     13  C   UNL A   1      43.130  27.653  28.352  1.00  0.00     0.074 A 
ATOM     14  C   UNL A   1      41.049  26.915  29.161  1.00  0.00     0.049 A 
ATOM     15  N   UNL A   1      44.232  27.918  28.959  1.00  0.00    -0.248 NA
ATOM     16  C   UNL A   1      42.947  28.316  27.053  1.00  0.00     0.031 C 
ATOM     17  C   UNL A   1      39.735  26.279  29.153  1.00  0.00     0.029 A 
ATOM     18  N   UNL A   1      40.782  28.144  29.694  1.00  0.00    -0.354 N 
ATOM     19  C   UNL A   1      44.800  28.937  28.232  1.00  0.00     0.074 A 
ATOM     20  C   UNL A   1      44.134  28.922  26.950  1.00  0.00     0.031 C 
ATOM     21  C   UNL A   1      38.790  27.205  29.475  1.00  0.00     0.029 A 
ATOM     22  C   UNL A   1      39.444  28.449  29.859  1.00  0.00     0.049 A 
ATOM     23  H   UNL A   1      41.497  28.772  29.945  1.00  0.00     0.167 HD
ATOM     24  C   UNL A   1      45.600  29.861  28.825  1.00  0.00     0.031 A 
ATOM     25  C   UNL A   1      38.968  29.663  30.238  1.00  0.00     0.031 A 
ATOM     26  C   UNL A   1      45.734  29.611  30.247  1.00  0.00     0.049 A 
ATOM     27  C   UNL A   1      40.095  30.406  30.872  1.00  0.00     0.074 A 
ATOM     28  C   UNL A   1      46.184  28.559  31.024  1.00  0.00     0.029 A 
ATOM     29  N   UNL A   1      44.918  30.360  31.074  1.00  0.00    -0.354 N 
ATOM     30  N   UNL A   1      40.658  30.051  31.995  1.00  0.00    -0.248 NA
ATOM     31  C   UNL A   1      40.868  31.346  30.073  1.00  0.00     0.031 C 
ATOM     32  C   UNL A   1      45.263  28.473  32.114  1.00  0.00     0.029 A 
ATOM     33  C   UNL A   1      44.328  29.500  31.970  1.00  0.00     0.049 A 
ATOM     34  H   UNL A   1      44.785  31.334  31.030  1.00  0.00     0.167 HD
ATOM     35  C   UNL A   1      41.999  30.370  31.846  1.00  0.00     0.074 A 
ATOM     36  C   UNL A   1      42.043  31.280  30.706  1.00  0.00     0.031 C 
ATOM     37  C   UNL A   1      42.973  29.644  32.476  1.00  0.00     0.031 A 
BRANCH  24  38
ATOM     38  C   UNL A   1      45.931  31.187  28.213  1.00  0.00    -0.014 A 
ATOM     39  C   UNL A   1      45.020  32.247  28.378  1.00  0.00     0.010 A 
ATOM     40  C   UNL A   1      47.006  31.393  27.327  1.00  0.00     0.010 A 
ATOM     41  C   UNL A   1      45.153  33.429  27.645  1.00  0.00     0.020 A 
ATOM     42  C   UNL A   1      47.181  32.586  26.635  1.00  0.00     0.020 A 
ATOM     43  C   UNL A   1      46.229  33.583  26.770  1.00  0.00     0.054 A 
BRANCH  43  44
ATOM     44  S   UNL A   1      46.338  35.064  25.745  1.00  0.00     0.124 S 
ATOM     45  O   UNL A   1      45.790  34.588  24.479  1.00  0.00    -0.237 OA
ATOM     46  O   UNL A   1      45.509  36.012  26.482  1.00  0.00    -0.237 OA
ATOM     47  O   UNL A   1      47.767  35.368  25.736  1.00  0.00    -0.744 OA
ENDBRANCH  43  44
ENDBRANCH  24  38
BRANCH  25  48
ATOM     48  C   UNL A   1      37.686  30.344  29.934  1.00  0.00    -0.014 A 
ATOM     49  C   UNL A   1      36.868  30.814  30.982  1.00  0.00     0.010 A 
ATOM     50  C   UNL A   1      37.411  30.800  28.632  1.00  0.00     0.010 A 
ATOM     51  C   UNL A   1      35.864  31.766  30.750  1.00  0.00     0.020 A 
ATOM     52  C   UNL A   1      36.401  31.746  28.390  1.00  0.00     0.020 A 
ATOM     53  C   UNL A   1      35.652  32.245  29.456  1.00  0.00     0.054 A 
BRANCH  53  54
ATOM     54  S   UNL A   1      34.490  33.620  29.200  1.00  0.00     0.124 S 
ATOM     55  O   UNL A   1      35.369  34.690  28.740  1.00  0.00    -0.237 OA
ATOM     56  O   UNL A   1      33.575  33.080  28.196  1.00  0.00    -0.237 OA
ATOM     57  O   UNL A   1      33.900  33.824  30.522  1.00  0.00    -0.744 OA
ENDBRANCH  53  54
ENDBRANCH  25  48
BRANCH  37  58
ATOM     58  C   UNL A   1      42.558  28.722  33.606  1.00  0.00    -0.014 A 
ATOM     59  C   UNL A   1      42.483  27.320  33.488  1.00  0.00     0.010 A 
ATOM     60  C   UNL A   1      42.345  29.292  34.874  1.00  0.00     0.010 A 
ATOM     61  C   UNL A   1      42.173  26.516  34.594  1.00  0.00     0.020 A 
ATOM     62  C   UNL A   1      42.055  28.496  35.987  1.00  0.00     0.020 A 
ATOM     63  C   UNL A   1      41.963  27.111  35.841  1.00  0.00     0.054 A 
BRANCH  63  64
ATOM     64  S   UNL A   1      41.631  26.058  37.281  1.00  0.00     0.124 S 
ATOM     65  O   UNL A   1      41.583  24.722  36.695  1.00  0.00    -0.237 OA
ATOM     66  O   UNL A   1      42.777  26.324  38.148  1.00  0.00    -0.237 OA
ATOM     67  O   UNL A   1      40.353  26.557  37.790  1.00  0.00    -0.744 OA
ENDBRANCH  63  64
ENDBRANCH  37  58
ENDBRANCH  11  12
ENDBRANCH   4   6
ENDBRANCH   3   4
ENDBRANCH   2   3
ENDBRANCH   1   2
BRANCH   1  68
ATOM     68  O   UNL A   1      35.419  23.343  26.417  1.00  0.00    -0.461 OA
BRANCH  68  69
ATOM     69  C   UNL A   1      33.899  23.606  26.375  1.00  0.00     0.328 C 
ATOM     70  O   UNL A   1      33.243  23.241  27.363  1.00  0.00    -0.250 OA
BRANCH  69  71
ATOM     71  C   UNL A   1      32.903  24.336  24.947  1.00  0.00     0.195 C 
ATOM     72  C   UNL A   1      32.883  25.868  24.697  1.00  0.00     0.046 C 
ATOM     73  N   UNL A   1      32.220  23.879  23.367  1.00  0.00    -0.328 N 
ATOM     74  C   UNL A   1      31.576  26.157  23.821  1.00  0.00     0.001 C 
ATOM     75  C   UNL A   1      31.161  24.825  23.097  1.00  0.00     0.128 C 
ATOM     76  C   UNL A   1      31.834  27.204  22.712  1.00  0.00     0.071 C 
ATOM     77  C   UNL A   1      30.433  26.697  24.729  1.00  0.00     0.071 C 
ATOM     78  C   UNL A   1      32.074  28.597  23.264  1.00  0.00     0.270 C 
ATOM     79  C   UNL A   1      30.664  28.143  25.204  1.00  0.00     0.270 C 
ATOM     80  N   UNL A   1      30.952  29.031  24.076  1.00  0.00    -0.272 N 
ATOM     81  H   UNL A   1      31.166  28.621  24.945  1.00  0.00     0.356 HD
BRANCH  73  82
ATOM     82  C   UNL A   1      32.678  22.849  22.120  1.00  0.00     0.225 C 
ATOM     83  O   UNL A   1      33.418  23.279  21.231  1.00  0.00    -0.275 OA
BRANCH  82  84
ATOM     84  C   UNL A   1      32.107  20.988  22.111  1.00  0.00     0.124 C 
BRANCH  84  85
ATOM     85  C   UNL A   1      32.237  19.947  23.849  1.00  0.00     0.154 C 
BRANCH  85  86
ATOM     86  N   UNL A   1      33.164  18.179  23.884  1.00  0.00    -0.272 N 
ATOM     87  C   UNL A   1      34.115  17.519  24.909  1.00  0.00     0.108 A 
ATOM     88  N   UNL A   1      33.587  17.333  22.765  1.00  0.00    -0.182 NA
ATOM     89  C   UNL A   1      34.510  16.273  24.521  1.00  0.00     0.042 A 
ATOM     90  C   UNL A   1      34.221  16.251  23.184  1.00  0.00     0.135 A 
ENDBRANCH  85  86
ENDBRANCH  84  85
ENDBRANCH  82  84
ENDBRANCH  73  82
BRANCH  80  91
ATOM     91  C   UNL A   1      30.240  30.227  23.980  1.00  0.00     0.315 C 
ATOM     92  O   UNL A   1      30.415  31.124  24.806  1.00  0.00    -0.231 OA
BRANCH  91  93
ATOM     93  C   UNL A   1      29.165  30.498  22.970  1.00  0.00     0.119 C 
ATOM     94  C   UNL A   1      28.091  29.665  22.333  1.00  0.00     0.019 C 
ATOM     95  C   UNL A   1      27.729  30.603  23.445  1.00  0.00     0.019 C 
ENDBRANCH  91  93
ENDBRANCH  80  91
ENDBRANCH  69  71
ENDBRANCH  68  69
ENDBRANCH   1  68
TORSDOF 20
ENDMDL
MODEL 2
REMARK VINA RESULT:     -14.7      2.253      7.031
REMARK SMILES O=C(OCCOC(=O)[C@H]1CC2(CC[NH+](C(=O)C3CC3)CC2)CN1C(=O)CCn1cccn1)c1ccc(-c2c3nc(c(-c4ccc(S(=O)(=O)[O-])cc4)c4ccc([nH]4)c(-c4ccc(S(=O)(=O)[O-])cc4)c4nc(c(-c5ccc(S(=O)(=O)[O-])cc5)c5ccc2[nH]5)C=C4)C=C3)cc1
REMARK SMILES IDX 5 1 4 2 3 3 2 4 1 5 33 6 34 7 92 8 35 9 91 10 36 11 37 12
REMARK SMILES IDX 38 13 85 14 39 15 90 16 84 17 86 18 40 19 89 20 83 21 82 22
REMARK SMILES IDX 41 24 71 25 52 26 70 27 53 28 56 29 69 30 87 31 54 32 55 33
REMARK SMILES IDX 68 35 88 36 57 37 42 38 43 39 51 40 44 41 50 42 45 43 46 44
REMARK SMILES IDX 47 45 48 46 49 47 72 48 73 49 81 50 74 51 80 52 75 53 76 54
REMARK SMILES IDX 77 55 78 56 79 57 58 58 59 59 67 60 60 61 66 62 61 63 62 64
REMARK SMILES IDX 63 65 64 66 65 67 6 68 7 69 8 70 9 71 10 72 23 73 11 74
REMARK SMILES IDX 22 75 12 76 21 77 13 78 20 79 14 80 24 82 25 83 26 84 27 85
REMARK SMILES IDX 28 86 29 87 32 88 30 89 31 90 15 91 16 92 17 93 18 94 19 95
REMARK H PARENT 86 23 56 34 14 81
REMARK Flexibility Score: inf
ROOT
ATOM      1  C   UNL A   1      38.042  23.576  26.219  1.00  0.00     0.274 C 
ENDROOT
BRANCH   1   2
ATOM      2  C   UNL A   1      38.479  21.735  25.674  1.00  0.00     0.275 C 
BRANCH   2   3
ATOM      3  O   UNL A   1      39.756  20.867  26.775  1.00  0.00    -0.458 OA
BRANCH   3   4
ATOM      4  C   UNL A   1      41.472  20.513  26.202  1.00  0.00     0.338 C 
ATOM      5  O   UNL A   1      41.415  19.299  25.914  1.00  0.00    -0.246 OA
BRANCH   4   6
ATOM      6  C   UNL A   1      42.780  22.038  25.756  1.00  0.00     0.060 A 
ATOM      7  C   UNL A   1      44.160  22.243  26.309  1.00  0.00     0.016 A 
ATOM      8  C   UNL A   1      42.634  23.365  25.302  1.00  0.00     0.016 A 
ATOM      9  C   UNL A   1      44.498  23.244  27.226  1.00  0.00     0.010 A 
ATOM     10  C   UNL A   1      42.876  24.436  26.181  1.00  0.00     0.010 A 
ATOM     11  C   UNL A   1      43.578  24.222  27.364  1.00  0.00    -0.014 A 
BRANCH  11  12
ATOM     12  C   UNL A   1      43.488  25.112  28.513  1.00  0.00     0.031 A 
ATOM     13  C   UNL A   1      42.320  25.995  28.433  1.00  0.00     0.074 A 
ATOM     14  C   UNL A   1      44.073  25.116  29.732  1.00  0.00     0.049 A 
ATOM     15  N   UNL A   1      42.259  27.039  27.684  1.00  0.00    -0.248 NA
ATOM     16  C   UNL A   1      41.033  25.507  28.946  1.00  0.00     0.031 C 
ATOM     17  C   UNL A   1      44.868  24.125  30.449  1.00  0.00     0.029 A 
ATOM     18  N   UNL A   1      43.931  26.111  30.657  1.00  0.00    -0.354 N 
ATOM     19  C   UNL A   1      40.959  27.473  27.789  1.00  0.00     0.074 A 
ATOM     20  C   UNL A   1      40.213  26.352  28.315  1.00  0.00     0.031 C 
ATOM     21  C   UNL A   1      44.963  24.492  31.757  1.00  0.00     0.029 A 
ATOM     22  C   UNL A   1      44.373  25.812  31.932  1.00  0.00     0.049 A 
ATOM     23  H   UNL A   1      43.540  26.985  30.430  1.00  0.00     0.167 HD
ATOM     24  C   UNL A   1      40.645  28.789  27.665  1.00  0.00     0.031 A 
ATOM     25  C   UNL A   1      44.194  26.607  33.019  1.00  0.00     0.031 A 
ATOM     26  C   UNL A   1      41.827  29.595  27.428  1.00  0.00     0.049 A 
ATOM     27  C   UNL A   1      43.892  27.980  32.523  1.00  0.00     0.074 A 
ATOM     28  C   UNL A   1      42.823  29.625  26.468  1.00  0.00     0.029 A 
ATOM     29  N   UNL A   1      42.361  30.229  28.535  1.00  0.00    -0.354 N 
ATOM     30  N   UNL A   1      44.746  28.720  31.871  1.00  0.00    -0.248 NA
ATOM     31  C   UNL A   1      42.505  28.410  32.415  1.00  0.00     0.031 C 
ATOM     32  C   UNL A   1      44.036  29.853  27.189  1.00  0.00     0.029 A 
ATOM     33  C   UNL A   1      43.715  29.993  28.540  1.00  0.00     0.049 A 
ATOM     34  H   UNL A   1      41.861  30.755  29.199  1.00  0.00     0.167 HD
ATOM     35  C   UNL A   1      43.987  29.425  30.948  1.00  0.00     0.074 A 
ATOM     36  C   UNL A   1      42.612  29.294  31.418  1.00  0.00     0.031 C 
ATOM     37  C   UNL A   1      44.511  29.801  29.742  1.00  0.00     0.031 A 
BRANCH  24  38
ATOM     38  C   UNL A   1      39.356  29.384  28.142  1.00  0.00    -0.014 A 
ATOM     39  C   UNL A   1      38.252  29.374  27.271  1.00  0.00     0.010 A 
ATOM     40  C   UNL A   1      39.230  30.119  29.337  1.00  0.00     0.010 A 
ATOM     41  C   UNL A   1      37.102  30.114  27.561  1.00  0.00     0.020 A 
ATOM     42  C   UNL A   1      38.069  30.812  29.663  1.00  0.00     0.020 A 
ATOM     43  C   UNL A   1      37.026  30.836  28.753  1.00  0.00     0.054 A 
BRANCH  43  44
ATOM     44  S   UNL A   1      35.587  31.875  29.074  1.00  0.00     0.124 S 
ATOM     45  O   UNL A   1      34.546  31.178  28.324  1.00  0.00    -0.237 OA
ATOM     46  O   UNL A   1      35.476  31.810  30.528  1.00  0.00    -0.237 OA
ATOM     47  O   UNL A   1      35.980  33.177  28.540  1.00  0.00    -0.744 OA
ENDBRANCH  43  44
ENDBRANCH  24  38
BRANCH  25  48
ATOM     48  C   UNL A   1      44.055  26.272  34.457  1.00  0.00    -0.014 A 
ATOM     49  C   UNL A   1      44.523  25.035  34.945  1.00  0.00     0.010 A 
ATOM     50  C   UNL A   1      43.745  27.273  35.397  1.00  0.00     0.010 A 
ATOM     51  C   UNL A   1      44.749  24.832  36.315  1.00  0.00     0.020 A 
ATOM     52  C   UNL A   1      43.960  27.074  36.769  1.00  0.00     0.020 A 
ATOM     53  C   UNL A   1      44.489  25.863  37.218  1.00  0.00     0.054 A 
BRANCH  53  54
ATOM     54  S   UNL A   1      44.974  25.659  38.959  1.00  0.00     0.124 S 
ATOM     55  O   UNL A   1      43.953  26.433  39.660  1.00  0.00    -0.237 OA
ATOM     56  O   UNL A   1      44.902  24.210  39.140  1.00  0.00    -0.237 OA
ATOM     57  O   UNL A   1      46.323  26.219  39.010  1.00  0.00    -0.744 OA
ENDBRANCH  53  54
ENDBRANCH  25  48
BRANCH  37  58
ATOM     58  C   UNL A   1      46.016  29.753  29.570  1.00  0.00    -0.014 A 
ATOM     59  C   UNL A   1      46.726  28.600  29.176  1.00  0.00     0.010 A 
ATOM     60  C   UNL A   1      46.732  30.957  29.703  1.00  0.00     0.010 A 
ATOM     61  C   UNL A   1      48.110  28.642  28.955  1.00  0.00     0.020 A 
ATOM     62  C   UNL A   1      48.109  31.012  29.464  1.00  0.00     0.020 A 
ATOM     63  C   UNL A   1      48.793  29.853  29.098  1.00  0.00     0.054 A 
BRANCH  63  64
ATOM     64  S   UNL A   1      50.572  29.913  28.742  1.00  0.00     0.124 S 
ATOM     65  O   UNL A   1      50.796  31.330  28.474  1.00  0.00    -0.237 OA
ATOM     66  O   UNL A   1      51.167  29.405  29.977  1.00  0.00    -0.237 OA
ATOM     67  O   UNL A   1      50.726  29.033  27.584  1.00  0.00    -0.744 OA
ENDBRANCH  63  64
ENDBRANCH  37  58
ENDBRANCH  11  12
ENDBRANCH   4   6
ENDBRANCH   3   4
ENDBRANCH   2   3
ENDBRANCH   1   2
BRANCH   1  68
ATOM     68  O   UNL A   1      36.400  24.317  25.732  1.00  0.00    -0.461 OA
BRANCH  68  69
ATOM     69  C   UNL A   1      34.883  24.082  25.886  1.00  0.00     0.328 C 
ATOM     70  O   UNL A   1      34.521  23.395  26.854  1.00  0.00    -0.250 OA
BRANCH  69  71
ATOM     71  C   UNL A   1      33.514  24.641  24.713  1.00  0.00     0.195 C 
ATOM     72  C   UNL A   1      33.320  26.144  24.380  1.00  0.00     0.046 C 
ATOM     73  N   UNL A   1      32.495  24.023  23.389  1.00  0.00    -0.328 N 
ATOM     74  C   UNL A   1      31.819  26.292  23.846  1.00  0.00     0.001 C 
ATOM     75  C   UNL A   1      31.336  24.885  23.336  1.00  0.00     0.128 C 
ATOM     76  C   UNL A   1      31.717  27.260  22.645  1.00  0.00     0.071 C 
ATOM     77  C   UNL A   1      30.901  26.838  24.978  1.00  0.00     0.071 C 
ATOM     78  C   UNL A   1      31.985  28.703  23.029  1.00  0.00     0.270 C 
ATOM     79  C   UNL A   1      31.137  28.328  25.287  1.00  0.00     0.270 C 
ATOM     80  N   UNL A   1      31.070  29.138  24.070  1.00  0.00    -0.272 N 
ATOM     81  H   UNL A   1      31.523  28.810  24.880  1.00  0.00     0.356 HD
BRANCH  73  82
ATOM     82  C   UNL A   1      32.703  22.924  22.134  1.00  0.00     0.225 C 
ATOM     83  O   UNL A   1      33.225  23.308  21.083  1.00  0.00    -0.275 OA
BRANCH  82  84
ATOM     84  C   UNL A   1      32.192  21.059  22.353  1.00  0.00     0.124 C 
BRANCH  84  85
ATOM     85  C   UNL A   1      32.400  20.228  24.195  1.00  0.00     0.154 C 
BRANCH  85  86
ATOM     86  N   UNL A   1      32.725  18.267  24.371  1.00  0.00    -0.272 N 
ATOM     87  C   UNL A   1      32.565  17.284  25.554  1.00  0.00     0.108 A 
ATOM     88  N   UNL A   1      33.655  17.412  23.629  1.00  0.00    -0.182 NA
ATOM     89  C   UNL A   1      32.900  16.006  25.215  1.00  0.00     0.042 A 
ATOM     90  C   UNL A   1      33.624  16.164  24.064  1.00  0.00     0.135 A 
ENDBRANCH  85  86
ENDBRANCH  84  85
ENDBRANCH  82  84
ENDBRANCH  73  82
BRANCH  80  91
ATOM     91  C   UNL A   1      30.271  30.282  24.081  1.00  0.00     0.315 C 
ATOM     92  O   UNL A   1      30.464  31.167  24.916  1.00  0.00    -0.231 OA
BRANCH  91  93
ATOM     93  C   UNL A   1      29.087  30.501  23.188  1.00  0.00     0.119 C 
ATOM     94  C   UNL A   1      27.608  30.290  23.338  1.00  0.00     0.019 C 
ATOM     95  C   UNL A   1      28.169  31.674  23.469  1.00  0.00     0.019 C 
ENDBRANCH  91  93
ENDBRANCH  80  91
ENDBRANCH  69  71
ENDBRANCH  68  69
ENDBRANCH   1  68
TORSDOF 20
ENDMDL
MODEL 3
REMARK VINA RESULT:     -14.1      3.124      8.430
REMARK SMILES O=C(OCCOC(=O)[C@H]1CC2(CC[NH+](C(=O)C3CC3)CC2)CN1C(=O)CCn1cccn1)c1ccc(-c2c3nc(c(-c4ccc(S(=O)(=O)[O-])cc4)c4ccc([nH]4)c(-c4ccc(S(=O)(=O)[O-])cc4)c4nc(c(-c5ccc(S(=O)(=O)[O-])cc5)c5ccc2[nH]5)C=C4)C=C3)cc1
REMARK SMILES IDX 5 1 4 2 3 3 2 4 1 5 33 6 34 7 92 8 35 9 91 10 36 11 37 12
REMARK SMILES IDX 38 13 85 14 39 15 90 16 84 17 86 18 40 19 89 20 83 21 82 22
REMARK SMILES IDX 41 24 71 25 52 26 70 27 53 28 56 29 69 30 87 31 54 32 55 33
REMARK SMILES IDX 68 35 88 36 57 37 42 38 43 39 51 40 44 41 50 42 45 43 46 44
REMARK SMILES IDX 47 45 48 46 49 47 72 48 73 49 81 50 74 51 80 52 75 53 76 54
REMARK SMILES IDX 77 55 78 56 79 57 58 58 59 59 67 60 60 61 66 62 61 63 62 64
REMARK SMILES IDX 63 65 64 66 65 67 6 68 7 69 8 70 9 71 10 72 23 73 11 74
REMARK SMILES IDX 22 75 12 76 21 77 13 78 20 79 14 80 24 82 25 83 26 84 27 85
REMARK SMILES IDX 28 86 29 87 32 88 30 89 31 90 15 91 16 92 17 93 18 94 19 95
REMARK H PARENT 86 23 56 34 14 81
REMARK Flexibility Score: inf
ROOT
ATOM      1  C   UNL A   1      40.041  24.274  26.892  1.00  0.00     0.274 C 
ENDROOT
BRANCH   1   2
ATOM      2  C   UNL A   1      40.908  22.574  27.378  1.00  0.00     0.275 C 
BRANCH   2   3
ATOM      3  O   UNL A   1      41.526  21.553  25.904  1.00  0.00    -0.458 OA
BRANCH   3   4
ATOM      4  C   UNL A   1      43.319  21.282  25.576  1.00  0.00     0.338 C 
ATOM      5  O   UNL A   1      43.395  20.037  25.499  1.00  0.00    -0.246 OA
BRANCH   4   6
ATOM      6  C   UNL A   1      44.543  22.835  25.004  1.00  0.00     0.060 A 
ATOM      7  C   UNL A   1      45.994  23.021  25.341  1.00  0.00     0.016 A 
ATOM      8  C   UNL A   1      44.329  24.181  24.645  1.00  0.00     0.016 A 
ATOM      9  C   UNL A   1      46.474  23.978  26.241  1.00  0.00     0.010 A 
ATOM     10  C   UNL A   1      44.710  25.210  25.525  1.00  0.00     0.010 A 
ATOM     11  C   UNL A   1      45.589  24.943  26.570  1.00  0.00    -0.014 A 
BRANCH  11  12
ATOM     12  C   UNL A   1      45.684  25.775  27.762  1.00  0.00     0.031 A 
ATOM     13  C   UNL A   1      44.365  26.205  28.237  1.00  0.00     0.074 A 
ATOM     14  C   UNL A   1      46.670  26.005  28.657  1.00  0.00     0.049 A 
ATOM     15  N   UNL A   1      43.679  27.148  27.695  1.00  0.00    -0.248 NA
ATOM     16  C   UNL A   1      43.620  25.319  29.142  1.00  0.00     0.031 C 
ATOM     17  C   UNL A   1      47.958  25.361  28.895  1.00  0.00     0.029 A 
ATOM     18  N   UNL A   1      46.597  26.914  29.675  1.00  0.00    -0.354 N 
ATOM     19  C   UNL A   1      42.464  27.115  28.338  1.00  0.00     0.074 A 
ATOM     20  C   UNL A   1      42.393  25.819  28.974  1.00  0.00     0.031 C 
ATOM     21  C   UNL A   1      48.443  25.769  30.102  1.00  0.00     0.029 A 
ATOM     22  C   UNL A   1      47.581  26.812  30.641  1.00  0.00     0.049 A 
ATOM     23  H   UNL A   1      45.890  27.597  29.717  1.00  0.00     0.167 HD
ATOM     24  C   UNL A   1      41.723  28.242  28.497  1.00  0.00     0.031 A 
ATOM     25  C   UNL A   1      47.605  27.522  31.798  1.00  0.00     0.031 A 
ATOM     26  C   UNL A   1      42.385  29.397  27.922  1.00  0.00     0.049 A 
ATOM     27  C   UNL A   1      46.707  28.699  31.617  1.00  0.00     0.074 A 
ATOM     28  C   UNL A   1      42.848  29.743  26.665  1.00  0.00     0.029 A 
ATOM     29  N   UNL A   1      43.081  30.200  28.807  1.00  0.00    -0.354 N 
ATOM     30  N   UNL A   1      46.944  29.671  30.779  1.00  0.00    -0.248 NA
ATOM     31  C   UNL A   1      45.334  28.628  32.098  1.00  0.00     0.031 C 
ATOM     32  C   UNL A   1      44.105  30.387  26.889  1.00  0.00     0.029 A 
ATOM     33  C   UNL A   1      44.322  30.440  28.267  1.00  0.00     0.049 A 
ATOM     34  H   UNL A   1      42.746  30.539  29.667  1.00  0.00     0.167 HD
ATOM     35  C   UNL A   1      45.698  30.054  30.305  1.00  0.00     0.074 A 
ATOM     36  C   UNL A   1      44.745  29.472  31.246  1.00  0.00     0.031 C 
ATOM     37  C   UNL A   1      45.546  30.559  29.043  1.00  0.00     0.031 A 
BRANCH  24  38
ATOM     38  C   UNL A   1      40.614  28.373  29.495  1.00  0.00    -0.014 A 
ATOM     39  C   UNL A   1      39.339  28.747  29.034  1.00  0.00     0.010 A 
ATOM     40  C   UNL A   1      40.808  28.327  30.889  1.00  0.00     0.010 A 
ATOM     41  C   UNL A   1      38.329  29.111  29.929  1.00  0.00     0.020 A 
ATOM     42  C   UNL A   1      39.795  28.632  31.791  1.00  0.00     0.020 A 
ATOM     43  C   UNL A   1      38.572  29.060  31.303  1.00  0.00     0.054 A 
BRANCH  43  44
ATOM     44  S   UNL A   1      37.305  29.634  32.452  1.00  0.00     0.124 S 
ATOM     45  O   UNL A   1      37.254  28.534  33.410  1.00  0.00    -0.237 OA
ATOM     46  O   UNL A   1      37.878  30.883  32.947  1.00  0.00    -0.237 OA
ATOM     47  O   UNL A   1      36.123  29.788  31.608  1.00  0.00    -0.744 OA
ENDBRANCH  43  44
ENDBRANCH  24  38
BRANCH  25  48
ATOM     48  C   UNL A   1      48.166  27.194  33.131  1.00  0.00    -0.014 A 
ATOM     49  C   UNL A   1      47.416  26.427  34.045  1.00  0.00     0.010 A 
ATOM     50  C   UNL A   1      49.538  27.369  33.391  1.00  0.00     0.010 A 
ATOM     51  C   UNL A   1      48.029  25.791  35.136  1.00  0.00     0.020 A 
ATOM     52  C   UNL A   1      50.156  26.744  34.486  1.00  0.00     0.020 A 
ATOM     53  C   UNL A   1      49.403  25.934  35.336  1.00  0.00     0.054 A 
BRANCH  53  54
ATOM     54  S   UNL A   1      50.216  24.948  36.629  1.00  0.00     0.124 S 
ATOM     55  O   UNL A   1      50.952  25.963  37.378  1.00  0.00    -0.237 OA
ATOM     56  O   UNL A   1      49.083  24.346  37.329  1.00  0.00    -0.237 OA
ATOM     57  O   UNL A   1      51.045  24.008  35.878  1.00  0.00    -0.744 OA
ENDBRANCH  53  54
ENDBRANCH  25  48
BRANCH  37  58
ATOM     58  C   UNL A   1      46.787  31.022  28.305  1.00  0.00    -0.014 A 
ATOM     59  C   UNL A   1      47.253  32.352  28.308  1.00  0.00     0.010 A 
ATOM     60  C   UNL A   1      47.578  30.045  27.674  1.00  0.00     0.010 A 
ATOM     61  C   UNL A   1      48.453  32.700  27.672  1.00  0.00     0.020 A 
ATOM     62  C   UNL A   1      48.788  30.380  27.056  1.00  0.00     0.020 A 
ATOM     63  C   UNL A   1      49.216  31.708  27.051  1.00  0.00     0.054 A 
BRANCH  63  64
ATOM     64  S   UNL A   1      50.803  32.156  26.292  1.00  0.00     0.124 S 
ATOM     65  O   UNL A   1      51.585  32.615  27.435  1.00  0.00    -0.237 OA
ATOM     66  O   UNL A   1      51.243  30.896  25.695  1.00  0.00    -0.237 OA
ATOM     67  O   UNL A   1      50.446  33.196  25.328  1.00  0.00    -0.744 OA
ENDBRANCH  63  64
ENDBRANCH  37  58
ENDBRANCH  11  12
ENDBRANCH   4   6
ENDBRANCH   3   4
ENDBRANCH   2   3
ENDBRANCH   1   2
BRANCH   1  68
ATOM     68  O   UNL A   1      38.275  24.269  26.288  1.00  0.00    -0.461 OA
BRANCH  68  69
ATOM     69  C   UNL A   1      37.185  23.308  25.771  1.00  0.00     0.328 C 
ATOM     70  O   UNL A   1      37.568  22.203  25.355  1.00  0.00    -0.250 OA
BRANCH  69  71
ATOM     71  C   UNL A   1      35.336  23.655  25.609  1.00  0.00     0.195 C 
ATOM     72  C   UNL A   1      34.824  24.823  24.726  1.00  0.00     0.046 C 
ATOM     73  N   UNL A   1      33.761  22.840  25.775  1.00  0.00    -0.328 N 
ATOM     74  C   UNL A   1      33.346  25.154  25.240  1.00  0.00     0.001 C 
ATOM     75  C   UNL A   1      32.787  23.887  25.984  1.00  0.00     0.128 C 
ATOM     76  C   UNL A   1      32.373  25.452  24.076  1.00  0.00     0.071 C 
ATOM     77  C   UNL A   1      33.372  26.401  26.171  1.00  0.00     0.071 C 
ATOM     78  C   UNL A   1      32.685  26.758  23.368  1.00  0.00     0.270 C 
ATOM     79  C   UNL A   1      33.605  27.721  25.413  1.00  0.00     0.270 C 
ATOM     80  N   UNL A   1      32.663  27.869  24.303  1.00  0.00    -0.272 N 
ATOM     81  H   UNL A   1      33.571  27.826  24.682  1.00  0.00     0.356 HD
BRANCH  73  82
ATOM     82  C   UNL A   1      33.184  21.286  25.497  1.00  0.00     0.225 C 
ATOM     83  O   UNL A   1      33.332  20.428  26.372  1.00  0.00    -0.275 OA
BRANCH  82  84
ATOM     84  C   UNL A   1      32.237  20.859  23.852  1.00  0.00     0.124 C 
BRANCH  84  85
ATOM     85  C   UNL A   1      32.467  18.994  23.080  1.00  0.00     0.154 C 
BRANCH  85  86
ATOM     86  N   UNL A   1      33.147  17.516  24.237  1.00  0.00    -0.272 N 
ATOM     87  C   UNL A   1      34.289  16.488  24.054  1.00  0.00     0.108 A 
ATOM     88  N   UNL A   1      32.436  16.728  25.246  1.00  0.00    -0.182 NA
ATOM     89  C   UNL A   1      34.408  15.651  25.124  1.00  0.00     0.042 A 
ATOM     90  C   UNL A   1      33.212  15.797  25.774  1.00  0.00     0.135 A 
ENDBRANCH  85  86
ENDBRANCH  84  85
ENDBRANCH  82  84
ENDBRANCH  73  82
BRANCH  80  91
ATOM     91  C   UNL A   1      31.970  29.073  24.181  1.00  0.00     0.315 C 
ATOM     92  O   UNL A   1      32.098  29.954  25.032  1.00  0.00    -0.231 OA
BRANCH  91  93
ATOM     93  C   UNL A   1      30.966  29.371  23.108  1.00  0.00     0.119 C 
ATOM     94  C   UNL A   1      29.839  28.602  22.484  1.00  0.00     0.019 C 
ATOM     95  C   UNL A   1      29.531  29.651  23.510  1.00  0.00     0.019 C 
ENDBRANCH  91  93
ENDBRANCH  80  91
ENDBRANCH  69  71
ENDBRANCH  68  69
ENDBRANCH   1  68
TORSDOF 20
ENDMDL
