MODEL 1
REMARK VINA RESULT:     -11.5      0.000      0.000
REMARK SMILES CC(C)Cc1cc2c(cc1Cl)C=C(C(=O)OCCOC(=O)c1ccc(-c3c4nc(c(-c5ccc(S(=O)(=O)[O-])cc5)c5ccc([nH]5)c(-c5ccc(S(=O)(=O)[O-])cc5)c5nc(c(-c6ccc(S(=O)(=O)[O-])cc6)c6ccc3[nH]6)C=C5)C=C4)cc1)[C@H](C(F)(F)F)O2
REMARK SMILES IDX 18 1 17 2 16 3 14 4 15 5 13 6 5 7 6 8 10 9 7 10 9 11 11 12
REMARK SMILES IDX 8 13 87 14 12 15 82 16 4 17 2 18 1 19 3 20 83 21 84 22 85 23
REMARK SMILES IDX 86 24 19 25 20 26 21 27 22 28 23 29 81 30 24 31 80 32 25 33
REMARK SMILES IDX 26 34 27 35 74 36 28 37 79 38 73 39 75 40 29 41 78 42 72 43
REMARK SMILES IDX 71 44 30 46 60 47 41 48 59 49 42 50 45 51 58 52 76 53 43 54
REMARK SMILES IDX 44 55 57 57 77 58 46 59 31 60 32 61 40 62 33 63 39 64 34 65
REMARK SMILES IDX 35 66 36 67 37 68 38 69 61 70 62 71 70 72 63 73 69 74 64 75
REMARK SMILES IDX 65 76 66 77 67 78 68 79 47 80 48 81 56 82 49 83 55 84 50 85
REMARK SMILES IDX 51 86 52 87 53 88 54 89
REMARK H PARENT 75 45 45 56
REMARK Flexibility Score: inf
ROOT
ATOM      1  C   UNL A   1      32.440  29.820  26.892  1.00  0.00     0.275 C 
ENDROOT
BRANCH   1   2
ATOM      2  C   UNL A   1      32.006  29.869  25.425  1.00  0.00     0.275 C 
BRANCH   2   3
ATOM      3  O   UNL A   1      31.849  28.538  24.886  1.00  0.00    -0.459 OA
BRANCH   3   4
ATOM      4  C   UNL A   1      32.519  28.280  23.743  1.00  0.00     0.338 C 
ATOM      5  O   UNL A   1      32.753  29.092  22.862  1.00  0.00    -0.246 OA
BRANCH   4   6
ATOM      6  C   UNL A   1      33.031  26.891  23.721  1.00  0.00     0.087 C 
ATOM      7  C   UNL A   1      34.918  22.442  25.131  1.00  0.00    -0.025 A 
ATOM      8  C   UNL A   1      34.871  23.145  23.904  1.00  0.00     0.052 A 
ATOM      9  C   UNL A   1      34.400  23.060  26.281  1.00  0.00     0.045 A 
ATOM     10  C   UNL A   1      34.312  24.421  23.831  1.00  0.00     0.128 A 
ATOM     11  C   UNL A   1      33.840  24.334  26.206  1.00  0.00     0.032 A 
ATOM     12  Cl  UNL A   1      34.467  22.322  27.842  1.00  0.00    -0.084 Cl
ATOM     13  C   UNL A   1      33.808  25.012  24.985  1.00  0.00     0.019 A 
ATOM     14  O   UNL A   1      34.341  25.076  22.625  1.00  0.00    -0.475 OA
ATOM     15  C   UNL A   1      33.304  26.365  24.922  1.00  0.00     0.027 C 
ATOM     16  C   UNL A   1      33.376  26.174  22.440  1.00  0.00     0.316 C 
BRANCH   7  17
ATOM     17  C   UNL A   1      35.528  21.058  25.166  1.00  0.00     0.040 C 
BRANCH  17  18
ATOM     18  C   UNL A   1      37.012  20.999  24.748  1.00  0.00    -0.013 C 
ATOM     19  C   UNL A   1      37.899  21.868  25.641  1.00  0.00     0.008 C 
ATOM     20  C   UNL A   1      37.499  19.549  24.775  1.00  0.00     0.008 C 
ENDBRANCH  17  18
ENDBRANCH   7  17
BRANCH  16  21
ATOM     21  C   UNL A   1      32.222  25.657  21.561  1.00  0.00     0.430 C 
ATOM     22  F   UNL A   1      31.547  24.615  22.086  1.00  0.00    -0.167 F 
ATOM     23  F   UNL A   1      31.304  26.650  21.389  1.00  0.00    -0.167 F 
ATOM     24  F   UNL A   1      32.634  25.289  20.327  1.00  0.00    -0.167 F 
ENDBRANCH  16  21
ENDBRANCH   4   6
ENDBRANCH   3   4
ENDBRANCH   2   3
ENDBRANCH   1   2
BRANCH   1  25
ATOM     25  O   UNL A   1      33.875  29.745  27.000  1.00  0.00    -0.458 OA
BRANCH  25  26
ATOM     26  C   UNL A   1      34.481  30.759  27.656  1.00  0.00     0.338 C 
ATOM     27  O   UNL A   1      34.036  31.878  27.872  1.00  0.00    -0.246 OA
BRANCH  26  28
ATOM     28  C   UNL A   1      35.765  30.287  28.189  1.00  0.00     0.060 A 
ATOM     29  C   UNL A   1      35.863  29.635  29.415  1.00  0.00     0.016 A 
ATOM     30  C   UNL A   1      36.892  30.435  27.388  1.00  0.00     0.016 A 
ATOM     31  C   UNL A   1      37.115  29.173  29.845  1.00  0.00     0.010 A 
ATOM     32  C   UNL A   1      38.113  29.891  27.767  1.00  0.00     0.010 A 
ATOM     33  C   UNL A   1      38.253  29.286  29.022  1.00  0.00    -0.014 A 
BRANCH  33  34
ATOM     34  C   UNL A   1      39.601  28.818  29.454  1.00  0.00     0.031 A 
ATOM     35  C   UNL A   1      40.452  29.686  30.354  1.00  0.00     0.074 A 
ATOM     36  C   UNL A   1      40.093  27.648  29.000  1.00  0.00     0.049 A 
ATOM     37  N   UNL A   1      41.678  29.491  30.770  1.00  0.00    -0.248 NA
ATOM     38  C   UNL A   1      39.865  30.954  30.820  1.00  0.00     0.031 C 
ATOM     39  C   UNL A   1      39.400  26.739  28.086  1.00  0.00     0.029 A 
ATOM     40  N   UNL A   1      41.290  27.017  29.247  1.00  0.00    -0.354 N 
ATOM     41  C   UNL A   1      42.013  30.618  31.514  1.00  0.00     0.074 A 
ATOM     42  C   UNL A   1      40.887  31.520  31.445  1.00  0.00     0.031 C 
ATOM     43  C   UNL A   1      40.153  25.645  27.897  1.00  0.00     0.029 A 
ATOM     44  C   UNL A   1      41.407  25.792  28.632  1.00  0.00     0.049 A 
ATOM     45  H   UNL A   1      41.995  27.405  29.814  1.00  0.00     0.167 HD
ATOM     46  C   UNL A   1      43.139  30.866  32.224  1.00  0.00     0.031 A 
ATOM     47  C   UNL A   1      42.405  24.884  28.655  1.00  0.00     0.031 A 
ATOM     48  C   UNL A   1      44.229  29.936  32.345  1.00  0.00     0.049 A 
ATOM     49  C   UNL A   1      43.639  25.165  29.467  1.00  0.00     0.074 A 
ATOM     50  C   UNL A   1      45.377  30.061  33.109  1.00  0.00     0.029 A 
ATOM     51  N   UNL A   1      44.301  28.707  31.708  1.00  0.00    -0.354 N 
ATOM     52  N   UNL A   1      43.911  26.214  30.206  1.00  0.00    -0.248 NA
ATOM     53  C   UNL A   1      44.699  24.147  29.456  1.00  0.00     0.031 C 
ATOM     54  C   UNL A   1      46.166  28.930  32.893  1.00  0.00     0.029 A 
ATOM     55  C   UNL A   1      45.483  28.072  32.045  1.00  0.00     0.049 A 
ATOM     56  H   UNL A   1      43.614  28.341  31.106  1.00  0.00     0.167 HD
ATOM     57  C   UNL A   1      45.166  25.979  30.754  1.00  0.00     0.074 A 
ATOM     58  C   UNL A   1      45.595  24.679  30.279  1.00  0.00     0.031 C 
ATOM     59  C   UNL A   1      45.897  26.774  31.572  1.00  0.00     0.031 A 
BRANCH  46  60
ATOM     60  C   UNL A   1      43.245  32.170  32.973  1.00  0.00    -0.014 A 
ATOM     61  C   UNL A   1      42.723  32.279  34.276  1.00  0.00     0.010 A 
ATOM     62  C   UNL A   1      43.754  33.322  32.345  1.00  0.00     0.010 A 
ATOM     63  C   UNL A   1      42.689  33.517  34.927  1.00  0.00     0.020 A 
ATOM     64  C   UNL A   1      43.751  34.554  33.005  1.00  0.00     0.020 A 
ATOM     65  C   UNL A   1      43.197  34.649  34.283  1.00  0.00     0.054 A 
BRANCH  65  66
ATOM     66  S   UNL A   1      43.133  36.250  35.133  1.00  0.00     0.124 S 
ATOM     67  O   UNL A   1      44.439  36.820  34.817  1.00  0.00    -0.237 OA
ATOM     68  O   UNL A   1      41.988  36.903  34.504  1.00  0.00    -0.237 OA
ATOM     69  O   UNL A   1      42.934  35.883  36.534  1.00  0.00    -0.744 OA
ENDBRANCH  65  66
ENDBRANCH  46  60
BRANCH  47  70
ATOM     70  C   UNL A   1      42.231  23.599  27.921  1.00  0.00    -0.014 A 
ATOM     71  C   UNL A   1      41.421  22.574  28.447  1.00  0.00     0.010 A 
ATOM     72  C   UNL A   1      42.960  23.355  26.744  1.00  0.00     0.010 A 
ATOM     73  C   UNL A   1      41.394  21.312  27.845  1.00  0.00     0.020 A 
ATOM     74  C   UNL A   1      42.914  22.102  26.124  1.00  0.00     0.020 A 
ATOM     75  C   UNL A   1      42.158  21.079  26.698  1.00  0.00     0.054 A 
BRANCH  75  76
ATOM     76  S   UNL A   1      42.169  19.413  25.978  1.00  0.00     0.124 S 
ATOM     77  O   UNL A   1      40.745  19.178  25.748  1.00  0.00    -0.237 OA
ATOM     78  O   UNL A   1      42.981  19.588  24.778  1.00  0.00    -0.237 OA
ATOM     79  O   UNL A   1      42.776  18.593  27.024  1.00  0.00    -0.744 OA
ENDBRANCH  75  76
ENDBRANCH  47  70
BRANCH  59  80
ATOM     80  C   UNL A   1      47.252  26.298  32.022  1.00  0.00    -0.014 A 
ATOM     81  C   UNL A   1      48.360  26.439  31.167  1.00  0.00     0.010 A 
ATOM     82  C   UNL A   1      47.381  25.540  33.199  1.00  0.00     0.010 A 
ATOM     83  C   UNL A   1      49.560  25.780  31.449  1.00  0.00     0.020 A 
ATOM     84  C   UNL A   1      48.588  24.900  33.497  1.00  0.00     0.020 A 
ATOM     85  C   UNL A   1      49.657  24.997  32.602  1.00  0.00     0.054 A 
BRANCH  85  86
ATOM     86  S   UNL A   1      51.190  24.075  32.903  1.00  0.00     0.124 S 
ATOM     87  O   UNL A   1      50.915  22.800  32.246  1.00  0.00    -0.237 OA
ATOM     88  O   UNL A   1      52.200  24.910  32.259  1.00  0.00    -0.237 OA
ATOM     89  O   UNL A   1      51.276  24.019  34.361  1.00  0.00    -0.744 OA
ENDBRANCH  85  86
ENDBRANCH  59  80
ENDBRANCH  33  34
ENDBRANCH  26  28
ENDBRANCH  25  26
ENDBRANCH   1  25
TORSDOF 17
ENDMDL
MODEL 2
REMARK VINA RESULT:     -11.2      1.320      1.936
REMARK SMILES CC(C)Cc1cc2c(cc1Cl)C=C(C(=O)OCCOC(=O)c1ccc(-c3c4nc(c(-c5ccc(S(=O)(=O)[O-])cc5)c5ccc([nH]5)c(-c5ccc(S(=O)(=O)[O-])cc5)c5nc(c(-c6ccc(S(=O)(=O)[O-])cc6)c6ccc3[nH]6)C=C5)C=C4)cc1)[C@H](C(F)(F)F)O2
REMARK SMILES IDX 18 1 17 2 16 3 14 4 15 5 13 6 5 7 6 8 10 9 7 10 9 11 11 12
REMARK SMILES IDX 8 13 87 14 12 15 82 16 4 17 2 18 1 19 3 20 83 21 84 22 85 23
REMARK SMILES IDX 86 24 19 25 20 26 21 27 22 28 23 29 81 30 24 31 80 32 25 33
REMARK SMILES IDX 26 34 27 35 74 36 28 37 79 38 73 39 75 40 29 41 78 42 72 43
REMARK SMILES IDX 71 44 30 46 60 47 41 48 59 49 42 50 45 51 58 52 76 53 43 54
REMARK SMILES IDX 44 55 57 57 77 58 46 59 31 60 32 61 40 62 33 63 39 64 34 65
REMARK SMILES IDX 35 66 36 67 37 68 38 69 61 70 62 71 70 72 63 73 69 74 64 75
REMARK SMILES IDX 65 76 66 77 67 78 68 79 47 80 48 81 56 82 49 83 55 84 50 85
REMARK SMILES IDX 51 86 52 87 53 88 54 89
REMARK H PARENT 75 45 45 56
REMARK Flexibility Score: inf
ROOT
ATOM      1  C   UNL A   1      32.465  29.650  27.232  1.00  0.00     0.275 C 
ENDROOT
BRANCH   1   2
ATOM      2  C   UNL A   1      32.244  29.240  25.773  1.00  0.00     0.275 C 
BRANCH   2   3
ATOM      3  O   UNL A   1      33.460  28.722  25.190  1.00  0.00    -0.459 OA
BRANCH   3   4
ATOM      4  C   UNL A   1      33.379  28.336  23.899  1.00  0.00     0.338 C 
ATOM      5  O   UNL A   1      33.318  29.088  22.939  1.00  0.00    -0.246 OA
BRANCH   4   6
ATOM      6  C   UNL A   1      33.467  26.864  23.770  1.00  0.00     0.087 C 
ATOM      7  C   UNL A   1      34.248  21.992  24.763  1.00  0.00    -0.025 A 
ATOM      8  C   UNL A   1      34.181  22.753  23.573  1.00  0.00     0.052 A 
ATOM      9  C   UNL A   1      34.139  22.657  25.996  1.00  0.00     0.045 A 
ATOM     10  C   UNL A   1      34.000  24.135  23.617  1.00  0.00     0.128 A 
ATOM     11  C   UNL A   1      33.956  24.038  26.037  1.00  0.00     0.032 A 
ATOM     12  Cl  UNL A   1      34.275  21.836  27.510  1.00  0.00    -0.084 Cl
ATOM     13  C   UNL A   1      33.898  24.771  24.850  1.00  0.00     0.019 A 
ATOM     14  O   UNL A   1      33.994  24.829  22.432  1.00  0.00    -0.475 OA
ATOM     15  C   UNL A   1      33.792  26.212  24.894  1.00  0.00     0.027 C 
ATOM     16  C   UNL A   1      33.361  26.159  22.442  1.00  0.00     0.316 C 
BRANCH   7  17
ATOM     17  C   UNL A   1      34.440  20.493  24.672  1.00  0.00     0.040 C 
BRANCH  17  18
ATOM     18  C   UNL A   1      33.130  19.682  24.584  1.00  0.00    -0.013 C 
ATOM     19  C   UNL A   1      32.364  19.961  23.290  1.00  0.00     0.008 C 
ATOM     20  C   UNL A   1      33.440  18.188  24.700  1.00  0.00     0.008 C 
ENDBRANCH  17  18
ENDBRANCH   7  17
BRANCH  16  21
ATOM     21  C   UNL A   1      31.969  26.033  21.793  1.00  0.00     0.430 C 
ATOM     22  F   UNL A   1      31.249  27.171  21.796  1.00  0.00    -0.167 F 
ATOM     23  F   UNL A   1      32.111  25.681  20.484  1.00  0.00    -0.167 F 
ATOM     24  F   UNL A   1      31.211  25.075  22.374  1.00  0.00    -0.167 F 
ENDBRANCH  16  21
ENDBRANCH   4   6
ENDBRANCH   3   4
ENDBRANCH   2   3
ENDBRANCH   1   2
BRANCH   1  25
ATOM     25  O   UNL A   1      33.834  29.429  27.624  1.00  0.00    -0.458 OA
BRANCH  25  26
ATOM     26  C   UNL A   1      34.517  30.514  28.051  1.00  0.00     0.338 C 
ATOM     27  O   UNL A   1      34.083  31.643  28.238  1.00  0.00    -0.246 OA
BRANCH  26  28
ATOM     28  C   UNL A   1      35.894  30.118  28.376  1.00  0.00     0.060 A 
ATOM     29  C   UNL A   1      36.244  29.614  29.626  1.00  0.00     0.016 A 
ATOM     30  C   UNL A   1      36.841  30.181  27.361  1.00  0.00     0.016 A 
ATOM     31  C   UNL A   1      37.568  29.215  29.854  1.00  0.00     0.010 A 
ATOM     32  C   UNL A   1      38.128  29.695  27.556  1.00  0.00     0.010 A 
ATOM     33  C   UNL A   1      38.524  29.241  28.819  1.00  0.00    -0.014 A 
BRANCH  33  34
ATOM     34  C   UNL A   1      39.944  28.838  29.033  1.00  0.00     0.031 A 
ATOM     35  C   UNL A   1      40.918  29.803  29.670  1.00  0.00     0.074 A 
ATOM     36  C   UNL A   1      40.381  27.636  28.607  1.00  0.00     0.049 A 
ATOM     37  N   UNL A   1      42.206  29.667  29.864  1.00  0.00    -0.248 NA
ATOM     38  C   UNL A   1      40.386  31.102  30.117  1.00  0.00     0.031 C 
ATOM     39  C   UNL A   1      39.560  26.631  27.930  1.00  0.00     0.029 A 
ATOM     40  N   UNL A   1      41.622  27.050  28.683  1.00  0.00    -0.354 N 
ATOM     41  C   UNL A   1      42.636  30.867  30.423  1.00  0.00     0.074 A 
ATOM     42  C   UNL A   1      41.488  31.742  30.481  1.00  0.00     0.031 C 
ATOM     43  C   UNL A   1      40.300  25.534  27.706  1.00  0.00     0.029 A 
ATOM     44  C   UNL A   1      41.664  25.772  28.175  1.00  0.00     0.049 A 
ATOM     45  H   UNL A   1      42.408  27.502  29.067  1.00  0.00     0.167 HD
ATOM     46  C   UNL A   1      43.865  31.200  30.881  1.00  0.00     0.031 A 
ATOM     47  C   UNL A   1      42.677  24.884  28.096  1.00  0.00     0.031 A 
ATOM     48  C   UNL A   1      44.989  30.303  30.883  1.00  0.00     0.049 A 
ATOM     49  C   UNL A   1      44.030  25.263  28.631  1.00  0.00     0.074 A 
ATOM     50  C   UNL A   1      46.254  30.519  31.401  1.00  0.00     0.029 A 
ATOM     51  N   UNL A   1      44.981  29.018  30.362  1.00  0.00    -0.354 N 
ATOM     52  N   UNL A   1      44.400  26.383  29.203  1.00  0.00    -0.248 NA
ATOM     53  C   UNL A   1      45.103  24.263  28.517  1.00  0.00     0.031 C 
ATOM     54  C   UNL A   1      47.026  29.384  31.149  1.00  0.00     0.029 A 
ATOM     55  C   UNL A   1      46.225  28.437  30.530  1.00  0.00     0.049 A 
ATOM     56  H   UNL A   1      44.207  28.584  29.937  1.00  0.00     0.167 HD
ATOM     57  C   UNL A   1      45.743  26.222  29.525  1.00  0.00     0.074 A 
ATOM     58  C   UNL A   1      46.119  24.888  29.103  1.00  0.00     0.031 C 
ATOM     59  C   UNL A   1      46.586  27.104  30.112  1.00  0.00     0.031 A 
BRANCH  46  60
ATOM     60  C   UNL A   1      44.066  32.574  31.470  1.00  0.00    -0.014 A 
ATOM     61  C   UNL A   1      44.522  33.629  30.657  1.00  0.00     0.010 A 
ATOM     62  C   UNL A   1      43.915  32.795  32.851  1.00  0.00     0.010 A 
ATOM     63  C   UNL A   1      44.845  34.870  31.218  1.00  0.00     0.020 A 
ATOM     64  C   UNL A   1      44.206  34.042  33.410  1.00  0.00     0.020 A 
ATOM     65  C   UNL A   1      44.692  35.065  32.593  1.00  0.00     0.054 A 
BRANCH  65  66
ATOM     66  S   UNL A   1      45.128  36.674  33.309  1.00  0.00     0.124 S 
ATOM     67  O   UNL A   1      44.260  37.586  32.570  1.00  0.00    -0.237 OA
ATOM     68  O   UNL A   1      44.804  36.497  34.722  1.00  0.00    -0.237 OA
ATOM     69  O   UNL A   1      46.556  36.799  33.019  1.00  0.00    -0.744 OA
ENDBRANCH  65  66
ENDBRANCH  46  60
BRANCH  47  70
ATOM     70  C   UNL A   1      42.412  23.531  27.533  1.00  0.00    -0.014 A 
ATOM     71  C   UNL A   1      41.911  22.498  28.348  1.00  0.00     0.010 A 
ATOM     72  C   UNL A   1      42.759  23.241  26.202  1.00  0.00     0.010 A 
ATOM     73  C   UNL A   1      41.823  21.190  27.862  1.00  0.00     0.020 A 
ATOM     74  C   UNL A   1      42.648  21.938  25.704  1.00  0.00     0.020 A 
ATOM     75  C   UNL A   1      42.212  20.915  26.548  1.00  0.00     0.054 A 
BRANCH  75  76
ATOM     76  S   UNL A   1      42.164  19.198  25.962  1.00  0.00     0.124 S 
ATOM     77  O   UNL A   1      40.751  19.037  25.628  1.00  0.00    -0.237 OA
ATOM     78  O   UNL A   1      43.081  19.221  24.826  1.00  0.00    -0.237 OA
ATOM     79  O   UNL A   1      42.625  18.430  27.116  1.00  0.00    -0.744 OA
ENDBRANCH  75  76
ENDBRANCH  47  70
BRANCH  59  80
ATOM     80  C   UNL A   1      48.016  26.695  30.343  1.00  0.00    -0.014 A 
ATOM     81  C   UNL A   1      48.369  26.037  31.536  1.00  0.00     0.010 A 
ATOM     82  C   UNL A   1      49.029  27.135  29.474  1.00  0.00     0.010 A 
ATOM     83  C   UNL A   1      49.712  25.882  31.887  1.00  0.00     0.020 A 
ATOM     84  C   UNL A   1      50.374  26.958  29.810  1.00  0.00     0.020 A 
ATOM     85  C   UNL A   1      50.706  26.363  31.031  1.00  0.00     0.054 A 
BRANCH  85  86
ATOM     86  S   UNL A   1      52.440  26.236  31.547  1.00  0.00     0.124 S 
ATOM     87  O   UNL A   1      53.141  26.220  30.266  1.00  0.00    -0.237 OA
ATOM     88  O   UNL A   1      52.625  27.440  32.352  1.00  0.00    -0.237 OA
ATOM     89  O   UNL A   1      52.483  24.981  32.297  1.00  0.00    -0.744 OA
ENDBRANCH  85  86
ENDBRANCH  59  80
ENDBRANCH  33  34
ENDBRANCH  26  28
ENDBRANCH  25  26
ENDBRANCH   1  25
TORSDOF 17
ENDMDL
MODEL 3
REMARK VINA RESULT:     -11.1      3.004      9.648
REMARK SMILES CC(C)Cc1cc2c(cc1Cl)C=C(C(=O)OCCOC(=O)c1ccc(-c3c4nc(c(-c5ccc(S(=O)(=O)[O-])cc5)c5ccc([nH]5)c(-c5ccc(S(=O)(=O)[O-])cc5)c5nc(c(-c6ccc(S(=O)(=O)[O-])cc6)c6ccc3[nH]6)C=C5)C=C4)cc1)[C@H](C(F)(F)F)O2
REMARK SMILES IDX 18 1 17 2 16 3 14 4 15 5 13 6 5 7 6 8 10 9 7 10 9 11 11 12
REMARK SMILES IDX 8 13 87 14 12 15 82 16 4 17 2 18 1 19 3 20 83 21 84 22 85 23
REMARK SMILES IDX 86 24 19 25 20 26 21 27 22 28 23 29 81 30 24 31 80 32 25 33
REMARK SMILES IDX 26 34 27 35 74 36 28 37 79 38 73 39 75 40 29 41 78 42 72 43
REMARK SMILES IDX 71 44 30 46 60 47 41 48 59 49 42 50 45 51 58 52 76 53 43 54
REMARK SMILES IDX 44 55 57 57 77 58 46 59 31 60 32 61 40 62 33 63 39 64 34 65
REMARK SMILES IDX 35 66 36 67 37 68 38 69 61 70 62 71 70 72 63 73 69 74 64 75
REMARK SMILES IDX 65 76 66 77 67 78 68 79 47 80 48 81 56 82 49 83 55 84 50 85
REMARK SMILES IDX 51 86 52 87 53 88 54 89
REMARK H PARENT 75 45 45 56
REMARK Flexibility Score: inf
ROOT
ATOM      1  C   UNL A   1      37.364  22.034  24.749  1.00  0.00     0.275 C 
ENDROOT
BRANCH   1   2
ATOM      2  C   UNL A   1      36.319  21.132  25.411  1.00  0.00     0.275 C 
BRANCH   2   3
ATOM      3  O   UNL A   1      35.465  21.891  26.296  1.00  0.00    -0.459 OA
BRANCH   3   4
ATOM      4  C   UNL A   1      34.150  21.592  26.248  1.00  0.00     0.338 C 
ATOM      5  O   UNL A   1      33.645  20.555  26.649  1.00  0.00    -0.246 OA
BRANCH   4   6
ATOM      6  C   UNL A   1      33.358  22.728  25.726  1.00  0.00     0.087 C 
ATOM      7  C   UNL A   1      31.578  27.361  24.885  1.00  0.00    -0.025 A 
ATOM      8  C   UNL A   1      31.046  26.061  24.725  1.00  0.00     0.052 A 
ATOM      9  C   UNL A   1      32.858  27.501  25.447  1.00  0.00     0.045 A 
ATOM     10  C   UNL A   1      31.778  24.936  25.105  1.00  0.00     0.128 A 
ATOM     11  C   UNL A   1      33.588  26.376  25.824  1.00  0.00     0.032 A 
ATOM     12  Cl  UNL A   1      33.576  29.043  25.751  1.00  0.00    -0.084 Cl
ATOM     13  C   UNL A   1      33.042  25.101  25.661  1.00  0.00     0.019 A 
ATOM     14  O   UNL A   1      31.190  23.702  24.974  1.00  0.00    -0.475 OA
ATOM     15  C   UNL A   1      33.764  23.940  26.129  1.00  0.00     0.027 C 
ATOM     16  C   UNL A   1      32.090  22.537  24.932  1.00  0.00     0.316 C 
BRANCH   7  17
ATOM     17  C   UNL A   1      30.753  28.555  24.455  1.00  0.00     0.040 C 
BRANCH  17  18
ATOM     18  C   UNL A   1      30.124  28.429  23.052  1.00  0.00    -0.013 C 
ATOM     19  C   UNL A   1      28.625  28.735  23.062  1.00  0.00     0.008 C 
ATOM     20  C   UNL A   1      30.845  29.363  22.077  1.00  0.00     0.008 C 
ENDBRANCH  17  18
ENDBRANCH   7  17
BRANCH  16  21
ATOM     21  C   UNL A   1      32.212  22.076  23.466  1.00  0.00     0.430 C 
ATOM     22  F   UNL A   1      32.188  20.739  23.299  1.00  0.00    -0.167 F 
ATOM     23  F   UNL A   1      31.158  22.563  22.751  1.00  0.00    -0.167 F 
ATOM     24  F   UNL A   1      33.334  22.537  22.868  1.00  0.00    -0.167 F 
ENDBRANCH  16  21
ENDBRANCH   4   6
ENDBRANCH   3   4
ENDBRANCH   2   3
ENDBRANCH   1   2
BRANCH   1  25
ATOM     25  O   UNL A   1      37.793  23.070  25.654  1.00  0.00    -0.458 OA
BRANCH  25  26
ATOM     26  C   UNL A   1      38.960  22.855  26.301  1.00  0.00     0.338 C 
ATOM     27  O   UNL A   1      39.581  21.805  26.390  1.00  0.00    -0.246 OA
BRANCH  26  28
ATOM     28  C   UNL A   1      39.461  24.133  26.825  1.00  0.00     0.060 A 
ATOM     29  C   UNL A   1      40.083  25.074  26.009  1.00  0.00     0.016 A 
ATOM     30  C   UNL A   1      39.221  24.422  28.163  1.00  0.00     0.016 A 
ATOM     31  C   UNL A   1      40.500  26.291  26.567  1.00  0.00     0.010 A 
ATOM     32  C   UNL A   1      39.544  25.665  28.693  1.00  0.00     0.010 A 
ATOM     33  C   UNL A   1      40.226  26.606  27.912  1.00  0.00    -0.014 A 
BRANCH  33  34
ATOM     34  C   UNL A   1      40.668  27.885  28.540  1.00  0.00     0.031 A 
ATOM     35  C   UNL A   1      42.105  28.057  28.978  1.00  0.00     0.074 A 
ATOM     36  C   UNL A   1      39.779  28.871  28.773  1.00  0.00     0.049 A 
ATOM     37  N   UNL A   1      42.659  29.059  29.613  1.00  0.00    -0.248 NA
ATOM     38  C   UNL A   1      43.034  26.947  28.699  1.00  0.00     0.031 C 
ATOM     39  C   UNL A   1      38.353  28.815  28.448  1.00  0.00     0.029 A 
ATOM     40  N   UNL A   1      39.941  30.116  29.333  1.00  0.00    -0.354 N 
ATOM     41  C   UNL A   1      43.982  28.686  29.833  1.00  0.00     0.074 A 
ATOM     42  C   UNL A   1      44.135  27.345  29.319  1.00  0.00     0.031 C 
ATOM     43  C   UNL A   1      37.784  29.990  28.759  1.00  0.00     0.029 A 
ATOM     44  C   UNL A   1      38.789  30.868  29.353  1.00  0.00     0.049 A 
ATOM     45  H   UNL A   1      40.801  30.439  29.685  1.00  0.00     0.167 HD
ATOM     46  C   UNL A   1      44.990  29.407  30.377  1.00  0.00     0.031 A 
ATOM     47  C   UNL A   1      38.560  32.123  29.793  1.00  0.00     0.031 A 
ATOM     48  C   UNL A   1      44.850  30.766  30.826  1.00  0.00     0.049 A 
ATOM     49  C   UNL A   1      39.697  32.918  30.374  1.00  0.00     0.074 A 
ATOM     50  C   UNL A   1      45.833  31.609  31.316  1.00  0.00     0.029 A 
ATOM     51  N   UNL A   1      43.666  31.487  30.822  1.00  0.00    -0.354 N 
ATOM     52  N   UNL A   1      40.951  32.565  30.522  1.00  0.00    -0.248 NA
ATOM     53  C   UNL A   1      39.396  34.278  30.844  1.00  0.00     0.031 C 
ATOM     54  C   UNL A   1      45.233  32.823  31.656  1.00  0.00     0.029 A 
ATOM     55  C   UNL A   1      43.890  32.758  31.320  1.00  0.00     0.049 A 
ATOM     56  H   UNL A   1      42.797  31.146  30.512  1.00  0.00     0.167 HD
ATOM     57  C   UNL A   1      41.590  33.659  31.093  1.00  0.00     0.074 A 
ATOM     58  C   UNL A   1      40.591  34.696  31.247  1.00  0.00     0.031 C 
ATOM     59  C   UNL A   1      42.887  33.787  31.461  1.00  0.00     0.031 A 
BRANCH  46  60
ATOM     60  C   UNL A   1      46.355  28.773  30.480  1.00  0.00    -0.014 A 
ATOM     61  C   UNL A   1      47.246  28.839  29.393  1.00  0.00     0.010 A 
ATOM     62  C   UNL A   1      46.712  28.011  31.607  1.00  0.00     0.010 A 
ATOM     63  C   UNL A   1      48.457  28.138  29.422  1.00  0.00     0.020 A 
ATOM     64  C   UNL A   1      47.934  27.335  31.654  1.00  0.00     0.020 A 
ATOM     65  C   UNL A   1      48.789  27.384  30.551  1.00  0.00     0.054 A 
BRANCH  65  66
ATOM     66  S   UNL A   1      50.355  26.468  30.569  1.00  0.00     0.124 S 
ATOM     67  O   UNL A   1      49.950  25.176  31.115  1.00  0.00    -0.237 OA
ATOM     68  O   UNL A   1      50.743  26.466  29.161  1.00  0.00    -0.237 OA
ATOM     69  O   UNL A   1      51.209  27.274  31.438  1.00  0.00    -0.744 OA
ENDBRANCH  65  66
ENDBRANCH  46  60
BRANCH  47  70
ATOM     70  C   UNL A   1      37.199  32.708  29.636  1.00  0.00    -0.014 A 
ATOM     71  C   UNL A   1      36.782  33.240  28.401  1.00  0.00     0.010 A 
ATOM     72  C   UNL A   1      36.353  32.831  30.752  1.00  0.00     0.010 A 
ATOM     73  C   UNL A   1      35.575  33.938  28.301  1.00  0.00     0.020 A 
ATOM     74  C   UNL A   1      35.132  33.506  30.649  1.00  0.00     0.020 A 
ATOM     75  C   UNL A   1      34.767  34.084  29.432  1.00  0.00     0.054 A 
BRANCH  75  76
ATOM     76  S   UNL A   1      33.243  35.060  29.298  1.00  0.00     0.124 S 
ATOM     77  O   UNL A   1      32.502  34.318  28.281  1.00  0.00    -0.237 OA
ATOM     78  O   UNL A   1      32.698  34.991  30.651  1.00  0.00    -0.237 OA
ATOM     79  O   UNL A   1      33.716  36.380  28.887  1.00  0.00    -0.744 OA
ENDBRANCH  75  76
ENDBRANCH  47  70
BRANCH  59  80
ATOM     80  C   UNL A   1      43.340  35.082  32.081  1.00  0.00    -0.014 A 
ATOM     81  C   UNL A   1      43.124  35.311  33.452  1.00  0.00     0.010 A 
ATOM     82  C   UNL A   1      43.793  36.136  31.269  1.00  0.00     0.010 A 
ATOM     83  C   UNL A   1      43.295  36.589  33.991  1.00  0.00     0.020 A 
ATOM     84  C   UNL A   1      43.990  37.409  31.810  1.00  0.00     0.020 A 
ATOM     85  C   UNL A   1      43.706  37.635  33.160  1.00  0.00     0.054 A 
BRANCH  85  86
ATOM     86  S   UNL A   1      43.832  39.305  33.856  1.00  0.00     0.124 S 
ATOM     87  O   UNL A   1      42.611  39.935  33.364  1.00  0.00    -0.237 OA
ATOM     88  O   UNL A   1      43.874  39.051  35.294  1.00  0.00    -0.237 OA
ATOM     89  O   UNL A   1      45.075  39.822  33.285  1.00  0.00    -0.744 OA
ENDBRANCH  85  86
ENDBRANCH  59  80
ENDBRANCH  33  34
ENDBRANCH  26  28
ENDBRANCH  25  26
ENDBRANCH   1  25
TORSDOF 17
ENDMDL
