MODEL 1
REMARK VINA RESULT:      -9.5      0.000      0.000
REMARK SMILES O=C(OCCOC(=O)c1ccc(S(=O)(=O)NCc2ccn[nH]2)c(F)c1)c1ccc(-c2c3nc(c(-c4ccc(S(=O)(=O)[O-])cc4)c4ccc([nH]4)c(-c4ccc(S(=O)(=O)[O-])cc4)c4nc(c(-c5ccc(S(=O)(=O)[O-])cc5)c5ccc2[nH]5)C=C4)C=C3)cc1
REMARK SMILES IDX 5 1 4 2 3 3 2 4 1 5 26 6 27 7 85 8 28 9 84 10 29 11 30 12
REMARK SMILES IDX 31 13 78 14 32 15 83 16 77 17 79 18 33 19 82 20 76 21 75 22
REMARK SMILES IDX 34 24 64 25 45 26 63 27 46 28 49 29 62 30 80 31 47 32 48 33
REMARK SMILES IDX 61 35 81 36 50 37 35 38 36 39 44 40 37 41 43 42 38 43 39 44
REMARK SMILES IDX 40 45 41 46 42 47 65 48 66 49 74 50 67 51 73 52 68 53 69 54
REMARK SMILES IDX 70 55 71 56 72 57 51 58 52 59 60 60 53 61 59 62 54 63 55 64
REMARK SMILES IDX 56 65 57 66 58 67 6 68 7 69 8 70 9 71 10 72 25 73 11 74
REMARK SMILES IDX 23 75 12 76 24 77 13 78 14 79 15 80 16 81 17 83 18 84 19 85
REMARK SMILES IDX 22 86 20 87 21 88
REMARK H PARENT 79 23 49 34 16 82 22 89
REMARK Flexibility Score: inf
ROOT
ATOM      1  C   UNL A   1      33.882  33.897  29.177  1.00  0.00     0.275 C 
ENDROOT
BRANCH   1   2
ATOM      2  C   UNL A   1      34.393  33.040  28.015  1.00  0.00     0.275 C 
BRANCH   2   3
ATOM      3  O   UNL A   1      33.734  31.771  27.850  1.00  0.00    -0.458 OA
BRANCH   3   4
ATOM      4  C   UNL A   1      34.234  30.518  27.747  1.00  0.00     0.338 C 
ATOM      5  O   UNL A   1      33.454  29.597  27.506  1.00  0.00    -0.246 OA
BRANCH   4   6
ATOM      6  C   UNL A   1      35.663  30.153  28.017  1.00  0.00     0.060 A 
ATOM      7  C   UNL A   1      36.678  30.064  27.066  1.00  0.00     0.016 A 
ATOM      8  C   UNL A   1      35.997  29.869  29.359  1.00  0.00     0.016 A 
ATOM      9  C   UNL A   1      37.993  29.786  27.438  1.00  0.00     0.010 A 
ATOM     10  C   UNL A   1      37.314  29.586  29.738  1.00  0.00     0.010 A 
ATOM     11  C   UNL A   1      38.321  29.556  28.774  1.00  0.00    -0.014 A 
BRANCH  11  12
ATOM     12  C   UNL A   1      39.717  29.199  29.103  1.00  0.00     0.031 A 
ATOM     13  C   UNL A   1      40.567  30.194  29.829  1.00  0.00     0.074 A 
ATOM     14  C   UNL A   1      40.161  27.952  28.860  1.00  0.00     0.049 A 
ATOM     15  N   UNL A   1      41.750  30.028  30.351  1.00  0.00    -0.248 NA
ATOM     16  C   UNL A   1      39.991  31.534  30.039  1.00  0.00     0.031 C 
ATOM     17  C   UNL A   1      39.369  26.884  28.252  1.00  0.00     0.029 A 
ATOM     18  N   UNL A   1      41.372  27.362  29.105  1.00  0.00    -0.354 N 
ATOM     19  C   UNL A   1      42.046  31.224  30.990  1.00  0.00     0.074 A 
ATOM     20  C   UNL A   1      40.942  32.126  30.746  1.00  0.00     0.031 C 
ATOM     21  C   UNL A   1      40.126  25.782  28.127  1.00  0.00     0.029 A 
ATOM     22  C   UNL A   1      41.453  26.062  28.661  1.00  0.00     0.049 A 
ATOM     23  H   UNL A   1      42.115  27.824  29.556  1.00  0.00     0.167 HD
ATOM     24  C   UNL A   1      43.129  31.526  31.741  1.00  0.00     0.031 A 
ATOM     25  C   UNL A   1      42.481  25.194  28.691  1.00  0.00     0.031 A 
ATOM     26  C   UNL A   1      44.243  30.637  31.924  1.00  0.00     0.049 A 
ATOM     27  C   UNL A   1      43.737  25.613  29.403  1.00  0.00     0.074 A 
ATOM     28  C   UNL A   1      45.413  30.854  32.629  1.00  0.00     0.029 A 
ATOM     29  N   UNL A   1      44.334  29.366  31.374  1.00  0.00    -0.354 N 
ATOM     30  N   UNL A   1      43.981  26.733  30.045  1.00  0.00    -0.248 NA
ATOM     31  C   UNL A   1      44.839  24.645  29.434  1.00  0.00     0.031 C 
ATOM     32  C   UNL A   1      46.230  29.731  32.466  1.00  0.00     0.029 A 
ATOM     33  C   UNL A   1      45.546  28.790  31.710  1.00  0.00     0.049 A 
ATOM     34  H   UNL A   1      43.636  28.936  30.828  1.00  0.00     0.167 HD
ATOM     35  C   UNL A   1      45.254  26.591  30.581  1.00  0.00     0.074 A 
ATOM     36  C   UNL A   1      45.716  25.267  30.210  1.00  0.00     0.031 C 
ATOM     37  C   UNL A   1      45.977  27.471  31.317  1.00  0.00     0.031 A 
BRANCH  24  38
ATOM     38  C   UNL A   1      43.151  32.879  32.396  1.00  0.00    -0.014 A 
ATOM     39  C   UNL A   1      42.805  33.025  33.752  1.00  0.00     0.010 A 
ATOM     40  C   UNL A   1      43.530  34.013  31.658  1.00  0.00     0.010 A 
ATOM     41  C   UNL A   1      42.813  34.287  34.352  1.00  0.00     0.020 A 
ATOM     42  C   UNL A   1      43.560  35.274  32.260  1.00  0.00     0.020 A 
ATOM     43  C   UNL A   1      43.191  35.404  33.601  1.00  0.00     0.054 A 
BRANCH  43  44
ATOM     44  S   UNL A   1      43.217  37.026  34.414  1.00  0.00     0.124 S 
ATOM     45  O   UNL A   1      41.928  37.038  35.103  1.00  0.00    -0.237 OA
ATOM     46  O   UNL A   1      44.390  36.930  35.279  1.00  0.00    -0.237 OA
ATOM     47  O   UNL A   1      43.338  37.969  33.305  1.00  0.00    -0.744 OA
ENDBRANCH  43  44
ENDBRANCH  24  38
BRANCH  25  48
ATOM     48  C   UNL A   1      42.371  23.863  28.027  1.00  0.00    -0.014 A 
ATOM     49  C   UNL A   1      42.104  22.695  28.764  1.00  0.00     0.010 A 
ATOM     50  C   UNL A   1      42.571  23.758  26.637  1.00  0.00     0.010 A 
ATOM     51  C   UNL A   1      42.083  21.446  28.131  1.00  0.00     0.020 A 
ATOM     52  C   UNL A   1      42.522  22.516  25.996  1.00  0.00     0.020 A 
ATOM     53  C   UNL A   1      42.297  21.364  26.752  1.00  0.00     0.054 A 
BRANCH  53  54
ATOM     54  S   UNL A   1      42.263  19.734  25.954  1.00  0.00     0.124 S 
ATOM     55  O   UNL A   1      43.329  19.855  24.965  1.00  0.00    -0.237 OA
ATOM     56  O   UNL A   1      42.535  18.832  27.071  1.00  0.00    -0.237 OA
ATOM     57  O   UNL A   1      40.909  19.647  25.410  1.00  0.00    -0.744 OA
ENDBRANCH  53  54
ENDBRANCH  25  48
BRANCH  37  58
ATOM     58  C   UNL A   1      47.328  27.010  31.789  1.00  0.00    -0.014 A 
ATOM     59  C   UNL A   1      48.493  27.305  31.060  1.00  0.00     0.010 A 
ATOM     60  C   UNL A   1      47.432  26.293  32.996  1.00  0.00     0.010 A 
ATOM     61  C   UNL A   1      49.736  26.849  31.505  1.00  0.00     0.020 A 
ATOM     62  C   UNL A   1      48.677  25.867  33.462  1.00  0.00     0.020 A 
ATOM     63  C   UNL A   1      49.818  26.130  32.703  1.00  0.00     0.054 A 
BRANCH  63  64
ATOM     64  S   UNL A   1      51.446  25.572  33.273  1.00  0.00     0.124 S 
ATOM     65  O   UNL A   1      51.095  24.735  34.419  1.00  0.00    -0.237 OA
ATOM     66  O   UNL A   1      51.968  24.859  32.110  1.00  0.00    -0.237 OA
ATOM     67  O   UNL A   1      52.142  26.814  33.600  1.00  0.00    -0.744 OA
ENDBRANCH  63  64
ENDBRANCH  37  58
ENDBRANCH  11  12
ENDBRANCH   4   6
ENDBRANCH   3   4
ENDBRANCH   2   3
ENDBRANCH   1   2
BRANCH   1  68
ATOM     68  O   UNL A   1      34.045  33.290  30.468  1.00  0.00    -0.458 OA
BRANCH  68  69
ATOM     69  C   UNL A   1      34.068  34.159  31.513  1.00  0.00     0.338 C 
ATOM     70  O   UNL A   1      33.261  35.039  31.752  1.00  0.00    -0.246 OA
BRANCH  69  71
ATOM     71  C   UNL A   1      35.175  33.801  32.424  1.00  0.00     0.063 A 
ATOM     72  C   UNL A   1      36.340  33.203  31.943  1.00  0.00     0.017 A 
ATOM     73  C   UNL A   1      35.030  34.061  33.793  1.00  0.00     0.056 A 
ATOM     74  C   UNL A   1      37.342  32.834  32.844  1.00  0.00     0.026 A 
ATOM     75  C   UNL A   1      36.029  33.668  34.688  1.00  0.00     0.144 A 
ATOM     76  C   UNL A   1      37.175  33.045  34.222  1.00  0.00     0.118 A 
ATOM     77  F   UNL A   1      35.821  33.889  35.991  1.00  0.00    -0.205 F 
BRANCH  76  78
ATOM     78  S   UNL A   1      38.433  32.394  35.270  1.00  0.00     0.243 S 
ATOM     79  O   UNL A   1      39.015  33.534  35.942  1.00  0.00    -0.207 OA
ATOM     80  O   UNL A   1      37.826  31.303  36.000  1.00  0.00    -0.207 OA
BRANCH  78  81
ATOM     81  N   UNL A   1      39.629  31.701  34.346  1.00  0.00    -0.205 NA
ATOM     82  H   UNL A   1      40.451  32.296  34.450  1.00  0.00     0.141 HD
BRANCH  81  83
ATOM     83  C   UNL A   1      40.089  30.342  34.559  1.00  0.00     0.154 C 
BRANCH  83  84
ATOM     84  C   UNL A   1      39.381  29.379  33.688  1.00  0.00     0.050 A 
ATOM     85  C   UNL A   1      39.825  28.409  32.812  1.00  0.00     0.046 A 
ATOM     86  N   UNL A   1      38.011  29.275  33.676  1.00  0.00    -0.281 N 
ATOM     87  C   UNL A   1      38.663  27.727  32.406  1.00  0.00     0.135 A 
ATOM     88  N   UNL A   1      37.563  28.237  32.954  1.00  0.00    -0.184 NA
ATOM     89  H   UNL A   1      37.417  29.899  34.151  1.00  0.00     0.190 HD
ENDBRANCH  83  84
ENDBRANCH  81  83
ENDBRANCH  78  81
ENDBRANCH  76  78
ENDBRANCH  69  71
ENDBRANCH  68  69
ENDBRANCH   1  68
TORSDOF 18
ENDMDL
MODEL 2
REMARK VINA RESULT:      -9.5      3.222     11.332
REMARK SMILES O=C(OCCOC(=O)c1ccc(S(=O)(=O)NCc2ccn[nH]2)c(F)c1)c1ccc(-c2c3nc(c(-c4ccc(S(=O)(=O)[O-])cc4)c4ccc([nH]4)c(-c4ccc(S(=O)(=O)[O-])cc4)c4nc(c(-c5ccc(S(=O)(=O)[O-])cc5)c5ccc2[nH]5)C=C4)C=C3)cc1
REMARK SMILES IDX 5 1 4 2 3 3 2 4 1 5 26 6 27 7 85 8 28 9 84 10 29 11 30 12
REMARK SMILES IDX 31 13 78 14 32 15 83 16 77 17 79 18 33 19 82 20 76 21 75 22
REMARK SMILES IDX 34 24 64 25 45 26 63 27 46 28 49 29 62 30 80 31 47 32 48 33
REMARK SMILES IDX 61 35 81 36 50 37 35 38 36 39 44 40 37 41 43 42 38 43 39 44
REMARK SMILES IDX 40 45 41 46 42 47 65 48 66 49 74 50 67 51 73 52 68 53 69 54
REMARK SMILES IDX 70 55 71 56 72 57 51 58 52 59 60 60 53 61 59 62 54 63 55 64
REMARK SMILES IDX 56 65 57 66 58 67 6 68 7 69 8 70 9 71 10 72 25 73 11 74
REMARK SMILES IDX 23 75 12 76 24 77 13 78 14 79 15 80 16 81 17 83 18 84 19 85
REMARK SMILES IDX 22 86 20 87 21 88
REMARK H PARENT 79 23 49 34 16 82 22 89
REMARK Flexibility Score: inf
ROOT
ATOM      1  C   UNL A   1      40.629  19.746  26.256  1.00  0.00     0.275 C 
ENDROOT
BRANCH   1   2
ATOM      2  C   UNL A   1      39.373  20.525  25.855  1.00  0.00     0.275 C 
BRANCH   2   3
ATOM      3  O   UNL A   1      39.537  21.953  25.768  1.00  0.00    -0.458 OA
BRANCH   3   4
ATOM      4  C   UNL A   1      38.700  22.964  26.092  1.00  0.00     0.338 C 
ATOM      5  O   UNL A   1      37.554  22.940  25.641  1.00  0.00    -0.246 OA
BRANCH   4   6
ATOM      6  C   UNL A   1      39.103  24.178  26.875  1.00  0.00     0.060 A 
ATOM      7  C   UNL A   1      38.626  24.532  28.136  1.00  0.00     0.016 A 
ATOM      8  C   UNL A   1      40.046  25.034  26.267  1.00  0.00     0.016 A 
ATOM      9  C   UNL A   1      39.124  25.648  28.808  1.00  0.00     0.010 A 
ATOM     10  C   UNL A   1      40.547  26.157  26.935  1.00  0.00     0.010 A 
ATOM     11  C   UNL A   1      40.093  26.460  28.219  1.00  0.00    -0.014 A 
BRANCH  11  12
ATOM     12  C   UNL A   1      40.535  27.667  28.947  1.00  0.00     0.031 A 
ATOM     13  C   UNL A   1      41.924  27.710  29.502  1.00  0.00     0.074 A 
ATOM     14  C   UNL A   1      39.735  28.750  28.992  1.00  0.00     0.049 A 
ATOM     15  N   UNL A   1      42.562  28.719  30.026  1.00  0.00    -0.248 NA
ATOM     16  C   UNL A   1      42.715  26.471  29.410  1.00  0.00     0.031 C 
ATOM     17  C   UNL A   1      38.407  28.836  28.386  1.00  0.00     0.029 A 
ATOM     18  N   UNL A   1      39.921  29.986  29.551  1.00  0.00    -0.354 N 
ATOM     19  C   UNL A   1      43.843  28.255  30.288  1.00  0.00     0.074 A 
ATOM     20  C   UNL A   1      43.878  26.858  29.914  1.00  0.00     0.031 C 
ATOM     21  C   UNL A   1      37.875  30.041  28.646  1.00  0.00     0.029 A 
ATOM     22  C   UNL A   1      38.833  30.818  29.422  1.00  0.00     0.049 A 
ATOM     23  H   UNL A   1      40.754  30.253  30.003  1.00  0.00     0.167 HD
ATOM     24  C   UNL A   1      44.902  28.945  30.766  1.00  0.00     0.031 A 
ATOM     25  C   UNL A   1      38.637  32.071  29.875  1.00  0.00     0.031 A 
ATOM     26  C   UNL A   1      44.833  30.317  31.187  1.00  0.00     0.049 A 
ATOM     27  C   UNL A   1      39.789  32.767  30.544  1.00  0.00     0.074 A 
ATOM     28  C   UNL A   1      45.833  31.105  31.727  1.00  0.00     0.029 A 
ATOM     29  N   UNL A   1      43.687  31.098  31.136  1.00  0.00    -0.354 N 
ATOM     30  N   UNL A   1      41.011  32.327  30.739  1.00  0.00    -0.248 NA
ATOM     31  C   UNL A   1      39.556  34.136  31.017  1.00  0.00     0.031 C 
ATOM     32  C   UNL A   1      45.278  32.349  32.046  1.00  0.00     0.029 A 
ATOM     33  C   UNL A   1      43.948  32.356  31.650  1.00  0.00     0.049 A 
ATOM     34  H   UNL A   1      42.816  30.802  30.785  1.00  0.00     0.167 HD
ATOM     35  C   UNL A   1      41.701  33.377  31.330  1.00  0.00     0.074 A 
ATOM     36  C   UNL A   1      40.766  34.481  31.436  1.00  0.00     0.031 C 
ATOM     37  C   UNL A   1      42.991  33.430  31.747  1.00  0.00     0.031 A 
BRANCH  24  38
ATOM     38  C   UNL A   1      46.209  28.208  30.868  1.00  0.00    -0.014 A 
ATOM     39  C   UNL A   1      46.545  27.504  32.038  1.00  0.00     0.010 A 
ATOM     40  C   UNL A   1      47.103  28.206  29.783  1.00  0.00     0.010 A 
ATOM     41  C   UNL A   1      47.767  26.833  32.133  1.00  0.00     0.020 A 
ATOM     42  C   UNL A   1      48.317  27.517  29.867  1.00  0.00     0.020 A 
ATOM     43  C   UNL A   1      48.646  26.844  31.046  1.00  0.00     0.054 A 
BRANCH  43  44
ATOM     44  S   UNL A   1      50.213  25.942  31.189  1.00  0.00     0.124 S 
ATOM     45  O   UNL A   1      49.900  24.955  32.221  1.00  0.00    -0.237 OA
ATOM     46  O   UNL A   1      50.396  25.406  29.843  1.00  0.00    -0.237 OA
ATOM     47  O   UNL A   1      51.172  26.971  31.584  1.00  0.00    -0.744 OA
ENDBRANCH  43  44
ENDBRANCH  24  38
BRANCH  25  48
ATOM     48  C   UNL A   1      37.311  32.735  29.720  1.00  0.00    -0.014 A 
ATOM     49  C   UNL A   1      36.850  33.171  28.464  1.00  0.00     0.010 A 
ATOM     50  C   UNL A   1      36.511  32.969  30.855  1.00  0.00     0.010 A 
ATOM     51  C   UNL A   1      35.637  33.862  28.354  1.00  0.00     0.020 A 
ATOM     52  C   UNL A   1      35.286  33.634  30.745  1.00  0.00     0.020 A 
ATOM     53  C   UNL A   1      34.865  34.094  29.497  1.00  0.00     0.054 A 
BRANCH  53  54
ATOM     54  S   UNL A   1      33.297  34.991  29.328  1.00  0.00     0.124 S 
ATOM     55  O   UNL A   1      32.711  34.835  30.655  1.00  0.00    -0.237 OA
ATOM     56  O   UNL A   1      33.742  36.340  28.986  1.00  0.00    -0.237 OA
ATOM     57  O   UNL A   1      32.609  34.280  28.252  1.00  0.00    -0.744 OA
ENDBRANCH  53  54
ENDBRANCH  25  48
BRANCH  37  58
ATOM     58  C   UNL A   1      43.464  34.736  32.324  1.00  0.00    -0.014 A 
ATOM     59  C   UNL A   1      43.421  34.977  33.708  1.00  0.00     0.010 A 
ATOM     60  C   UNL A   1      43.983  35.724  31.467  1.00  0.00     0.010 A 
ATOM     61  C   UNL A   1      43.846  36.203  34.222  1.00  0.00     0.020 A 
ATOM     62  C   UNL A   1      44.441  36.938  31.981  1.00  0.00     0.020 A 
ATOM     63  C   UNL A   1      44.350  37.178  33.353  1.00  0.00     0.054 A 
BRANCH  63  64
ATOM     64  S   UNL A   1      44.919  38.753  34.046  1.00  0.00     0.124 S 
ATOM     65  O   UNL A   1      46.072  39.057  33.202  1.00  0.00    -0.237 OA
ATOM     66  O   UNL A   1      43.759  39.622  33.865  1.00  0.00    -0.237 OA
ATOM     67  O   UNL A   1      45.233  38.426  35.436  1.00  0.00    -0.744 OA
ENDBRANCH  63  64
ENDBRANCH  37  58
ENDBRANCH  11  12
ENDBRANCH   4   6
ENDBRANCH   3   4
ENDBRANCH   2   3
ENDBRANCH   1   2
BRANCH   1  68
ATOM     68  O   UNL A   1      41.796  20.562  26.427  1.00  0.00    -0.458 OA
BRANCH  68  69
ATOM     69  C   UNL A   1      42.852  20.231  25.637  1.00  0.00     0.338 C 
ATOM     70  O   UNL A   1      43.039  19.168  25.072  1.00  0.00    -0.246 OA
BRANCH  69  71
ATOM     71  C   UNL A   1      43.712  21.416  25.443  1.00  0.00     0.063 A 
ATOM     72  C   UNL A   1      44.826  21.368  24.604  1.00  0.00     0.017 A 
ATOM     73  C   UNL A   1      43.399  22.595  26.132  1.00  0.00     0.056 A 
ATOM     74  C   UNL A   1      45.643  22.496  24.487  1.00  0.00     0.026 A 
ATOM     75  C   UNL A   1      44.236  23.710  26.025  1.00  0.00     0.144 A 
ATOM     76  C   UNL A   1      45.361  23.660  25.219  1.00  0.00     0.118 A 
ATOM     77  F   UNL A   1      43.924  24.794  26.744  1.00  0.00    -0.205 F 
BRANCH  76  78
ATOM     78  S   UNL A   1      46.549  24.957  25.113  1.00  0.00     0.243 S 
ATOM     79  O   UNL A   1      47.127  25.071  26.433  1.00  0.00    -0.207 OA
ATOM     80  O   UNL A   1      47.355  24.670  23.946  1.00  0.00    -0.207 OA
BRANCH  78  81
ATOM     81  N   UNL A   1      45.782  26.395  24.782  1.00  0.00    -0.205 NA
ATOM     82  H   UNL A   1      44.848  26.149  24.454  1.00  0.00     0.141 HD
BRANCH  81  83
ATOM     83  C   UNL A   1      45.598  27.428  25.782  1.00  0.00     0.154 C 
BRANCH  83  84
ATOM     84  C   UNL A   1      44.219  27.966  25.768  1.00  0.00     0.050 A 
ATOM     85  C   UNL A   1      43.539  28.816  26.616  1.00  0.00     0.046 A 
ATOM     86  N   UNL A   1      43.340  27.696  24.747  1.00  0.00    -0.281 N 
ATOM     87  C   UNL A   1      42.312  29.065  25.973  1.00  0.00     0.135 A 
ATOM     88  N   UNL A   1      42.204  28.404  24.823  1.00  0.00    -0.184 NA
ATOM     89  H   UNL A   1      43.525  27.048  24.030  1.00  0.00     0.190 HD
ENDBRANCH  83  84
ENDBRANCH  81  83
ENDBRANCH  78  81
ENDBRANCH  76  78
ENDBRANCH  69  71
ENDBRANCH  68  69
ENDBRANCH   1  68
TORSDOF 18
ENDMDL
MODEL 3
REMARK VINA RESULT:      -9.2      4.297      6.788
REMARK SMILES O=C(OCCOC(=O)c1ccc(S(=O)(=O)NCc2ccn[nH]2)c(F)c1)c1ccc(-c2c3nc(c(-c4ccc(S(=O)(=O)[O-])cc4)c4ccc([nH]4)c(-c4ccc(S(=O)(=O)[O-])cc4)c4nc(c(-c5ccc(S(=O)(=O)[O-])cc5)c5ccc2[nH]5)C=C4)C=C3)cc1
REMARK SMILES IDX 5 1 4 2 3 3 2 4 1 5 26 6 27 7 85 8 28 9 84 10 29 11 30 12
REMARK SMILES IDX 31 13 78 14 32 15 83 16 77 17 79 18 33 19 82 20 76 21 75 22
REMARK SMILES IDX 34 24 64 25 45 26 63 27 46 28 49 29 62 30 80 31 47 32 48 33
REMARK SMILES IDX 61 35 81 36 50 37 35 38 36 39 44 40 37 41 43 42 38 43 39 44
REMARK SMILES IDX 40 45 41 46 42 47 65 48 66 49 74 50 67 51 73 52 68 53 69 54
REMARK SMILES IDX 70 55 71 56 72 57 51 58 52 59 60 60 53 61 59 62 54 63 55 64
REMARK SMILES IDX 56 65 57 66 58 67 6 68 7 69 8 70 9 71 10 72 25 73 11 74
REMARK SMILES IDX 23 75 12 76 24 77 13 78 14 79 15 80 16 81 17 83 18 84 19 85
REMARK SMILES IDX 22 86 20 87 21 88
REMARK H PARENT 79 23 49 34 16 82 22 89
REMARK Flexibility Score: inf
ROOT
ATOM      1  C   UNL A   1      31.689  29.934  25.428  1.00  0.00     0.275 C 
ENDROOT
BRANCH   1   2
ATOM      2  C   UNL A   1      32.069  29.661  26.887  1.00  0.00     0.275 C 
BRANCH   2   3
ATOM      3  O   UNL A   1      33.481  29.547  27.143  1.00  0.00    -0.458 OA
BRANCH   3   4
ATOM      4  C   UNL A   1      34.322  30.339  27.847  1.00  0.00     0.338 C 
ATOM      5  O   UNL A   1      33.954  31.481  28.122  1.00  0.00    -0.246 OA
BRANCH   4   6
ATOM      6  C   UNL A   1      35.724  29.962  28.223  1.00  0.00     0.060 A 
ATOM      7  C   UNL A   1      36.141  29.512  29.475  1.00  0.00     0.016 A 
ATOM      8  C   UNL A   1      36.700  30.082  27.211  1.00  0.00     0.016 A 
ATOM      9  C   UNL A   1      37.461  29.117  29.695  1.00  0.00     0.010 A 
ATOM     10  C   UNL A   1      38.026  29.690  27.428  1.00  0.00     0.010 A 
ATOM     11  C   UNL A   1      38.407  29.193  28.674  1.00  0.00    -0.014 A 
BRANCH  11  12
ATOM     12  C   UNL A   1      39.805  28.826  28.983  1.00  0.00     0.031 A 
ATOM     13  C   UNL A   1      40.674  29.817  29.691  1.00  0.00     0.074 A 
ATOM     14  C   UNL A   1      40.236  27.574  28.738  1.00  0.00     0.049 A 
ATOM     15  N   UNL A   1      41.863  29.644  30.197  1.00  0.00    -0.248 NA
ATOM     16  C   UNL A   1      40.112  31.162  29.905  1.00  0.00     0.031 C 
ATOM     17  C   UNL A   1      39.426  26.510  28.147  1.00  0.00     0.029 A 
ATOM     18  N   UNL A   1      41.446  26.976  28.967  1.00  0.00    -0.354 N 
ATOM     19  C   UNL A   1      42.179  30.840  30.826  1.00  0.00     0.074 A 
ATOM     20  C   UNL A   1      41.078  31.750  30.595  1.00  0.00     0.031 C 
ATOM     21  C   UNL A   1      40.172  25.402  28.014  1.00  0.00     0.029 A 
ATOM     22  C   UNL A   1      41.509  25.673  28.527  1.00  0.00     0.049 A 
ATOM     23  H   UNL A   1      42.199  27.434  29.405  1.00  0.00     0.167 HD
ATOM     24  C   UNL A   1      43.275  31.136  31.559  1.00  0.00     0.031 A 
ATOM     25  C   UNL A   1      42.530  24.797  28.545  1.00  0.00     0.031 A 
ATOM     26  C   UNL A   1      44.385  30.240  31.729  1.00  0.00     0.049 A 
ATOM     27  C   UNL A   1      43.801  25.209  29.236  1.00  0.00     0.074 A 
ATOM     28  C   UNL A   1      45.567  30.450  32.415  1.00  0.00     0.029 A 
ATOM     29  N   UNL A   1      44.457  28.965  31.183  1.00  0.00    -0.354 N 
ATOM     30  N   UNL A   1      44.063  26.330  29.869  1.00  0.00    -0.248 NA
ATOM     31  C   UNL A   1      44.896  24.233  29.254  1.00  0.00     0.031 C 
ATOM     32  C   UNL A   1      46.373  29.320  32.244  1.00  0.00     0.029 A 
ATOM     33  C   UNL A   1      45.670  28.381  31.502  1.00  0.00     0.049 A 
ATOM     34  H   UNL A   1      43.748  28.539  30.648  1.00  0.00     0.167 HD
ATOM     35  C   UNL A   1      45.343  26.181  30.387  1.00  0.00     0.074 A 
ATOM     36  C   UNL A   1      45.789  24.851  30.014  1.00  0.00     0.031 C 
ATOM     37  C   UNL A   1      46.084  27.058  31.108  1.00  0.00     0.031 A 
BRANCH  24  38
ATOM     38  C   UNL A   1      43.317  32.492  32.208  1.00  0.00    -0.014 A 
ATOM     39  C   UNL A   1      43.866  33.595  31.528  1.00  0.00     0.010 A 
ATOM     40  C   UNL A   1      42.795  32.671  33.500  1.00  0.00     0.010 A 
ATOM     41  C   UNL A   1      43.916  34.849  32.141  1.00  0.00     0.020 A 
ATOM     42  C   UNL A   1      42.823  33.930  34.108  1.00  0.00     0.020 A 
ATOM     43  C   UNL A   1      43.394  35.009  33.428  1.00  0.00     0.054 A 
BRANCH  43  44
ATOM     44  S   UNL A   1      43.449  36.655  34.188  1.00  0.00     0.124 S 
ATOM     45  O   UNL A   1      44.596  36.534  35.087  1.00  0.00    -0.237 OA
ATOM     46  O   UNL A   1      43.645  37.532  33.036  1.00  0.00    -0.237 OA
ATOM     47  O   UNL A   1      42.152  36.777  34.849  1.00  0.00    -0.744 OA
ENDBRANCH  43  44
ENDBRANCH  24  38
BRANCH  25  48
ATOM     48  C   UNL A   1      42.400  23.465  27.888  1.00  0.00    -0.014 A 
ATOM     49  C   UNL A   1      41.586  22.455  28.432  1.00  0.00     0.010 A 
ATOM     50  C   UNL A   1      43.131  23.190  26.716  1.00  0.00     0.010 A 
ATOM     51  C   UNL A   1      41.540  21.186  27.842  1.00  0.00     0.020 A 
ATOM     52  C   UNL A   1      43.066  21.933  26.108  1.00  0.00     0.020 A 
ATOM     53  C   UNL A   1      42.284  20.932  26.686  1.00  0.00     0.054 A 
BRANCH  53  54
ATOM     54  S   UNL A   1      42.206  19.280  25.939  1.00  0.00     0.124 S 
ATOM     55  O   UNL A   1      40.773  19.110  25.720  1.00  0.00    -0.237 OA
ATOM     56  O   UNL A   1      43.016  19.442  24.733  1.00  0.00    -0.237 OA
ATOM     57  O   UNL A   1      42.792  18.413  26.959  1.00  0.00    -0.744 OA
ENDBRANCH  53  54
ENDBRANCH  25  48
BRANCH  37  58
ATOM     58  C   UNL A   1      47.439  26.587  31.562  1.00  0.00    -0.014 A 
ATOM     59  C   UNL A   1      47.606  25.929  32.792  1.00  0.00     0.010 A 
ATOM     60  C   UNL A   1      48.555  26.785  30.728  1.00  0.00     0.010 A 
ATOM     61  C   UNL A   1      48.875  25.519  33.204  1.00  0.00     0.020 A 
ATOM     62  C   UNL A   1      49.820  26.345  31.121  1.00  0.00     0.020 A 
ATOM     63  C   UNL A   1      49.975  25.732  32.366  1.00  0.00     0.054 A 
BRANCH  63  64
ATOM     64  S   UNL A   1      51.609  25.168  32.911  1.00  0.00     0.124 S 
ATOM     65  O   UNL A   1      51.566  25.455  34.343  1.00  0.00    -0.237 OA
ATOM     66  O   UNL A   1      51.597  23.752  32.553  1.00  0.00    -0.237 OA
ATOM     67  O   UNL A   1      52.535  25.992  32.137  1.00  0.00    -0.744 OA
ENDBRANCH  63  64
ENDBRANCH  37  58
ENDBRANCH  11  12
ENDBRANCH   4   6
ENDBRANCH   3   4
ENDBRANCH   2   3
ENDBRANCH   1   2
BRANCH   1  68
ATOM     68  O   UNL A   1      31.688  28.766  24.594  1.00  0.00    -0.458 OA
BRANCH  68  69
ATOM     69  C   UNL A   1      32.865  28.507  23.966  1.00  0.00     0.338 C 
ATOM     70  O   UNL A   1      33.619  29.317  23.457  1.00  0.00    -0.246 OA
BRANCH  69  71
ATOM     71  C   UNL A   1      33.186  27.070  24.098  1.00  0.00     0.063 A 
ATOM     72  C   UNL A   1      33.634  26.539  25.308  1.00  0.00     0.017 A 
ATOM     73  C   UNL A   1      33.044  26.243  22.976  1.00  0.00     0.056 A 
ATOM     74  C   UNL A   1      33.974  25.186  25.377  1.00  0.00     0.026 A 
ATOM     75  C   UNL A   1      33.408  24.896  23.050  1.00  0.00     0.144 A 
ATOM     76  C   UNL A   1      33.885  24.369  24.238  1.00  0.00     0.118 A 
ATOM     77  F   UNL A   1      33.306  24.160  21.937  1.00  0.00    -0.205 F 
BRANCH  76  78
ATOM     78  S   UNL A   1      34.492  22.724  24.408  1.00  0.00     0.243 S 
ATOM     79  O   UNL A   1      35.625  22.627  23.518  1.00  0.00    -0.207 OA
ATOM     80  O   UNL A   1      34.612  22.484  25.830  1.00  0.00    -0.207 OA
BRANCH  78  81
ATOM     81  N   UNL A   1      33.346  21.645  23.870  1.00  0.00    -0.205 NA
ATOM     82  H   UNL A   1      33.766  21.155  23.081  1.00  0.00     0.141 HD
BRANCH  81  83
ATOM     83  C   UNL A   1      32.779  20.619  24.724  1.00  0.00     0.154 C 
BRANCH  83  84
ATOM     84  C   UNL A   1      33.356  19.287  24.439  1.00  0.00     0.050 A 
ATOM     85  C   UNL A   1      32.892  18.200  23.727  1.00  0.00     0.046 A 
ATOM     86  N   UNL A   1      34.617  18.932  24.856  1.00  0.00    -0.281 N 
ATOM     87  C   UNL A   1      33.971  17.297  23.698  1.00  0.00     0.135 A 
ATOM     88  N   UNL A   1      35.029  17.756  24.362  1.00  0.00    -0.184 NA
ATOM     89  H   UNL A   1      35.164  19.487  25.458  1.00  0.00     0.190 HD
ENDBRANCH  83  84
ENDBRANCH  81  83
ENDBRANCH  78  81
ENDBRANCH  76  78
ENDBRANCH  69  71
ENDBRANCH  68  69
ENDBRANCH   1  68
TORSDOF 18
ENDMDL
