MODEL 1
REMARK VINA RESULT:      -9.7      0.000      0.000
REMARK SMILES CCc1ccc(C(=O)NC[C@@H](CC(C)C)C(=O)OCCOC(=O)c2ccc(-c3c4nc(c(-c5ccc(S(=O)(=O)[O-])cc5)c5ccc([nH]5)c(-c5ccc(S(=O)(=O)[O-])cc5)c5nc(c(-c6ccc(S(=O)(=O)[O-])cc6)c6ccc3[nH]6)C=C5)C=C4)cc2)s1
REMARK SMILES IDX 19 1 18 2 16 3 17 4 11 5 10 6 9 7 7 8 8 9 6 11 3 12 4 13
REMARK SMILES IDX 84 14 5 15 2 16 1 17 12 18 13 19 14 20 15 21 20 22 21 23
REMARK SMILES IDX 22 24 23 25 24 26 25 27 83 28 26 29 82 30 27 31 28 32 29 33
REMARK SMILES IDX 76 34 30 35 81 36 75 37 77 38 31 39 80 40 74 41 73 42 32 44
REMARK SMILES IDX 62 45 43 46 61 47 44 48 47 49 60 50 78 51 45 52 46 53 59 55
REMARK SMILES IDX 79 56 48 57 33 58 34 59 42 60 35 61 41 62 36 63 37 64 38 65
REMARK SMILES IDX 39 66 40 67 63 68 64 69 72 70 65 71 71 72 66 73 67 74 68 75
REMARK SMILES IDX 69 76 70 77 49 78 50 79 58 80 51 81 57 82 52 83 53 84 54 85
REMARK SMILES IDX 55 86 56 87
REMARK H PARENT 9 10 77 43 47 54
REMARK Flexibility Score: inf
ROOT
ATOM      1  C   UNL A   1      34.255  30.821  27.408  1.00  0.00     0.274 C 
ENDROOT
BRANCH   1   2
ATOM      2  O   UNL A   1      34.051  29.604  26.663  1.00  0.00    -0.462 OA
BRANCH   2   3
ATOM      3  C   UNL A   1      32.958  29.576  25.854  1.00  0.00     0.310 C 
ATOM      4  O   UNL A   1      32.071  30.422  25.859  1.00  0.00    -0.252 OA
BRANCH   3   5
ATOM      5  C   UNL A   1      32.899  28.342  24.966  1.00  0.00     0.118 C 
BRANCH   5   6
ATOM      6  C   UNL A   1      33.244  28.615  23.497  1.00  0.00     0.131 C 
BRANCH   6   7
ATOM      7  N   UNL A   1      32.747  27.570  22.611  1.00  0.00    -0.350 N 
ATOM      8  C   UNL A   1      31.506  27.186  22.148  1.00  0.00     0.261 C 
ATOM      9  O   UNL A   1      31.554  26.193  21.411  1.00  0.00    -0.268 OA
ATOM     10  H   UNL A   1      33.470  27.001  22.259  1.00  0.00     0.163 HD
BRANCH   8  11
ATOM     11  C   UNL A   1      30.255  27.871  22.474  1.00  0.00     0.092 A 
ATOM     12  C   UNL A   1      28.524  29.693  22.596  1.00  0.00     0.005 A 
ATOM     13  C   UNL A   1      28.134  28.542  23.243  1.00  0.00     0.016 A 
ATOM     14  S   UNL A   1      30.069  29.498  21.892  1.00  0.00    -0.135 S 
ATOM     15  C   UNL A   1      29.142  27.531  23.216  1.00  0.00     0.026 A 
BRANCH  12  16
ATOM     16  C   UNL A   1      27.780  31.000  22.541  1.00  0.00     0.043 C 
ATOM     17  C   UNL A   1      27.336  31.526  23.895  1.00  0.00     0.010 C 
ENDBRANCH  12  16
ENDBRANCH   8  11
ENDBRANCH   6   7
ENDBRANCH   5   6
BRANCH   5  18
ATOM     18  C   UNL A   1      33.648  27.165  25.624  1.00  0.00     0.020 C 
BRANCH  18  19
ATOM     19  C   UNL A   1      32.835  25.998  26.229  1.00  0.00    -0.017 C 
ATOM     20  C   UNL A   1      31.458  25.796  25.595  1.00  0.00     0.007 C 
ATOM     21  C   UNL A   1      33.640  24.701  26.078  1.00  0.00     0.007 C 
ENDBRANCH  18  19
ENDBRANCH   5  18
ENDBRANCH   3   5
ENDBRANCH   2   3
ENDBRANCH   1   2
BRANCH   1  22
ATOM     22  C   UNL A   1      35.723  31.013  27.780  1.00  0.00     0.275 C 
BRANCH  22  23
ATOM     23  O   UNL A   1      36.427  29.762  27.743  1.00  0.00    -0.458 OA
BRANCH  23  24
ATOM     24  C   UNL A   1      37.076  29.444  28.886  1.00  0.00     0.338 C 
ATOM     25  O   UNL A   1      36.590  29.324  30.000  1.00  0.00    -0.246 OA
BRANCH  24  26
ATOM     26  C   UNL A   1      38.480  29.147  28.582  1.00  0.00     0.060 A 
ATOM     27  C   UNL A   1      39.326  28.769  29.627  1.00  0.00     0.016 A 
ATOM     28  C   UNL A   1      38.972  29.314  27.288  1.00  0.00     0.016 A 
ATOM     29  C   UNL A   1      40.679  28.548  29.381  1.00  0.00     0.010 A 
ATOM     30  C   UNL A   1      40.330  29.091  27.043  1.00  0.00     0.010 A 
ATOM     31  C   UNL A   1      41.191  28.715  28.088  1.00  0.00    -0.014 A 
BRANCH  31  32
ATOM     32  C   UNL A   1      42.641  28.549  27.837  1.00  0.00     0.031 A 
ATOM     33  C   UNL A   1      43.578  29.690  28.106  1.00  0.00     0.074 A 
ATOM     34  C   UNL A   1      43.111  27.379  27.367  1.00  0.00     0.049 A 
ATOM     35  N   UNL A   1      44.861  29.780  27.868  1.00  0.00    -0.248 NA
ATOM     36  C   UNL A   1      42.992  30.891  28.722  1.00  0.00     0.031 C 
ATOM     37  C   UNL A   1      42.304  26.186  27.106  1.00  0.00     0.029 A 
ATOM     38  N   UNL A   1      44.385  27.005  27.022  1.00  0.00    -0.354 N 
ATOM     39  C   UNL A   1      45.235  31.051  28.284  1.00  0.00     0.074 A 
ATOM     40  C   UNL A   1      44.039  31.703  28.774  1.00  0.00     0.031 C 
ATOM     41  C   UNL A   1      43.103  25.212  26.643  1.00  0.00     0.029 A 
ATOM     42  C   UNL A   1      44.467  25.723  26.536  1.00  0.00     0.049 A 
ATOM     43  H   UNL A   1      45.164  27.598  27.114  1.00  0.00     0.167 HD
ATOM     44  C   UNL A   1      46.463  31.623  28.259  1.00  0.00     0.031 A 
ATOM     45  C   UNL A   1      45.519  25.044  26.039  1.00  0.00     0.031 A 
ATOM     46  C   UNL A   1      47.648  30.972  27.765  1.00  0.00     0.049 A 
ATOM     47  C   UNL A   1      46.863  25.716  25.977  1.00  0.00     0.074 A 
ATOM     48  C   UNL A   1      48.938  31.468  27.692  1.00  0.00     0.029 A 
ATOM     49  N   UNL A   1      47.688  29.681  27.260  1.00  0.00    -0.354 N 
ATOM     50  N   UNL A   1      47.198  26.927  26.358  1.00  0.00    -0.248 NA
ATOM     51  C   UNL A   1      47.971  24.930  25.420  1.00  0.00     0.031 C 
ATOM     52  C   UNL A   1      49.751  30.488  27.109  1.00  0.00     0.029 A 
ATOM     53  C   UNL A   1      48.976  29.366  26.861  1.00  0.00     0.049 A 
ATOM     54  H   UNL A   1      46.914  29.076  27.197  1.00  0.00     0.167 HD
ATOM     55  C   UNL A   1      48.558  27.042  26.099  1.00  0.00     0.074 A 
ATOM     56  C   UNL A   1      48.988  25.773  25.546  1.00  0.00     0.031 C 
ATOM     57  C   UNL A   1      49.380  28.102  26.300  1.00  0.00     0.031 A 
BRANCH  44  58
ATOM     58  C   UNL A   1      46.568  33.042  28.745  1.00  0.00    -0.014 A 
ATOM     59  C   UNL A   1      46.783  33.335  30.104  1.00  0.00     0.010 A 
ATOM     60  C   UNL A   1      46.451  34.101  27.826  1.00  0.00     0.010 A 
ATOM     61  C   UNL A   1      46.835  34.661  30.542  1.00  0.00     0.020 A 
ATOM     62  C   UNL A   1      46.525  35.429  28.256  1.00  0.00     0.020 A 
ATOM     63  C   UNL A   1      46.695  35.700  29.616  1.00  0.00     0.054 A 
BRANCH  63  64
ATOM     64  S   UNL A   1      46.756  37.414  30.208  1.00  0.00     0.124 S 
ATOM     65  O   UNL A   1      47.159  38.133  29.002  1.00  0.00    -0.237 OA
ATOM     66  O   UNL A   1      45.386  37.653  30.653  1.00  0.00    -0.237 OA
ATOM     67  O   UNL A   1      47.755  37.377  31.273  1.00  0.00    -0.744 OA
ENDBRANCH  63  64
ENDBRANCH  44  58
BRANCH  45  68
ATOM     68  C   UNL A   1      45.335  23.655  25.544  1.00  0.00    -0.014 A 
ATOM     69  C   UNL A   1      45.644  22.557  26.364  1.00  0.00     0.010 A 
ATOM     70  C   UNL A   1      44.826  23.424  24.252  1.00  0.00     0.010 A 
ATOM     71  C   UNL A   1      45.455  21.252  25.899  1.00  0.00     0.020 A 
ATOM     72  C   UNL A   1      44.615  22.121  23.793  1.00  0.00     0.020 A 
ATOM     73  C   UNL A   1      44.939  21.043  24.618  1.00  0.00     0.054 A 
BRANCH  73  74
ATOM     74  S   UNL A   1      44.634  19.343  24.058  1.00  0.00     0.124 S 
ATOM     75  O   UNL A   1      44.598  19.505  22.608  1.00  0.00    -0.237 OA
ATOM     76  O   UNL A   1      45.789  18.621  24.586  1.00  0.00    -0.237 OA
ATOM     77  O   UNL A   1      43.359  19.003  24.684  1.00  0.00    -0.744 OA
ENDBRANCH  73  74
ENDBRANCH  45  68
BRANCH  57  78
ATOM     78  C   UNL A   1      50.829  27.920  25.940  1.00  0.00    -0.014 A 
ATOM     79  C   UNL A   1      51.300  28.234  24.653  1.00  0.00     0.010 A 
ATOM     80  C   UNL A   1      51.734  27.450  26.908  1.00  0.00     0.010 A 
ATOM     81  C   UNL A   1      52.647  28.043  24.329  1.00  0.00     0.020 A 
ATOM     82  C   UNL A   1      53.084  27.278  26.594  1.00  0.00     0.020 A 
ATOM     83  C   UNL A   1      53.529  27.558  25.300  1.00  0.00     0.054 A 
BRANCH  83  84
ATOM     84  S   UNL A   1      55.276  27.335  24.866  1.00  0.00     0.124 S 
ATOM     85  O   UNL A   1      55.726  28.715  24.700  1.00  0.00    -0.237 OA
ATOM     86  O   UNL A   1      55.813  26.635  26.030  1.00  0.00    -0.237 OA
ATOM     87  O   UNL A   1      55.227  26.542  23.639  1.00  0.00    -0.744 OA
ENDBRANCH  83  84
ENDBRANCH  57  78
ENDBRANCH  31  32
ENDBRANCH  24  26
ENDBRANCH  23  24
ENDBRANCH  22  23
ENDBRANCH   1  22
TORSDOF 20
ENDMDL
MODEL 2
REMARK VINA RESULT:      -9.6      7.318     12.647
REMARK SMILES CCc1ccc(C(=O)NC[C@@H](CC(C)C)C(=O)OCCOC(=O)c2ccc(-c3c4nc(c(-c5ccc(S(=O)(=O)[O-])cc5)c5ccc([nH]5)c(-c5ccc(S(=O)(=O)[O-])cc5)c5nc(c(-c6ccc(S(=O)(=O)[O-])cc6)c6ccc3[nH]6)C=C5)C=C4)cc2)s1
REMARK SMILES IDX 19 1 18 2 16 3 17 4 11 5 10 6 9 7 7 8 8 9 6 11 3 12 4 13
REMARK SMILES IDX 84 14 5 15 2 16 1 17 12 18 13 19 14 20 15 21 20 22 21 23
REMARK SMILES IDX 22 24 23 25 24 26 25 27 83 28 26 29 82 30 27 31 28 32 29 33
REMARK SMILES IDX 76 34 30 35 81 36 75 37 77 38 31 39 80 40 74 41 73 42 32 44
REMARK SMILES IDX 62 45 43 46 61 47 44 48 47 49 60 50 78 51 45 52 46 53 59 55
REMARK SMILES IDX 79 56 48 57 33 58 34 59 42 60 35 61 41 62 36 63 37 64 38 65
REMARK SMILES IDX 39 66 40 67 63 68 64 69 72 70 65 71 71 72 66 73 67 74 68 75
REMARK SMILES IDX 69 76 70 77 49 78 50 79 58 80 51 81 57 82 52 83 53 84 54 85
REMARK SMILES IDX 55 86 56 87
REMARK H PARENT 9 10 77 43 47 54
REMARK Flexibility Score: inf
ROOT
ATOM      1  C   UNL A   1      37.202  23.310  26.182  1.00  0.00     0.274 C 
ENDROOT
BRANCH   1   2
ATOM      2  O   UNL A   1      36.195  24.111  25.531  1.00  0.00    -0.462 OA
BRANCH   2   3
ATOM      3  C   UNL A   1      34.909  23.864  25.896  1.00  0.00     0.310 C 
ATOM      4  O   UNL A   1      34.569  22.995  26.690  1.00  0.00    -0.252 OA
BRANCH   3   5
ATOM      5  C   UNL A   1      33.899  24.740  25.168  1.00  0.00     0.118 C 
BRANCH   5   6
ATOM      6  C   UNL A   1      33.213  24.047  23.984  1.00  0.00     0.131 C 
BRANCH   6   7
ATOM      7  N   UNL A   1      33.408  24.771  22.734  1.00  0.00    -0.350 N 
ATOM      8  C   UNL A   1      32.732  25.768  22.063  1.00  0.00     0.261 C 
ATOM      9  O   UNL A   1      33.263  26.068  20.986  1.00  0.00    -0.268 OA
ATOM     10  H   UNL A   1      34.217  24.479  22.253  1.00  0.00     0.163 HD
BRANCH   8  11
ATOM     11  C   UNL A   1      31.519  26.421  22.558  1.00  0.00     0.092 A 
ATOM     12  C   UNL A   1      29.855  28.239  23.062  1.00  0.00     0.005 A 
ATOM     13  C   UNL A   1      29.457  27.007  23.530  1.00  0.00     0.016 A 
ATOM     14  S   UNL A   1      31.360  28.125  22.261  1.00  0.00    -0.135 S 
ATOM     15  C   UNL A   1      30.430  25.990  23.288  1.00  0.00     0.026 A 
BRANCH  12  16
ATOM     16  C   UNL A   1      29.152  29.554  23.258  1.00  0.00     0.043 C 
ATOM     17  C   UNL A   1      29.236  30.494  22.067  1.00  0.00     0.010 C 
ENDBRANCH  12  16
ENDBRANCH   8  11
ENDBRANCH   6   7
ENDBRANCH   5   6
BRANCH   5  18
ATOM     18  C   UNL A   1      32.962  25.437  26.176  1.00  0.00     0.020 C 
BRANCH  18  19
ATOM     19  C   UNL A   1      33.021  26.974  26.322  1.00  0.00    -0.017 C 
ATOM     20  C   UNL A   1      33.726  27.688  25.169  1.00  0.00     0.007 C 
ATOM     21  C   UNL A   1      31.590  27.517  26.436  1.00  0.00     0.007 C 
ENDBRANCH  18  19
ENDBRANCH   5  18
ENDBRANCH   3   5
ENDBRANCH   2   3
ENDBRANCH   1   2
BRANCH   1  22
ATOM     22  C   UNL A   1      38.572  23.981  26.135  1.00  0.00     0.275 C 
BRANCH  22  23
ATOM     23  O   UNL A   1      38.725  24.906  27.223  1.00  0.00    -0.458 OA
BRANCH  23  24
ATOM     24  C   UNL A   1      39.746  25.782  27.081  1.00  0.00     0.338 C 
ATOM     25  O   UNL A   1      40.507  25.880  26.131  1.00  0.00    -0.246 OA
BRANCH  24  26
ATOM     26  C   UNL A   1      39.755  26.706  28.220  1.00  0.00     0.060 A 
ATOM     27  C   UNL A   1      40.525  27.868  28.133  1.00  0.00     0.016 A 
ATOM     28  C   UNL A   1      39.069  26.389  29.392  1.00  0.00     0.016 A 
ATOM     29  C   UNL A   1      40.609  28.730  29.225  1.00  0.00     0.010 A 
ATOM     30  C   UNL A   1      39.153  27.255  30.486  1.00  0.00     0.010 A 
ATOM     31  C   UNL A   1      39.929  28.425  30.410  1.00  0.00    -0.014 A 
BRANCH  31  32
ATOM     32  C   UNL A   1      40.072  29.302  31.595  1.00  0.00     0.031 A 
ATOM     33  C   UNL A   1      41.222  29.099  32.537  1.00  0.00     0.074 A 
ATOM     34  C   UNL A   1      39.170  30.276  31.822  1.00  0.00     0.049 A 
ATOM     35  N   UNL A   1      41.475  29.696  33.674  1.00  0.00    -0.248 NA
ATOM     36  C   UNL A   1      42.217  28.086  32.151  1.00  0.00     0.031 C 
ATOM     37  C   UNL A   1      38.035  30.595  30.956  1.00  0.00     0.029 A 
ATOM     38  N   UNL A   1      39.068  31.171  32.855  1.00  0.00    -0.354 N 
ATOM     39  C   UNL A   1      42.645  29.120  34.151  1.00  0.00     0.074 A 
ATOM     40  C   UNL A   1      43.043  28.114  33.188  1.00  0.00     0.031 C 
ATOM     41  C   UNL A   1      37.350  31.617  31.495  1.00  0.00     0.029 A 
ATOM     42  C   UNL A   1      37.974  31.996  32.760  1.00  0.00     0.049 A 
ATOM     43  H   UNL A   1      39.716  31.219  33.594  1.00  0.00     0.167 HD
ATOM     44  C   UNL A   1      43.326  29.403  35.287  1.00  0.00     0.031 A 
ATOM     45  C   UNL A   1      37.512  32.935  33.608  1.00  0.00     0.031 A 
ATOM     46  C   UNL A   1      42.923  30.400  36.244  1.00  0.00     0.049 A 
ATOM     47  C   UNL A   1      38.258  33.200  34.886  1.00  0.00     0.074 A 
ATOM     48  C   UNL A   1      43.541  30.759  37.429  1.00  0.00     0.029 A 
ATOM     49  N   UNL A   1      41.796  31.200  36.123  1.00  0.00    -0.354 N 
ATOM     50  N   UNL A   1      39.355  32.633  35.333  1.00  0.00    -0.248 NA
ATOM     51  C   UNL A   1      37.705  34.230  35.774  1.00  0.00     0.031 C 
ATOM     52  C   UNL A   1      42.767  31.752  38.043  1.00  0.00     0.029 A 
ATOM     53  C   UNL A   1      41.692  32.042  37.218  1.00  0.00     0.049 A 
ATOM     54  H   UNL A   1      41.164  31.175  35.369  1.00  0.00     0.167 HD
ATOM     55  C   UNL A   1      39.630  33.249  36.548  1.00  0.00     0.074 A 
ATOM     56  C   UNL A   1      38.596  34.243  36.757  1.00  0.00     0.031 C 
ATOM     57  C   UNL A   1      40.648  33.015  37.414  1.00  0.00     0.031 A 
BRANCH  44  58
ATOM     58  C   UNL A   1      44.556  28.586  35.571  1.00  0.00    -0.014 A 
ATOM     59  C   UNL A   1      44.482  27.380  36.292  1.00  0.00     0.010 A 
ATOM     60  C   UNL A   1      45.807  29.031  35.106  1.00  0.00     0.010 A 
ATOM     61  C   UNL A   1      45.643  26.658  36.580  1.00  0.00     0.020 A 
ATOM     62  C   UNL A   1      46.968  28.300  35.374  1.00  0.00     0.020 A 
ATOM     63  C   UNL A   1      46.881  27.127  36.128  1.00  0.00     0.054 A 
BRANCH  63  64
ATOM     64  S   UNL A   1      48.375  26.179  36.523  1.00  0.00     0.124 S 
ATOM     65  O   UNL A   1      48.029  25.600  37.819  1.00  0.00    -0.237 OA
ATOM     66  O   UNL A   1      48.460  25.231  35.415  1.00  0.00    -0.237 OA
ATOM     67  O   UNL A   1      49.429  27.190  36.554  1.00  0.00    -0.744 OA
ENDBRANCH  63  64
ENDBRANCH  44  58
BRANCH  45  68
ATOM     68  C   UNL A   1      36.269  33.681  33.279  1.00  0.00    -0.014 A 
ATOM     69  C   UNL A   1      36.335  34.958  32.698  1.00  0.00     0.010 A 
ATOM     70  C   UNL A   1      35.010  33.104  33.527  1.00  0.00     0.010 A 
ATOM     71  C   UNL A   1      35.163  35.650  32.377  1.00  0.00     0.020 A 
ATOM     72  C   UNL A   1      33.837  33.783  33.186  1.00  0.00     0.020 A 
ATOM     73  C   UNL A   1      33.922  35.056  32.621  1.00  0.00     0.054 A 
BRANCH  73  74
ATOM     74  S   UNL A   1      32.412  35.939  32.133  1.00  0.00     0.124 S 
ATOM     75  O   UNL A   1      32.556  37.203  32.849  1.00  0.00    -0.237 OA
ATOM     76  O   UNL A   1      32.543  36.016  30.680  1.00  0.00    -0.237 OA
ATOM     77  O   UNL A   1      31.340  35.067  32.607  1.00  0.00    -0.744 OA
ENDBRANCH  73  74
ENDBRANCH  45  68
BRANCH  57  78
ATOM     78  C   UNL A   1      40.698  33.866  38.653  1.00  0.00    -0.014 A 
ATOM     79  C   UNL A   1      41.446  35.056  38.685  1.00  0.00     0.010 A 
ATOM     80  C   UNL A   1      39.970  33.480  39.793  1.00  0.00     0.010 A 
ATOM     81  C   UNL A   1      41.496  35.827  39.850  1.00  0.00     0.020 A 
ATOM     82  C   UNL A   1      40.001  34.259  40.952  1.00  0.00     0.020 A 
ATOM     83  C   UNL A   1      40.779  35.419  40.979  1.00  0.00     0.054 A 
BRANCH  83  84
ATOM     84  S   UNL A   1      40.841  36.442  42.477  1.00  0.00     0.124 S 
ATOM     85  O   UNL A   1      39.428  36.543  42.833  1.00  0.00    -0.237 OA
ATOM     86  O   UNL A   1      41.663  35.643  43.382  1.00  0.00    -0.237 OA
ATOM     87  O   UNL A   1      41.460  37.684  42.018  1.00  0.00    -0.744 OA
ENDBRANCH  83  84
ENDBRANCH  57  78
ENDBRANCH  31  32
ENDBRANCH  24  26
ENDBRANCH  23  24
ENDBRANCH  22  23
ENDBRANCH   1  22
TORSDOF 20
ENDMDL
MODEL 3
REMARK VINA RESULT:      -9.3      1.308      8.538
REMARK SMILES CCc1ccc(C(=O)NC[C@@H](CC(C)C)C(=O)OCCOC(=O)c2ccc(-c3c4nc(c(-c5ccc(S(=O)(=O)[O-])cc5)c5ccc([nH]5)c(-c5ccc(S(=O)(=O)[O-])cc5)c5nc(c(-c6ccc(S(=O)(=O)[O-])cc6)c6ccc3[nH]6)C=C5)C=C4)cc2)s1
REMARK SMILES IDX 19 1 18 2 16 3 17 4 11 5 10 6 9 7 7 8 8 9 6 11 3 12 4 13
REMARK SMILES IDX 84 14 5 15 2 16 1 17 12 18 13 19 14 20 15 21 20 22 21 23
REMARK SMILES IDX 22 24 23 25 24 26 25 27 83 28 26 29 82 30 27 31 28 32 29 33
REMARK SMILES IDX 76 34 30 35 81 36 75 37 77 38 31 39 80 40 74 41 73 42 32 44
REMARK SMILES IDX 62 45 43 46 61 47 44 48 47 49 60 50 78 51 45 52 46 53 59 55
REMARK SMILES IDX 79 56 48 57 33 58 34 59 42 60 35 61 41 62 36 63 37 64 38 65
REMARK SMILES IDX 39 66 40 67 63 68 64 69 72 70 65 71 71 72 66 73 67 74 68 75
REMARK SMILES IDX 69 76 70 77 49 78 50 79 58 80 51 81 57 82 52 83 53 84 54 85
REMARK SMILES IDX 55 86 56 87
REMARK H PARENT 9 10 77 43 47 54
REMARK Flexibility Score: inf
ROOT
ATOM      1  C   UNL A   1      34.634  31.145  27.913  1.00  0.00     0.274 C 
ENDROOT
BRANCH   1   2
ATOM      2  O   UNL A   1      34.247  29.995  27.135  1.00  0.00    -0.462 OA
BRANCH   2   3
ATOM      3  C   UNL A   1      33.041  30.075  26.511  1.00  0.00     0.310 C 
ATOM      4  O   UNL A   1      32.202  30.940  26.735  1.00  0.00    -0.252 OA
BRANCH   3   5
ATOM      5  C   UNL A   1      32.793  28.936  25.534  1.00  0.00     0.118 C 
BRANCH   5   6
ATOM      6  C   UNL A   1      32.988  29.324  24.063  1.00  0.00     0.131 C 
BRANCH   6   7
ATOM      7  N   UNL A   1      31.810  29.031  23.255  1.00  0.00    -0.350 N 
ATOM      8  C   UNL A   1      31.341  27.930  22.570  1.00  0.00     0.261 C 
ATOM      9  O   UNL A   1      30.274  28.149  21.983  1.00  0.00    -0.268 OA
ATOM     10  H   UNL A   1      31.205  29.804  23.181  1.00  0.00     0.163 HD
BRANCH   8  11
ATOM     11  C   UNL A   1      32.013  26.631  22.536  1.00  0.00     0.092 A 
ATOM     12  C   UNL A   1      32.357  24.146  22.724  1.00  0.00     0.005 A 
ATOM     13  C   UNL A   1      33.504  24.817  22.368  1.00  0.00     0.016 A 
ATOM     14  S   UNL A   1      31.050  25.232  22.903  1.00  0.00    -0.135 S 
ATOM     15  C   UNL A   1      33.315  26.232  22.315  1.00  0.00     0.026 A 
BRANCH  12  16
ATOM     16  C   UNL A   1      32.217  22.675  23.008  1.00  0.00     0.043 C 
ATOM     17  C   UNL A   1      33.345  22.087  23.839  1.00  0.00     0.010 C 
ENDBRANCH  12  16
ENDBRANCH   8  11
ENDBRANCH   6   7
ENDBRANCH   5   6
BRANCH   5  18
ATOM     18  C   UNL A   1      33.524  27.658  25.995  1.00  0.00     0.020 C 
BRANCH  18  19
ATOM     19  C   UNL A   1      32.700  26.485  26.570  1.00  0.00    -0.017 C 
ATOM     20  C   UNL A   1      31.208  26.544  26.243  1.00  0.00     0.007 C 
ATOM     21  C   UNL A   1      33.269  25.166  26.030  1.00  0.00     0.007 C 
ENDBRANCH  18  19
ENDBRANCH   5  18
ENDBRANCH   3   5
ENDBRANCH   2   3
ENDBRANCH   1   2
BRANCH   1  22
ATOM     22  C   UNL A   1      36.136  31.163  28.181  1.00  0.00     0.275 C 
BRANCH  22  23
ATOM     23  O   UNL A   1      36.720  29.880  27.907  1.00  0.00    -0.458 OA
BRANCH  23  24
ATOM     24  C   UNL A   1      37.398  29.334  28.942  1.00  0.00     0.338 C 
ATOM     25  O   UNL A   1      36.939  28.970  30.013  1.00  0.00    -0.246 OA
BRANCH  24  26
ATOM     26  C   UNL A   1      38.797  29.132  28.553  1.00  0.00     0.060 A 
ATOM     27  C   UNL A   1      39.739  28.872  29.552  1.00  0.00     0.016 A 
ATOM     28  C   UNL A   1      39.188  29.273  27.222  1.00  0.00     0.016 A 
ATOM     29  C   UNL A   1      41.087  28.745  29.222  1.00  0.00     0.010 A 
ATOM     30  C   UNL A   1      40.540  29.144  26.892  1.00  0.00     0.010 A 
ATOM     31  C   UNL A   1      41.496  28.887  27.890  1.00  0.00    -0.014 A 
BRANCH  31  32
ATOM     32  C   UNL A   1      42.935  28.822  27.545  1.00  0.00     0.031 A 
ATOM     33  C   UNL A   1      43.514  27.547  27.007  1.00  0.00     0.074 A 
ATOM     34  C   UNL A   1      43.716  29.905  27.718  1.00  0.00     0.049 A 
ATOM     35  N   UNL A   1      44.759  27.256  26.732  1.00  0.00    -0.248 NA
ATOM     36  C   UNL A   1      42.566  26.452  26.748  1.00  0.00     0.031 C 
ATOM     37  C   UNL A   1      43.259  31.211  28.194  1.00  0.00     0.029 A 
ATOM     38  N   UNL A   1      45.062  30.073  27.514  1.00  0.00    -0.354 N 
ATOM     39  C   UNL A   1      44.751  25.941  26.286  1.00  0.00     0.074 A 
ATOM     40  C   UNL A   1      43.378  25.485  26.344  1.00  0.00     0.031 C 
ATOM     41  C   UNL A   1      44.308  32.047  28.245  1.00  0.00     0.029 A 
ATOM     42  C   UNL A   1      45.514  31.327  27.845  1.00  0.00     0.049 A 
ATOM     43  H   UNL A   1      45.647  29.364  27.164  1.00  0.00     0.167 HD
ATOM     44  C   UNL A   1      45.792  25.181  25.868  1.00  0.00     0.031 A 
ATOM     45  C   UNL A   1      46.763  31.832  27.848  1.00  0.00     0.031 A 
ATOM     46  C   UNL A   1      47.156  25.637  25.817  1.00  0.00     0.049 A 
ATOM     47  C   UNL A   1      47.909  30.956  27.424  1.00  0.00     0.074 A 
ATOM     48  C   UNL A   1      48.284  24.944  25.414  1.00  0.00     0.029 A 
ATOM     49  N   UNL A   1      47.578  26.908  26.182  1.00  0.00    -0.354 N 
ATOM     50  N   UNL A   1      47.888  29.706  27.022  1.00  0.00    -0.248 NA
ATOM     51  C   UNL A   1      49.248  31.559  27.453  1.00  0.00     0.031 C 
ATOM     52  C   UNL A   1      49.393  25.785  25.569  1.00  0.00     0.029 A 
ATOM     53  C   UNL A   1      48.950  27.015  26.026  1.00  0.00     0.049 A 
ATOM     54  H   UNL A   1      46.988  27.628  26.502  1.00  0.00     0.167 HD
ATOM     55  C   UNL A   1      49.207  29.379  26.738  1.00  0.00     0.074 A 
ATOM     56  C   UNL A   1      49.999  30.565  26.996  1.00  0.00     0.031 C 
ATOM     57  C   UNL A   1      49.720  28.201  26.301  1.00  0.00     0.031 A 
BRANCH  44  58
ATOM     58  C   UNL A   1      45.490  23.762  25.473  1.00  0.00    -0.014 A 
ATOM     59  C   UNL A   1      45.095  23.437  24.162  1.00  0.00     0.010 A 
ATOM     60  C   UNL A   1      45.606  22.736  26.428  1.00  0.00     0.010 A 
ATOM     61  C   UNL A   1      44.779  22.118  23.827  1.00  0.00     0.020 A 
ATOM     62  C   UNL A   1      45.311  21.412  26.091  1.00  0.00     0.020 A 
ATOM     63  C   UNL A   1      44.879  21.114  24.796  1.00  0.00     0.054 A 
BRANCH  63  64
ATOM     64  S   UNL A   1      44.453  19.411  24.341  1.00  0.00     0.124 S 
ATOM     65  O   UNL A   1      45.448  18.644  25.087  1.00  0.00    -0.237 OA
ATOM     66  O   UNL A   1      43.077  19.283  24.814  1.00  0.00    -0.237 OA
ATOM     67  O   UNL A   1      44.611  19.391  22.889  1.00  0.00    -0.744 OA
ENDBRANCH  63  64
ENDBRANCH  44  58
BRANCH  45  68
ATOM     68  C   UNL A   1      46.991  33.235  28.284  1.00  0.00    -0.014 A 
ATOM     69  C   UNL A   1      47.275  33.528  29.628  1.00  0.00     0.010 A 
ATOM     70  C   UNL A   1      46.946  34.284  27.347  1.00  0.00     0.010 A 
ATOM     71  C   UNL A   1      47.503  34.847  30.030  1.00  0.00     0.020 A 
ATOM     72  C   UNL A   1      47.196  35.601  27.743  1.00  0.00     0.020 A 
ATOM     73  C   UNL A   1      47.465  35.875  29.085  1.00  0.00     0.054 A 
BRANCH  73  74
ATOM     74  S   UNL A   1      47.833  37.572  29.612  1.00  0.00     0.124 S 
ATOM     75  O   UNL A   1      47.911  38.276  28.336  1.00  0.00    -0.237 OA
ATOM     76  O   UNL A   1      46.682  37.903  30.449  1.00  0.00    -0.237 OA
ATOM     77  O   UNL A   1      49.097  37.437  30.334  1.00  0.00    -0.744 OA
ENDBRANCH  73  74
ENDBRANCH  45  68
BRANCH  57  78
ATOM     78  C   UNL A   1      51.204  28.152  26.056  1.00  0.00    -0.014 A 
ATOM     79  C   UNL A   1      51.744  28.510  24.808  1.00  0.00     0.010 A 
ATOM     80  C   UNL A   1      52.069  27.765  27.095  1.00  0.00     0.010 A 
ATOM     81  C   UNL A   1      53.124  28.443  24.592  1.00  0.00     0.020 A 
ATOM     82  C   UNL A   1      53.450  27.717  26.889  1.00  0.00     0.020 A 
ATOM     83  C   UNL A   1      53.967  28.039  25.632  1.00  0.00     0.054 A 
BRANCH  83  84
ATOM     84  S   UNL A   1      55.756  27.976  25.338  1.00  0.00     0.124 S 
ATOM     85  O   UNL A   1      56.276  28.741  26.469  1.00  0.00    -0.237 OA
ATOM     86  O   UNL A   1      56.040  26.544  25.363  1.00  0.00    -0.237 OA
ATOM     87  O   UNL A   1      55.912  28.612  24.030  1.00  0.00    -0.744 OA
ENDBRANCH  83  84
ENDBRANCH  57  78
ENDBRANCH  31  32
ENDBRANCH  24  26
ENDBRANCH  23  24
ENDBRANCH  22  23
ENDBRANCH   1  22
TORSDOF 20
ENDMDL
