MODEL 1
REMARK VINA RESULT:     -11.1      0.000      0.000
REMARK SMILES C[C@@H]1CN(S(=O)(=O)N[C@H](C(=O)OCCOC(=O)c2ccc(-c3c4nc(c(-c5ccc(S(=O)(=O)[O-])cc5)c5ccc([nH]5)c(-c5ccc(S(=O)(=O)[O-])cc5)c5nc(c(-c6ccc(S(=O)(=O)[O-])cc6)c6ccc3[nH]6)C=C5)C=C4)cc2)[C@@H](C)O)C[C@@H](C)O1
REMARK SMILES IDX 13 1 12 2 10 3 11 4 9 5 8 6 5 8 6 9 7 10 4 11 1 12 2 13 3 14
REMARK SMILES IDX 84 15 82 16 81 17 83 18 78 19 79 20 80 21 14 23 15 24 16 25
REMARK SMILES IDX 17 26 18 27 19 28 77 29 20 30 76 31 21 32 22 33 23 34 70 35
REMARK SMILES IDX 24 36 75 37 69 38 71 39 25 40 74 41 68 42 67 43 26 45 56 46
REMARK SMILES IDX 37 47 55 48 38 49 41 50 54 51 72 52 39 53 40 54 53 56 73 57
REMARK SMILES IDX 42 58 27 59 28 60 36 61 29 62 35 63 30 64 31 65 32 66 33 67
REMARK SMILES IDX 34 68 57 69 58 70 66 71 59 72 65 73 60 74 61 75 62 76 63 77
REMARK SMILES IDX 64 78 43 79 44 80 52 81 45 82 51 83 46 84 47 85 48 86 49 87
REMARK SMILES IDX 50 88
REMARK H PARENT 8 7 80 22 71 44 41 55
REMARK Flexibility Score: inf
ROOT
ATOM      1  C   UNL A   1      31.854  29.945  24.993  1.00  0.00     0.274 C 
ENDROOT
BRANCH   1   2
ATOM      2  O   UNL A   1      30.864  28.917  24.796  1.00  0.00    -0.461 OA
BRANCH   2   3
ATOM      3  C   UNL A   1      30.971  28.133  23.671  1.00  0.00     0.327 C 
ATOM      4  O   UNL A   1      30.471  28.424  22.591  1.00  0.00    -0.250 OA
BRANCH   3   5
ATOM      5  C   UNL A   1      32.060  27.066  23.866  1.00  0.00     0.208 C 
BRANCH   5   6
ATOM      6  N   UNL A   1      31.427  25.845  24.404  1.00  0.00    -0.185 NA
ATOM      7  H   UNL A   1      30.427  26.023  24.503  1.00  0.00     0.143 HD
BRANCH   6   8
ATOM      8  S   UNL A   1      32.014  25.353  25.880  1.00  0.00     0.280 S 
ATOM      9  O   UNL A   1      30.862  24.881  26.603  1.00  0.00    -0.195 OA
ATOM     10  O   UNL A   1      32.804  26.455  26.371  1.00  0.00    -0.195 OA
BRANCH   8  11
ATOM     11  N   UNL A   1      33.049  24.078  25.483  1.00  0.00    -0.184 NA
ATOM     12  C   UNL A   1      34.127  19.802  24.845  1.00  0.00     0.040 C 
ATOM     13  C   UNL A   1      34.294  21.020  25.757  1.00  0.00     0.130 C 
ATOM     14  C   UNL A   1      32.757  22.203  25.876  1.00  0.00     0.135 C 
ATOM     15  O   UNL A   1      35.924  21.678  25.480  1.00  0.00    -0.373 OA
ATOM     16  C   UNL A   1      36.218  23.397  25.142  1.00  0.00     0.130 C 
ATOM     17  C   UNL A   1      34.851  24.723  25.391  1.00  0.00     0.135 C 
ATOM     18  C   UNL A   1      37.569  23.779  25.742  1.00  0.00     0.040 C 
ENDBRANCH   8  11
ENDBRANCH   6   8
ENDBRANCH   5   6
BRANCH   5  19
ATOM     19  C   UNL A   1      32.964  26.764  22.664  1.00  0.00     0.140 C 
ATOM     20  C   UNL A   1      32.345  25.668  21.786  1.00  0.00     0.040 C 
BRANCH  19  21
ATOM     21  O   UNL A   1      33.108  27.948  21.857  1.00  0.00    -0.391 OA
ATOM     22  H   UNL A   1      33.277  28.712  22.431  1.00  0.00     0.211 HD
ENDBRANCH  19  21
ENDBRANCH   5  19
ENDBRANCH   3   5
ENDBRANCH   2   3
ENDBRANCH   1   2
BRANCH   1  23
ATOM     23  C   UNL A   1      31.954  30.584  26.500  1.00  0.00     0.275 C 
BRANCH  23  24
ATOM     24  O   UNL A   1      33.438  30.902  27.728  1.00  0.00    -0.458 OA
BRANCH  24  25
ATOM     25  C   UNL A   1      34.559  31.083  28.589  1.00  0.00     0.338 C 
ATOM     26  O   UNL A   1      34.562  31.997  29.419  1.00  0.00    -0.246 OA
BRANCH  25  27
ATOM     27  C   UNL A   1      35.833  30.275  28.643  1.00  0.00     0.060 A 
ATOM     28  C   UNL A   1      36.372  29.819  29.852  1.00  0.00     0.016 A 
ATOM     29  C   UNL A   1      36.658  30.194  27.516  1.00  0.00     0.016 A 
ATOM     30  C   UNL A   1      37.626  29.206  29.945  1.00  0.00     0.010 A 
ATOM     31  C   UNL A   1      37.950  29.628  27.606  1.00  0.00     0.010 A 
ATOM     32  C   UNL A   1      38.447  29.135  28.825  1.00  0.00    -0.014 A 
BRANCH  32  33
ATOM     33  C   UNL A   1      39.878  28.761  28.986  1.00  0.00     0.031 A 
ATOM     34  C   UNL A   1      40.847  29.800  29.485  1.00  0.00     0.074 A 
ATOM     35  C   UNL A   1      40.333  27.517  28.748  1.00  0.00     0.049 A 
ATOM     36  N   UNL A   1      42.152  29.742  29.570  1.00  0.00    -0.248 NA
ATOM     37  C   UNL A   1      40.262  31.063  29.957  1.00  0.00     0.031 C 
ATOM     38  C   UNL A   1      39.513  26.365  28.383  1.00  0.00     0.029 A 
ATOM     39  N   UNL A   1      41.618  27.023  28.768  1.00  0.00    -0.354 N 
ATOM     40  C   UNL A   1      42.549  30.977  30.068  1.00  0.00     0.074 A 
ATOM     41  C   UNL A   1      41.345  31.755  30.276  1.00  0.00     0.031 C 
ATOM     42  C   UNL A   1      40.319  25.307  28.179  1.00  0.00     0.029 A 
ATOM     43  C   UNL A   1      41.714  25.716  28.352  1.00  0.00     0.049 A 
ATOM     44  H   UNL A   1      42.395  27.556  29.055  1.00  0.00     0.167 HD
ATOM     45  C   UNL A   1      43.800  31.434  30.312  1.00  0.00     0.031 A 
ATOM     46  C   UNL A   1      42.794  24.951  28.092  1.00  0.00     0.031 A 
ATOM     47  C   UNL A   1      45.007  30.682  30.103  1.00  0.00     0.049 A 
ATOM     48  C   UNL A   1      44.185  25.508  28.267  1.00  0.00     0.074 A 
ATOM     49  C   UNL A   1      46.315  31.083  30.315  1.00  0.00     0.029 A 
ATOM     50  N   UNL A   1      45.059  29.382  29.630  1.00  0.00    -0.354 N 
ATOM     51  N   UNL A   1      44.551  26.690  28.699  1.00  0.00    -0.248 NA
ATOM     52  C   UNL A   1      45.310  24.627  27.912  1.00  0.00     0.031 C 
ATOM     53  C   UNL A   1      47.161  30.042  29.921  1.00  0.00     0.029 A 
ATOM     54  C   UNL A   1      46.378  28.974  29.515  1.00  0.00     0.049 A 
ATOM     55  H   UNL A   1      44.275  28.830  29.406  1.00  0.00     0.167 HD
ATOM     56  C   UNL A   1      45.945  26.686  28.687  1.00  0.00     0.074 A 
ATOM     57  C   UNL A   1      46.358  25.385  28.209  1.00  0.00     0.031 C 
ATOM     58  C   UNL A   1      46.798  27.678  29.046  1.00  0.00     0.031 A 
BRANCH  45  59
ATOM     59  C   UNL A   1      43.920  32.865  30.755  1.00  0.00    -0.014 A 
ATOM     60  C   UNL A   1      44.011  33.918  29.830  1.00  0.00     0.010 A 
ATOM     61  C   UNL A   1      43.951  33.151  32.132  1.00  0.00     0.010 A 
ATOM     62  C   UNL A   1      44.190  35.229  30.275  1.00  0.00     0.020 A 
ATOM     63  C   UNL A   1      44.105  34.463  32.580  1.00  0.00     0.020 A 
ATOM     64  C   UNL A   1      44.248  35.492  31.647  1.00  0.00     0.054 A 
BRANCH  64  65
ATOM     65  S   UNL A   1      44.502  37.197  32.205  1.00  0.00     0.124 S 
ATOM     66  O   UNL A   1      43.316  37.422  33.027  1.00  0.00    -0.237 OA
ATOM     67  O   UNL A   1      45.764  37.115  32.935  1.00  0.00    -0.237 OA
ATOM     68  O   UNL A   1      44.554  37.964  30.962  1.00  0.00    -0.744 OA
ENDBRANCH  64  65
ENDBRANCH  45  59
BRANCH  46  69
ATOM     69  C   UNL A   1      42.601  23.572  27.565  1.00  0.00    -0.014 A 
ATOM     70  C   UNL A   1      42.638  23.315  26.185  1.00  0.00     0.010 A 
ATOM     71  C   UNL A   1      42.392  22.503  28.456  1.00  0.00     0.010 A 
ATOM     72  C   UNL A   1      42.482  22.011  25.704  1.00  0.00     0.020 A 
ATOM     73  C   UNL A   1      42.260  21.196  27.980  1.00  0.00     0.020 A 
ATOM     74  C   UNL A   1      42.304  20.958  26.605  1.00  0.00     0.054 A 
BRANCH  74  75
ATOM     75  S   UNL A   1      42.210  19.261  25.969  1.00  0.00     0.124 S 
ATOM     76  O   UNL A   1      43.092  19.323  24.807  1.00  0.00    -0.237 OA
ATOM     77  O   UNL A   1      42.701  18.474  27.097  1.00  0.00    -0.237 OA
ATOM     78  O   UNL A   1      40.790  19.089  25.672  1.00  0.00    -0.744 OA
ENDBRANCH  74  75
ENDBRANCH  46  69
BRANCH  58  79
ATOM     79  C   UNL A   1      48.280  27.408  28.979  1.00  0.00    -0.014 A 
ATOM     80  C   UNL A   1      49.049  27.822  27.879  1.00  0.00     0.010 A 
ATOM     81  C   UNL A   1      48.929  26.828  30.085  1.00  0.00     0.010 A 
ATOM     82  C   UNL A   1      50.439  27.655  27.882  1.00  0.00     0.020 A 
ATOM     83  C   UNL A   1      50.319  26.677  30.101  1.00  0.00     0.020 A 
ATOM     84  C   UNL A   1      51.067  27.086  28.994  1.00  0.00     0.054 A 
BRANCH  84  85
ATOM     85  S   UNL A   1      52.876  26.951  29.010  1.00  0.00     0.124 S 
ATOM     86  O   UNL A   1      53.287  28.314  28.682  1.00  0.00    -0.237 OA
ATOM     87  O   UNL A   1      53.157  26.524  30.379  1.00  0.00    -0.237 OA
ATOM     88  O   UNL A   1      53.159  25.951  27.983  1.00  0.00    -0.744 OA
ENDBRANCH  84  85
ENDBRANCH  58  79
ENDBRANCH  32  33
ENDBRANCH  25  27
ENDBRANCH  24  25
ENDBRANCH  23  24
ENDBRANCH   1  23
TORSDOF 19
ENDMDL
MODEL 2
REMARK VINA RESULT:     -10.6      3.763      8.879
REMARK SMILES C[C@@H]1CN(S(=O)(=O)N[C@H](C(=O)OCCOC(=O)c2ccc(-c3c4nc(c(-c5ccc(S(=O)(=O)[O-])cc5)c5ccc([nH]5)c(-c5ccc(S(=O)(=O)[O-])cc5)c5nc(c(-c6ccc(S(=O)(=O)[O-])cc6)c6ccc3[nH]6)C=C5)C=C4)cc2)[C@@H](C)O)C[C@@H](C)O1
REMARK SMILES IDX 13 1 12 2 10 3 11 4 9 5 8 6 5 8 6 9 7 10 4 11 1 12 2 13 3 14
REMARK SMILES IDX 84 15 82 16 81 17 83 18 78 19 79 20 80 21 14 23 15 24 16 25
REMARK SMILES IDX 17 26 18 27 19 28 77 29 20 30 76 31 21 32 22 33 23 34 70 35
REMARK SMILES IDX 24 36 75 37 69 38 71 39 25 40 74 41 68 42 67 43 26 45 56 46
REMARK SMILES IDX 37 47 55 48 38 49 41 50 54 51 72 52 39 53 40 54 53 56 73 57
REMARK SMILES IDX 42 58 27 59 28 60 36 61 29 62 35 63 30 64 31 65 32 66 33 67
REMARK SMILES IDX 34 68 57 69 58 70 66 71 59 72 65 73 60 74 61 75 62 76 63 77
REMARK SMILES IDX 64 78 43 79 44 80 52 81 45 82 51 83 46 84 47 85 48 86 49 87
REMARK SMILES IDX 50 88
REMARK H PARENT 8 7 80 22 71 44 41 55
REMARK Flexibility Score: inf
ROOT
ATOM      1  C   UNL A   1      31.691  29.213  24.493  1.00  0.00     0.274 C 
ENDROOT
BRANCH   1   2
ATOM      2  O   UNL A   1      30.443  28.615  24.090  1.00  0.00    -0.461 OA
BRANCH   2   3
ATOM      3  C   UNL A   1      30.358  27.243  24.105  1.00  0.00     0.327 C 
ATOM      4  O   UNL A   1      29.298  26.629  24.062  1.00  0.00    -0.250 OA
BRANCH   3   5
ATOM      5  C   UNL A   1      31.736  26.619  23.835  1.00  0.00     0.208 C 
BRANCH   5   6
ATOM      6  N   UNL A   1      31.774  25.283  24.465  1.00  0.00    -0.185 NA
ATOM      7  H   UNL A   1      30.815  24.959  24.584  1.00  0.00     0.143 HD
BRANCH   6   8
ATOM      8  S   UNL A   1      32.523  25.238  25.949  1.00  0.00     0.280 S 
ATOM      9  O   UNL A   1      31.472  24.952  26.890  1.00  0.00    -0.195 OA
ATOM     10  O   UNL A   1      33.289  26.457  26.035  1.00  0.00    -0.195 OA
BRANCH   8  11
ATOM     11  N   UNL A   1      33.589  23.936  25.810  1.00  0.00    -0.184 NA
ATOM     12  C   UNL A   1      37.491  21.995  24.879  1.00  0.00     0.040 C 
ATOM     13  C   UNL A   1      36.044  22.196  24.422  1.00  0.00     0.130 C 
ATOM     14  C   UNL A   1      35.261  23.927  24.830  1.00  0.00     0.135 C 
ATOM     15  O   UNL A   1      35.156  20.695  24.777  1.00  0.00    -0.373 OA
ATOM     16  C   UNL A   1      33.610  20.681  25.652  1.00  0.00     0.130 C 
ATOM     17  C   UNL A   1      32.618  22.293  25.973  1.00  0.00     0.135 C 
ATOM     18  C   UNL A   1      32.765  19.529  25.113  1.00  0.00     0.040 C 
ENDBRANCH   8  11
ENDBRANCH   6   8
ENDBRANCH   5   6
BRANCH   5  19
ATOM     19  C   UNL A   1      32.212  26.582  22.378  1.00  0.00     0.140 C 
ATOM     20  C   UNL A   1      32.579  25.149  21.967  1.00  0.00     0.040 C 
BRANCH  19  21
ATOM     21  O   UNL A   1      31.154  27.033  21.512  1.00  0.00    -0.391 OA
ATOM     22  H   UNL A   1      31.297  27.965  21.285  1.00  0.00     0.211 HD
ENDBRANCH  19  21
ENDBRANCH   5  19
ENDBRANCH   3   5
ENDBRANCH   2   3
ENDBRANCH   1   2
BRANCH   1  23
ATOM     23  C   UNL A   1      31.802  29.689  26.058  1.00  0.00     0.275 C 
BRANCH  23  24
ATOM     24  O   UNL A   1      33.106  30.750  27.050  1.00  0.00    -0.458 OA
BRANCH  24  25
ATOM     25  C   UNL A   1      34.096  31.464  27.787  1.00  0.00     0.338 C 
ATOM     26  O   UNL A   1      33.855  32.598  28.210  1.00  0.00    -0.246 OA
BRANCH  25  27
ATOM     27  C   UNL A   1      35.491  31.016  28.151  1.00  0.00     0.060 A 
ATOM     28  C   UNL A   1      35.745  29.755  28.703  1.00  0.00     0.016 A 
ATOM     29  C   UNL A   1      36.533  31.948  28.205  1.00  0.00     0.016 A 
ATOM     30  C   UNL A   1      37.000  29.375  29.191  1.00  0.00     0.010 A 
ATOM     31  C   UNL A   1      37.790  31.596  28.747  1.00  0.00     0.010 A 
ATOM     32  C   UNL A   1      38.030  30.307  29.252  1.00  0.00    -0.014 A 
BRANCH  32  33
ATOM     33  C   UNL A   1      39.256  29.996  30.036  1.00  0.00     0.031 A 
ATOM     34  C   UNL A   1      40.152  28.880  29.568  1.00  0.00     0.074 A 
ATOM     35  C   UNL A   1      39.620  30.702  31.122  1.00  0.00     0.049 A 
ATOM     36  N   UNL A   1      41.188  28.345  30.162  1.00  0.00    -0.248 NA
ATOM     37  C   UNL A   1      39.840  28.302  28.252  1.00  0.00     0.031 C 
ATOM     38  C   UNL A   1      38.939  31.887  31.636  1.00  0.00     0.029 A 
ATOM     39  N   UNL A   1      40.663  30.506  31.999  1.00  0.00    -0.354 N 
ATOM     40  C   UNL A   1      41.629  27.339  29.311  1.00  0.00     0.074 A 
ATOM     41  C   UNL A   1      40.754  27.350  28.156  1.00  0.00     0.031 C 
ATOM     42  C   UNL A   1      39.560  32.291  32.759  1.00  0.00     0.029 A 
ATOM     43  C   UNL A   1      40.653  31.368  33.070  1.00  0.00     0.049 A 
ATOM     44  H   UNL A   1      41.351  29.813  31.871  1.00  0.00     0.167 HD
ATOM     45  C   UNL A   1      42.654  26.470  29.479  1.00  0.00     0.031 A 
ATOM     46  C   UNL A   1      41.400  31.386  34.194  1.00  0.00     0.031 A 
ATOM     47  C   UNL A   1      43.527  26.437  30.620  1.00  0.00     0.049 A 
ATOM     48  C   UNL A   1      42.470  30.347  34.417  1.00  0.00     0.074 A 
ATOM     49  C   UNL A   1      44.581  25.575  30.869  1.00  0.00     0.029 A 
ATOM     50  N   UNL A   1      43.446  27.294  31.705  1.00  0.00    -0.354 N 
ATOM     51  N   UNL A   1      42.853  29.374  33.626  1.00  0.00    -0.248 NA
ATOM     52  C   UNL A   1      43.205  30.403  35.692  1.00  0.00     0.031 C 
ATOM     53  C   UNL A   1      45.107  25.879  32.129  1.00  0.00     0.029 A 
ATOM     54  C   UNL A   1      44.414  26.963  32.639  1.00  0.00     0.049 A 
ATOM     55  H   UNL A   1      42.797  28.027  31.798  1.00  0.00     0.167 HD
ATOM     56  C   UNL A   1      43.883  28.719  34.296  1.00  0.00     0.074 A 
ATOM     57  C   UNL A   1      44.070  29.406  35.556  1.00  0.00     0.031 C 
ATOM     58  C   UNL A   1      44.610  27.646  33.894  1.00  0.00     0.031 A 
BRANCH  45  59
ATOM     59  C   UNL A   1      42.824  25.416  28.421  1.00  0.00    -0.014 A 
ATOM     60  C   UNL A   1      42.038  24.252  28.407  1.00  0.00     0.010 A 
ATOM     61  C   UNL A   1      43.802  25.600  27.428  1.00  0.00     0.010 A 
ATOM     62  C   UNL A   1      42.268  23.261  27.450  1.00  0.00     0.020 A 
ATOM     63  C   UNL A   1      44.018  24.624  26.455  1.00  0.00     0.020 A 
ATOM     64  C   UNL A   1      43.265  23.448  26.488  1.00  0.00     0.054 A 
BRANCH  64  65
ATOM     65  S   UNL A   1      43.563  22.142  25.268  1.00  0.00     0.124 S 
ATOM     66  O   UNL A   1      42.514  21.180  25.598  1.00  0.00    -0.237 OA
ATOM     67  O   UNL A   1      43.394  22.842  23.997  1.00  0.00    -0.237 OA
ATOM     68  O   UNL A   1      44.926  21.703  25.556  1.00  0.00    -0.744 OA
ENDBRANCH  64  65
ENDBRANCH  45  59
BRANCH  46  69
ATOM     69  C   UNL A   1      41.113  32.402  35.243  1.00  0.00    -0.014 A 
ATOM     70  C   UNL A   1      41.903  33.556  35.365  1.00  0.00     0.010 A 
ATOM     71  C   UNL A   1      40.028  32.219  36.120  1.00  0.00     0.010 A 
ATOM     72  C   UNL A   1      41.607  34.517  36.338  1.00  0.00     0.020 A 
ATOM     73  C   UNL A   1      39.714  33.188  37.077  1.00  0.00     0.020 A 
ATOM     74  C   UNL A   1      40.507  34.332  37.180  1.00  0.00     0.054 A 
BRANCH  74  75
ATOM     75  S   UNL A   1      40.076  35.638  38.363  1.00  0.00     0.124 S 
ATOM     76  O   UNL A   1      39.649  36.719  37.481  1.00  0.00    -0.237 OA
ATOM     77  O   UNL A   1      39.020  35.011  39.154  1.00  0.00    -0.237 OA
ATOM     78  O   UNL A   1      41.326  35.870  39.083  1.00  0.00    -0.744 OA
ENDBRANCH  74  75
ENDBRANCH  46  69
BRANCH  58  79
ATOM     79  C   UNL A   1      45.709  27.145  34.795  1.00  0.00    -0.014 A 
ATOM     80  C   UNL A   1      45.480  26.120  35.728  1.00  0.00     0.010 A 
ATOM     81  C   UNL A   1      47.018  27.633  34.627  1.00  0.00     0.010 A 
ATOM     82  C   UNL A   1      46.537  25.598  36.482  1.00  0.00     0.020 A 
ATOM     83  C   UNL A   1      48.081  27.101  35.364  1.00  0.00     0.020 A 
ATOM     84  C   UNL A   1      47.833  26.088  36.293  1.00  0.00     0.054 A 
BRANCH  84  85
ATOM     85  S   UNL A   1      49.201  25.343  37.224  1.00  0.00     0.124 S 
ATOM     86  O   UNL A   1      48.606  24.094  37.694  1.00  0.00    -0.237 OA
ATOM     87  O   UNL A   1      50.242  25.199  36.209  1.00  0.00    -0.237 OA
ATOM     88  O   UNL A   1      49.488  26.326  38.266  1.00  0.00    -0.744 OA
ENDBRANCH  84  85
ENDBRANCH  58  79
ENDBRANCH  32  33
ENDBRANCH  25  27
ENDBRANCH  24  25
ENDBRANCH  23  24
ENDBRANCH   1  23
TORSDOF 19
ENDMDL
MODEL 3
REMARK VINA RESULT:     -10.5      2.538      3.262
REMARK SMILES C[C@@H]1CN(S(=O)(=O)N[C@H](C(=O)OCCOC(=O)c2ccc(-c3c4nc(c(-c5ccc(S(=O)(=O)[O-])cc5)c5ccc([nH]5)c(-c5ccc(S(=O)(=O)[O-])cc5)c5nc(c(-c6ccc(S(=O)(=O)[O-])cc6)c6ccc3[nH]6)C=C5)C=C4)cc2)[C@@H](C)O)C[C@@H](C)O1
REMARK SMILES IDX 13 1 12 2 10 3 11 4 9 5 8 6 5 8 6 9 7 10 4 11 1 12 2 13 3 14
REMARK SMILES IDX 84 15 82 16 81 17 83 18 78 19 79 20 80 21 14 23 15 24 16 25
REMARK SMILES IDX 17 26 18 27 19 28 77 29 20 30 76 31 21 32 22 33 23 34 70 35
REMARK SMILES IDX 24 36 75 37 69 38 71 39 25 40 74 41 68 42 67 43 26 45 56 46
REMARK SMILES IDX 37 47 55 48 38 49 41 50 54 51 72 52 39 53 40 54 53 56 73 57
REMARK SMILES IDX 42 58 27 59 28 60 36 61 29 62 35 63 30 64 31 65 32 66 33 67
REMARK SMILES IDX 34 68 57 69 58 70 66 71 59 72 65 73 60 74 61 75 62 76 63 77
REMARK SMILES IDX 64 78 43 79 44 80 52 81 45 82 51 83 46 84 47 85 48 86 49 87
REMARK SMILES IDX 50 88
REMARK H PARENT 8 7 80 22 71 44 41 55
REMARK Flexibility Score: inf
ROOT
ATOM      1  C   UNL A   1      31.116  29.636  24.621  1.00  0.00     0.274 C 
ENDROOT
BRANCH   1   2
ATOM      2  O   UNL A   1      30.550  28.358  24.267  1.00  0.00    -0.461 OA
BRANCH   2   3
ATOM      3  C   UNL A   1      31.097  27.691  23.196  1.00  0.00     0.327 C 
ATOM      4  O   UNL A   1      30.786  27.907  22.031  1.00  0.00    -0.250 OA
BRANCH   3   5
ATOM      5  C   UNL A   1      32.356  26.924  23.632  1.00  0.00     0.208 C 
BRANCH   5   6
ATOM      6  N   UNL A   1      31.936  25.758  24.437  1.00  0.00    -0.185 NA
ATOM      7  H   UNL A   1      30.931  25.825  24.594  1.00  0.00     0.143 HD
BRANCH   6   8
ATOM      8  S   UNL A   1      32.683  25.634  25.918  1.00  0.00     0.280 S 
ATOM      9  O   UNL A   1      31.618  25.401  26.857  1.00  0.00    -0.195 OA
ATOM     10  O   UNL A   1      33.531  26.796  26.024  1.00  0.00    -0.195 OA
BRANCH   8  11
ATOM     11  N   UNL A   1      33.658  24.266  25.750  1.00  0.00    -0.184 NA
ATOM     12  C   UNL A   1      37.415  22.081  24.761  1.00  0.00     0.040 C 
ATOM     13  C   UNL A   1      35.983  22.388  24.317  1.00  0.00     0.130 C 
ATOM     14  C   UNL A   1      35.321  24.160  24.759  1.00  0.00     0.135 C 
ATOM     15  O   UNL A   1      34.997  20.944  24.652  1.00  0.00    -0.373 OA
ATOM     16  C   UNL A   1      33.458  21.019  25.536  1.00  0.00     0.130 C 
ATOM     17  C   UNL A   1      32.579  22.690  25.891  1.00  0.00     0.135 C 
ATOM     18  C   UNL A   1      32.535  19.937  24.983  1.00  0.00     0.040 C 
ENDBRANCH   8  11
ENDBRANCH   6   8
ENDBRANCH   5   6
BRANCH   5  19
ATOM     19  C   UNL A   1      33.352  26.535  22.533  1.00  0.00     0.140 C 
ATOM     20  C   UNL A   1      32.846  25.313  21.754  1.00  0.00     0.040 C 
BRANCH  19  21
ATOM     21  O   UNL A   1      33.494  27.625  21.602  1.00  0.00    -0.391 OA
ATOM     22  H   UNL A   1      33.796  28.417  22.074  1.00  0.00     0.211 HD
ENDBRANCH  19  21
ENDBRANCH   5  19
ENDBRANCH   3   5
ENDBRANCH   2   3
ENDBRANCH   1   2
BRANCH   1  23
ATOM     23  C   UNL A   1      31.639  29.801  26.166  1.00  0.00     0.275 C 
BRANCH  23  24
ATOM     24  O   UNL A   1      33.291  30.475  26.958  1.00  0.00    -0.458 OA
BRANCH  24  25
ATOM     25  C   UNL A   1      34.459  30.987  27.596  1.00  0.00     0.338 C 
ATOM     26  O   UNL A   1      34.539  32.187  27.871  1.00  0.00    -0.246 OA
BRANCH  25  27
ATOM     27  C   UNL A   1      35.701  30.234  28.009  1.00  0.00     0.060 A 
ATOM     28  C   UNL A   1      35.826  29.650  29.275  1.00  0.00     0.016 A 
ATOM     29  C   UNL A   1      36.867  30.335  27.244  1.00  0.00     0.016 A 
ATOM     30  C   UNL A   1      37.019  29.084  29.738  1.00  0.00     0.010 A 
ATOM     31  C   UNL A   1      38.092  29.818  27.723  1.00  0.00     0.010 A 
ATOM     32  C   UNL A   1      38.179  29.194  28.979  1.00  0.00    -0.014 A 
BRANCH  32  33
ATOM     33  C   UNL A   1      39.493  28.863  29.594  1.00  0.00     0.031 A 
ATOM     34  C   UNL A   1      39.976  29.687  30.758  1.00  0.00     0.074 A 
ATOM     35  C   UNL A   1      40.246  27.828  29.180  1.00  0.00     0.049 A 
ATOM     36  N   UNL A   1      41.139  29.672  31.357  1.00  0.00    -0.248 NA
ATOM     37  C   UNL A   1      39.014  30.646  31.321  1.00  0.00     0.031 C 
ATOM     38  C   UNL A   1      39.872  26.857  28.156  1.00  0.00     0.029 A 
ATOM     39  N   UNL A   1      41.504  27.433  29.576  1.00  0.00    -0.354 N 
ATOM     40  C   UNL A   1      41.064  30.647  32.344  1.00  0.00     0.074 A 
ATOM     41  C   UNL A   1      39.737  31.223  32.269  1.00  0.00     0.031 C 
ATOM     42  C   UNL A   1      40.893  25.999  27.978  1.00  0.00     0.029 A 
ATOM     43  C   UNL A   1      42.011  26.387  28.841  1.00  0.00     0.049 A 
ATOM     44  H   UNL A   1      41.995  27.859  30.316  1.00  0.00     0.167 HD
ATOM     45  C   UNL A   1      42.015  31.045  33.223  1.00  0.00     0.031 A 
ATOM     46  C   UNL A   1      43.243  25.835  28.825  1.00  0.00     0.031 A 
ATOM     47  C   UNL A   1      43.339  30.492  33.308  1.00  0.00     0.049 A 
ATOM     48  C   UNL A   1      44.325  26.359  29.736  1.00  0.00     0.074 A 
ATOM     49  C   UNL A   1      44.366  30.853  34.164  1.00  0.00     0.029 A 
ATOM     50  N   UNL A   1      43.826  29.472  32.508  1.00  0.00    -0.354 N 
ATOM     51  N   UNL A   1      44.257  27.308  30.637  1.00  0.00    -0.248 NA
ATOM     52  C   UNL A   1      45.656  25.739  29.621  1.00  0.00     0.031 C 
ATOM     53  C   UNL A   1      45.490  30.085  33.848  1.00  0.00     0.029 A 
ATOM     54  C   UNL A   1      45.147  29.209  32.831  1.00  0.00     0.049 A 
ATOM     55  H   UNL A   1      43.310  29.005  31.813  1.00  0.00     0.167 HD
ATOM     56  C   UNL A   1      45.526  27.384  31.208  1.00  0.00     0.074 A 
ATOM     57  C   UNL A   1      46.342  26.383  30.556  1.00  0.00     0.031 C 
ATOM     58  C   UNL A   1      45.965  28.210  32.190  1.00  0.00     0.031 A 
BRANCH  45  59
ATOM     59  C   UNL A   1      41.669  32.206  34.111  1.00  0.00    -0.014 A 
ATOM     60  C   UNL A   1      41.103  32.016  35.383  1.00  0.00     0.010 A 
ATOM     61  C   UNL A   1      41.909  33.512  33.650  1.00  0.00     0.010 A 
ATOM     62  C   UNL A   1      40.729  33.119  36.156  1.00  0.00     0.020 A 
ATOM     63  C   UNL A   1      41.560  34.614  34.430  1.00  0.00     0.020 A 
ATOM     64  C   UNL A   1      40.949  34.410  35.668  1.00  0.00     0.054 A 
BRANCH  64  65
ATOM     65  S   UNL A   1      40.439  35.827  36.676  1.00  0.00     0.124 S 
ATOM     66  O   UNL A   1      39.631  35.184  37.709  1.00  0.00    -0.237 OA
ATOM     67  O   UNL A   1      41.714  36.378  37.130  1.00  0.00    -0.237 OA
ATOM     68  O   UNL A   1      39.699  36.669  35.740  1.00  0.00    -0.744 OA
ENDBRANCH  64  65
ENDBRANCH  45  59
BRANCH  46  69
ATOM     69  C   UNL A   1      43.543  24.750  27.852  1.00  0.00    -0.014 A 
ATOM     70  C   UNL A   1      44.186  25.029  26.636  1.00  0.00     0.010 A 
ATOM     71  C   UNL A   1      43.193  23.420  28.154  1.00  0.00     0.010 A 
ATOM     72  C   UNL A   1      44.487  23.996  25.742  1.00  0.00     0.020 A 
ATOM     73  C   UNL A   1      43.513  22.383  27.274  1.00  0.00     0.020 A 
ATOM     74  C   UNL A   1      44.158  22.678  26.071  1.00  0.00     0.054 A 
BRANCH  74  75
ATOM     75  S   UNL A   1      44.651  21.341  24.948  1.00  0.00     0.124 S 
ATOM     76  O   UNL A   1      45.988  21.014  25.432  1.00  0.00    -0.237 OA
ATOM     77  O   UNL A   1      43.624  20.330  25.191  1.00  0.00    -0.237 OA
ATOM     78  O   UNL A   1      44.595  21.968  23.629  1.00  0.00    -0.744 OA
ENDBRANCH  74  75
ENDBRANCH  46  69
BRANCH  58  79
ATOM     79  C   UNL A   1      47.388  28.066  32.666  1.00  0.00    -0.014 A 
ATOM     80  C   UNL A   1      47.730  27.167  33.690  1.00  0.00     0.010 A 
ATOM     81  C   UNL A   1      48.414  28.765  32.002  1.00  0.00     0.010 A 
ATOM     82  C   UNL A   1      49.069  26.973  34.045  1.00  0.00     0.020 A 
ATOM     83  C   UNL A   1      49.756  28.560  32.341  1.00  0.00     0.020 A 
ATOM     84  C   UNL A   1      50.076  27.668  33.367  1.00  0.00     0.054 A 
BRANCH  84  85
ATOM     85  S   UNL A   1      51.810  27.342  33.791  1.00  0.00     0.124 S 
ATOM     86  O   UNL A   1      52.312  28.684  34.076  1.00  0.00    -0.237 OA
ATOM     87  O   UNL A   1      51.699  26.456  34.948  1.00  0.00    -0.237 OA
ATOM     88  O   UNL A   1      52.351  26.717  32.586  1.00  0.00    -0.744 OA
ENDBRANCH  84  85
ENDBRANCH  58  79
ENDBRANCH  32  33
ENDBRANCH  25  27
ENDBRANCH  24  25
ENDBRANCH  23  24
ENDBRANCH   1  23
TORSDOF 19
ENDMDL
