MODEL 1
REMARK VINA RESULT:     -10.4      0.000      0.000
REMARK SMILES COc1ncccc1Cn1ccc(C(=O)OCCOC(=O)c2ccc(-c3c4nc(c(-c5ccc(S(=O)(=O)[O-])cc5)c5ccc([nH]5)c(-c5ccc(S(=O)(=O)[O-])cc5)c5nc(c(-c6ccc(S(=O)(=O)[O-])cc6)c6ccc3[nH]6)C=C5)C=C4)cc2)n1
REMARK SMILES IDX 17 1 16 2 14 3 15 4 13 5 10 6 11 7 82 8 12 9 9 10 8 11 3 12
REMARK SMILES IDX 4 13 5 14 7 15 6 16 2 17 1 18 18 19 19 20 20 21 21 22 22 23
REMARK SMILES IDX 23 24 81 25 24 26 80 27 25 28 26 29 27 30 74 31 28 32 79 33
REMARK SMILES IDX 73 34 75 35 29 36 78 37 72 38 71 39 30 41 60 42 41 43 59 44
REMARK SMILES IDX 42 45 45 46 58 47 76 48 43 49 44 50 57 52 77 53 46 54 31 55
REMARK SMILES IDX 32 56 40 57 33 58 39 59 34 60 35 61 36 62 37 63 38 64 61 65
REMARK SMILES IDX 62 66 70 67 63 68 69 69 64 70 65 71 66 72 67 73 68 74 47 75
REMARK SMILES IDX 48 76 56 77 49 78 55 79 50 80 51 81 52 82 53 83 54 84
REMARK H PARENT 75 40 45 51
REMARK Flexibility Score: inf
ROOT
ATOM      1  C   UNL A   1      41.277  22.424  27.848  1.00  0.00     0.275 C 
ENDROOT
BRANCH   1   2
ATOM      2  O   UNL A   1      40.014  22.180  27.249  1.00  0.00    -0.457 OA
BRANCH   2   3
ATOM      3  C   UNL A   1      39.528  23.247  26.579  1.00  0.00     0.358 C 
ATOM      4  O   UNL A   1      40.137  24.293  26.346  1.00  0.00    -0.244 OA
BRANCH   3   5
ATOM      5  C   UNL A   1      38.243  22.973  25.998  1.00  0.00     0.170 A 
ATOM      6  N   UNL A   1      36.494  22.012  25.281  1.00  0.00    -0.267 N 
ATOM      7  C   UNL A   1      36.166  23.064  26.070  1.00  0.00     0.110 A 
ATOM      8  N   UNL A   1      37.841  21.836  25.381  1.00  0.00    -0.165 NA
ATOM      9  C   UNL A   1      37.218  23.887  26.097  1.00  0.00     0.057 A 
BRANCH   6  10
ATOM     10  C   UNL A   1      35.668  20.971  24.613  1.00  0.00     0.185 C 
BRANCH  10  11
ATOM     11  C   UNL A   1      34.153  21.169  24.639  1.00  0.00     0.036 A 
ATOM     12  C   UNL A   1      33.192  20.278  25.169  1.00  0.00     0.218 A 
ATOM     13  N   UNL A   1      31.883  20.559  25.307  1.00  0.00    -0.222 NA
ATOM     14  C   UNL A   1      31.432  21.686  24.748  1.00  0.00     0.115 A 
ATOM     15  C   UNL A   1      33.608  22.284  23.975  1.00  0.00     0.013 A 
ATOM     16  C   UNL A   1      32.235  22.533  24.014  1.00  0.00     0.021 A 
BRANCH  12  17
ATOM     17  O   UNL A   1      33.389  18.936  25.387  1.00  0.00    -0.481 OA
ATOM     18  C   UNL A   1      32.381  18.252  24.749  1.00  0.00     0.280 C 
ENDBRANCH  12  17
ENDBRANCH  10  11
ENDBRANCH   6  10
ENDBRANCH   3   5
ENDBRANCH   2   3
ENDBRANCH   1   2
BRANCH   1  19
ATOM     19  C   UNL A   1      42.288  21.301  27.600  1.00  0.00     0.275 C 
BRANCH  19  20
ATOM     20  O   UNL A   1      43.409  21.735  26.829  1.00  0.00    -0.458 OA
BRANCH  20  21
ATOM     21  C   UNL A   1      43.561  21.172  25.612  1.00  0.00     0.338 C 
ATOM     22  O   UNL A   1      43.321  20.024  25.287  1.00  0.00    -0.246 OA
BRANCH  21  23
ATOM     23  C   UNL A   1      44.058  22.259  24.738  1.00  0.00     0.060 A 
ATOM     24  C   UNL A   1      45.382  22.427  24.683  1.00  0.00     0.016 A 
ATOM     25  C   UNL A   1      43.394  23.465  24.936  1.00  0.00     0.016 A 
ATOM     26  C   UNL A   1      45.808  23.603  25.501  1.00  0.00     0.010 A 
ATOM     27  C   UNL A   1      44.080  24.675  25.246  1.00  0.00     0.010 A 
ATOM     28  C   UNL A   1      45.034  24.728  26.287  1.00  0.00    -0.014 A 
BRANCH  28  29
ATOM     29  C   UNL A   1      44.085  26.075  27.235  1.00  0.00     0.031 A 
ATOM     30  C   UNL A   1      45.712  26.962  26.513  1.00  0.00     0.074 A 
ATOM     31  C   UNL A   1      42.738  26.366  28.337  1.00  0.00     0.049 A 
ATOM     32  N   UNL A   1      46.997  26.651  26.830  1.00  0.00    -0.248 NA
ATOM     33  C   UNL A   1      46.366  27.473  24.867  1.00  0.00     0.031 C 
ATOM     34  C   UNL A   1      41.043  25.935  29.070  1.00  0.00     0.029 A 
ATOM     35  N   UNL A   1      42.343  27.427  29.527  1.00  0.00    -0.354 N 
ATOM     36  C   UNL A   1      47.808  27.769  26.368  1.00  0.00     0.074 A 
ATOM     37  C   UNL A   1      47.546  28.117  25.043  1.00  0.00     0.031 C 
ATOM     38  C   UNL A   1      40.155  26.966  29.662  1.00  0.00     0.029 A 
ATOM     39  C   UNL A   1      41.006  28.041  29.856  1.00  0.00     0.049 A 
ATOM     40  H   UNL A   1      43.088  27.703  30.109  1.00  0.00     0.167 HD
ATOM     41  C   UNL A   1      48.087  28.774  27.216  1.00  0.00     0.031 A 
ATOM     42  C   UNL A   1      40.653  29.362  30.092  1.00  0.00     0.031 A 
ATOM     43  C   UNL A   1      47.735  28.283  28.492  1.00  0.00     0.049 A 
ATOM     44  C   UNL A   1      42.074  29.785  30.026  1.00  0.00     0.074 A 
ATOM     45  C   UNL A   1      48.175  27.157  29.150  1.00  0.00     0.029 A 
ATOM     46  N   UNL A   1      46.428  28.478  28.814  1.00  0.00    -0.354 N 
ATOM     47  N   UNL A   1      42.982  29.374  30.905  1.00  0.00    -0.248 NA
ATOM     48  C   UNL A   1      42.519  29.980  28.642  1.00  0.00     0.031 C 
ATOM     49  C   UNL A   1      47.086  26.672  29.896  1.00  0.00     0.029 A 
ATOM     50  C   UNL A   1      46.022  27.539  29.712  1.00  0.00     0.049 A 
ATOM     51  H   UNL A   1      45.859  29.196  28.451  1.00  0.00     0.167 HD
ATOM     52  C   UNL A   1      44.058  28.887  30.133  1.00  0.00     0.074 A 
ATOM     53  C   UNL A   1      43.738  29.430  28.728  1.00  0.00     0.031 C 
ATOM     54  C   UNL A   1      44.768  27.684  30.375  1.00  0.00     0.031 A 
BRANCH  41  55
ATOM     55  C   UNL A   1      48.251  30.223  26.897  1.00  0.00    -0.014 A 
ATOM     56  C   UNL A   1      49.590  30.597  26.841  1.00  0.00     0.010 A 
ATOM     57  C   UNL A   1      47.260  31.236  26.830  1.00  0.00     0.010 A 
ATOM     58  C   UNL A   1      49.960  31.933  26.828  1.00  0.00     0.020 A 
ATOM     59  C   UNL A   1      47.629  32.590  26.725  1.00  0.00     0.020 A 
ATOM     60  C   UNL A   1      48.984  32.925  26.722  1.00  0.00     0.054 A 
BRANCH  60  61
ATOM     61  S   UNL A   1      49.536  34.638  26.467  1.00  0.00     0.124 S 
ATOM     62  O   UNL A   1      50.910  34.610  26.960  1.00  0.00    -0.237 OA
ATOM     63  O   UNL A   1      49.392  34.790  25.021  1.00  0.00    -0.237 OA
ATOM     64  O   UNL A   1      48.599  35.427  27.262  1.00  0.00    -0.744 OA
ENDBRANCH  60  61
ENDBRANCH  41  55
BRANCH  42  65
ATOM     65  C   UNL A   1      39.432  30.051  29.387  1.00  0.00    -0.014 A 
ATOM     66  C   UNL A   1      38.541  29.505  28.419  1.00  0.00     0.010 A 
ATOM     67  C   UNL A   1      39.064  31.339  29.850  1.00  0.00     0.010 A 
ATOM     68  C   UNL A   1      37.345  30.187  28.010  1.00  0.00     0.020 A 
ATOM     69  C   UNL A   1      37.858  31.989  29.511  1.00  0.00     0.020 A 
ATOM     70  C   UNL A   1      36.973  31.389  28.624  1.00  0.00     0.054 A 
BRANCH  70  71
ATOM     71  S   UNL A   1      35.290  32.082  28.381  1.00  0.00     0.124 S 
ATOM     72  O   UNL A   1      35.533  33.232  27.515  1.00  0.00    -0.237 OA
ATOM     73  O   UNL A   1      34.575  30.970  27.761  1.00  0.00    -0.237 OA
ATOM     74  O   UNL A   1      34.849  32.414  29.736  1.00  0.00    -0.744 OA
ENDBRANCH  70  71
ENDBRANCH  42  65
BRANCH  54  75
ATOM     75  C   UNL A   1      44.483  26.557  31.469  1.00  0.00    -0.014 A 
ATOM     76  C   UNL A   1      44.535  25.130  31.322  1.00  0.00     0.010 A 
ATOM     77  C   UNL A   1      44.256  26.982  32.773  1.00  0.00     0.010 A 
ATOM     78  C   UNL A   1      44.067  24.226  32.297  1.00  0.00     0.020 A 
ATOM     79  C   UNL A   1      43.937  26.082  33.810  1.00  0.00     0.020 A 
ATOM     80  C   UNL A   1      43.812  24.712  33.567  1.00  0.00     0.054 A 
BRANCH  80  81
ATOM     81  S   UNL A   1      43.471  23.536  34.914  1.00  0.00     0.124 S 
ATOM     82  O   UNL A   1      44.249  24.079  36.025  1.00  0.00    -0.237 OA
ATOM     83  O   UNL A   1      42.021  23.632  35.065  1.00  0.00    -0.237 OA
ATOM     84  O   UNL A   1      43.949  22.261  34.385  1.00  0.00    -0.744 OA
ENDBRANCH  80  81
ENDBRANCH  54  75
ENDBRANCH  28  29
ENDBRANCH  21  23
ENDBRANCH  20  21
ENDBRANCH  19  20
ENDBRANCH   1  19
TORSDOF 17
ENDMDL
MODEL 2
REMARK VINA RESULT:     -10.1      7.447     14.481
REMARK SMILES COc1ncccc1Cn1ccc(C(=O)OCCOC(=O)c2ccc(-c3c4nc(c(-c5ccc(S(=O)(=O)[O-])cc5)c5ccc([nH]5)c(-c5ccc(S(=O)(=O)[O-])cc5)c5nc(c(-c6ccc(S(=O)(=O)[O-])cc6)c6ccc3[nH]6)C=C5)C=C4)cc2)n1
REMARK SMILES IDX 17 1 16 2 14 3 15 4 13 5 10 6 11 7 82 8 12 9 9 10 8 11 3 12
REMARK SMILES IDX 4 13 5 14 7 15 6 16 2 17 1 18 18 19 19 20 20 21 21 22 22 23
REMARK SMILES IDX 23 24 81 25 24 26 80 27 25 28 26 29 27 30 74 31 28 32 79 33
REMARK SMILES IDX 73 34 75 35 29 36 78 37 72 38 71 39 30 41 60 42 41 43 59 44
REMARK SMILES IDX 42 45 45 46 58 47 76 48 43 49 44 50 57 52 77 53 46 54 31 55
REMARK SMILES IDX 32 56 40 57 33 58 39 59 34 60 35 61 36 62 37 63 38 64 61 65
REMARK SMILES IDX 62 66 70 67 63 68 69 69 64 70 65 71 66 72 67 73 68 74 47 75
REMARK SMILES IDX 48 76 56 77 49 78 55 79 50 80 51 81 52 82 53 83 54 84
REMARK H PARENT 75 40 45 51
REMARK Flexibility Score: inf
ROOT
ATOM      1  C   UNL A   1      42.477  39.990  27.651  1.00  0.00     0.275 C 
ENDROOT
BRANCH   1   2
ATOM      2  O   UNL A   1      42.875  40.187  26.303  1.00  0.00    -0.457 OA
BRANCH   2   3
ATOM      3  C   UNL A   1      42.040  40.995  25.615  1.00  0.00     0.358 C 
ATOM      4  O   UNL A   1      40.846  41.175  25.858  1.00  0.00    -0.244 OA
BRANCH   3   5
ATOM      5  C   UNL A   1      42.743  41.782  24.639  1.00  0.00     0.170 A 
ATOM      6  N   UNL A   1      43.249  42.934  22.933  1.00  0.00    -0.267 N 
ATOM      7  C   UNL A   1      43.661  43.557  24.064  1.00  0.00     0.110 A 
ATOM      8  N   UNL A   1      42.488  41.871  23.311  1.00  0.00    -0.165 NA
ATOM      9  C   UNL A   1      43.760  42.628  25.019  1.00  0.00     0.057 A 
BRANCH   6  10
ATOM     10  C   UNL A   1      43.275  43.345  21.503  1.00  0.00     0.185 C 
BRANCH  10  11
ATOM     11  C   UNL A   1      44.646  43.439  20.835  1.00  0.00     0.036 A 
ATOM     12  C   UNL A   1      45.670  42.465  20.865  1.00  0.00     0.218 A 
ATOM     13  N   UNL A   1      46.802  42.524  20.139  1.00  0.00    -0.222 NA
ATOM     14  C   UNL A   1      47.053  43.659  19.480  1.00  0.00     0.115 A 
ATOM     15  C   UNL A   1      45.010  44.648  20.216  1.00  0.00     0.013 A 
ATOM     16  C   UNL A   1      46.232  44.765  19.549  1.00  0.00     0.021 A 
BRANCH  12  17
ATOM     17  O   UNL A   1      45.786  41.463  21.797  1.00  0.00    -0.481 OA
ATOM     18  C   UNL A   1      46.756  41.835  22.699  1.00  0.00     0.280 C 
ENDBRANCH  12  17
ENDBRANCH  10  11
ENDBRANCH   6  10
ENDBRANCH   3   5
ENDBRANCH   2   3
ENDBRANCH   1   2
BRANCH   1  19
ATOM     19  C   UNL A   1      41.887  38.600  27.908  1.00  0.00     0.275 C 
BRANCH  19  20
ATOM     20  O   UNL A   1      42.885  37.581  27.942  1.00  0.00    -0.458 OA
BRANCH  20  21
ATOM     21  C   UNL A   1      42.483  36.352  28.330  1.00  0.00     0.338 C 
ATOM     22  O   UNL A   1      41.440  35.788  28.053  1.00  0.00    -0.246 OA
BRANCH  21  23
ATOM     23  C   UNL A   1      43.595  35.817  29.147  1.00  0.00     0.060 A 
ATOM     24  C   UNL A   1      44.290  34.802  28.624  1.00  0.00     0.016 A 
ATOM     25  C   UNL A   1      43.232  35.565  30.466  1.00  0.00     0.016 A 
ATOM     26  C   UNL A   1      43.899  33.504  29.253  1.00  0.00     0.010 A 
ATOM     27  C   UNL A   1      43.413  34.293  31.081  1.00  0.00     0.010 A 
ATOM     28  C   UNL A   1      42.962  33.108  30.455  1.00  0.00    -0.014 A 
BRANCH  28  29
ATOM     29  C   UNL A   1      41.822  32.648  31.906  1.00  0.00     0.031 A 
ATOM     30  C   UNL A   1      43.064  31.111  31.680  1.00  0.00     0.074 A 
ATOM     31  C   UNL A   1      40.362  33.115  32.779  1.00  0.00     0.049 A 
ATOM     32  N   UNL A   1      43.159  30.317  30.581  1.00  0.00    -0.248 NA
ATOM     33  C   UNL A   1      44.854  30.757  31.946  1.00  0.00     0.031 C 
ATOM     34  C   UNL A   1      39.108  34.400  33.391  1.00  0.00     0.029 A 
ATOM     35  N   UNL A   1      39.158  32.383  33.622  1.00  0.00    -0.354 N 
ATOM     36  C   UNL A   1      43.906  29.138  30.998  1.00  0.00     0.074 A 
ATOM     37  C   UNL A   1      45.092  29.454  31.659  1.00  0.00     0.031 C 
ATOM     38  C   UNL A   1      38.311  34.197  34.626  1.00  0.00     0.029 A 
ATOM     39  C   UNL A   1      38.447  32.842  34.870  1.00  0.00     0.049 A 
ATOM     40  H   UNL A   1      38.856  31.518  33.260  1.00  0.00     0.167 HD
ATOM     41  C   UNL A   1      43.237  28.057  31.435  1.00  0.00     0.031 A 
ATOM     42  C   UNL A   1      38.171  32.167  36.051  1.00  0.00     0.031 A 
ATOM     43  C   UNL A   1      41.895  28.282  31.059  1.00  0.00     0.049 A 
ATOM     44  C   UNL A   1      38.705  30.902  35.488  1.00  0.00     0.074 A 
ATOM     45  C   UNL A   1      41.362  28.527  29.814  1.00  0.00     0.029 A 
ATOM     46  N   UNL A   1      41.183  28.994  31.972  1.00  0.00    -0.354 N 
ATOM     47  N   UNL A   1      38.144  30.289  34.451  1.00  0.00    -0.248 NA
ATOM     48  C   UNL A   1      40.166  30.833  35.600  1.00  0.00     0.031 C 
ATOM     49  C   UNL A   1      40.287  29.413  30.001  1.00  0.00     0.029 A 
ATOM     50  C   UNL A   1      40.161  29.652  31.359  1.00  0.00     0.049 A 
ATOM     51  H   UNL A   1      41.377  29.028  32.938  1.00  0.00     0.167 HD
ATOM     52  C   UNL A   1      39.196  30.052  33.542  1.00  0.00     0.074 A 
ATOM     53  C   UNL A   1      40.448  30.304  34.401  1.00  0.00     0.031 C 
ATOM     54  C   UNL A   1      39.139  30.267  32.141  1.00  0.00     0.031 A 
BRANCH  41  55
ATOM     55  C   UNL A   1      43.657  27.082  32.484  1.00  0.00    -0.014 A 
ATOM     56  C   UNL A   1      44.309  25.979  31.942  1.00  0.00     0.010 A 
ATOM     57  C   UNL A   1      43.326  27.064  33.864  1.00  0.00     0.010 A 
ATOM     58  C   UNL A   1      44.539  24.840  32.699  1.00  0.00     0.020 A 
ATOM     59  C   UNL A   1      43.638  25.946  34.658  1.00  0.00     0.020 A 
ATOM     60  C   UNL A   1      44.248  24.840  34.063  1.00  0.00     0.054 A 
BRANCH  60  61
ATOM     61  S   UNL A   1      44.791  23.412  35.049  1.00  0.00     0.124 S 
ATOM     62  O   UNL A   1      43.924  22.341  34.568  1.00  0.00    -0.237 OA
ATOM     63  O   UNL A   1      46.198  23.300  34.669  1.00  0.00    -0.237 OA
ATOM     64  O   UNL A   1      44.562  23.836  36.428  1.00  0.00    -0.744 OA
ENDBRANCH  60  61
ENDBRANCH  41  55
BRANCH  42  65
ATOM     65  C   UNL A   1      38.480  32.774  37.464  1.00  0.00    -0.014 A 
ATOM     66  C   UNL A   1      39.520  33.672  37.838  1.00  0.00     0.010 A 
ATOM     67  C   UNL A   1      37.541  32.516  38.494  1.00  0.00     0.010 A 
ATOM     68  C   UNL A   1      39.560  34.302  39.128  1.00  0.00     0.020 A 
ATOM     69  C   UNL A   1      37.527  33.181  39.740  1.00  0.00     0.020 A 
ATOM     70  C   UNL A   1      38.513  34.112  40.038  1.00  0.00     0.054 A 
BRANCH  70  71
ATOM     71  S   UNL A   1      38.363  35.178  41.527  1.00  0.00     0.124 S 
ATOM     72  O   UNL A   1      39.511  34.775  42.333  1.00  0.00    -0.237 OA
ATOM     73  O   UNL A   1      38.434  36.523  40.962  1.00  0.00    -0.237 OA
ATOM     74  O   UNL A   1      37.060  34.816  42.085  1.00  0.00    -0.744 OA
ENDBRANCH  70  71
ENDBRANCH  42  65
BRANCH  54  75
ATOM     75  C   UNL A   1      37.962  30.910  31.275  1.00  0.00    -0.014 A 
ATOM     76  C   UNL A   1      36.545  30.820  31.482  1.00  0.00     0.010 A 
ATOM     77  C   UNL A   1      38.328  31.762  30.240  1.00  0.00     0.010 A 
ATOM     78  C   UNL A   1      35.588  31.255  30.543  1.00  0.00     0.020 A 
ATOM     79  C   UNL A   1      37.378  32.341  29.374  1.00  0.00     0.020 A 
ATOM     80  C   UNL A   1      36.015  32.064  29.505  1.00  0.00     0.054 A 
BRANCH  80  81
ATOM     81  S   UNL A   1      34.777  32.863  28.437  1.00  0.00     0.124 S 
ATOM     82  O   UNL A   1      34.014  33.681  29.376  1.00  0.00    -0.237 OA
ATOM     83  O   UNL A   1      35.603  33.611  27.491  1.00  0.00    -0.237 OA
ATOM     84  O   UNL A   1      34.047  31.738  27.857  1.00  0.00    -0.744 OA
ENDBRANCH  80  81
ENDBRANCH  54  75
ENDBRANCH  28  29
ENDBRANCH  21  23
ENDBRANCH  20  21
ENDBRANCH  19  20
ENDBRANCH   1  19
TORSDOF 17
ENDMDL
MODEL 3
REMARK VINA RESULT:     -10.1      4.618      6.265
REMARK SMILES COc1ncccc1Cn1ccc(C(=O)OCCOC(=O)c2ccc(-c3c4nc(c(-c5ccc(S(=O)(=O)[O-])cc5)c5ccc([nH]5)c(-c5ccc(S(=O)(=O)[O-])cc5)c5nc(c(-c6ccc(S(=O)(=O)[O-])cc6)c6ccc3[nH]6)C=C5)C=C4)cc2)n1
REMARK SMILES IDX 17 1 16 2 14 3 15 4 13 5 10 6 11 7 82 8 12 9 9 10 8 11 3 12
REMARK SMILES IDX 4 13 5 14 7 15 6 16 2 17 1 18 18 19 19 20 20 21 21 22 22 23
REMARK SMILES IDX 23 24 81 25 24 26 80 27 25 28 26 29 27 30 74 31 28 32 79 33
REMARK SMILES IDX 73 34 75 35 29 36 78 37 72 38 71 39 30 41 60 42 41 43 59 44
REMARK SMILES IDX 42 45 45 46 58 47 76 48 43 49 44 50 57 52 77 53 46 54 31 55
REMARK SMILES IDX 32 56 40 57 33 58 39 59 34 60 35 61 36 62 37 63 38 64 61 65
REMARK SMILES IDX 62 66 70 67 63 68 69 69 64 70 65 71 66 72 67 73 68 74 47 75
REMARK SMILES IDX 48 76 56 77 49 78 55 79 50 80 51 81 52 82 53 83 54 84
REMARK H PARENT 75 40 45 51
REMARK Flexibility Score: inf
ROOT
ATOM      1  C   UNL A   1      46.060  25.635  29.080  1.00  0.00     0.275 C 
ENDROOT
BRANCH   1   2
ATOM      2  O   UNL A   1      46.049  25.603  27.662  1.00  0.00    -0.457 OA
BRANCH   2   3
ATOM      3  C   UNL A   1      46.747  24.567  27.148  1.00  0.00     0.358 C 
ATOM      4  O   UNL A   1      47.908  24.267  27.432  1.00  0.00    -0.244 OA
BRANCH   3   5
ATOM      5  C   UNL A   1      45.922  23.719  26.333  1.00  0.00     0.170 A 
ATOM      6  N   UNL A   1      44.277  22.697  25.469  1.00  0.00    -0.267 N 
ATOM      7  C   UNL A   1      45.039  23.267  24.504  1.00  0.00     0.110 A 
ATOM      8  N   UNL A   1      44.742  23.142  26.669  1.00  0.00    -0.165 NA
ATOM      9  C   UNL A   1      46.255  23.467  25.021  1.00  0.00     0.057 A 
BRANCH   6  10
ATOM     10  C   UNL A   1      42.988  21.957  25.414  1.00  0.00     0.185 C 
BRANCH  10  11
ATOM     11  C   UNL A   1      43.000  20.509  25.903  1.00  0.00     0.036 A 
ATOM     12  C   UNL A   1      43.684  19.423  25.312  1.00  0.00     0.218 A 
ATOM     13  N   UNL A   1      43.790  18.197  25.859  1.00  0.00    -0.222 NA
ATOM     14  C   UNL A   1      43.056  17.942  26.946  1.00  0.00     0.115 A 
ATOM     15  C   UNL A   1      42.165  20.155  26.978  1.00  0.00     0.013 A 
ATOM     16  C   UNL A   1      42.180  18.857  27.492  1.00  0.00     0.021 A 
BRANCH  12  17
ATOM     17  O   UNL A   1      44.122  19.372  24.011  1.00  0.00    -0.481 OA
ATOM     18  C   UNL A   1      45.488  19.532  24.017  1.00  0.00     0.280 C 
ENDBRANCH  12  17
ENDBRANCH  10  11
ENDBRANCH   6  10
ENDBRANCH   3   5
ENDBRANCH   2   3
ENDBRANCH   1   2
BRANCH   1  19
ATOM     19  C   UNL A   1      45.019  24.705  29.712  1.00  0.00     0.275 C 
BRANCH  19  20
ATOM     20  O   UNL A   1      43.684  25.178  29.531  1.00  0.00    -0.458 OA
BRANCH  20  21
ATOM     21  C   UNL A   1      42.764  24.263  29.158  1.00  0.00     0.338 C 
ATOM     22  O   UNL A   1      42.625  23.131  29.583  1.00  0.00    -0.246 OA
BRANCH  21  23
ATOM     23  C   UNL A   1      41.935  24.938  28.135  1.00  0.00     0.060 A 
ATOM     24  C   UNL A   1      42.586  25.555  27.144  1.00  0.00     0.016 A 
ATOM     25  C   UNL A   1      40.946  25.750  28.682  1.00  0.00     0.016 A 
ATOM     26  C   UNL A   1      42.602  27.034  27.351  1.00  0.00     0.010 A 
ATOM     27  C   UNL A   1      40.813  27.128  28.346  1.00  0.00     0.010 A 
ATOM     28  C   UNL A   1      41.923  28.001  28.392  1.00  0.00    -0.014 A 
BRANCH  28  29
ATOM     29  C   UNL A   1      41.099  29.154  29.661  1.00  0.00     0.031 A 
ATOM     30  C   UNL A   1      42.575  30.209  28.845  1.00  0.00     0.074 A 
ATOM     31  C   UNL A   1      39.932  29.222  30.982  1.00  0.00     0.049 A 
ATOM     32  N   UNL A   1      43.900  29.914  28.918  1.00  0.00    -0.248 NA
ATOM     33  C   UNL A   1      42.957  30.980  27.215  1.00  0.00     0.031 C 
ATOM     34  C   UNL A   1      38.380  28.614  31.887  1.00  0.00     0.029 A 
ATOM     35  N   UNL A   1      39.701  30.083  32.362  1.00  0.00    -0.354 N 
ATOM     36  C   UNL A   1      44.605  31.123  28.511  1.00  0.00     0.074 A 
ATOM     37  C   UNL A   1      44.135  31.645  27.307  1.00  0.00     0.031 C 
ATOM     38  C   UNL A   1      37.571  29.508  32.751  1.00  0.00     0.029 A 
ATOM     39  C   UNL A   1      38.416  30.581  32.974  1.00  0.00     0.049 A 
ATOM     40  H   UNL A   1      40.520  30.306  32.861  1.00  0.00     0.167 HD
ATOM     41  C   UNL A   1      44.987  32.008  29.448  1.00  0.00     0.031 A 
ATOM     42  C   UNL A   1      38.074  31.838  33.453  1.00  0.00     0.031 A 
ATOM     43  C   UNL A   1      44.848  31.322  30.675  1.00  0.00     0.049 A 
ATOM     44  C   UNL A   1      39.457  32.330  33.241  1.00  0.00     0.074 A 
ATOM     45  C   UNL A   1      45.410  30.135  31.085  1.00  0.00     0.029 A 
ATOM     46  N   UNL A   1      43.602  31.410  31.213  1.00  0.00    -0.354 N 
ATOM     47  N   UNL A   1      40.499  31.839  33.904  1.00  0.00    -0.248 NA
ATOM     48  C   UNL A   1      39.679  32.742  31.850  1.00  0.00     0.031 C 
ATOM     49  C   UNL A   1      44.461  29.499  31.905  1.00  0.00     0.029 A 
ATOM     50  C   UNL A   1      43.360  30.334  32.011  1.00  0.00     0.049 A 
ATOM     51  H   UNL A   1      42.967  32.146  31.050  1.00  0.00     0.167 HD
ATOM     52  C   UNL A   1      41.454  31.517  32.916  1.00  0.00     0.074 A 
ATOM     53  C   UNL A   1      40.909  32.241  31.672  1.00  0.00     0.031 C 
ATOM     54  C   UNL A   1      42.221  30.325  32.868  1.00  0.00     0.031 A 
BRANCH  41  55
ATOM     55  C   UNL A   1      45.067  33.493  29.327  1.00  0.00    -0.014 A 
ATOM     56  C   UNL A   1      44.022  34.129  29.988  1.00  0.00     0.010 A 
ATOM     57  C   UNL A   1      45.929  34.273  28.512  1.00  0.00     0.010 A 
ATOM     58  C   UNL A   1      43.754  35.473  29.778  1.00  0.00     0.020 A 
ATOM     59  C   UNL A   1      45.716  35.655  28.367  1.00  0.00     0.020 A 
ATOM     60  C   UNL A   1      44.625  36.245  29.009  1.00  0.00     0.054 A 
BRANCH  60  61
ATOM     61  S   UNL A   1      44.358  38.043  28.967  1.00  0.00     0.124 S 
ATOM     62  O   UNL A   1      45.624  38.543  28.439  1.00  0.00    -0.237 OA
ATOM     63  O   UNL A   1      43.213  38.157  28.066  1.00  0.00    -0.237 OA
ATOM     64  O   UNL A   1      44.079  38.384  30.360  1.00  0.00    -0.744 OA
ENDBRANCH  60  61
ENDBRANCH  41  55
BRANCH  42  65
ATOM     65  C   UNL A   1      36.742  32.564  33.048  1.00  0.00    -0.014 A 
ATOM     66  C   UNL A   1      35.765  33.162  33.893  1.00  0.00     0.010 A 
ATOM     67  C   UNL A   1      36.525  32.783  31.665  1.00  0.00     0.010 A 
ATOM     68  C   UNL A   1      34.695  33.969  33.373  1.00  0.00     0.020 A 
ATOM     69  C   UNL A   1      35.522  33.629  31.144  1.00  0.00     0.020 A 
ATOM     70  C   UNL A   1      34.634  34.262  32.005  1.00  0.00     0.054 A 
BRANCH  70  71
ATOM     71  S   UNL A   1      33.506  35.568  31.378  1.00  0.00     0.124 S 
ATOM     72  O   UNL A   1      34.021  36.777  32.014  1.00  0.00    -0.237 OA
ATOM     73  O   UNL A   1      33.701  35.489  29.933  1.00  0.00    -0.237 OA
ATOM     74  O   UNL A   1      32.186  35.142  31.842  1.00  0.00    -0.744 OA
ENDBRANCH  70  71
ENDBRANCH  42  65
BRANCH  54  75
ATOM     75  C   UNL A   1      42.133  29.041  33.813  1.00  0.00    -0.014 A 
ATOM     76  C   UNL A   1      42.418  27.671  33.493  1.00  0.00     0.010 A 
ATOM     77  C   UNL A   1      41.850  29.259  35.156  1.00  0.00     0.010 A 
ATOM     78  C   UNL A   1      42.113  26.590  34.344  1.00  0.00     0.020 A 
ATOM     79  C   UNL A   1      41.692  28.200  36.071  1.00  0.00     0.020 A 
ATOM     80  C   UNL A   1      41.792  26.868  35.661  1.00  0.00     0.054 A 
BRANCH  80  81
ATOM     81  S   UNL A   1      41.660  25.496  36.849  1.00  0.00     0.124 S 
ATOM     82  O   UNL A   1      41.404  24.343  35.989  1.00  0.00    -0.237 OA
ATOM     83  O   UNL A   1      42.968  25.506  37.501  1.00  0.00    -0.237 OA
ATOM     84  O   UNL A   1      40.545  25.892  37.707  1.00  0.00    -0.744 OA
ENDBRANCH  80  81
ENDBRANCH  54  75
ENDBRANCH  28  29
ENDBRANCH  21  23
ENDBRANCH  20  21
ENDBRANCH  19  20
ENDBRANCH   1  19
TORSDOF 17
ENDMDL
