MODEL 1
REMARK VINA RESULT:     -10.8      0.000      0.000
REMARK SMILES COc1ccc(CNC(=O)[C@H]2CC(C)=C(C)C[C@@H]2C(=O)OCCOC(=O)c2ccc(-c3c4nc(c(-c5ccc(S(=O)(=O)[O-])cc5)c5ccc([nH]5)c(-c5ccc(S(=O)(=O)[O-])cc5)c5nc(c(-c6ccc(S(=O)(=O)[O-])cc6)c6ccc3[nH]6)C=C5)C=C4)cc2)cc1OC
REMARK SMILES IDX 22 1 21 2 19 3 20 4 18 5 11 6 12 7 13 8 17 9 14 10 15 11
REMARK SMILES IDX 16 12 9 13 8 14 10 16 7 17 6 18 3 19 4 20 88 21 5 22 87 23
REMARK SMILES IDX 2 24 1 25 89 26 90 27 23 28 24 29 25 30 26 31 27 32 28 33
REMARK SMILES IDX 86 34 29 35 85 36 30 37 31 38 32 39 79 40 33 41 84 42 78 43
REMARK SMILES IDX 80 44 34 45 83 46 77 47 76 48 35 50 65 51 46 52 64 53 47 54
REMARK SMILES IDX 50 55 63 56 81 57 48 58 49 59 62 61 82 62 51 63 36 64 37 65
REMARK SMILES IDX 45 66 38 67 44 68 39 69 40 70 41 71 42 72 43 73 66 74 67 75
REMARK SMILES IDX 75 76 68 77 74 78 69 79 70 80 71 81 72 82 73 83 52 84 53 85
REMARK SMILES IDX 61 86 54 87 60 88 55 89 56 90 57 91 58 92 59 93
REMARK H PARENT 8 15 80 49 50 60
REMARK Flexibility Score: inf
ROOT
ATOM      1  C   UNL A   1      33.445  29.989  27.208  1.00  0.00     0.274 C 
ENDROOT
BRANCH   1   2
ATOM      2  O   UNL A   1      33.690  28.786  26.449  1.00  0.00    -0.462 OA
BRANCH   2   3
ATOM      3  C   UNL A   1      33.105  28.755  25.225  1.00  0.00     0.310 C 
ATOM      4  O   UNL A   1      32.531  29.714  24.717  1.00  0.00    -0.252 OA
BRANCH   3   5
ATOM      5  C   UNL A   1      33.088  27.387  24.556  1.00  0.00     0.116 C 
ATOM      6  C   UNL A   1      31.838  26.990  23.777  1.00  0.00     0.097 C 
ATOM      7  C   UNL A   1      30.796  26.272  24.652  1.00  0.00     0.045 C 
ATOM      8  C   UNL A   1      31.360  25.170  25.512  1.00  0.00    -0.074 C 
ATOM      9  C   UNL A   1      33.588  26.315  25.549  1.00  0.00     0.046 C 
ATOM     10  C   UNL A   1      30.371  24.094  25.880  1.00  0.00     0.039 C 
ATOM     11  C   UNL A   1      32.643  25.197  25.922  1.00  0.00    -0.073 C 
ATOM     12  C   UNL A   1      33.247  24.130  26.802  1.00  0.00     0.039 C 
BRANCH   6  13
ATOM     13  C   UNL A   1      31.984  26.203  22.464  1.00  0.00     0.224 C 
ATOM     14  N   UNL A   1      32.756  25.118  22.233  1.00  0.00    -0.352 N 
ATOM     15  H   UNL A   1      32.407  24.559  21.501  1.00  0.00     0.163 HD
ATOM     16  O   UNL A   1      31.274  26.539  21.504  1.00  0.00    -0.275 OA
BRANCH  14  17
ATOM     17  C   UNL A   1      33.974  24.581  22.804  1.00  0.00     0.151 C 
BRANCH  17  18
ATOM     18  C   UNL A   1      33.843  23.187  23.354  1.00  0.00    -0.025 A 
ATOM     19  C   UNL A   1      33.655  20.670  24.609  1.00  0.00     0.160 A 
ATOM     20  C   UNL A   1      32.576  21.188  23.877  1.00  0.00     0.051 A 
ATOM     21  C   UNL A   1      34.843  21.401  24.708  1.00  0.00     0.161 A 
ATOM     22  C   UNL A   1      32.662  22.444  23.268  1.00  0.00     0.009 A 
ATOM     23  C   UNL A   1      34.917  22.652  24.083  1.00  0.00     0.056 A 
BRANCH  19  24
ATOM     24  O   UNL A   1      33.557  19.413  25.144  1.00  0.00    -0.493 OA
ATOM     25  C   UNL A   1      34.043  18.410  24.250  1.00  0.00     0.278 C 
ENDBRANCH  19  24
BRANCH  21  26
ATOM     26  O   UNL A   1      36.006  21.064  25.347  1.00  0.00    -0.493 OA
ATOM     27  C   UNL A   1      37.233  21.316  24.678  1.00  0.00     0.278 C 
ENDBRANCH  21  26
ENDBRANCH  17  18
ENDBRANCH  14  17
ENDBRANCH   6  13
ENDBRANCH   3   5
ENDBRANCH   2   3
ENDBRANCH   1   2
BRANCH   1  28
ATOM     28  C   UNL A   1      34.726  30.543  27.825  1.00  0.00     0.275 C 
BRANCH  28  29
ATOM     29  O   UNL A   1      35.705  29.500  27.963  1.00  0.00    -0.458 OA
BRANCH  29  30
ATOM     30  C   UNL A   1      36.598  29.666  28.965  1.00  0.00     0.338 C 
ATOM     31  O   UNL A   1      36.383  30.181  30.053  1.00  0.00    -0.246 OA
BRANCH  30  32
ATOM     32  C   UNL A   1      37.918  29.111  28.598  1.00  0.00     0.060 A 
ATOM     33  C   UNL A   1      38.641  28.335  29.499  1.00  0.00     0.016 A 
ATOM     34  C   UNL A   1      38.513  29.499  27.400  1.00  0.00     0.016 A 
ATOM     35  C   UNL A   1      40.000  28.092  29.281  1.00  0.00     0.010 A 
ATOM     36  C   UNL A   1      39.838  29.136  27.124  1.00  0.00     0.010 A 
ATOM     37  C   UNL A   1      40.630  28.490  28.091  1.00  0.00    -0.014 A 
BRANCH  37  38
ATOM     38  C   UNL A   1      42.107  28.316  27.882  1.00  0.00     0.031 A 
ATOM     39  C   UNL A   1      43.073  29.400  28.323  1.00  0.00     0.074 A 
ATOM     40  C   UNL A   1      42.626  27.199  27.327  1.00  0.00     0.049 A 
ATOM     41  N   UNL A   1      44.334  29.564  28.007  1.00  0.00    -0.248 NA
ATOM     42  C   UNL A   1      42.544  30.450  29.210  1.00  0.00     0.031 C 
ATOM     43  C   UNL A   1      41.870  26.026  26.888  1.00  0.00     0.029 A 
ATOM     44  N   UNL A   1      43.934  26.860  27.058  1.00  0.00    -0.354 N 
ATOM     45  C   UNL A   1      44.709  30.790  28.552  1.00  0.00     0.074 A 
ATOM     46  C   UNL A   1      43.552  31.310  29.247  1.00  0.00     0.031 C 
ATOM     47  C   UNL A   1      42.724  25.067  26.497  1.00  0.00     0.029 A 
ATOM     48  C   UNL A   1      44.083  25.596  26.539  1.00  0.00     0.049 A 
ATOM     49  H   UNL A   1      44.691  27.467  27.224  1.00  0.00     0.167 HD
ATOM     50  C   UNL A   1      45.901  31.432  28.467  1.00  0.00     0.031 A 
ATOM     51  C   UNL A   1      45.176  24.938  26.103  1.00  0.00     0.031 A 
ATOM     52  C   UNL A   1      47.088  30.871  27.878  1.00  0.00     0.049 A 
ATOM     53  C   UNL A   1      46.502  25.640  26.068  1.00  0.00     0.074 A 
ATOM     54  C   UNL A   1      48.346  31.443  27.761  1.00  0.00     0.029 A 
ATOM     55  N   UNL A   1      47.183  29.595  27.349  1.00  0.00    -0.354 N 
ATOM     56  N   UNL A   1      46.802  26.853  26.462  1.00  0.00    -0.248 NA
ATOM     57  C   UNL A   1      47.630  24.892  25.493  1.00  0.00     0.031 C 
ATOM     58  C   UNL A   1      49.196  30.516  27.145  1.00  0.00     0.029 A 
ATOM     59  C   UNL A   1      48.474  29.357  26.912  1.00  0.00     0.049 A 
ATOM     60  H   UNL A   1      46.439  28.952  27.291  1.00  0.00     0.167 HD
ATOM     61  C   UNL A   1      48.150  27.020  26.168  1.00  0.00     0.074 A 
ATOM     62  C   UNL A   1      48.616  25.772  25.600  1.00  0.00     0.031 C 
ATOM     63  C   UNL A   1      48.927  28.118  26.337  1.00  0.00     0.031 A 
BRANCH  50  64
ATOM     64  C   UNL A   1      45.967  32.847  28.979  1.00  0.00    -0.014 A 
ATOM     65  C   UNL A   1      46.405  33.152  30.278  1.00  0.00     0.010 A 
ATOM     66  C   UNL A   1      45.617  33.898  28.109  1.00  0.00     0.010 A 
ATOM     67  C   UNL A   1      46.451  34.482  30.712  1.00  0.00     0.020 A 
ATOM     68  C   UNL A   1      45.684  35.228  28.531  1.00  0.00     0.020 A 
ATOM     69  C   UNL A   1      46.083  35.510  29.838  1.00  0.00     0.054 A 
BRANCH  69  70
ATOM     70  S   UNL A   1      46.166  37.230  30.413  1.00  0.00     0.124 S 
ATOM     71  O   UNL A   1      45.782  37.966  29.212  1.00  0.00    -0.237 OA
ATOM     72  O   UNL A   1      45.193  37.256  31.502  1.00  0.00    -0.237 OA
ATOM     73  O   UNL A   1      47.558  37.389  30.825  1.00  0.00    -0.744 OA
ENDBRANCH  69  70
ENDBRANCH  50  64
BRANCH  51  74
ATOM     74  C   UNL A   1      45.049  23.538  25.614  1.00  0.00    -0.014 A 
ATOM     75  C   UNL A   1      44.685  23.285  24.280  1.00  0.00     0.010 A 
ATOM     76  C   UNL A   1      45.325  22.454  26.467  1.00  0.00     0.010 A 
ATOM     77  C   UNL A   1      44.606  21.973  23.804  1.00  0.00     0.020 A 
ATOM     78  C   UNL A   1      45.276  21.143  25.988  1.00  0.00     0.020 A 
ATOM     79  C   UNL A   1      44.910  20.911  24.660  1.00  0.00     0.054 A 
BRANCH  79  80
ATOM     80  S   UNL A   1      44.907  19.218  24.005  1.00  0.00     0.124 S 
ATOM     81  O   UNL A   1      44.498  19.431  22.620  1.00  0.00    -0.237 OA
ATOM     82  O   UNL A   1      46.291  18.795  24.200  1.00  0.00    -0.237 OA
ATOM     83  O   UNL A   1      43.932  18.534  24.851  1.00  0.00    -0.744 OA
ENDBRANCH  79  80
ENDBRANCH  51  74
BRANCH  63  84
ATOM     84  C   UNL A   1      50.365  28.006  25.914  1.00  0.00    -0.014 A 
ATOM     85  C   UNL A   1      50.743  28.248  24.580  1.00  0.00     0.010 A 
ATOM     86  C   UNL A   1      51.347  27.658  26.857  1.00  0.00     0.010 A 
ATOM     87  C   UNL A   1      52.076  28.098  24.188  1.00  0.00     0.020 A 
ATOM     88  C   UNL A   1      52.683  27.525  26.472  1.00  0.00     0.020 A 
ATOM     89  C   UNL A   1      53.036  27.726  25.135  1.00  0.00     0.054 A 
BRANCH  89  90
ATOM     90  S   UNL A   1      54.762  27.536  24.609  1.00  0.00     0.124 S 
ATOM     91  O   UNL A   1      55.442  27.309  25.882  1.00  0.00    -0.237 OA
ATOM     92  O   UNL A   1      54.706  26.383  23.713  1.00  0.00    -0.237 OA
ATOM     93  O   UNL A   1      55.065  28.808  23.958  1.00  0.00    -0.744 OA
ENDBRANCH  89  90
ENDBRANCH  63  84
ENDBRANCH  37  38
ENDBRANCH  30  32
ENDBRANCH  29  30
ENDBRANCH  28  29
ENDBRANCH   1  28
TORSDOF 19
ENDMDL
MODEL 2
REMARK VINA RESULT:     -10.7      2.347      7.560
REMARK SMILES COc1ccc(CNC(=O)[C@H]2CC(C)=C(C)C[C@@H]2C(=O)OCCOC(=O)c2ccc(-c3c4nc(c(-c5ccc(S(=O)(=O)[O-])cc5)c5ccc([nH]5)c(-c5ccc(S(=O)(=O)[O-])cc5)c5nc(c(-c6ccc(S(=O)(=O)[O-])cc6)c6ccc3[nH]6)C=C5)C=C4)cc2)cc1OC
REMARK SMILES IDX 22 1 21 2 19 3 20 4 18 5 11 6 12 7 13 8 17 9 14 10 15 11
REMARK SMILES IDX 16 12 9 13 8 14 10 16 7 17 6 18 3 19 4 20 88 21 5 22 87 23
REMARK SMILES IDX 2 24 1 25 89 26 90 27 23 28 24 29 25 30 26 31 27 32 28 33
REMARK SMILES IDX 86 34 29 35 85 36 30 37 31 38 32 39 79 40 33 41 84 42 78 43
REMARK SMILES IDX 80 44 34 45 83 46 77 47 76 48 35 50 65 51 46 52 64 53 47 54
REMARK SMILES IDX 50 55 63 56 81 57 48 58 49 59 62 61 82 62 51 63 36 64 37 65
REMARK SMILES IDX 45 66 38 67 44 68 39 69 40 70 41 71 42 72 43 73 66 74 67 75
REMARK SMILES IDX 75 76 68 77 74 78 69 79 70 80 71 81 72 82 73 83 52 84 53 85
REMARK SMILES IDX 61 86 54 87 60 88 55 89 56 90 57 91 58 92 59 93
REMARK H PARENT 8 15 80 49 50 60
REMARK Flexibility Score: inf
ROOT
ATOM      1  C   UNL A   1      37.502  21.151  24.784  1.00  0.00     0.274 C 
ENDROOT
BRANCH   1   2
ATOM      2  O   UNL A   1      36.574  21.503  25.832  1.00  0.00    -0.462 OA
BRANCH   2   3
ATOM      3  C   UNL A   1      36.259  22.821  25.896  1.00  0.00     0.310 C 
ATOM      4  O   UNL A   1      37.059  23.702  26.201  1.00  0.00    -0.252 OA
BRANCH   3   5
ATOM      5  C   UNL A   1      34.784  23.139  25.690  1.00  0.00     0.116 C 
ATOM      6  C   UNL A   1      33.912  22.079  25.026  1.00  0.00     0.097 C 
ATOM      7  C   UNL A   1      33.875  22.214  23.494  1.00  0.00     0.045 C 
ATOM      8  C   UNL A   1      33.621  23.616  23.000  1.00  0.00    -0.074 C 
ATOM      9  C   UNL A   1      34.636  24.554  25.089  1.00  0.00     0.046 C 
ATOM     10  C   UNL A   1      32.987  23.694  21.635  1.00  0.00     0.039 C 
ATOM     11  C   UNL A   1      33.975  24.686  23.737  1.00  0.00    -0.073 C 
ATOM     12  C   UNL A   1      33.764  26.108  23.276  1.00  0.00     0.039 C 
BRANCH   6  13
ATOM     13  C   UNL A   1      32.472  21.866  25.522  1.00  0.00     0.224 C 
ATOM     14  N   UNL A   1      31.612  22.798  25.987  1.00  0.00    -0.352 N 
ATOM     15  H   UNL A   1      30.672  22.534  25.864  1.00  0.00     0.163 HD
ATOM     16  O   UNL A   1      31.993  20.724  25.437  1.00  0.00    -0.275 OA
BRANCH  14  17
ATOM     17  C   UNL A   1      31.743  24.092  26.623  1.00  0.00     0.151 C 
BRANCH  17  18
ATOM     18  C   UNL A   1      31.201  25.240  25.817  1.00  0.00    -0.025 A 
ATOM     19  C   UNL A   1      30.424  27.468  24.275  1.00  0.00     0.160 A 
ATOM     20  C   UNL A   1      30.036  26.171  23.907  1.00  0.00     0.051 A 
ATOM     21  C   UNL A   1      31.193  27.664  25.426  1.00  0.00     0.161 A 
ATOM     22  C   UNL A   1      30.435  25.064  24.662  1.00  0.00     0.009 A 
ATOM     23  C   UNL A   1      31.575  26.545  26.178  1.00  0.00     0.056 A 
BRANCH  19  24
ATOM     24  O   UNL A   1      29.968  28.534  23.545  1.00  0.00    -0.493 OA
ATOM     25  C   UNL A   1      30.956  29.025  22.638  1.00  0.00     0.278 C 
ENDBRANCH  19  24
BRANCH  21  26
ATOM     26  O   UNL A   1      31.648  28.837  25.964  1.00  0.00    -0.493 OA
ATOM     27  C   UNL A   1      31.969  28.859  27.347  1.00  0.00     0.278 C 
ENDBRANCH  21  26
ENDBRANCH  17  18
ENDBRANCH  14  17
ENDBRANCH   6  13
ENDBRANCH   3   5
ENDBRANCH   2   3
ENDBRANCH   1   2
BRANCH   1  28
ATOM     28  C   UNL A   1      38.574  20.182  25.274  1.00  0.00     0.275 C 
BRANCH  28  29
ATOM     29  O   UNL A   1      39.483  20.853  26.163  1.00  0.00    -0.458 OA
BRANCH  29  30
ATOM     30  C   UNL A   1      40.725  20.324  26.236  1.00  0.00     0.338 C 
ATOM     31  O   UNL A   1      41.021  19.143  26.117  1.00  0.00    -0.246 OA
BRANCH  30  32
ATOM     32  C   UNL A   1      41.739  21.375  26.460  1.00  0.00     0.060 A 
ATOM     33  C   UNL A   1      42.389  21.492  27.685  1.00  0.00     0.016 A 
ATOM     34  C   UNL A   1      41.932  22.355  25.488  1.00  0.00     0.016 A 
ATOM     35  C   UNL A   1      43.087  22.661  27.998  1.00  0.00     0.010 A 
ATOM     36  C   UNL A   1      42.747  23.462  25.760  1.00  0.00     0.010 A 
ATOM     37  C   UNL A   1      43.279  23.674  27.044  1.00  0.00    -0.014 A 
BRANCH  37  38
ATOM     38  C   UNL A   1      43.950  24.971  27.394  1.00  0.00     0.031 A 
ATOM     39  C   UNL A   1      43.164  26.076  28.076  1.00  0.00     0.074 A 
ATOM     40  C   UNL A   1      45.258  25.193  27.141  1.00  0.00     0.049 A 
ATOM     41  N   UNL A   1      43.472  27.341  28.225  1.00  0.00    -0.248 NA
ATOM     42  C   UNL A   1      41.852  25.717  28.638  1.00  0.00     0.031 C 
ATOM     43  C   UNL A   1      46.192  24.241  26.542  1.00  0.00     0.029 A 
ATOM     44  N   UNL A   1      46.039  26.302  27.386  1.00  0.00    -0.354 N 
ATOM     45  C   UNL A   1      42.348  27.947  28.781  1.00  0.00     0.074 A 
ATOM     46  C   UNL A   1      41.365  26.903  28.976  1.00  0.00     0.031 C 
ATOM     47  C   UNL A   1      47.428  24.763  26.553  1.00  0.00     0.029 A 
ATOM     48  C   UNL A   1      47.361  26.134  27.044  1.00  0.00     0.049 A 
ATOM     49  H   UNL A   1      45.684  27.135  27.770  1.00  0.00     0.167 HD
ATOM     50  C   UNL A   1      42.146  29.252  29.087  1.00  0.00     0.031 A 
ATOM     51  C   UNL A   1      48.402  26.990  27.077  1.00  0.00     0.031 A 
ATOM     52  C   UNL A   1      43.157  30.275  29.004  1.00  0.00     0.049 A 
ATOM     53  C   UNL A   1      48.177  28.420  27.473  1.00  0.00     0.074 A 
ATOM     54  C   UNL A   1      43.047  31.622  29.309  1.00  0.00     0.029 A 
ATOM     55  N   UNL A   1      44.473  30.058  28.635  1.00  0.00    -0.354 N 
ATOM     56  N   UNL A   1      47.070  29.002  27.863  1.00  0.00    -0.248 NA
ATOM     57  C   UNL A   1      49.339  29.318  27.396  1.00  0.00     0.031 C 
ATOM     58  C   UNL A   1      44.296  32.223  29.106  1.00  0.00     0.029 A 
ATOM     59  C   UNL A   1      45.188  31.241  28.710  1.00  0.00     0.049 A 
ATOM     60  H   UNL A   1      44.846  29.189  28.359  1.00  0.00     0.167 HD
ATOM     61  C   UNL A   1      47.399  30.338  28.063  1.00  0.00     0.074 A 
ATOM     62  C   UNL A   1      48.814  30.470  27.789  1.00  0.00     0.031 C 
ATOM     63  C   UNL A   1      46.593  31.366  28.424  1.00  0.00     0.031 A 
BRANCH  50  64
ATOM     64  C   UNL A   1      40.755  29.666  29.488  1.00  0.00    -0.014 A 
ATOM     65  C   UNL A   1      40.399  29.889  30.829  1.00  0.00     0.010 A 
ATOM     66  C   UNL A   1      39.794  29.876  28.480  1.00  0.00     0.010 A 
ATOM     67  C   UNL A   1      39.093  30.272  31.157  1.00  0.00     0.020 A 
ATOM     68  C   UNL A   1      38.497  30.282  28.802  1.00  0.00     0.020 A 
ATOM     69  C   UNL A   1      38.150  30.459  30.142  1.00  0.00     0.054 A 
BRANCH  69  70
ATOM     70  S   UNL A   1      36.466  30.974  30.586  1.00  0.00     0.124 S 
ATOM     71  O   UNL A   1      36.685  32.340  31.054  1.00  0.00    -0.237 OA
ATOM     72  O   UNL A   1      35.745  30.852  29.321  1.00  0.00    -0.237 OA
ATOM     73  O   UNL A   1      36.073  30.016  31.616  1.00  0.00    -0.744 OA
ENDBRANCH  69  70
ENDBRANCH  50  64
BRANCH  51  74
ATOM     74  C   UNL A   1      49.756  26.522  26.674  1.00  0.00    -0.014 A 
ATOM     75  C   UNL A   1      50.647  26.022  27.638  1.00  0.00     0.010 A 
ATOM     76  C   UNL A   1      50.146  26.541  25.323  1.00  0.00     0.010 A 
ATOM     77  C   UNL A   1      51.904  25.541  27.259  1.00  0.00     0.020 A 
ATOM     78  C   UNL A   1      51.390  26.035  24.936  1.00  0.00     0.020 A 
ATOM     79  C   UNL A   1      52.263  25.543  25.909  1.00  0.00     0.054 A 
BRANCH  79  80
ATOM     80  S   UNL A   1      53.854  24.822  25.415  1.00  0.00     0.124 S 
ATOM     81  O   UNL A   1      54.636  24.947  26.640  1.00  0.00    -0.237 OA
ATOM     82  O   UNL A   1      53.485  23.461  25.033  1.00  0.00    -0.237 OA
ATOM     83  O   UNL A   1      54.279  25.675  24.307  1.00  0.00    -0.744 OA
ENDBRANCH  79  80
ENDBRANCH  51  74
BRANCH  63  84
ATOM     84  C   UNL A   1      47.233  32.719  28.555  1.00  0.00    -0.014 A 
ATOM     85  C   UNL A   1      47.764  33.148  29.785  1.00  0.00     0.010 A 
ATOM     86  C   UNL A   1      47.307  33.569  27.439  1.00  0.00     0.010 A 
ATOM     87  C   UNL A   1      48.318  34.426  29.907  1.00  0.00     0.020 A 
ATOM     88  C   UNL A   1      47.876  34.840  27.552  1.00  0.00     0.020 A 
ATOM     89  C   UNL A   1      48.360  35.268  28.791  1.00  0.00     0.054 A 
BRANCH  89  90
ATOM     90  S   UNL A   1      49.082  36.924  28.965  1.00  0.00     0.124 S 
ATOM     91  O   UNL A   1      48.129  37.576  29.859  1.00  0.00    -0.237 OA
ATOM     92  O   UNL A   1      50.396  36.647  29.542  1.00  0.00    -0.237 OA
ATOM     93  O   UNL A   1      49.106  37.434  27.597  1.00  0.00    -0.744 OA
ENDBRANCH  89  90
ENDBRANCH  63  84
ENDBRANCH  37  38
ENDBRANCH  30  32
ENDBRANCH  29  30
ENDBRANCH  28  29
ENDBRANCH   1  28
TORSDOF 19
ENDMDL
MODEL 3
REMARK VINA RESULT:     -10.6      2.289      7.578
REMARK SMILES COc1ccc(CNC(=O)[C@H]2CC(C)=C(C)C[C@@H]2C(=O)OCCOC(=O)c2ccc(-c3c4nc(c(-c5ccc(S(=O)(=O)[O-])cc5)c5ccc([nH]5)c(-c5ccc(S(=O)(=O)[O-])cc5)c5nc(c(-c6ccc(S(=O)(=O)[O-])cc6)c6ccc3[nH]6)C=C5)C=C4)cc2)cc1OC
REMARK SMILES IDX 22 1 21 2 19 3 20 4 18 5 11 6 12 7 13 8 17 9 14 10 15 11
REMARK SMILES IDX 16 12 9 13 8 14 10 16 7 17 6 18 3 19 4 20 88 21 5 22 87 23
REMARK SMILES IDX 2 24 1 25 89 26 90 27 23 28 24 29 25 30 26 31 27 32 28 33
REMARK SMILES IDX 86 34 29 35 85 36 30 37 31 38 32 39 79 40 33 41 84 42 78 43
REMARK SMILES IDX 80 44 34 45 83 46 77 47 76 48 35 50 65 51 46 52 64 53 47 54
REMARK SMILES IDX 50 55 63 56 81 57 48 58 49 59 62 61 82 62 51 63 36 64 37 65
REMARK SMILES IDX 45 66 38 67 44 68 39 69 40 70 41 71 42 72 43 73 66 74 67 75
REMARK SMILES IDX 75 76 68 77 74 78 69 79 70 80 71 81 72 82 73 83 52 84 53 85
REMARK SMILES IDX 61 86 54 87 60 88 55 89 56 90 57 91 58 92 59 93
REMARK H PARENT 8 15 80 49 50 60
REMARK Flexibility Score: inf
ROOT
ATOM      1  C   UNL A   1      37.912  20.713  25.022  1.00  0.00     0.274 C 
ENDROOT
BRANCH   1   2
ATOM      2  O   UNL A   1      36.605  21.306  25.181  1.00  0.00    -0.462 OA
BRANCH   2   3
ATOM      3  C   UNL A   1      36.202  22.083  24.144  1.00  0.00     0.310 C 
ATOM      4  O   UNL A   1      36.972  22.639  23.366  1.00  0.00    -0.252 OA
BRANCH   3   5
ATOM      5  C   UNL A   1      34.703  22.340  24.079  1.00  0.00     0.116 C 
ATOM      6  C   UNL A   1      34.225  23.603  23.370  1.00  0.00     0.097 C 
ATOM      7  C   UNL A   1      34.114  24.810  24.318  1.00  0.00     0.045 C 
ATOM      8  C   UNL A   1      33.394  24.521  25.609  1.00  0.00    -0.074 C 
ATOM      9  C   UNL A   1      34.074  22.114  25.471  1.00  0.00     0.046 C 
ATOM     10  C   UNL A   1      32.743  25.723  26.246  1.00  0.00     0.039 C 
ATOM     11  C   UNL A   1      33.381  23.280  26.135  1.00  0.00    -0.073 C 
ATOM     12  C   UNL A   1      32.693  22.946  27.437  1.00  0.00     0.039 C 
BRANCH   6  13
ATOM     13  C   UNL A   1      32.952  23.552  22.510  1.00  0.00     0.224 C 
ATOM     14  N   UNL A   1      32.641  24.327  21.448  1.00  0.00    -0.352 N 
ATOM     15  H   UNL A   1      32.017  23.882  20.830  1.00  0.00     0.163 HD
ATOM     16  O   UNL A   1      32.122  22.662  22.754  1.00  0.00    -0.275 OA
BRANCH  14  17
ATOM     17  C   UNL A   1      33.007  25.656  21.001  1.00  0.00     0.151 C 
BRANCH  17  18
ATOM     18  C   UNL A   1      32.611  26.760  21.941  1.00  0.00    -0.025 A 
ATOM     19  C   UNL A   1      31.796  28.652  23.866  1.00  0.00     0.160 A 
ATOM     20  C   UNL A   1      33.104  28.664  23.358  1.00  0.00     0.051 A 
ATOM     21  C   UNL A   1      30.880  27.702  23.405  1.00  0.00     0.161 A 
ATOM     22  C   UNL A   1      33.514  27.716  22.415  1.00  0.00     0.009 A 
ATOM     23  C   UNL A   1      31.303  26.766  22.453  1.00  0.00     0.056 A 
BRANCH  19  24
ATOM     24  O   UNL A   1      31.412  29.631  24.744  1.00  0.00    -0.493 OA
ATOM     25  C   UNL A   1      31.816  29.339  26.083  1.00  0.00     0.278 C 
ENDBRANCH  19  24
BRANCH  21  26
ATOM     26  O   UNL A   1      29.566  27.540  23.752  1.00  0.00    -0.493 OA
ATOM     27  C   UNL A   1      29.161  26.280  24.266  1.00  0.00     0.278 C 
ENDBRANCH  21  26
ENDBRANCH  17  18
ENDBRANCH  14  17
ENDBRANCH   6  13
ENDBRANCH   3   5
ENDBRANCH   2   3
ENDBRANCH   1   2
BRANCH   1  28
ATOM     28  C   UNL A   1      38.982  21.481  25.793  1.00  0.00     0.275 C 
BRANCH  28  29
ATOM     29  O   UNL A   1      39.702  20.592  26.664  1.00  0.00    -0.458 OA
BRANCH  29  30
ATOM     30  C   UNL A   1      40.931  20.225  26.235  1.00  0.00     0.338 C 
ATOM     31  O   UNL A   1      41.223  19.178  25.673  1.00  0.00    -0.246 OA
BRANCH  30  32
ATOM     32  C   UNL A   1      41.928  21.282  26.507  1.00  0.00     0.060 A 
ATOM     33  C   UNL A   1      42.370  21.530  27.802  1.00  0.00     0.016 A 
ATOM     34  C   UNL A   1      42.309  22.141  25.478  1.00  0.00     0.016 A 
ATOM     35  C   UNL A   1      43.045  22.718  28.096  1.00  0.00     0.010 A 
ATOM     36  C   UNL A   1      43.103  23.261  25.757  1.00  0.00     0.010 A 
ATOM     37  C   UNL A   1      43.423  23.613  27.081  1.00  0.00    -0.014 A 
BRANCH  37  38
ATOM     38  C   UNL A   1      44.068  24.933  27.391  1.00  0.00     0.031 A 
ATOM     39  C   UNL A   1      43.264  26.038  28.050  1.00  0.00     0.074 A 
ATOM     40  C   UNL A   1      45.369  25.176  27.123  1.00  0.00     0.049 A 
ATOM     41  N   UNL A   1      43.546  27.313  28.163  1.00  0.00    -0.248 NA
ATOM     42  C   UNL A   1      41.963  25.666  28.631  1.00  0.00     0.031 C 
ATOM     43  C   UNL A   1      46.320  24.227  26.542  1.00  0.00     0.029 A 
ATOM     44  N   UNL A   1      46.128  26.307  27.332  1.00  0.00    -0.354 N 
ATOM     45  C   UNL A   1      42.413  27.909  28.712  1.00  0.00     0.074 A 
ATOM     46  C   UNL A   1      41.453  26.850  28.941  1.00  0.00     0.031 C 
ATOM     47  C   UNL A   1      47.544  24.776  26.530  1.00  0.00     0.029 A 
ATOM     48  C   UNL A   1      47.451  26.158  26.985  1.00  0.00     0.049 A 
ATOM     49  H   UNL A   1      45.758  27.142  27.697  1.00  0.00     0.167 HD
ATOM     50  C   UNL A   1      42.185  29.218  28.984  1.00  0.00     0.031 A 
ATOM     51  C   UNL A   1      48.474  27.036  26.987  1.00  0.00     0.031 A 
ATOM     52  C   UNL A   1      43.172  30.259  28.867  1.00  0.00     0.049 A 
ATOM     53  C   UNL A   1      48.221  28.472  27.347  1.00  0.00     0.074 A 
ATOM     54  C   UNL A   1      43.036  31.611  29.137  1.00  0.00     0.029 A 
ATOM     55  N   UNL A   1      44.491  30.060  28.494  1.00  0.00    -0.354 N 
ATOM     56  N   UNL A   1      47.104  29.040  27.730  1.00  0.00    -0.248 NA
ATOM     57  C   UNL A   1      49.363  29.391  27.238  1.00  0.00     0.031 C 
ATOM     58  C   UNL A   1      44.270  32.233  28.909  1.00  0.00     0.029 A 
ATOM     59  C   UNL A   1      45.181  31.260  28.532  1.00  0.00     0.049 A 
ATOM     60  H   UNL A   1      44.880  29.193  28.238  1.00  0.00     0.167 HD
ATOM     61  C   UNL A   1      47.405  30.387  27.892  1.00  0.00     0.074 A 
ATOM     62  C   UNL A   1      48.816  30.542  27.604  1.00  0.00     0.031 C 
ATOM     63  C   UNL A   1      46.580  31.407  28.232  1.00  0.00     0.031 A 
BRANCH  50  64
ATOM     64  C   UNL A   1      40.788  29.612  29.385  1.00  0.00    -0.014 A 
ATOM     65  C   UNL A   1      39.791  29.896  28.438  1.00  0.00     0.010 A 
ATOM     66  C   UNL A   1      40.464  29.657  30.755  1.00  0.00     0.010 A 
ATOM     67  C   UNL A   1      38.505  30.260  28.855  1.00  0.00     0.020 A 
ATOM     68  C   UNL A   1      39.176  29.996  31.175  1.00  0.00     0.020 A 
ATOM     69  C   UNL A   1      38.208  30.315  30.220  1.00  0.00     0.054 A 
BRANCH  69  70
ATOM     70  S   UNL A   1      36.531  30.771  30.742  1.00  0.00     0.124 S 
ATOM     71  O   UNL A   1      35.739  30.383  29.577  1.00  0.00    -0.237 OA
ATOM     72  O   UNL A   1      36.329  29.956  31.937  1.00  0.00    -0.237 OA
ATOM     73  O   UNL A   1      36.623  32.209  30.983  1.00  0.00    -0.744 OA
ENDBRANCH  69  70
ENDBRANCH  50  64
BRANCH  51  74
ATOM     74  C   UNL A   1      49.834  26.587  26.586  1.00  0.00    -0.014 A 
ATOM     75  C   UNL A   1      50.715  26.056  27.545  1.00  0.00     0.010 A 
ATOM     76  C   UNL A   1      50.243  26.654  25.242  1.00  0.00     0.010 A 
ATOM     77  C   UNL A   1      51.978  25.593  27.166  1.00  0.00     0.020 A 
ATOM     78  C   UNL A   1      51.493  26.165  24.855  1.00  0.00     0.020 A 
ATOM     79  C   UNL A   1      52.355  25.643  25.822  1.00  0.00     0.054 A 
BRANCH  79  80
ATOM     80  S   UNL A   1      53.955  24.944  25.324  1.00  0.00     0.124 S 
ATOM     81  O   UNL A   1      54.707  24.994  26.573  1.00  0.00    -0.237 OA
ATOM     82  O   UNL A   1      53.591  23.609  24.856  1.00  0.00    -0.237 OA
ATOM     83  O   UNL A   1      54.409  25.857  24.278  1.00  0.00    -0.744 OA
ENDBRANCH  79  80
ENDBRANCH  51  74
BRANCH  63  84
ATOM     84  C   UNL A   1      47.192  32.777  28.323  1.00  0.00    -0.014 A 
ATOM     85  C   UNL A   1      47.807  33.214  29.511  1.00  0.00     0.010 A 
ATOM     86  C   UNL A   1      47.155  33.635  27.210  1.00  0.00     0.010 A 
ATOM     87  C   UNL A   1      48.334  34.505  29.597  1.00  0.00     0.020 A 
ATOM     88  C   UNL A   1      47.697  34.920  27.288  1.00  0.00     0.020 A 
ATOM     89  C   UNL A   1      48.265  35.354  28.489  1.00  0.00     0.054 A 
BRANCH  89  90
ATOM     90  S   UNL A   1      48.954  37.028  28.618  1.00  0.00     0.124 S 
ATOM     91  O   UNL A   1      50.277  36.767  29.181  1.00  0.00    -0.237 OA
ATOM     92  O   UNL A   1      48.942  37.494  27.233  1.00  0.00    -0.237 OA
ATOM     93  O   UNL A   1      48.022  37.716  29.507  1.00  0.00    -0.744 OA
ENDBRANCH  89  90
ENDBRANCH  63  84
ENDBRANCH  37  38
ENDBRANCH  30  32
ENDBRANCH  29  30
ENDBRANCH  28  29
ENDBRANCH   1  28
TORSDOF 19
ENDMDL
