MODEL 1
REMARK VINA RESULT:     -11.9      0.000      0.000
REMARK SMILES O=C(CC1(C(=O)OCCOC(=O)c2ccc(-c3c4nc(c(-c5ccc(S(=O)(=O)[O-])cc5)c5ccc([nH]5)c(-c5ccc(S(=O)(=O)[O-])cc5)c5nc(c(-c6ccc(S(=O)(=O)[O-])cc6)c6ccc3[nH]6)C=C5)C=C4)cc2)CCCCC1)Nc1ccc(N2CCOC2=O)cc1
REMARK SMILES IDX 8 1 7 2 5 3 6 4 4 5 73 6 77 7 74 8 76 9 75 10 3 11 2 12 1 13
REMARK SMILES IDX 78 14 79 16 80 17 90 18 81 19 89 20 82 21 83 22 84 23 87 24
REMARK SMILES IDX 85 25 86 26 88 27 9 28 10 29 11 30 12 31 13 32 14 33 72 34
REMARK SMILES IDX 15 35 71 36 16 37 17 38 18 39 65 40 19 41 70 42 64 43 66 44
REMARK SMILES IDX 20 45 69 46 63 47 62 48 21 50 51 51 32 52 50 53 33 54 36 55
REMARK SMILES IDX 49 56 67 57 34 58 35 59 48 61 68 62 37 63 22 64 23 65 31 66
REMARK SMILES IDX 24 67 30 68 25 69 26 70 27 71 28 72 29 73 52 74 53 75 61 76
REMARK SMILES IDX 54 77 60 78 55 79 56 80 57 81 58 82 59 83 38 84 39 85 47 86
REMARK SMILES IDX 40 87 46 88 41 89 42 90 43 91 44 92 45 93
REMARK H PARENT 78 15 66 49 36 60
REMARK Flexibility Score: inf
ROOT
ATOM      1  C   UNL A   1      35.102  24.398  25.750  1.00  0.00     0.274 C 
ENDROOT
BRANCH   1   2
ATOM      2  O   UNL A   1      34.536  25.226  24.714  1.00  0.00    -0.462 OA
BRANCH   2   3
ATOM      3  C   UNL A   1      33.185  25.300  24.649  1.00  0.00     0.312 C 
ATOM      4  O   UNL A   1      32.435  24.764  25.460  1.00  0.00    -0.252 OA
BRANCH   3   5
ATOM      5  C   UNL A   1      32.663  26.097  23.432  1.00  0.00     0.077 C 
ATOM      6  C   UNL A   1      33.626  27.297  23.269  1.00  0.00     0.019 C 
ATOM      7  C   UNL A   1      31.213  26.612  23.591  1.00  0.00     0.019 C 
ATOM      8  C   UNL A   1      33.464  28.329  24.382  1.00  0.00     0.001 C 
ATOM      9  C   UNL A   1      31.024  27.744  24.600  1.00  0.00     0.001 C 
ATOM     10  C   UNL A   1      32.040  28.862  24.425  1.00  0.00     0.000 C 
BRANCH   5  11
ATOM     11  C   UNL A   1      32.833  25.152  22.205  1.00  0.00     0.119 C 
BRANCH  11  12
ATOM     12  C   UNL A   1      33.268  23.714  22.393  1.00  0.00     0.225 C 
ATOM     13  O   UNL A   1      34.375  23.343  22.012  1.00  0.00    -0.275 OA
ATOM     14  N   UNL A   1      32.316  22.914  23.003  1.00  0.00    -0.326 N 
ATOM     15  H   UNL A   1      31.441  23.308  23.218  1.00  0.00     0.169 HD
BRANCH  14  16
ATOM     16  C   UNL A   1      32.540  21.566  23.328  1.00  0.00     0.041 A 
ATOM     17  C   UNL A   1      33.304  21.275  24.457  1.00  0.00     0.028 A 
ATOM     18  C   UNL A   1      32.028  20.530  22.548  1.00  0.00     0.028 A 
ATOM     19  C   UNL A   1      33.457  19.949  24.872  1.00  0.00     0.028 A 
ATOM     20  C   UNL A   1      32.286  19.202  22.898  1.00  0.00     0.028 A 
ATOM     21  C   UNL A   1      32.960  18.904  24.086  1.00  0.00     0.047 A 
BRANCH  21  22
ATOM     22  N   UNL A   1      33.095  17.570  24.498  1.00  0.00    -0.274 N 
ATOM     23  C   UNL A   1      32.645  17.079  25.758  1.00  0.00     0.171 C 
ATOM     24  C   UNL A   1      33.639  16.545  23.748  1.00  0.00     0.414 C 
ATOM     25  C   UNL A   1      32.629  15.587  25.527  1.00  0.00     0.257 C 
ATOM     26  O   UNL A   1      33.525  15.368  24.437  1.00  0.00    -0.447 OA
ATOM     27  O   UNL A   1      34.170  16.636  22.650  1.00  0.00    -0.224 OA
ENDBRANCH  21  22
ENDBRANCH  14  16
ENDBRANCH  11  12
ENDBRANCH   5  11
ENDBRANCH   3   5
ENDBRANCH   2   3
ENDBRANCH   1   2
BRANCH   1  28
ATOM     28  C   UNL A   1      36.105  23.407  25.158  1.00  0.00     0.275 C 
BRANCH  28  29
ATOM     29  O   UNL A   1      37.429  23.963  25.118  1.00  0.00    -0.458 OA
BRANCH  29  30
ATOM     30  C   UNL A   1      38.354  23.275  25.819  1.00  0.00     0.338 C 
ATOM     31  O   UNL A   1      38.611  22.081  25.757  1.00  0.00    -0.246 OA
BRANCH  30  32
ATOM     32  C   UNL A   1      39.171  24.186  26.620  1.00  0.00     0.060 A 
ATOM     33  C   UNL A   1      38.889  24.259  27.978  1.00  0.00     0.016 A 
ATOM     34  C   UNL A   1      39.969  25.146  26.008  1.00  0.00     0.016 A 
ATOM     35  C   UNL A   1      39.202  25.412  28.677  1.00  0.00     0.010 A 
ATOM     36  C   UNL A   1      40.463  26.201  26.779  1.00  0.00     0.010 A 
ATOM     37  C   UNL A   1      40.041  26.377  28.110  1.00  0.00    -0.014 A 
BRANCH  37  38
ATOM     38  C   UNL A   1      40.500  27.543  28.915  1.00  0.00     0.031 A 
ATOM     39  C   UNL A   1      41.793  27.476  29.684  1.00  0.00     0.074 A 
ATOM     40  C   UNL A   1      39.725  28.647  28.988  1.00  0.00     0.049 A 
ATOM     41  N   UNL A   1      42.220  28.253  30.646  1.00  0.00    -0.248 NA
ATOM     42  C   UNL A   1      42.710  26.375  29.350  1.00  0.00     0.031 C 
ATOM     43  C   UNL A   1      38.472  28.862  28.255  1.00  0.00     0.029 A 
ATOM     44  N   UNL A   1      39.867  29.797  29.724  1.00  0.00    -0.354 N 
ATOM     45  C   UNL A   1      43.419  27.694  31.081  1.00  0.00     0.074 A 
ATOM     46  C   UNL A   1      43.644  26.509  30.283  1.00  0.00     0.031 C 
ATOM     47  C   UNL A   1      37.983  30.071  28.548  1.00  0.00     0.029 A 
ATOM     48  C   UNL A   1      38.804  30.662  29.591  1.00  0.00     0.049 A 
ATOM     49  H   UNL A   1      40.650  29.984  30.292  1.00  0.00     0.167 HD
ATOM     50  C   UNL A   1      44.242  28.131  32.067  1.00  0.00     0.031 A 
ATOM     51  C   UNL A   1      38.469  31.767  30.281  1.00  0.00     0.031 A 
ATOM     52  C   UNL A   1      44.001  29.336  32.826  1.00  0.00     0.049 A 
ATOM     53  C   UNL A   1      39.362  32.209  31.399  1.00  0.00     0.074 A 
ATOM     54  C   UNL A   1      44.774  29.894  33.828  1.00  0.00     0.029 A 
ATOM     55  N   UNL A   1      42.905  30.175  32.655  1.00  0.00    -0.354 N 
ATOM     56  N   UNL A   1      40.466  31.650  31.832  1.00  0.00    -0.248 NA
ATOM     57  C   UNL A   1      38.965  33.420  32.124  1.00  0.00     0.031 C 
ATOM     58  C   UNL A   1      44.114  31.030  34.308  1.00  0.00     0.029 A 
ATOM     59  C   UNL A   1      42.968  31.228  33.552  1.00  0.00     0.049 A 
ATOM     60  H   UNL A   1      42.189  30.039  31.994  1.00  0.00     0.167 HD
ATOM     61  C   UNL A   1      40.913  32.454  32.871  1.00  0.00     0.074 A 
ATOM     62  C   UNL A   1      39.962  33.545  32.990  1.00  0.00     0.031 C 
ATOM     63  C   UNL A   1      42.009  32.304  33.653  1.00  0.00     0.031 A 
BRANCH  50  64
ATOM     64  C   UNL A   1      45.433  27.270  32.426  1.00  0.00    -0.014 A 
ATOM     65  C   UNL A   1      45.370  26.271  33.414  1.00  0.00     0.010 A 
ATOM     66  C   UNL A   1      46.653  27.467  31.749  1.00  0.00     0.010 A 
ATOM     67  C   UNL A   1      46.510  25.533  33.760  1.00  0.00     0.020 A 
ATOM     68  C   UNL A   1      47.784  26.706  32.064  1.00  0.00     0.020 A 
ATOM     69  C   UNL A   1      47.712  25.758  33.086  1.00  0.00     0.054 A 
BRANCH  69  70
ATOM     70  S   UNL A   1      49.177  24.783  33.537  1.00  0.00     0.124 S 
ATOM     71  O   UNL A   1      49.851  24.615  32.252  1.00  0.00    -0.237 OA
ATOM     72  O   UNL A   1      49.859  25.643  34.500  1.00  0.00    -0.237 OA
ATOM     73  O   UNL A   1      48.616  23.556  34.101  1.00  0.00    -0.744 OA
ENDBRANCH  69  70
ENDBRANCH  50  64
BRANCH  51  74
ATOM     74  C   UNL A   1      37.193  32.466  29.961  1.00  0.00    -0.014 A 
ATOM     75  C   UNL A   1      36.028  32.209  30.700  1.00  0.00     0.010 A 
ATOM     76  C   UNL A   1      37.164  33.461  28.963  1.00  0.00     0.010 A 
ATOM     77  C   UNL A   1      34.859  32.934  30.451  1.00  0.00     0.020 A 
ATOM     78  C   UNL A   1      36.009  34.213  28.736  1.00  0.00     0.020 A 
ATOM     79  C   UNL A   1      34.860  33.939  29.479  1.00  0.00     0.054 A 
BRANCH  79  80
ATOM     80  S   UNL A   1      33.355  34.922  29.234  1.00  0.00     0.124 S 
ATOM     81  O   UNL A   1      32.792  34.956  30.580  1.00  0.00    -0.237 OA
ATOM     82  O   UNL A   1      33.884  36.190  28.737  1.00  0.00    -0.237 OA
ATOM     83  O   UNL A   1      32.593  34.147  28.256  1.00  0.00    -0.744 OA
ENDBRANCH  79  80
ENDBRANCH  51  74
BRANCH  63  84
ATOM     84  C   UNL A   1      42.269  33.373  34.680  1.00  0.00    -0.014 A 
ATOM     85  C   UNL A   1      43.148  34.440  34.424  1.00  0.00     0.010 A 
ATOM     86  C   UNL A   1      41.565  33.339  35.898  1.00  0.00     0.010 A 
ATOM     87  C   UNL A   1      43.328  35.447  35.375  1.00  0.00     0.020 A 
ATOM     88  C   UNL A   1      41.718  34.360  36.837  1.00  0.00     0.020 A 
ATOM     89  C   UNL A   1      42.606  35.405  36.571  1.00  0.00     0.054 A 
BRANCH  89  90
ATOM     90  S   UNL A   1      42.801  36.765  37.754  1.00  0.00     0.124 S 
ATOM     91  O   UNL A   1      43.685  36.175  38.755  1.00  0.00    -0.237 OA
ATOM     92  O   UNL A   1      43.395  37.818  36.934  1.00  0.00    -0.237 OA
ATOM     93  O   UNL A   1      41.438  37.031  38.208  1.00  0.00    -0.744 OA
ENDBRANCH  89  90
ENDBRANCH  63  84
ENDBRANCH  37  38
ENDBRANCH  30  32
ENDBRANCH  29  30
ENDBRANCH  28  29
ENDBRANCH   1  28
TORSDOF 18
ENDMDL
MODEL 2
REMARK VINA RESULT:     -11.5      3.477      9.973
REMARK SMILES O=C(CC1(C(=O)OCCOC(=O)c2ccc(-c3c4nc(c(-c5ccc(S(=O)(=O)[O-])cc5)c5ccc([nH]5)c(-c5ccc(S(=O)(=O)[O-])cc5)c5nc(c(-c6ccc(S(=O)(=O)[O-])cc6)c6ccc3[nH]6)C=C5)C=C4)cc2)CCCCC1)Nc1ccc(N2CCOC2=O)cc1
REMARK SMILES IDX 8 1 7 2 5 3 6 4 4 5 73 6 77 7 74 8 76 9 75 10 3 11 2 12 1 13
REMARK SMILES IDX 78 14 79 16 80 17 90 18 81 19 89 20 82 21 83 22 84 23 87 24
REMARK SMILES IDX 85 25 86 26 88 27 9 28 10 29 11 30 12 31 13 32 14 33 72 34
REMARK SMILES IDX 15 35 71 36 16 37 17 38 18 39 65 40 19 41 70 42 64 43 66 44
REMARK SMILES IDX 20 45 69 46 63 47 62 48 21 50 51 51 32 52 50 53 33 54 36 55
REMARK SMILES IDX 49 56 67 57 34 58 35 59 48 61 68 62 37 63 22 64 23 65 31 66
REMARK SMILES IDX 24 67 30 68 25 69 26 70 27 71 28 72 29 73 52 74 53 75 61 76
REMARK SMILES IDX 54 77 60 78 55 79 56 80 57 81 58 82 59 83 38 84 39 85 47 86
REMARK SMILES IDX 40 87 46 88 41 89 42 90 43 91 44 92 45 93
REMARK H PARENT 78 15 66 49 36 60
REMARK Flexibility Score: inf
ROOT
ATOM      1  C   UNL A   1      34.019  26.674  25.867  1.00  0.00     0.274 C 
ENDROOT
BRANCH   1   2
ATOM      2  O   UNL A   1      33.143  25.551  26.090  1.00  0.00    -0.462 OA
BRANCH   2   3
ATOM      3  C   UNL A   1      33.058  24.626  25.103  1.00  0.00     0.312 C 
ATOM      4  O   UNL A   1      33.405  24.835  23.944  1.00  0.00    -0.252 OA
BRANCH   3   5
ATOM      5  C   UNL A   1      32.445  23.283  25.560  1.00  0.00     0.077 C 
ATOM      6  C   UNL A   1      32.971  23.045  26.995  1.00  0.00     0.019 C 
ATOM      7  C   UNL A   1      32.822  22.080  24.662  1.00  0.00     0.019 C 
ATOM      8  C   UNL A   1      34.460  22.708  27.022  1.00  0.00     0.001 C 
ATOM      9  C   UNL A   1      34.276  21.619  24.757  1.00  0.00     0.001 C 
ATOM     10  C   UNL A   1      34.749  21.465  26.194  1.00  0.00     0.000 C 
BRANCH   5  11
ATOM     11  C   UNL A   1      30.907  23.522  25.626  1.00  0.00     0.119 C 
BRANCH  11  12
ATOM     12  C   UNL A   1      30.339  24.922  25.530  1.00  0.00     0.225 C 
ATOM     13  O   UNL A   1      29.929  25.499  26.534  1.00  0.00    -0.275 OA
ATOM     14  N   UNL A   1      30.330  25.438  24.245  1.00  0.00    -0.326 N 
ATOM     15  H   UNL A   1      30.635  24.864  23.507  1.00  0.00     0.169 HD
BRANCH  14  16
ATOM     16  C   UNL A   1      29.904  26.742  23.944  1.00  0.00     0.041 A 
ATOM     17  C   UNL A   1      30.839  27.775  24.009  1.00  0.00     0.028 A 
ATOM     18  C   UNL A   1      28.583  27.020  23.596  1.00  0.00     0.028 A 
ATOM     19  C   UNL A   1      30.478  29.067  23.612  1.00  0.00     0.028 A 
ATOM     20  C   UNL A   1      28.198  28.334  23.318  1.00  0.00     0.028 A 
ATOM     21  C   UNL A   1      29.151  29.355  23.277  1.00  0.00     0.047 A 
BRANCH  21  22
ATOM     22  N   UNL A   1      28.779  30.643  22.865  1.00  0.00    -0.274 N 
ATOM     23  C   UNL A   1      28.858  31.796  23.699  1.00  0.00     0.171 C 
ATOM     24  C   UNL A   1      28.325  30.988  21.607  1.00  0.00     0.414 C 
ATOM     25  C   UNL A   1      28.769  32.919  22.692  1.00  0.00     0.257 C 
ATOM     26  O   UNL A   1      28.143  32.344  21.545  1.00  0.00    -0.447 OA
ATOM     27  O   UNL A   1      28.086  30.233  20.676  1.00  0.00    -0.224 OA
ENDBRANCH  21  22
ENDBRANCH  14  16
ENDBRANCH  11  12
ENDBRANCH   5  11
ENDBRANCH   3   5
ENDBRANCH   2   3
ENDBRANCH   1   2
BRANCH   1  28
ATOM     28  C   UNL A   1      33.492  27.917  26.584  1.00  0.00     0.275 C 
BRANCH  28  29
ATOM     29  O   UNL A   1      34.340  29.054  26.352  1.00  0.00    -0.458 OA
BRANCH  29  30
ATOM     30  C   UNL A   1      34.361  29.957  27.354  1.00  0.00     0.338 C 
ATOM     31  O   UNL A   1      33.424  30.595  27.814  1.00  0.00    -0.246 OA
BRANCH  30  32
ATOM     32  C   UNL A   1      35.685  30.002  27.973  1.00  0.00     0.060 A 
ATOM     33  C   UNL A   1      36.769  30.218  27.132  1.00  0.00     0.016 A 
ATOM     34  C   UNL A   1      35.876  29.548  29.274  1.00  0.00     0.016 A 
ATOM     35  C   UNL A   1      38.020  29.757  27.502  1.00  0.00     0.010 A 
ATOM     36  C   UNL A   1      37.177  29.289  29.712  1.00  0.00     0.010 A 
ATOM     37  C   UNL A   1      38.260  29.337  28.815  1.00  0.00    -0.014 A 
BRANCH  37  38
ATOM     38  C   UNL A   1      39.638  28.985  29.254  1.00  0.00     0.031 A 
ATOM     39  C   UNL A   1      40.503  30.008  29.944  1.00  0.00     0.074 A 
ATOM     40  C   UNL A   1      40.127  27.754  28.988  1.00  0.00     0.049 A 
ATOM     41  N   UNL A   1      41.795  29.992  30.146  1.00  0.00    -0.248 NA
ATOM     42  C   UNL A   1      39.833  31.219  30.443  1.00  0.00     0.031 C 
ATOM     43  C   UNL A   1      39.380  26.653  28.369  1.00  0.00     0.029 A 
ATOM     44  N   UNL A   1      41.375  27.219  29.193  1.00  0.00    -0.354 N 
ATOM     45  C   UNL A   1      42.104  31.219  30.729  1.00  0.00     0.074 A 
ATOM     46  C   UNL A   1      40.863  31.955  30.839  1.00  0.00     0.031 C 
ATOM     47  C   UNL A   1      40.165  25.575  28.276  1.00  0.00     0.029 A 
ATOM     48  C   UNL A   1      41.506  25.942  28.697  1.00  0.00     0.049 A 
ATOM     49  H   UNL A   1      42.103  27.702  29.647  1.00  0.00     0.167 HD
ATOM     50  C   UNL A   1      43.316  31.683  31.120  1.00  0.00     0.031 A 
ATOM     51  C   UNL A   1      42.593  25.169  28.516  1.00  0.00     0.031 A 
ATOM     52  C   UNL A   1      44.532  30.909  31.021  1.00  0.00     0.049 A 
ATOM     53  C   UNL A   1      43.930  25.715  28.907  1.00  0.00     0.074 A 
ATOM     54  C   UNL A   1      45.813  31.260  31.408  1.00  0.00     0.029 A 
ATOM     55  N   UNL A   1      44.611  29.621  30.506  1.00  0.00    -0.354 N 
ATOM     56  N   UNL A   1      44.217  26.890  29.414  1.00  0.00    -0.248 NA
ATOM     57  C   UNL A   1      45.089  24.841  28.698  1.00  0.00     0.031 C 
ATOM     58  C   UNL A   1      46.676  30.214  31.066  1.00  0.00     0.029 A 
ATOM     59  C   UNL A   1      45.923  29.175  30.539  1.00  0.00     0.049 A 
ATOM     60  H   UNL A   1      43.848  29.100  30.165  1.00  0.00     0.167 HD
ATOM     61  C   UNL A   1      45.591  26.892  29.607  1.00  0.00     0.074 A 
ATOM     62  C   UNL A   1      46.073  25.593  29.172  1.00  0.00     0.031 C 
ATOM     63  C   UNL A   1      46.380  27.877  30.100  1.00  0.00     0.031 A 
BRANCH  50  64
ATOM     64  C   UNL A   1      43.399  33.108  31.622  1.00  0.00    -0.014 A 
ATOM     65  C   UNL A   1      43.645  34.195  30.763  1.00  0.00     0.010 A 
ATOM     66  C   UNL A   1      43.221  33.365  32.995  1.00  0.00     0.010 A 
ATOM     67  C   UNL A   1      43.772  35.495  31.273  1.00  0.00     0.020 A 
ATOM     68  C   UNL A   1      43.308  34.666  33.503  1.00  0.00     0.020 A 
ATOM     69  C   UNL A   1      43.608  35.722  32.641  1.00  0.00     0.054 A 
BRANCH  69  70
ATOM     70  S   UNL A   1      43.763  37.414  33.282  1.00  0.00     0.124 S 
ATOM     71  O   UNL A   1      42.569  37.545  34.115  1.00  0.00    -0.237 OA
ATOM     72  O   UNL A   1      45.032  37.378  34.002  1.00  0.00    -0.237 OA
ATOM     73  O   UNL A   1      43.764  38.243  32.078  1.00  0.00    -0.744 OA
ENDBRANCH  69  70
ENDBRANCH  50  64
BRANCH  51  74
ATOM     74  C   UNL A   1      42.437  23.836  27.869  1.00  0.00    -0.014 A 
ATOM     75  C   UNL A   1      42.615  23.684  26.485  1.00  0.00     0.010 A 
ATOM     76  C   UNL A   1      42.194  22.693  28.657  1.00  0.00     0.010 A 
ATOM     77  C   UNL A   1      42.556  22.416  25.900  1.00  0.00     0.020 A 
ATOM     78  C   UNL A   1      42.170  21.420  28.082  1.00  0.00     0.020 A 
ATOM     79  C   UNL A   1      42.345  21.290  26.704  1.00  0.00     0.054 A 
BRANCH  79  80
ATOM     80  S   UNL A   1      42.357  19.649  25.932  1.00  0.00     0.124 S 
ATOM     81  O   UNL A   1      42.690  18.785  27.060  1.00  0.00    -0.237 OA
ATOM     82  O   UNL A   1      40.993  19.530  25.423  1.00  0.00    -0.237 OA
ATOM     83  O   UNL A   1      43.389  19.761  24.903  1.00  0.00    -0.744 OA
ENDBRANCH  79  80
ENDBRANCH  51  74
BRANCH  63  84
ATOM     84  C   UNL A   1      47.847  27.573  30.242  1.00  0.00    -0.014 A 
ATOM     85  C   UNL A   1      48.756  27.836  29.202  1.00  0.00     0.010 A 
ATOM     86  C   UNL A   1      48.329  27.077  31.468  1.00  0.00     0.010 A 
ATOM     87  C   UNL A   1      50.120  27.595  29.382  1.00  0.00     0.020 A 
ATOM     88  C   UNL A   1      49.695  26.865  31.662  1.00  0.00     0.020 A 
ATOM     89  C   UNL A   1      50.582  27.119  30.614  1.00  0.00     0.054 A 
BRANCH  89  90
ATOM     90  S   UNL A   1      52.365  26.888  30.845  1.00  0.00     0.124 S 
ATOM     91  O   UNL A   1      52.676  27.900  31.850  1.00  0.00    -0.237 OA
ATOM     92  O   UNL A   1      52.450  25.503  31.301  1.00  0.00    -0.237 OA
ATOM     93  O   UNL A   1      52.924  27.136  29.518  1.00  0.00    -0.744 OA
ENDBRANCH  89  90
ENDBRANCH  63  84
ENDBRANCH  37  38
ENDBRANCH  30  32
ENDBRANCH  29  30
ENDBRANCH  28  29
ENDBRANCH   1  28
TORSDOF 18
ENDMDL
MODEL 3
REMARK VINA RESULT:     -11.5      3.299      8.969
REMARK SMILES O=C(CC1(C(=O)OCCOC(=O)c2ccc(-c3c4nc(c(-c5ccc(S(=O)(=O)[O-])cc5)c5ccc([nH]5)c(-c5ccc(S(=O)(=O)[O-])cc5)c5nc(c(-c6ccc(S(=O)(=O)[O-])cc6)c6ccc3[nH]6)C=C5)C=C4)cc2)CCCCC1)Nc1ccc(N2CCOC2=O)cc1
REMARK SMILES IDX 8 1 7 2 5 3 6 4 4 5 73 6 77 7 74 8 76 9 75 10 3 11 2 12 1 13
REMARK SMILES IDX 78 14 79 16 80 17 90 18 81 19 89 20 82 21 83 22 84 23 87 24
REMARK SMILES IDX 85 25 86 26 88 27 9 28 10 29 11 30 12 31 13 32 14 33 72 34
REMARK SMILES IDX 15 35 71 36 16 37 17 38 18 39 65 40 19 41 70 42 64 43 66 44
REMARK SMILES IDX 20 45 69 46 63 47 62 48 21 50 51 51 32 52 50 53 33 54 36 55
REMARK SMILES IDX 49 56 67 57 34 58 35 59 48 61 68 62 37 63 22 64 23 65 31 66
REMARK SMILES IDX 24 67 30 68 25 69 26 70 27 71 28 72 29 73 52 74 53 75 61 76
REMARK SMILES IDX 54 77 60 78 55 79 56 80 57 81 58 82 59 83 38 84 39 85 47 86
REMARK SMILES IDX 40 87 46 88 41 89 42 90 43 91 44 92 45 93
REMARK H PARENT 78 15 66 49 36 60
REMARK Flexibility Score: inf
ROOT
ATOM      1  C   UNL A   1      32.075  29.887  25.832  1.00  0.00     0.274 C 
ENDROOT
BRANCH   1   2
ATOM      2  O   UNL A   1      31.844  28.499  25.522  1.00  0.00    -0.462 OA
BRANCH   2   3
ATOM      3  C   UNL A   1      32.758  27.878  24.738  1.00  0.00     0.312 C 
ATOM      4  O   UNL A   1      33.733  28.444  24.251  1.00  0.00    -0.252 OA
BRANCH   3   5
ATOM      5  C   UNL A   1      32.446  26.386  24.478  1.00  0.00     0.077 C 
ATOM      6  C   UNL A   1      31.990  26.300  23.002  1.00  0.00     0.019 C 
ATOM      7  C   UNL A   1      31.345  25.804  25.397  1.00  0.00     0.019 C 
ATOM      8  C   UNL A   1      30.617  26.928  22.779  1.00  0.00     0.001 C 
ATOM      9  C   UNL A   1      29.927  26.302  25.120  1.00  0.00     0.001 C 
ATOM     10  C   UNL A   1      29.564  26.250  23.644  1.00  0.00     0.000 C 
BRANCH   5  11
ATOM     11  C   UNL A   1      33.805  25.639  24.624  1.00  0.00     0.119 C 
BRANCH  11  12
ATOM     12  C   UNL A   1      33.848  24.196  25.078  1.00  0.00     0.225 C 
ATOM     13  O   UNL A   1      34.011  23.920  26.264  1.00  0.00    -0.275 OA
ATOM     14  N   UNL A   1      33.700  23.279  24.051  1.00  0.00    -0.326 N 
ATOM     15  H   UNL A   1      33.629  23.615  23.129  1.00  0.00     0.169 HD
BRANCH  14  16
ATOM     16  C   UNL A   1      33.646  21.891  24.261  1.00  0.00     0.041 A 
ATOM     17  C   UNL A   1      32.443  21.230  24.018  1.00  0.00     0.028 A 
ATOM     18  C   UNL A   1      34.754  21.175  24.713  1.00  0.00     0.028 A 
ATOM     19  C   UNL A   1      32.382  19.837  24.112  1.00  0.00     0.028 A 
ATOM     20  C   UNL A   1      34.655  19.798  24.923  1.00  0.00     0.028 A 
ATOM     21  C   UNL A   1      33.485  19.114  24.579  1.00  0.00     0.047 A 
BRANCH  21  22
ATOM     22  N   UNL A   1      33.441  17.715  24.666  1.00  0.00    -0.274 N 
ATOM     23  C   UNL A   1      33.180  17.003  25.873  1.00  0.00     0.171 C 
ATOM     24  C   UNL A   1      33.605  16.835  23.614  1.00  0.00     0.414 C 
ATOM     25  C   UNL A   1      32.825  15.629  25.358  1.00  0.00     0.257 C 
ATOM     26  O   UNL A   1      33.412  15.554  24.059  1.00  0.00    -0.447 OA
ATOM     27  O   UNL A   1      33.901  17.111  22.461  1.00  0.00    -0.224 OA
ENDBRANCH  21  22
ENDBRANCH  14  16
ENDBRANCH  11  12
ENDBRANCH   5  11
ENDBRANCH   3   5
ENDBRANCH   2   3
ENDBRANCH   1   2
BRANCH   1  28
ATOM     28  C   UNL A   1      32.800  30.025  27.170  1.00  0.00     0.275 C 
BRANCH  28  29
ATOM     29  O   UNL A   1      34.080  30.659  27.011  1.00  0.00    -0.458 OA
BRANCH  29  30
ATOM     30  C   UNL A   1      34.700  30.981  28.165  1.00  0.00     0.338 C 
ATOM     31  O   UNL A   1      34.289  31.696  29.068  1.00  0.00    -0.246 OA
BRANCH  30  32
ATOM     32  C   UNL A   1      35.946  30.226  28.303  1.00  0.00     0.060 A 
ATOM     33  C   UNL A   1      36.342  29.893  29.591  1.00  0.00     0.016 A 
ATOM     34  C   UNL A   1      36.832  30.120  27.237  1.00  0.00     0.016 A 
ATOM     35  C   UNL A   1      37.685  29.684  29.857  1.00  0.00     0.010 A 
ATOM     36  C   UNL A   1      38.139  29.695  27.488  1.00  0.00     0.010 A 
ATOM     37  C   UNL A   1      38.597  29.525  28.808  1.00  0.00    -0.014 A 
BRANCH  37  38
ATOM     38  C   UNL A   1      40.011  29.151  29.089  1.00  0.00     0.031 A 
ATOM     39  C   UNL A   1      40.987  30.183  29.590  1.00  0.00     0.074 A 
ATOM     40  C   UNL A   1      40.424  27.888  28.849  1.00  0.00     0.049 A 
ATOM     41  N   UNL A   1      42.294  30.132  29.625  1.00  0.00    -0.248 NA
ATOM     42  C   UNL A   1      40.423  31.448  30.087  1.00  0.00     0.031 C 
ATOM     43  C   UNL A   1      39.572  26.778  28.407  1.00  0.00     0.029 A 
ATOM     44  N   UNL A   1      41.673  27.321  28.928  1.00  0.00    -0.354 N 
ATOM     45  C   UNL A   1      42.711  31.381  30.077  1.00  0.00     0.074 A 
ATOM     46  C   UNL A   1      41.516  32.169  30.295  1.00  0.00     0.031 C 
ATOM     47  C   UNL A   1      40.307  25.667  28.290  1.00  0.00     0.029 A 
ATOM     48  C   UNL A   1      41.702  26.010  28.508  1.00  0.00     0.049 A 
ATOM     49  H   UNL A   1      42.468  27.805  29.250  1.00  0.00     0.167 HD
ATOM     50  C   UNL A   1      43.977  31.824  30.277  1.00  0.00     0.031 A 
ATOM     51  C   UNL A   1      42.732  25.187  28.243  1.00  0.00     0.031 A 
ATOM     52  C   UNL A   1      45.146  31.001  30.076  1.00  0.00     0.049 A 
ATOM     53  C   UNL A   1      44.125  25.707  28.421  1.00  0.00     0.074 A 
ATOM     54  C   UNL A   1      46.476  31.328  30.270  1.00  0.00     0.029 A 
ATOM     55  N   UNL A   1      45.121  29.679  29.645  1.00  0.00    -0.354 N 
ATOM     56  N   UNL A   1      44.509  26.900  28.804  1.00  0.00    -0.248 NA
ATOM     57  C   UNL A   1      45.220  24.778  28.125  1.00  0.00     0.031 C 
ATOM     58  C   UNL A   1      47.257  30.230  29.893  1.00  0.00     0.029 A 
ATOM     59  C   UNL A   1      46.412  29.188  29.540  1.00  0.00     0.049 A 
ATOM     60  H   UNL A   1      44.305  29.167  29.442  1.00  0.00     0.167 HD
ATOM     61  C   UNL A   1      45.896  26.864  28.818  1.00  0.00     0.074 A 
ATOM     62  C   UNL A   1      46.280  25.523  28.416  1.00  0.00     0.031 C 
ATOM     63  C   UNL A   1      46.771  27.848  29.136  1.00  0.00     0.031 A 
BRANCH  50  64
ATOM     64  C   UNL A   1      44.165  33.275  30.664  1.00  0.00    -0.014 A 
ATOM     65  C   UNL A   1      44.187  33.699  32.005  1.00  0.00     0.010 A 
ATOM     66  C   UNL A   1      44.326  34.241  29.652  1.00  0.00     0.010 A 
ATOM     67  C   UNL A   1      44.305  35.059  32.323  1.00  0.00     0.020 A 
ATOM     68  C   UNL A   1      44.484  35.596  29.966  1.00  0.00     0.020 A 
ATOM     69  C   UNL A   1      44.448  36.000  31.301  1.00  0.00     0.054 A 
BRANCH  69  70
ATOM     70  S   UNL A   1      44.613  37.757  31.732  1.00  0.00     0.124 S 
ATOM     71  O   UNL A   1      46.062  37.945  31.737  1.00  0.00    -0.237 OA
ATOM     72  O   UNL A   1      43.895  38.429  30.653  1.00  0.00    -0.237 OA
ATOM     73  O   UNL A   1      43.977  37.854  33.045  1.00  0.00    -0.744 OA
ENDBRANCH  69  70
ENDBRANCH  50  64
BRANCH  51  74
ATOM     74  C   UNL A   1      42.455  23.822  27.715  1.00  0.00    -0.014 A 
ATOM     75  C   UNL A   1      42.430  23.578  26.333  1.00  0.00     0.010 A 
ATOM     76  C   UNL A   1      42.301  22.739  28.604  1.00  0.00     0.010 A 
ATOM     77  C   UNL A   1      42.259  22.278  25.849  1.00  0.00     0.020 A 
ATOM     78  C   UNL A   1      42.166  21.434  28.124  1.00  0.00     0.020 A 
ATOM     79  C   UNL A   1      42.139  21.212  26.747  1.00  0.00     0.054 A 
BRANCH  79  80
ATOM     80  S   UNL A   1      42.003  19.526  26.092  1.00  0.00     0.124 S 
ATOM     81  O   UNL A   1      40.568  19.405  25.861  1.00  0.00    -0.237 OA
ATOM     82  O   UNL A   1      42.836  19.586  24.893  1.00  0.00    -0.237 OA
ATOM     83  O   UNL A   1      42.536  18.695  27.170  1.00  0.00    -0.744 OA
ENDBRANCH  79  80
ENDBRANCH  51  74
BRANCH  63  84
ATOM     84  C   UNL A   1      48.234  27.499  29.109  1.00  0.00    -0.014 A 
ATOM     85  C   UNL A   1      48.986  27.576  27.924  1.00  0.00     0.010 A 
ATOM     86  C   UNL A   1      48.879  27.154  30.312  1.00  0.00     0.010 A 
ATOM     87  C   UNL A   1      50.355  27.300  27.940  1.00  0.00     0.020 A 
ATOM     88  C   UNL A   1      50.252  26.908  30.337  1.00  0.00     0.020 A 
ATOM     89  C   UNL A   1      50.981  26.976  29.148  1.00  0.00     0.054 A 
BRANCH  89  90
ATOM     90  S   UNL A   1      52.773  26.697  29.153  1.00  0.00     0.124 S 
ATOM     91  O   UNL A   1      52.977  26.001  27.886  1.00  0.00    -0.237 OA
ATOM     92  O   UNL A   1      53.306  28.055  29.218  1.00  0.00    -0.237 OA
ATOM     93  O   UNL A   1      52.996  25.889  30.350  1.00  0.00    -0.744 OA
ENDBRANCH  89  90
ENDBRANCH  63  84
ENDBRANCH  37  38
ENDBRANCH  30  32
ENDBRANCH  29  30
ENDBRANCH  28  29
ENDBRANCH   1  28
TORSDOF 18
ENDMDL
