MODEL 1
REMARK VINA RESULT:      -9.6      0.000      0.000
REMARK SMILES COc1cc(OC)nc(Oc2ccccc2C(=O)NCC(=O)OCCOC(=O)c2ccc(-c3c4nc(c(-c5ccc(S(=O)(=O)[O-])cc5)c5ccc([nH]5)c(-c5ccc(S(=O)(=O)[O-])cc5)c5nc(c(-c6ccc(S(=O)(=O)[O-])cc6)c6ccc3[nH]6)C=C5)C=C4)cc2)n1
REMARK SMILES IDX 24 1 23 2 21 3 22 4 20 5 19 6 17 7 18 8 16 10 11 11 12 12
REMARK SMILES IDX 13 13 15 14 14 15 10 16 9 17 3 18 4 19 89 20 5 21 8 22 2 23
REMARK SMILES IDX 1 24 6 25 7 26 25 27 26 28 27 29 28 30 29 31 30 32 88 33
REMARK SMILES IDX 31 34 87 35 32 36 33 37 34 38 81 39 35 40 86 41 80 42 82 43
REMARK SMILES IDX 36 44 85 45 79 46 78 47 37 49 67 50 48 51 66 52 49 53 52 54
REMARK SMILES IDX 65 55 83 56 50 57 51 58 64 60 84 61 53 62 38 63 39 64 47 65
REMARK SMILES IDX 40 66 46 67 41 68 42 69 43 70 44 71 45 72 68 73 69 74 77 75
REMARK SMILES IDX 70 76 76 77 71 78 72 79 73 80 74 81 75 82 54 83 55 84 63 85
REMARK SMILES IDX 56 86 62 87 57 88 58 89 59 90 60 91 61 92
REMARK H PARENT 19 9 82 48 52 59
REMARK Flexibility Score: inf
ROOT
ATOM      1  C   UNL A   1      47.978  41.060  28.676  1.00  0.00     0.274 C 
ENDROOT
BRANCH   1   2
ATOM      2  O   UNL A   1      47.506  40.676  27.371  1.00  0.00    -0.461 OA
BRANCH   2   3
ATOM      3  C   UNL A   1      46.666  41.593  26.838  1.00  0.00     0.325 C 
ATOM      4  O   UNL A   1      45.860  42.259  27.489  1.00  0.00    -0.250 OA
BRANCH   3   5
ATOM      5  C   UNL A   1      46.911  41.916  25.386  1.00  0.00     0.239 C 
BRANCH   5   6
ATOM      6  N   UNL A   1      46.445  41.285  24.170  1.00  0.00    -0.341 N 
ATOM      7  C   UNL A   1      46.749  41.720  22.891  1.00  0.00     0.255 C 
ATOM      8  O   UNL A   1      46.540  40.997  21.920  1.00  0.00    -0.269 OA
ATOM      9  H   UNL A   1      45.871  40.490  24.259  1.00  0.00     0.164 HD
BRANCH   7  10
ATOM     10  C   UNL A   1      47.098  43.153  22.673  1.00  0.00     0.082 A 
ATOM     11  C   UNL A   1      46.350  44.282  23.051  1.00  0.00     0.143 A 
ATOM     12  C   UNL A   1      46.599  45.491  22.364  1.00  0.00     0.048 A 
ATOM     13  C   UNL A   1      47.618  45.604  21.410  1.00  0.00     0.004 A 
ATOM     14  C   UNL A   1      48.186  43.304  21.784  1.00  0.00     0.018 A 
ATOM     15  C   UNL A   1      48.444  44.520  21.154  1.00  0.00     0.001 A 
BRANCH  11  16
ATOM     16  O   UNL A   1      45.241  44.373  23.870  1.00  0.00    -0.423 OA
BRANCH  16  17
ATOM     17  C   UNL A   1      44.028  43.779  23.557  1.00  0.00     0.328 A 
ATOM     18  C   UNL A   1      42.453  42.196  24.217  1.00  0.00     0.223 A 
ATOM     19  C   UNL A   1      41.689  42.505  23.121  1.00  0.00     0.137 A 
ATOM     20  N   UNL A   1      43.642  42.817  24.415  1.00  0.00    -0.159 NA
ATOM     21  C   UNL A   1      42.237  43.438  22.249  1.00  0.00     0.223 A 
ATOM     22  N   UNL A   1      43.387  44.109  22.448  1.00  0.00    -0.159 NA
BRANCH  18  23
ATOM     23  O   UNL A   1      41.913  41.139  25.117  1.00  0.00    -0.481 OA
ATOM     24  C   UNL A   1      41.304  40.450  26.909  1.00  0.00     0.280 C 
ENDBRANCH  18  23
BRANCH  21  25
ATOM     25  O   UNL A   1      41.618  43.774  21.075  1.00  0.00    -0.481 OA
ATOM     26  C   UNL A   1      41.991  42.924  19.995  1.00  0.00     0.280 C 
ENDBRANCH  21  25
ENDBRANCH  16  17
ENDBRANCH  11  16
ENDBRANCH   7  10
ENDBRANCH   5   6
ENDBRANCH   3   5
ENDBRANCH   2   3
ENDBRANCH   1   2
BRANCH   1  27
ATOM     27  C   UNL A   1      48.397  39.828  29.484  1.00  0.00     0.275 C 
BRANCH  27  28
ATOM     28  O   UNL A   1      47.922  38.594  28.898  1.00  0.00    -0.458 OA
BRANCH  28  29
ATOM     29  C   UNL A   1      48.791  37.569  29.037  1.00  0.00     0.338 C 
ATOM     30  O   UNL A   1      49.985  37.655  29.295  1.00  0.00    -0.246 OA
BRANCH  29  31
ATOM     31  C   UNL A   1      48.216  36.278  28.698  1.00  0.00     0.060 A 
ATOM     32  C   UNL A   1      47.351  35.842  27.178  1.00  0.00     0.016 A 
ATOM     33  C   UNL A   1      48.228  35.151  30.090  1.00  0.00     0.016 A 
ATOM     34  C   UNL A   1      46.391  34.273  27.119  1.00  0.00     0.010 A 
ATOM     35  C   UNL A   1      47.372  33.597  30.001  1.00  0.00     0.010 A 
ATOM     36  C   UNL A   1      46.421  33.127  28.535  1.00  0.00    -0.014 A 
BRANCH  36  37
ATOM     37  C   UNL A   1      46.005  31.671  28.483  1.00  0.00     0.031 A 
ATOM     38  C   UNL A   1      46.887  30.610  27.813  1.00  0.00     0.074 A 
ATOM     39  C   UNL A   1      44.727  31.339  28.775  1.00  0.00     0.049 A 
ATOM     40  N   UNL A   1      46.564  29.417  27.364  1.00  0.00    -0.248 NA
ATOM     41  C   UNL A   1      48.292  30.959  27.542  1.00  0.00     0.031 C 
ATOM     42  C   UNL A   1      43.699  32.241  29.292  1.00  0.00     0.029 A 
ATOM     43  N   UNL A   1      44.045  30.150  28.624  1.00  0.00    -0.354 N 
ATOM     44  C   UNL A   1      47.692  28.923  26.698  1.00  0.00     0.074 A 
ATOM     45  C   UNL A   1      48.682  29.973  26.743  1.00  0.00     0.031 C 
ATOM     46  C   UNL A   1      42.550  31.586  29.460  1.00  0.00     0.029 A 
ATOM     47  C   UNL A   1      42.713  30.231  28.973  1.00  0.00     0.049 A 
ATOM     48  H   UNL A   1      44.468  29.324  28.298  1.00  0.00     0.167 HD
ATOM     49  C   UNL A   1      47.902  27.704  26.132  1.00  0.00     0.031 A 
ATOM     50  C   UNL A   1      41.698  29.353  28.895  1.00  0.00     0.031 A 
ATOM     51  C   UNL A   1      46.939  26.630  26.173  1.00  0.00     0.049 A 
ATOM     52  C   UNL A   1      41.967  27.987  28.361  1.00  0.00     0.074 A 
ATOM     53  C   UNL A   1      47.097  25.312  25.779  1.00  0.00     0.029 A 
ATOM     54  N   UNL A   1      45.644  26.747  26.658  1.00  0.00    -0.354 N 
ATOM     55  N   UNL A   1      43.069  27.526  27.825  1.00  0.00    -0.248 NA
ATOM     56  C   UNL A   1      40.873  27.014  28.447  1.00  0.00     0.031 C 
ATOM     57  C   UNL A   1      45.885  24.645  25.979  1.00  0.00     0.029 A 
ATOM     58  C   UNL A   1      44.992  25.530  26.561  1.00  0.00     0.049 A 
ATOM     59  H   UNL A   1      45.248  27.573  27.018  1.00  0.00     0.167 HD
ATOM     60  C   UNL A   1      42.816  26.192  27.548  1.00  0.00     0.074 A 
ATOM     61  C   UNL A   1      41.458  25.921  27.976  1.00  0.00     0.031 C 
ATOM     62  C   UNL A   1      43.644  25.273  26.997  1.00  0.00     0.031 A 
BRANCH  49  63
ATOM     63  C   UNL A   1      49.235  27.423  25.455  1.00  0.00    -0.014 A 
ATOM     64  C   UNL A   1      50.356  26.993  26.191  1.00  0.00     0.010 A 
ATOM     65  C   UNL A   1      49.352  27.498  24.051  1.00  0.00     0.010 A 
ATOM     66  C   UNL A   1      51.569  26.706  25.555  1.00  0.00     0.020 A 
ATOM     67  C   UNL A   1      50.554  27.175  23.405  1.00  0.00     0.020 A 
ATOM     68  C   UNL A   1      51.663  26.802  24.165  1.00  0.00     0.054 A 
BRANCH  68  69
ATOM     69  S   UNL A   1      53.248  26.405  23.372  1.00  0.00     0.124 S 
ATOM     70  O   UNL A   1      54.023  27.616  23.626  1.00  0.00    -0.237 OA
ATOM     71  O   UNL A   1      53.684  25.218  24.103  1.00  0.00    -0.237 OA
ATOM     72  O   UNL A   1      52.892  26.177  21.973  1.00  0.00    -0.744 OA
ENDBRANCH  68  69
ENDBRANCH  49  63
BRANCH  50  73
ATOM     73  C   UNL A   1      40.357  29.748  29.410  1.00  0.00    -0.014 A 
ATOM     74  C   UNL A   1      40.152  29.873  30.795  1.00  0.00     0.010 A 
ATOM     75  C   UNL A   1      39.321  30.115  28.529  1.00  0.00     0.010 A 
ATOM     76  C   UNL A   1      38.934  30.344  31.291  1.00  0.00     0.020 A 
ATOM     77  C   UNL A   1      38.113  30.620  29.021  1.00  0.00     0.020 A 
ATOM     78  C   UNL A   1      37.925  30.722  30.401  1.00  0.00     0.054 A 
BRANCH  78  79
ATOM     79  S   UNL A   1      36.382  31.397  31.076  1.00  0.00     0.124 S 
ATOM     80  O   UNL A   1      36.827  32.674  31.625  1.00  0.00    -0.237 OA
ATOM     81  O   UNL A   1      35.530  31.479  29.891  1.00  0.00    -0.237 OA
ATOM     82  O   UNL A   1      35.973  30.399  32.061  1.00  0.00    -0.744 OA
ENDBRANCH  78  79
ENDBRANCH  50  73
BRANCH  62  83
ATOM     83  C   UNL A   1      43.126  23.870  26.874  1.00  0.00    -0.014 A 
ATOM     84  C   UNL A   1      42.652  23.374  25.648  1.00  0.00     0.010 A 
ATOM     85  C   UNL A   1      43.184  23.017  27.991  1.00  0.00     0.010 A 
ATOM     86  C   UNL A   1      42.235  22.046  25.544  1.00  0.00     0.020 A 
ATOM     87  C   UNL A   1      42.796  21.682  27.883  1.00  0.00     0.020 A 
ATOM     88  C   UNL A   1      42.320  21.207  26.660  1.00  0.00     0.054 A 
BRANCH  88  89
ATOM     89  S   UNL A   1      41.861  19.464  26.471  1.00  0.00     0.124 S 
ATOM     90  O   UNL A   1      42.618  19.078  25.283  1.00  0.00    -0.237 OA
ATOM     91  O   UNL A   1      42.319  18.876  27.728  1.00  0.00    -0.237 OA
ATOM     92  O   UNL A   1      40.411  19.503  26.299  1.00  0.00    -0.744 OA
ENDBRANCH  88  89
ENDBRANCH  62  83
ENDBRANCH  36  37
ENDBRANCH  29  31
ENDBRANCH  28  29
ENDBRANCH  27  28
ENDBRANCH   1  27
TORSDOF 20
ENDMDL
MODEL 2
REMARK VINA RESULT:      -9.4      9.121     15.372
REMARK SMILES COc1cc(OC)nc(Oc2ccccc2C(=O)NCC(=O)OCCOC(=O)c2ccc(-c3c4nc(c(-c5ccc(S(=O)(=O)[O-])cc5)c5ccc([nH]5)c(-c5ccc(S(=O)(=O)[O-])cc5)c5nc(c(-c6ccc(S(=O)(=O)[O-])cc6)c6ccc3[nH]6)C=C5)C=C4)cc2)n1
REMARK SMILES IDX 24 1 23 2 21 3 22 4 20 5 19 6 17 7 18 8 16 10 11 11 12 12
REMARK SMILES IDX 13 13 15 14 14 15 10 16 9 17 3 18 4 19 89 20 5 21 8 22 2 23
REMARK SMILES IDX 1 24 6 25 7 26 25 27 26 28 27 29 28 30 29 31 30 32 88 33
REMARK SMILES IDX 31 34 87 35 32 36 33 37 34 38 81 39 35 40 86 41 80 42 82 43
REMARK SMILES IDX 36 44 85 45 79 46 78 47 37 49 67 50 48 51 66 52 49 53 52 54
REMARK SMILES IDX 65 55 83 56 50 57 51 58 64 60 84 61 53 62 38 63 39 64 47 65
REMARK SMILES IDX 40 66 46 67 41 68 42 69 43 70 44 71 45 72 68 73 69 74 77 75
REMARK SMILES IDX 70 76 76 77 71 78 72 79 73 80 74 81 75 82 54 83 55 84 63 85
REMARK SMILES IDX 56 86 62 87 57 88 58 89 59 90 60 91 61 92
REMARK H PARENT 19 9 82 48 52 59
REMARK Flexibility Score: inf
ROOT
ATOM      1  C   UNL A   1      33.584  30.855  27.686  1.00  0.00     0.274 C 
ENDROOT
BRANCH   1   2
ATOM      2  O   UNL A   1      33.225  30.424  26.360  1.00  0.00    -0.461 OA
BRANCH   2   3
ATOM      3  C   UNL A   1      31.926  30.667  26.075  1.00  0.00     0.325 C 
ATOM      4  O   UNL A   1      31.316  31.680  26.417  1.00  0.00    -0.250 OA
BRANCH   3   5
ATOM      5  C   UNL A   1      31.290  29.696  25.113  1.00  0.00     0.239 C 
BRANCH   5   6
ATOM      6  N   UNL A   1      30.499  29.906  23.919  1.00  0.00    -0.341 N 
ATOM      7  C   UNL A   1      30.443  29.029  22.847  1.00  0.00     0.255 C 
ATOM      8  O   UNL A   1      29.564  29.141  21.996  1.00  0.00    -0.269 OA
ATOM      9  H   UNL A   1      29.964  30.731  23.864  1.00  0.00     0.164 HD
BRANCH   7  10
ATOM     10  C   UNL A   1      31.590  28.110  22.598  1.00  0.00     0.082 A 
ATOM     11  C   UNL A   1      31.645  26.726  22.839  1.00  0.00     0.143 A 
ATOM     12  C   UNL A   1      32.921  26.138  22.983  1.00  0.00     0.048 A 
ATOM     13  C   UNL A   1      34.099  26.871  22.796  1.00  0.00     0.004 A 
ATOM     14  C   UNL A   1      32.781  28.816  22.314  1.00  0.00     0.018 A 
ATOM     15  C   UNL A   1      34.028  28.202  22.413  1.00  0.00     0.001 A 
BRANCH  11  16
ATOM     16  O   UNL A   1      30.631  25.845  23.164  1.00  0.00    -0.423 OA
BRANCH  16  17
ATOM     17  C   UNL A   1      30.832  24.740  23.977  1.00  0.00     0.328 A 
ATOM     18  C   UNL A   1      31.578  22.536  24.051  1.00  0.00     0.223 A 
ATOM     19  C   UNL A   1      31.296  22.489  25.392  1.00  0.00     0.137 A 
ATOM     20  N   UNL A   1      31.315  23.660  23.338  1.00  0.00    -0.159 NA
ATOM     21  C   UNL A   1      30.702  23.628  25.922  1.00  0.00     0.223 A 
ATOM     22  N   UNL A   1      30.480  24.775  25.252  1.00  0.00    -0.159 NA
BRANCH  18  23
ATOM     23  O   UNL A   1      32.140  21.293  23.455  1.00  0.00    -0.481 OA
ATOM     24  C   UNL A   1      32.616  19.335  23.507  1.00  0.00     0.280 C 
ENDBRANCH  18  23
BRANCH  21  25
ATOM     25  O   UNL A   1      30.293  23.684  27.228  1.00  0.00    -0.481 OA
ATOM     26  C   UNL A   1      29.251  22.755  27.515  1.00  0.00     0.280 C 
ENDBRANCH  21  25
ENDBRANCH  16  17
ENDBRANCH  11  16
ENDBRANCH   7  10
ENDBRANCH   5   6
ENDBRANCH   3   5
ENDBRANCH   2   3
ENDBRANCH   1   2
BRANCH   1  27
ATOM     27  C   UNL A   1      34.846  31.722  27.650  1.00  0.00     0.275 C 
BRANCH  27  28
ATOM     28  O   UNL A   1      34.636  33.029  28.233  1.00  0.00    -0.458 OA
BRANCH  28  29
ATOM     29  C   UNL A   1      34.802  33.048  29.573  1.00  0.00     0.338 C 
ATOM     30  O   UNL A   1      34.048  33.554  30.395  1.00  0.00    -0.246 OA
BRANCH  29  31
ATOM     31  C   UNL A   1      36.087  32.520  30.001  1.00  0.00     0.060 A 
ATOM     32  C   UNL A   1      37.718  33.141  29.551  1.00  0.00     0.016 A 
ATOM     33  C   UNL A   1      35.917  30.964  30.872  1.00  0.00     0.016 A 
ATOM     34  C   UNL A   1      39.195  32.101  29.905  1.00  0.00     0.010 A 
ATOM     35  C   UNL A   1      37.351  30.002  31.290  1.00  0.00     0.010 A 
ATOM     36  C   UNL A   1      39.013  30.527  30.804  1.00  0.00    -0.014 A 
BRANCH  36  37
ATOM     37  C   UNL A   1      40.143  29.779  31.481  1.00  0.00     0.031 A 
ATOM     38  C   UNL A   1      40.782  30.293  32.777  1.00  0.00     0.074 A 
ATOM     39  C   UNL A   1      40.788  28.803  30.801  1.00  0.00     0.049 A 
ATOM     40  N   UNL A   1      41.951  30.004  33.304  1.00  0.00    -0.248 NA
ATOM     41  C   UNL A   1      40.052  31.320  33.540  1.00  0.00     0.031 C 
ATOM     42  C   UNL A   1      40.413  28.273  29.492  1.00  0.00     0.029 A 
ATOM     43  N   UNL A   1      41.945  28.111  31.093  1.00  0.00    -0.354 N 
ATOM     44  C   UNL A   1      42.120  30.863  34.396  1.00  0.00     0.074 A 
ATOM     45  C   UNL A   1      40.964  31.729  34.413  1.00  0.00     0.031 C 
ATOM     46  C   UNL A   1      41.272  27.325  29.112  1.00  0.00     0.029 A 
ATOM     47  C   UNL A   1      42.327  27.233  30.100  1.00  0.00     0.049 A 
ATOM     48  H   UNL A   1      42.450  28.234  31.929  1.00  0.00     0.167 HD
ATOM     49  C   UNL A   1      43.119  30.911  35.319  1.00  0.00     0.031 A 
ATOM     50  C   UNL A   1      43.410  26.450  29.946  1.00  0.00     0.031 A 
ATOM     51  C   UNL A   1      44.222  29.981  35.346  1.00  0.00     0.049 A 
ATOM     52  C   UNL A   1      44.450  26.442  31.014  1.00  0.00     0.074 A 
ATOM     53  C   UNL A   1      45.200  29.830  36.315  1.00  0.00     0.029 A 
ATOM     54  N   UNL A   1      44.479  29.030  34.370  1.00  0.00    -0.354 N 
ATOM     55  N   UNL A   1      44.529  27.201  32.078  1.00  0.00    -0.248 NA
ATOM     56  C   UNL A   1      45.527  25.456  30.882  1.00  0.00     0.031 C 
ATOM     57  C   UNL A   1      46.076  28.822  35.901  1.00  0.00     0.029 A 
ATOM     58  C   UNL A   1      45.605  28.299  34.708  1.00  0.00     0.049 A 
ATOM     59  H   UNL A   1      43.941  28.894  33.557  1.00  0.00     0.167 HD
ATOM     60  C   UNL A   1      45.645  26.754  32.768  1.00  0.00     0.074 A 
ATOM     61  C   UNL A   1      46.207  25.660  32.003  1.00  0.00     0.031 C 
ATOM     62  C   UNL A   1      46.149  27.208  33.940  1.00  0.00     0.031 A 
BRANCH  49  63
ATOM     63  C   UNL A   1      43.062  31.963  36.416  1.00  0.00    -0.014 A 
ATOM     64  C   UNL A   1      43.625  33.242  36.236  1.00  0.00     0.010 A 
ATOM     65  C   UNL A   1      42.357  31.711  37.612  1.00  0.00     0.010 A 
ATOM     66  C   UNL A   1      43.540  34.214  37.239  1.00  0.00     0.020 A 
ATOM     67  C   UNL A   1      42.236  32.694  38.604  1.00  0.00     0.020 A 
ATOM     68  C   UNL A   1      42.849  33.933  38.420  1.00  0.00     0.054 A 
BRANCH  68  69
ATOM     69  S   UNL A   1      42.743  35.225  39.693  1.00  0.00     0.124 S 
ATOM     70  O   UNL A   1      43.926  34.947  40.503  1.00  0.00    -0.237 OA
ATOM     71  O   UNL A   1      42.798  36.455  38.906  1.00  0.00    -0.237 OA
ATOM     72  O   UNL A   1      41.464  34.965  40.350  1.00  0.00    -0.744 OA
ENDBRANCH  68  69
ENDBRANCH  49  63
BRANCH  50  73
ATOM     73  C   UNL A   1      43.500  25.567  28.750  1.00  0.00    -0.014 A 
ATOM     74  C   UNL A   1      44.242  25.983  27.631  1.00  0.00     0.010 A 
ATOM     75  C   UNL A   1      42.953  24.269  28.764  1.00  0.00     0.010 A 
ATOM     76  C   UNL A   1      44.425  25.125  26.544  1.00  0.00     0.020 A 
ATOM     77  C   UNL A   1      43.163  23.395  27.693  1.00  0.00     0.020 A 
ATOM     78  C   UNL A   1      43.891  23.834  26.585  1.00  0.00     0.054 A 
BRANCH  78  79
ATOM     79  S   UNL A   1      44.208  22.720  25.188  1.00  0.00     0.124 S 
ATOM     80  O   UNL A   1      44.665  23.649  24.159  1.00  0.00    -0.237 OA
ATOM     81  O   UNL A   1      45.226  21.821  25.728  1.00  0.00    -0.237 OA
ATOM     82  O   UNL A   1      42.908  22.101  24.942  1.00  0.00    -0.744 OA
ENDBRANCH  78  79
ENDBRANCH  50  73
BRANCH  62  83
ATOM     83  C   UNL A   1      47.340  26.487  34.499  1.00  0.00    -0.014 A 
ATOM     84  C   UNL A   1      48.642  26.983  34.318  1.00  0.00     0.010 A 
ATOM     85  C   UNL A   1      47.139  25.333  35.278  1.00  0.00     0.010 A 
ATOM     86  C   UNL A   1      49.728  26.329  34.903  1.00  0.00     0.020 A 
ATOM     87  C   UNL A   1      48.219  24.694  35.887  1.00  0.00     0.020 A 
ATOM     88  C   UNL A   1      49.507  25.194  35.691  1.00  0.00     0.054 A 
BRANCH  88  89
ATOM     89  S   UNL A   1      50.925  24.421  36.514  1.00  0.00     0.124 S 
ATOM     90  O   UNL A   1      52.051  24.995  35.781  1.00  0.00    -0.237 OA
ATOM     91  O   UNL A   1      50.776  24.874  37.895  1.00  0.00    -0.237 OA
ATOM     92  O   UNL A   1      50.710  22.991  36.306  1.00  0.00    -0.744 OA
ENDBRANCH  88  89
ENDBRANCH  62  83
ENDBRANCH  36  37
ENDBRANCH  29  31
ENDBRANCH  28  29
ENDBRANCH  27  28
ENDBRANCH   1  27
TORSDOF 20
ENDMDL
MODEL 3
REMARK VINA RESULT:      -9.1     10.790     16.248
REMARK SMILES COc1cc(OC)nc(Oc2ccccc2C(=O)NCC(=O)OCCOC(=O)c2ccc(-c3c4nc(c(-c5ccc(S(=O)(=O)[O-])cc5)c5ccc([nH]5)c(-c5ccc(S(=O)(=O)[O-])cc5)c5nc(c(-c6ccc(S(=O)(=O)[O-])cc6)c6ccc3[nH]6)C=C5)C=C4)cc2)n1
REMARK SMILES IDX 24 1 23 2 21 3 22 4 20 5 19 6 17 7 18 8 16 10 11 11 12 12
REMARK SMILES IDX 13 13 15 14 14 15 10 16 9 17 3 18 4 19 89 20 5 21 8 22 2 23
REMARK SMILES IDX 1 24 6 25 7 26 25 27 26 28 27 29 28 30 29 31 30 32 88 33
REMARK SMILES IDX 31 34 87 35 32 36 33 37 34 38 81 39 35 40 86 41 80 42 82 43
REMARK SMILES IDX 36 44 85 45 79 46 78 47 37 49 67 50 48 51 66 52 49 53 52 54
REMARK SMILES IDX 65 55 83 56 50 57 51 58 64 60 84 61 53 62 38 63 39 64 47 65
REMARK SMILES IDX 40 66 46 67 41 68 42 69 43 70 44 71 45 72 68 73 69 74 77 75
REMARK SMILES IDX 70 76 76 77 71 78 72 79 73 80 74 81 75 82 54 83 55 84 63 85
REMARK SMILES IDX 56 86 62 87 57 88 58 89 59 90 60 91 61 92
REMARK H PARENT 19 9 82 48 52 59
REMARK Flexibility Score: inf
ROOT
ATOM      1  C   UNL A   1      34.971  32.442  27.973  1.00  0.00     0.274 C 
ENDROOT
BRANCH   1   2
ATOM      2  O   UNL A   1      34.572  31.128  28.407  1.00  0.00    -0.461 OA
BRANCH   2   3
ATOM      3  C   UNL A   1      34.407  30.274  27.372  1.00  0.00     0.325 C 
ATOM      4  O   UNL A   1      35.239  29.436  27.021  1.00  0.00    -0.250 OA
BRANCH   3   5
ATOM      5  C   UNL A   1      33.024  30.258  26.771  1.00  0.00     0.239 C 
BRANCH   5   6
ATOM      6  N   UNL A   1      31.888  29.390  26.998  1.00  0.00    -0.341 N 
ATOM      7  C   UNL A   1      31.852  28.041  26.681  1.00  0.00     0.255 C 
ATOM      8  O   UNL A   1      30.968  27.319  27.133  1.00  0.00    -0.269 OA
ATOM      9  H   UNL A   1      31.085  29.786  27.406  1.00  0.00     0.164 HD
BRANCH   7  10
ATOM     10  C   UNL A   1      32.738  27.524  25.599  1.00  0.00     0.082 A 
ATOM     11  C   UNL A   1      32.749  27.905  24.247  1.00  0.00     0.143 A 
ATOM     12  C   UNL A   1      33.307  27.000  23.317  1.00  0.00     0.048 A 
ATOM     13  C   UNL A   1      33.923  25.809  23.721  1.00  0.00     0.004 A 
ATOM     14  C   UNL A   1      33.449  26.371  26.004  1.00  0.00     0.018 A 
ATOM     15  C   UNL A   1      34.036  25.517  25.072  1.00  0.00     0.001 A 
BRANCH  11  16
ATOM     16  O   UNL A   1      32.111  28.960  23.621  1.00  0.00    -0.423 OA
BRANCH  16  17
ATOM     17  C   UNL A   1      30.786  28.900  23.217  1.00  0.00     0.328 A 
ATOM     18  C   UNL A   1      29.134  29.930  21.940  1.00  0.00     0.223 A 
ATOM     19  C   UNL A   1      28.242  28.959  22.318  1.00  0.00     0.137 A 
ATOM     20  N   UNL A   1      30.403  29.913  22.418  1.00  0.00    -0.159 NA
ATOM     21  C   UNL A   1      28.720  28.024  23.229  1.00  0.00     0.223 A 
ATOM     22  N   UNL A   1      29.988  27.951  23.677  1.00  0.00    -0.159 NA
BRANCH  18  23
ATOM     23  O   UNL A   1      28.609  30.983  21.028  1.00  0.00    -0.481 OA
ATOM     24  C   UNL A   1      27.772  32.778  20.654  1.00  0.00     0.280 C 
ENDBRANCH  18  23
BRANCH  21  25
ATOM     25  O   UNL A   1      27.910  27.052  23.753  1.00  0.00    -0.481 OA
ATOM     26  C   UNL A   1      28.643  26.033  24.426  1.00  0.00     0.280 C 
ENDBRANCH  21  25
ENDBRANCH  16  17
ENDBRANCH  11  16
ENDBRANCH   7  10
ENDBRANCH   5   6
ENDBRANCH   3   5
ENDBRANCH   2   3
ENDBRANCH   1   2
BRANCH   1  27
ATOM     27  C   UNL A   1      35.502  33.263  29.153  1.00  0.00     0.275 C 
BRANCH  27  28
ATOM     28  O   UNL A   1      35.981  32.432  30.235  1.00  0.00    -0.458 OA
BRANCH  28  29
ATOM     29  C   UNL A   1      35.338  32.652  31.401  1.00  0.00     0.338 C 
ATOM     30  O   UNL A   1      34.127  32.741  31.561  1.00  0.00    -0.246 OA
BRANCH  29  31
ATOM     31  C   UNL A   1      36.235  32.939  32.508  1.00  0.00     0.060 A 
ATOM     32  C   UNL A   1      36.843  34.557  33.019  1.00  0.00     0.016 A 
ATOM     33  C   UNL A   1      36.920  31.445  33.221  1.00  0.00     0.016 A 
ATOM     34  C   UNL A   1      38.249  34.646  34.203  1.00  0.00     0.010 A 
ATOM     35  C   UNL A   1      38.220  31.535  34.429  1.00  0.00     0.010 A 
ATOM     36  C   UNL A   1      38.930  33.121  34.934  1.00  0.00    -0.014 A 
BRANCH  36  37
ATOM     37  C   UNL A   1      39.801  33.066  36.171  1.00  0.00     0.031 A 
ATOM     38  C   UNL A   1      41.303  32.769  36.081  1.00  0.00     0.074 A 
ATOM     39  C   UNL A   1      39.215  32.999  37.389  1.00  0.00     0.049 A 
ATOM     40  N   UNL A   1      42.128  32.342  37.012  1.00  0.00    -0.248 NA
ATOM     41  C   UNL A   1      41.948  32.892  34.763  1.00  0.00     0.031 C 
ATOM     42  C   UNL A   1      37.785  33.121  37.664  1.00  0.00     0.029 A 
ATOM     43  N   UNL A   1      39.748  32.751  38.636  1.00  0.00    -0.354 N 
ATOM     44  C   UNL A   1      43.345  32.075  36.374  1.00  0.00     0.074 A 
ATOM     45  C   UNL A   1      43.129  32.322  34.968  1.00  0.00     0.031 C 
ATOM     46  C   UNL A   1      37.553  32.998  38.972  1.00  0.00     0.029 A 
ATOM     47  C   UNL A   1      38.802  32.690  39.637  1.00  0.00     0.049 A 
ATOM     48  H   UNL A   1      40.711  32.629  38.796  1.00  0.00     0.167 HD
ATOM     49  C   UNL A   1      44.539  31.693  36.903  1.00  0.00     0.031 A 
ATOM     50  C   UNL A   1      38.880  32.390  40.946  1.00  0.00     0.031 A 
ATOM     51  C   UNL A   1      44.768  31.538  38.320  1.00  0.00     0.049 A 
ATOM     52  C   UNL A   1      40.213  32.067  41.532  1.00  0.00     0.074 A 
ATOM     53  C   UNL A   1      45.963  31.312  38.982  1.00  0.00     0.029 A 
ATOM     54  N   UNL A   1      43.783  31.614  39.294  1.00  0.00    -0.354 N 
ATOM     55  N   UNL A   1      41.357  31.914  40.914  1.00  0.00    -0.248 NA
ATOM     56  C   UNL A   1      40.275  31.909  42.988  1.00  0.00     0.031 C 
ATOM     57  C   UNL A   1      45.695  31.203  40.350  1.00  0.00     0.029 A 
ATOM     58  C   UNL A   1      44.342  31.428  40.546  1.00  0.00     0.049 A 
ATOM     59  H   UNL A   1      42.827  31.775  39.120  1.00  0.00     0.167 HD
ATOM     60  C   UNL A   1      42.289  31.683  41.913  1.00  0.00     0.074 A 
ATOM     61  C   UNL A   1      41.575  31.717  43.174  1.00  0.00     0.031 C 
ATOM     62  C   UNL A   1      43.621  31.472  41.792  1.00  0.00     0.031 A 
BRANCH  49  63
ATOM     63  C   UNL A   1      45.719  31.458  35.973  1.00  0.00    -0.014 A 
ATOM     64  C   UNL A   1      45.966  30.194  35.405  1.00  0.00     0.010 A 
ATOM     65  C   UNL A   1      46.545  32.534  35.583  1.00  0.00     0.010 A 
ATOM     66  C   UNL A   1      47.037  29.996  34.525  1.00  0.00     0.020 A 
ATOM     67  C   UNL A   1      47.594  32.350  34.672  1.00  0.00     0.020 A 
ATOM     68  C   UNL A   1      47.848  31.075  34.165  1.00  0.00     0.054 A 
BRANCH  68  69
ATOM     69  S   UNL A   1      49.216  30.784  33.007  1.00  0.00     0.124 S 
ATOM     70  O   UNL A   1      48.650  31.259  31.747  1.00  0.00    -0.237 OA
ATOM     71  O   UNL A   1      50.286  31.609  33.562  1.00  0.00    -0.237 OA
ATOM     72  O   UNL A   1      49.440  29.342  33.084  1.00  0.00    -0.744 OA
ENDBRANCH  68  69
ENDBRANCH  49  63
BRANCH  50  73
ATOM     73  C   UNL A   1      37.648  32.459  41.780  1.00  0.00    -0.014 A 
ATOM     74  C   UNL A   1      37.165  33.708  42.208  1.00  0.00     0.010 A 
ATOM     75  C   UNL A   1      36.889  31.303  42.050  1.00  0.00     0.010 A 
ATOM     76  C   UNL A   1      35.956  33.801  42.899  1.00  0.00     0.020 A 
ATOM     77  C   UNL A   1      35.661  31.397  42.712  1.00  0.00     0.020 A 
ATOM     78  C   UNL A   1      35.207  32.646  43.141  1.00  0.00     0.054 A 
BRANCH  78  79
ATOM     79  S   UNL A   1      33.606  32.809  43.979  1.00  0.00     0.124 S 
ATOM     80  O   UNL A   1      32.691  32.966  42.853  1.00  0.00    -0.237 OA
ATOM     81  O   UNL A   1      33.503  31.548  44.709  1.00  0.00    -0.237 OA
ATOM     82  O   UNL A   1      33.778  33.994  44.818  1.00  0.00    -0.744 OA
ENDBRANCH  78  79
ENDBRANCH  50  73
BRANCH  62  83
ATOM     83  C   UNL A   1      44.408  31.315  43.059  1.00  0.00    -0.014 A 
ATOM     84  C   UNL A   1      44.915  32.432  43.745  1.00  0.00     0.010 A 
ATOM     85  C   UNL A   1      44.581  30.029  43.605  1.00  0.00     0.010 A 
ATOM     86  C   UNL A   1      45.589  32.264  44.955  1.00  0.00     0.020 A 
ATOM     87  C   UNL A   1      45.229  29.861  44.828  1.00  0.00     0.020 A 
ATOM     88  C   UNL A   1      45.733  30.980  45.493  1.00  0.00     0.054 A 
BRANCH  88  89
ATOM     89  S   UNL A   1      46.530  30.802  47.111  1.00  0.00     0.124 S 
ATOM     90  O   UNL A   1      45.402  30.446  47.968  1.00  0.00    -0.237 OA
ATOM     91  O   UNL A   1      47.500  29.736  46.872  1.00  0.00    -0.237 OA
ATOM     92  O   UNL A   1      47.110  32.120  47.360  1.00  0.00    -0.744 OA
ENDBRANCH  88  89
ENDBRANCH  62  83
ENDBRANCH  36  37
ENDBRANCH  29  31
ENDBRANCH  28  29
ENDBRANCH  27  28
ENDBRANCH   1  27
TORSDOF 20
ENDMDL
