MODEL 1
REMARK VINA RESULT:      -9.9      0.000      0.000
REMARK SMILES C#CCN(CC(=O)OCCOC(=O)c1ccc(-c2c3nc(c(-c4ccc(S(=O)(=O)[O-])cc4)c4ccc([nH]4)c(-c4ccc(S(=O)(=O)[O-])cc4)c4nc(c(-c5ccc(S(=O)(=O)[O-])cc5)c5ccc2[nH]5)C=C4)C=C3)cc1)C(=O)NCCc1ccco1
REMARK SMILES IDX 9 1 8 2 6 3 7 4 5 5 4 6 3 7 2 8 1 9 74 10 75 11 76 12 77 14
REMARK SMILES IDX 78 15 79 16 80 17 83 18 81 19 82 20 10 21 11 22 12 23 13 24
REMARK SMILES IDX 14 25 15 26 73 27 16 28 72 29 17 30 18 31 19 32 66 33 20 34
REMARK SMILES IDX 71 35 65 36 67 37 21 38 70 39 64 40 63 41 22 43 52 44 33 45
REMARK SMILES IDX 51 46 34 47 37 48 50 49 68 50 35 51 36 52 49 54 69 55 38 56
REMARK SMILES IDX 23 57 24 58 32 59 25 60 31 61 26 62 27 63 28 64 29 65 30 66
REMARK SMILES IDX 53 67 54 68 62 69 55 70 61 71 56 72 57 73 58 74 59 75 60 76
REMARK SMILES IDX 39 77 40 78 48 79 41 80 47 81 42 82 43 83 44 84 45 85 46 86
REMARK H PARENT 76 13 67 42 37 53
REMARK Flexibility Score: inf
ROOT
ATOM      1  C   UNL A   1      33.511  29.995  26.603  1.00  0.00     0.274 C 
ENDROOT
BRANCH   1   2
ATOM      2  O   UNL A   1      32.230  29.674  27.197  1.00  0.00    -0.461 OA
BRANCH   2   3
ATOM      3  C   UNL A   1      31.985  28.346  27.385  1.00  0.00     0.325 C 
ATOM      4  O   UNL A   1      31.038  27.920  28.040  1.00  0.00    -0.250 OA
BRANCH   3   5
ATOM      5  C   UNL A   1      32.854  27.414  26.521  1.00  0.00     0.245 C 
BRANCH   5   6
ATOM      6  N   UNL A   1      32.206  26.756  25.405  1.00  0.00    -0.303 N 
BRANCH   6   7
ATOM      7  C   UNL A   1      31.082  25.912  25.805  1.00  0.00     0.211 C 
BRANCH   7   8
ATOM      8  C   UNL A   1      31.629  24.641  26.435  1.00  0.00    -0.085 C 
ATOM      9  C   UNL A   1      32.097  23.551  26.975  1.00  0.00     0.006 C 
ENDBRANCH   7   8
ENDBRANCH   6   7
BRANCH   6  10
ATOM     10  C   UNL A   1      32.462  26.826  24.073  1.00  0.00     0.318 C 
ATOM     11  O   UNL A   1      33.077  25.911  23.506  1.00  0.00    -0.249 OA
ATOM     12  N   UNL A   1      32.066  27.785  23.233  1.00  0.00    -0.337 N 
ATOM     13  H   UNL A   1      32.372  27.538  22.330  1.00  0.00     0.165 HD
BRANCH  12  14
ATOM     14  C   UNL A   1      31.349  29.067  23.131  1.00  0.00     0.125 C 
BRANCH  14  15
ATOM     15  C   UNL A   1      29.913  28.814  22.639  1.00  0.00     0.096 C 
BRANCH  15  16
ATOM     16  C   UNL A   1      28.968  29.956  22.708  1.00  0.00     0.105 A 
ATOM     17  C   UNL A   1      27.789  30.209  23.378  1.00  0.00     0.045 A 
ATOM     18  O   UNL A   1      29.410  31.097  22.103  1.00  0.00    -0.469 OA
ATOM     19  C   UNL A   1      27.507  31.586  23.182  1.00  0.00     0.042 A 
ATOM     20  C   UNL A   1      28.523  32.078  22.398  1.00  0.00     0.195 A 
ENDBRANCH  15  16
ENDBRANCH  14  15
ENDBRANCH  12  14
ENDBRANCH   6  10
ENDBRANCH   5   6
ENDBRANCH   3   5
ENDBRANCH   2   3
ENDBRANCH   1   2
BRANCH   1  21
ATOM     21  C   UNL A   1      34.565  30.503  27.614  1.00  0.00     0.275 C 
BRANCH  21  22
ATOM     22  O   UNL A   1      35.158  29.463  28.432  1.00  0.00    -0.458 OA
BRANCH  22  23
ATOM     23  C   UNL A   1      36.210  29.931  29.127  1.00  0.00     0.338 C 
ATOM     24  O   UNL A   1      36.121  30.762  30.020  1.00  0.00    -0.246 OA
BRANCH  23  25
ATOM     25  C   UNL A   1      37.531  29.358  28.879  1.00  0.00     0.060 A 
ATOM     26  C   UNL A   1      38.377  29.177  29.976  1.00  0.00     0.016 A 
ATOM     27  C   UNL A   1      38.061  29.440  27.587  1.00  0.00     0.016 A 
ATOM     28  C   UNL A   1      39.756  29.136  29.794  1.00  0.00     0.010 A 
ATOM     29  C   UNL A   1      39.442  29.316  27.398  1.00  0.00     0.010 A 
ATOM     30  C   UNL A   1      40.300  29.182  28.501  1.00  0.00    -0.014 A 
BRANCH  30  31
ATOM     31  C   UNL A   1      41.729  28.847  28.308  1.00  0.00     0.031 A 
ATOM     32  C   UNL A   1      42.829  29.865  28.359  1.00  0.00     0.074 A 
ATOM     33  C   UNL A   1      42.003  27.554  28.052  1.00  0.00     0.049 A 
ATOM     34  N   UNL A   1      44.107  29.693  28.128  1.00  0.00    -0.248 NA
ATOM     35  C   UNL A   1      42.463  31.245  28.709  1.00  0.00     0.031 C 
ATOM     36  C   UNL A   1      41.001  26.483  27.993  1.00  0.00     0.029 A 
ATOM     37  N   UNL A   1      43.185  26.922  27.784  1.00  0.00    -0.354 N 
ATOM     38  C   UNL A   1      44.701  30.938  28.292  1.00  0.00     0.074 A 
ATOM     39  C   UNL A   1      43.639  31.863  28.635  1.00  0.00     0.031 C 
ATOM     40  C   UNL A   1      41.610  25.329  27.703  1.00  0.00     0.029 A 
ATOM     41  C   UNL A   1      43.030  25.587  27.503  1.00  0.00     0.049 A 
ATOM     42  H   UNL A   1      44.058  27.377  27.792  1.00  0.00     0.167 HD
ATOM     43  C   UNL A   1      46.012  31.268  28.167  1.00  0.00     0.031 A 
ATOM     44  C   UNL A   1      43.919  24.668  27.090  1.00  0.00     0.031 A 
ATOM     45  C   UNL A   1      47.056  30.330  27.826  1.00  0.00     0.049 A 
ATOM     46  C   UNL A   1      45.344  25.070  26.915  1.00  0.00     0.074 A 
ATOM     47  C   UNL A   1      48.419  30.557  27.727  1.00  0.00     0.029 A 
ATOM     48  N   UNL A   1      46.856  28.992  27.521  1.00  0.00    -0.354 N 
ATOM     49  N   UNL A   1      45.887  26.249  27.088  1.00  0.00    -0.248 NA
ATOM     50  C   UNL A   1      46.277  24.018  26.498  1.00  0.00     0.031 C 
ATOM     51  C   UNL A   1      49.037  29.369  27.318  1.00  0.00     0.029 A 
ATOM     52  C   UNL A   1      48.065  28.389  27.207  1.00  0.00     0.049 A 
ATOM     53  H   UNL A   1      45.984  28.535  27.528  1.00  0.00     0.167 HD
ATOM     54  C   UNL A   1      47.236  26.084  26.808  1.00  0.00     0.074 A 
ATOM     55  C   UNL A   1      47.423  24.685  26.468  1.00  0.00     0.031 C 
ATOM     56  C   UNL A   1      48.228  27.006  26.838  1.00  0.00     0.031 A 
BRANCH  43  57
ATOM     57  C   UNL A   1      46.410  32.707  28.373  1.00  0.00    -0.014 A 
ATOM     58  C   UNL A   1      46.395  33.628  27.311  1.00  0.00     0.010 A 
ATOM     59  C   UNL A   1      46.691  33.171  29.673  1.00  0.00     0.010 A 
ATOM     60  C   UNL A   1      46.669  34.982  27.543  1.00  0.00     0.020 A 
ATOM     61  C   UNL A   1      46.948  34.524  29.911  1.00  0.00     0.020 A 
ATOM     62  C   UNL A   1      46.944  35.421  28.841  1.00  0.00     0.054 A 
BRANCH  62  63
ATOM     63  S   UNL A   1      47.236  37.191  29.129  1.00  0.00     0.124 S 
ATOM     64  O   UNL A   1      45.876  37.693  29.307  1.00  0.00    -0.237 OA
ATOM     65  O   UNL A   1      48.067  37.191  30.331  1.00  0.00    -0.237 OA
ATOM     66  O   UNL A   1      47.910  37.634  27.912  1.00  0.00    -0.744 OA
ENDBRANCH  62  63
ENDBRANCH  43  57
BRANCH  44  67
ATOM     67  C   UNL A   1      43.434  23.298  26.801  1.00  0.00    -0.014 A 
ATOM     68  C   UNL A   1      43.547  22.764  25.508  1.00  0.00     0.010 A 
ATOM     69  C   UNL A   1      42.990  22.479  27.856  1.00  0.00     0.010 A 
ATOM     70  C   UNL A   1      43.243  21.420  25.278  1.00  0.00     0.020 A 
ATOM     71  C   UNL A   1      42.707  21.131  27.632  1.00  0.00     0.020 A 
ATOM     72  C   UNL A   1      42.836  20.610  26.343  1.00  0.00     0.054 A 
BRANCH  72  73
ATOM     73  S   UNL A   1      42.579  18.837  26.055  1.00  0.00     0.124 S 
ATOM     74  O   UNL A   1      41.179  18.800  25.642  1.00  0.00    -0.237 OA
ATOM     75  O   UNL A   1      43.556  18.536  25.012  1.00  0.00    -0.237 OA
ATOM     76  O   UNL A   1      42.867  18.239  27.357  1.00  0.00    -0.744 OA
ENDBRANCH  72  73
ENDBRANCH  44  67
BRANCH  56  77
ATOM     77  C   UNL A   1      49.602  26.510  26.494  1.00  0.00    -0.014 A 
ATOM     78  C   UNL A   1      50.117  26.659  25.194  1.00  0.00     0.010 A 
ATOM     79  C   UNL A   1      50.375  25.863  27.474  1.00  0.00     0.010 A 
ATOM     80  C   UNL A   1      51.365  26.124  24.866  1.00  0.00     0.020 A 
ATOM     81  C   UNL A   1      51.631  25.343  27.153  1.00  0.00     0.020 A 
ATOM     82  C   UNL A   1      52.108  25.457  25.845  1.00  0.00     0.054 A 
BRANCH  82  83
ATOM     83  S   UNL A   1      53.719  24.755  25.399  1.00  0.00     0.124 S 
ATOM     84  O   UNL A   1      54.486  24.959  26.626  1.00  0.00    -0.237 OA
ATOM     85  O   UNL A   1      53.394  23.365  25.087  1.00  0.00    -0.237 OA
ATOM     86  O   UNL A   1      54.140  25.561  24.256  1.00  0.00    -0.744 OA
ENDBRANCH  82  83
ENDBRANCH  56  77
ENDBRANCH  30  31
ENDBRANCH  23  25
ENDBRANCH  22  23
ENDBRANCH  21  22
ENDBRANCH   1  21
TORSDOF 21
ENDMDL
MODEL 2
REMARK VINA RESULT:      -9.7      3.653      5.323
REMARK SMILES C#CCN(CC(=O)OCCOC(=O)c1ccc(-c2c3nc(c(-c4ccc(S(=O)(=O)[O-])cc4)c4ccc([nH]4)c(-c4ccc(S(=O)(=O)[O-])cc4)c4nc(c(-c5ccc(S(=O)(=O)[O-])cc5)c5ccc2[nH]5)C=C4)C=C3)cc1)C(=O)NCCc1ccco1
REMARK SMILES IDX 9 1 8 2 6 3 7 4 5 5 4 6 3 7 2 8 1 9 74 10 75 11 76 12 77 14
REMARK SMILES IDX 78 15 79 16 80 17 83 18 81 19 82 20 10 21 11 22 12 23 13 24
REMARK SMILES IDX 14 25 15 26 73 27 16 28 72 29 17 30 18 31 19 32 66 33 20 34
REMARK SMILES IDX 71 35 65 36 67 37 21 38 70 39 64 40 63 41 22 43 52 44 33 45
REMARK SMILES IDX 51 46 34 47 37 48 50 49 68 50 35 51 36 52 49 54 69 55 38 56
REMARK SMILES IDX 23 57 24 58 32 59 25 60 31 61 26 62 27 63 28 64 29 65 30 66
REMARK SMILES IDX 53 67 54 68 62 69 55 70 61 71 56 72 57 73 58 74 59 75 60 76
REMARK SMILES IDX 39 77 40 78 48 79 41 80 47 81 42 82 43 83 44 84 45 85 46 86
REMARK H PARENT 76 13 67 42 37 53
REMARK Flexibility Score: inf
ROOT
ATOM      1  C   UNL A   1      32.151  27.987  26.427  1.00  0.00     0.274 C 
ENDROOT
BRANCH   1   2
ATOM      2  O   UNL A   1      31.519  26.846  27.057  1.00  0.00    -0.461 OA
BRANCH   2   3
ATOM      3  C   UNL A   1      31.123  25.853  26.211  1.00  0.00     0.325 C 
ATOM      4  O   UNL A   1      29.946  25.601  25.969  1.00  0.00    -0.250 OA
BRANCH   3   5
ATOM      5  C   UNL A   1      32.268  25.219  25.400  1.00  0.00     0.245 C 
BRANCH   5   6
ATOM      6  N   UNL A   1      31.971  24.827  24.037  1.00  0.00    -0.303 N 
BRANCH   6   7
ATOM      7  C   UNL A   1      31.495  25.932  23.208  1.00  0.00     0.211 C 
BRANCH   7   8
ATOM      8  C   UNL A   1      32.665  26.855  22.909  1.00  0.00    -0.085 C 
ATOM      9  C   UNL A   1      33.668  27.648  22.652  1.00  0.00     0.006 C 
ENDBRANCH   7   8
ENDBRANCH   6   7
BRANCH   6  10
ATOM     10  C   UNL A   1      32.091  23.622  23.423  1.00  0.00     0.318 C 
ATOM     11  O   UNL A   1      31.086  23.036  22.994  1.00  0.00    -0.249 OA
ATOM     12  N   UNL A   1      33.226  22.972  23.156  1.00  0.00    -0.337 N 
ATOM     13  H   UNL A   1      32.992  22.146  22.672  1.00  0.00     0.165 HD
BRANCH  12  14
ATOM     14  C   UNL A   1      34.691  23.008  23.302  1.00  0.00     0.125 C 
BRANCH  14  15
ATOM     15  C   UNL A   1      35.088  22.363  24.642  1.00  0.00     0.096 C 
BRANCH  15  16
ATOM     16  C   UNL A   1      36.487  22.561  25.095  1.00  0.00     0.105 A 
ATOM     17  C   UNL A   1      37.176  23.579  25.721  1.00  0.00     0.045 A 
ATOM     18  O   UNL A   1      37.267  21.443  25.037  1.00  0.00    -0.469 OA
ATOM     19  C   UNL A   1      38.440  23.044  26.076  1.00  0.00     0.042 A 
ATOM     20  C   UNL A   1      38.445  21.742  25.635  1.00  0.00     0.195 A 
ENDBRANCH  15  16
ENDBRANCH  14  15
ENDBRANCH  12  14
ENDBRANCH   6  10
ENDBRANCH   5   6
ENDBRANCH   3   5
ENDBRANCH   2   3
ENDBRANCH   1   2
BRANCH   1  21
ATOM     21  C   UNL A   1      33.561  28.306  26.973  1.00  0.00     0.275 C 
BRANCH  21  22
ATOM     22  O   UNL A   1      34.154  29.512  26.428  1.00  0.00    -0.458 OA
BRANCH  22  23
ATOM     23  C   UNL A   1      34.500  30.369  27.406  1.00  0.00     0.338 C 
ATOM     24  O   UNL A   1      33.740  31.199  27.885  1.00  0.00    -0.246 OA
BRANCH  23  25
ATOM     25  C   UNL A   1      35.828  30.255  28.006  1.00  0.00     0.060 A 
ATOM     26  C   UNL A   1      36.930  30.252  27.148  1.00  0.00     0.016 A 
ATOM     27  C   UNL A   1      35.934  29.711  29.290  1.00  0.00     0.016 A 
ATOM     28  C   UNL A   1      38.123  29.656  27.547  1.00  0.00     0.010 A 
ATOM     29  C   UNL A   1      37.158  29.187  29.719  1.00  0.00     0.010 A 
ATOM     30  C   UNL A   1      38.255  29.139  28.844  1.00  0.00    -0.014 A 
BRANCH  30  31
ATOM     31  C   UNL A   1      39.602  28.778  29.343  1.00  0.00     0.031 A 
ATOM     32  C   UNL A   1      40.471  29.718  30.125  1.00  0.00     0.074 A 
ATOM     33  C   UNL A   1      40.035  27.544  29.030  1.00  0.00     0.049 A 
ATOM     34  N   UNL A   1      41.698  29.531  30.545  1.00  0.00    -0.248 NA
ATOM     35  C   UNL A   1      39.905  31.027  30.486  1.00  0.00     0.031 C 
ATOM     36  C   UNL A   1      39.259  26.550  28.280  1.00  0.00     0.029 A 
ATOM     37  N   UNL A   1      41.223  26.916  29.287  1.00  0.00    -0.354 N 
ATOM     38  C   UNL A   1      42.061  30.696  31.210  1.00  0.00     0.074 A 
ATOM     39  C   UNL A   1      40.923  31.592  31.130  1.00  0.00     0.031 C 
ATOM     40  C   UNL A   1      39.991  25.440  28.134  1.00  0.00     0.029 A 
ATOM     41  C   UNL A   1      41.301  25.663  28.729  1.00  0.00     0.049 A 
ATOM     42  H   UNL A   1      41.947  27.320  29.817  1.00  0.00     0.167 HD
ATOM     43  C   UNL A   1      43.236  30.981  31.825  1.00  0.00     0.031 A 
ATOM     44  C   UNL A   1      42.325  24.796  28.663  1.00  0.00     0.031 A 
ATOM     45  C   UNL A   1      44.357  30.073  31.895  1.00  0.00     0.049 A 
ATOM     46  C   UNL A   1      43.620  25.155  29.308  1.00  0.00     0.074 A 
ATOM     47  C   UNL A   1      45.570  30.251  32.542  1.00  0.00     0.029 A 
ATOM     48  N   UNL A   1      44.410  28.824  31.295  1.00  0.00    -0.354 N 
ATOM     49  N   UNL A   1      43.939  26.256  29.942  1.00  0.00    -0.248 NA
ATOM     50  C   UNL A   1      44.690  24.155  29.237  1.00  0.00     0.031 C 
ATOM     51  C   UNL A   1      46.372  29.130  32.294  1.00  0.00     0.029 A 
ATOM     52  C   UNL A   1      45.642  28.234  31.531  1.00  0.00     0.049 A 
ATOM     53  H   UNL A   1      43.679  28.416  30.777  1.00  0.00     0.167 HD
ATOM     54  C   UNL A   1      45.250  26.082  30.358  1.00  0.00     0.074 A 
ATOM     55  C   UNL A   1      45.657  24.761  29.911  1.00  0.00     0.031 C 
ATOM     56  C   UNL A   1      46.042  26.935  31.051  1.00  0.00     0.031 A 
BRANCH  43  57
ATOM     57  C   UNL A   1      43.399  32.338  32.462  1.00  0.00    -0.014 A 
ATOM     58  C   UNL A   1      43.999  33.403  31.767  1.00  0.00     0.010 A 
ATOM     59  C   UNL A   1      42.839  32.582  33.731  1.00  0.00     0.010 A 
ATOM     60  C   UNL A   1      44.049  34.682  32.335  1.00  0.00     0.020 A 
ATOM     61  C   UNL A   1      42.872  33.861  34.294  1.00  0.00     0.020 A 
ATOM     62  C   UNL A   1      43.486  34.903  33.596  1.00  0.00     0.054 A 
BRANCH  62  63
ATOM     63  S   UNL A   1      43.507  36.583  34.288  1.00  0.00     0.124 S 
ATOM     64  O   UNL A   1      43.481  37.404  33.081  1.00  0.00    -0.237 OA
ATOM     65  O   UNL A   1      42.289  36.615  35.096  1.00  0.00    -0.237 OA
ATOM     66  O   UNL A   1      44.753  36.628  35.047  1.00  0.00    -0.744 OA
ENDBRANCH  62  63
ENDBRANCH  43  57
BRANCH  44  67
ATOM     67  C   UNL A   1      42.125  23.526  27.926  1.00  0.00    -0.014 A 
ATOM     68  C   UNL A   1      42.697  23.345  26.657  1.00  0.00     0.010 A 
ATOM     69  C   UNL A   1      41.480  22.446  28.558  1.00  0.00     0.010 A 
ATOM     70  C   UNL A   1      42.647  22.093  26.039  1.00  0.00     0.020 A 
ATOM     71  C   UNL A   1      41.448  21.190  27.953  1.00  0.00     0.020 A 
ATOM     72  C   UNL A   1      42.033  21.021  26.695  1.00  0.00     0.054 A 
BRANCH  72  73
ATOM     73  S   UNL A   1      42.097  19.372  25.943  1.00  0.00     0.124 S 
ATOM     74  O   UNL A   1      42.620  18.561  27.038  1.00  0.00    -0.237 OA
ATOM     75  O   UNL A   1      40.702  19.128  25.585  1.00  0.00    -0.237 OA
ATOM     76  O   UNL A   1      42.998  19.554  24.807  1.00  0.00    -0.744 OA
ENDBRANCH  72  73
ENDBRANCH  44  67
BRANCH  56  77
ATOM     77  C   UNL A   1      47.426  26.447  31.365  1.00  0.00    -0.014 A 
ATOM     78  C   UNL A   1      48.474  26.610  30.442  1.00  0.00     0.010 A 
ATOM     79  C   UNL A   1      47.674  25.792  32.584  1.00  0.00     0.010 A 
ATOM     80  C   UNL A   1      49.738  26.082  30.712  1.00  0.00     0.020 A 
ATOM     81  C   UNL A   1      48.942  25.279  32.866  1.00  0.00     0.020 A 
ATOM     82  C   UNL A   1      49.960  25.407  31.917  1.00  0.00     0.054 A 
BRANCH  82  83
ATOM     83  S   UNL A   1      51.603  24.715  32.247  1.00  0.00     0.124 S 
ATOM     84  O   UNL A   1      52.416  25.368  31.225  1.00  0.00    -0.237 OA
ATOM     85  O   UNL A   1      51.864  25.137  33.621  1.00  0.00    -0.237 OA
ATOM     86  O   UNL A   1      51.411  23.277  32.070  1.00  0.00    -0.744 OA
ENDBRANCH  82  83
ENDBRANCH  56  77
ENDBRANCH  30  31
ENDBRANCH  23  25
ENDBRANCH  22  23
ENDBRANCH  21  22
ENDBRANCH   1  21
TORSDOF 21
ENDMDL
MODEL 3
REMARK VINA RESULT:      -9.6      1.615      3.232
REMARK SMILES C#CCN(CC(=O)OCCOC(=O)c1ccc(-c2c3nc(c(-c4ccc(S(=O)(=O)[O-])cc4)c4ccc([nH]4)c(-c4ccc(S(=O)(=O)[O-])cc4)c4nc(c(-c5ccc(S(=O)(=O)[O-])cc5)c5ccc2[nH]5)C=C4)C=C3)cc1)C(=O)NCCc1ccco1
REMARK SMILES IDX 9 1 8 2 6 3 7 4 5 5 4 6 3 7 2 8 1 9 74 10 75 11 76 12 77 14
REMARK SMILES IDX 78 15 79 16 80 17 83 18 81 19 82 20 10 21 11 22 12 23 13 24
REMARK SMILES IDX 14 25 15 26 73 27 16 28 72 29 17 30 18 31 19 32 66 33 20 34
REMARK SMILES IDX 71 35 65 36 67 37 21 38 70 39 64 40 63 41 22 43 52 44 33 45
REMARK SMILES IDX 51 46 34 47 37 48 50 49 68 50 35 51 36 52 49 54 69 55 38 56
REMARK SMILES IDX 23 57 24 58 32 59 25 60 31 61 26 62 27 63 28 64 29 65 30 66
REMARK SMILES IDX 53 67 54 68 62 69 55 70 61 71 56 72 57 73 58 74 59 75 60 76
REMARK SMILES IDX 39 77 40 78 48 79 41 80 47 81 42 82 43 83 44 84 45 85 46 86
REMARK H PARENT 76 13 67 42 37 53
REMARK Flexibility Score: inf
ROOT
ATOM      1  C   UNL A   1      33.555  30.081  26.707  1.00  0.00     0.274 C 
ENDROOT
BRANCH   1   2
ATOM      2  O   UNL A   1      32.292  29.678  27.292  1.00  0.00    -0.461 OA
BRANCH   2   3
ATOM      3  C   UNL A   1      32.106  28.333  27.417  1.00  0.00     0.325 C 
ATOM      4  O   UNL A   1      31.134  27.836  27.979  1.00  0.00    -0.250 OA
BRANCH   3   5
ATOM      5  C   UNL A   1      33.089  27.478  26.596  1.00  0.00     0.245 C 
BRANCH   5   6
ATOM      6  N   UNL A   1      32.544  26.746  25.471  1.00  0.00    -0.303 N 
BRANCH   6   7
ATOM      7  C   UNL A   1      33.522  26.499  24.413  1.00  0.00     0.211 C 
BRANCH   7   8
ATOM      8  C   UNL A   1      33.746  27.792  23.646  1.00  0.00    -0.085 C 
ATOM      9  C   UNL A   1      33.939  28.901  22.988  1.00  0.00     0.006 C 
ENDBRANCH   7   8
ENDBRANCH   6   7
BRANCH   6  10
ATOM     10  C   UNL A   1      31.299  26.243  25.269  1.00  0.00     0.318 C 
ATOM     11  O   UNL A   1      30.386  26.979  24.867  1.00  0.00    -0.249 OA
ATOM     12  N   UNL A   1      30.921  24.970  25.403  1.00  0.00    -0.337 N 
ATOM     13  H   UNL A   1      29.970  24.911  25.151  1.00  0.00     0.165 HD
BRANCH  12  14
ATOM     14  C   UNL A   1      31.371  23.619  25.780  1.00  0.00     0.125 C 
BRANCH  14  15
ATOM     15  C   UNL A   1      31.809  22.854  24.519  1.00  0.00     0.096 C 
BRANCH  15  16
ATOM     16  C   UNL A   1      32.591  21.610  24.725  1.00  0.00     0.105 A 
ATOM     17  C   UNL A   1      32.320  20.261  24.636  1.00  0.00     0.045 A 
ATOM     18  O   UNL A   1      33.932  21.803  24.891  1.00  0.00    -0.469 OA
ATOM     19  C   UNL A   1      33.570  19.597  24.739  1.00  0.00     0.042 A 
ATOM     20  C   UNL A   1      34.516  20.581  24.894  1.00  0.00     0.195 A 
ENDBRANCH  15  16
ENDBRANCH  14  15
ENDBRANCH  12  14
ENDBRANCH   6  10
ENDBRANCH   5   6
ENDBRANCH   3   5
ENDBRANCH   2   3
ENDBRANCH   1   2
BRANCH   1  21
ATOM     21  C   UNL A   1      34.583  30.612  27.732  1.00  0.00     0.275 C 
BRANCH  21  22
ATOM     22  O   UNL A   1      35.200  29.584  28.547  1.00  0.00    -0.458 OA
BRANCH  22  23
ATOM     23  C   UNL A   1      36.257  30.068  29.223  1.00  0.00     0.338 C 
ATOM     24  O   UNL A   1      36.177  30.926  30.091  1.00  0.00    -0.246 OA
BRANCH  23  25
ATOM     25  C   UNL A   1      37.574  29.481  28.986  1.00  0.00     0.060 A 
ATOM     26  C   UNL A   1      38.437  29.361  30.078  1.00  0.00     0.016 A 
ATOM     27  C   UNL A   1      38.084  29.491  27.684  1.00  0.00     0.016 A 
ATOM     28  C   UNL A   1      39.814  29.309  29.878  1.00  0.00     0.010 A 
ATOM     29  C   UNL A   1      39.462  29.356  27.481  1.00  0.00     0.010 A 
ATOM     30  C   UNL A   1      40.337  29.283  28.576  1.00  0.00    -0.014 A 
BRANCH  30  31
ATOM     31  C   UNL A   1      41.763  28.937  28.380  1.00  0.00     0.031 A 
ATOM     32  C   UNL A   1      42.872  29.946  28.436  1.00  0.00     0.074 A 
ATOM     33  C   UNL A   1      42.026  27.644  28.114  1.00  0.00     0.049 A 
ATOM     34  N   UNL A   1      44.149  29.763  28.204  1.00  0.00    -0.248 NA
ATOM     35  C   UNL A   1      42.518  31.326  28.796  1.00  0.00     0.031 C 
ATOM     36  C   UNL A   1      41.015  26.582  28.048  1.00  0.00     0.029 A 
ATOM     37  N   UNL A   1      43.202  27.003  27.841  1.00  0.00    -0.354 N 
ATOM     38  C   UNL A   1      44.754  31.003  28.376  1.00  0.00     0.074 A 
ATOM     39  C   UNL A   1      43.699  31.934  28.727  1.00  0.00     0.031 C 
ATOM     40  C   UNL A   1      41.614  25.424  27.750  1.00  0.00     0.029 A 
ATOM     41  C   UNL A   1      43.035  25.671  27.551  1.00  0.00     0.049 A 
ATOM     42  H   UNL A   1      44.079  27.450  27.851  1.00  0.00     0.167 HD
ATOM     43  C   UNL A   1      46.067  31.322  28.252  1.00  0.00     0.031 A 
ATOM     44  C   UNL A   1      43.916  24.748  27.130  1.00  0.00     0.031 A 
ATOM     45  C   UNL A   1      47.102  30.377  27.904  1.00  0.00     0.049 A 
ATOM     46  C   UNL A   1      45.345  25.138  26.957  1.00  0.00     0.074 A 
ATOM     47  C   UNL A   1      48.467  30.594  27.806  1.00  0.00     0.029 A 
ATOM     48  N   UNL A   1      46.891  29.043  27.590  1.00  0.00    -0.354 N 
ATOM     49  N   UNL A   1      45.898  26.312  27.137  1.00  0.00    -0.248 NA
ATOM     50  C   UNL A   1      46.268  24.082  26.532  1.00  0.00     0.031 C 
ATOM     51  C   UNL A   1      49.075  29.403  27.388  1.00  0.00     0.029 A 
ATOM     52  C   UNL A   1      48.094  28.432  27.270  1.00  0.00     0.049 A 
ATOM     53  H   UNL A   1      46.015  28.594  27.594  1.00  0.00     0.167 HD
ATOM     54  C   UNL A   1      47.245  26.137  26.856  1.00  0.00     0.074 A 
ATOM     55  C   UNL A   1      47.420  24.739  26.506  1.00  0.00     0.031 C 
ATOM     56  C   UNL A   1      48.245  27.050  26.891  1.00  0.00     0.031 A 
BRANCH  43  57
ATOM     57  C   UNL A   1      46.478  32.756  28.468  1.00  0.00    -0.014 A 
ATOM     58  C   UNL A   1      46.470  33.684  27.413  1.00  0.00     0.010 A 
ATOM     59  C   UNL A   1      46.763  33.208  29.771  1.00  0.00     0.010 A 
ATOM     60  C   UNL A   1      46.756  35.034  27.654  1.00  0.00     0.020 A 
ATOM     61  C   UNL A   1      47.032  34.557  30.019  1.00  0.00     0.020 A 
ATOM     62  C   UNL A   1      47.036  35.462  28.955  1.00  0.00     0.054 A 
BRANCH  62  63
ATOM     63  S   UNL A   1      47.343  37.227  29.256  1.00  0.00     0.124 S 
ATOM     64  O   UNL A   1      46.153  37.614  30.009  1.00  0.00    -0.237 OA
ATOM     65  O   UNL A   1      48.590  37.215  30.015  1.00  0.00    -0.237 OA
ATOM     66  O   UNL A   1      47.442  37.794  27.914  1.00  0.00    -0.744 OA
ENDBRANCH  62  63
ENDBRANCH  43  57
BRANCH  44  67
ATOM     67  C   UNL A   1      43.419  23.385  26.832  1.00  0.00    -0.014 A 
ATOM     68  C   UNL A   1      43.437  22.895  25.517  1.00  0.00     0.010 A 
ATOM     69  C   UNL A   1      43.061  22.526  27.889  1.00  0.00     0.010 A 
ATOM     70  C   UNL A   1      43.125  21.557  25.264  1.00  0.00     0.020 A 
ATOM     71  C   UNL A   1      42.770  21.185  27.641  1.00  0.00     0.020 A 
ATOM     72  C   UNL A   1      42.805  20.708  26.328  1.00  0.00     0.054 A 
BRANCH  72  73
ATOM     73  S   UNL A   1      42.537  18.944  26.000  1.00  0.00     0.124 S 
ATOM     74  O   UNL A   1      41.124  18.917  25.637  1.00  0.00    -0.237 OA
ATOM     75  O   UNL A   1      43.476  18.673  24.915  1.00  0.00    -0.237 OA
ATOM     76  O   UNL A   1      42.872  18.310  27.274  1.00  0.00    -0.744 OA
ENDBRANCH  72  73
ENDBRANCH  44  67
BRANCH  56  77
ATOM     77  C   UNL A   1      49.615  26.545  26.543  1.00  0.00    -0.014 A 
ATOM     78  C   UNL A   1      50.087  26.600  25.220  1.00  0.00     0.010 A 
ATOM     79  C   UNL A   1      50.426  25.984  27.544  1.00  0.00     0.010 A 
ATOM     80  C   UNL A   1      51.331  26.055  24.894  1.00  0.00     0.020 A 
ATOM     81  C   UNL A   1      51.679  25.455  27.225  1.00  0.00     0.020 A 
ATOM     82  C   UNL A   1      52.113  25.474  25.897  1.00  0.00     0.054 A 
BRANCH  82  83
ATOM     83  S   UNL A   1      53.719  24.758  25.456  1.00  0.00     0.124 S 
ATOM     84  O   UNL A   1      54.457  24.876  26.711  1.00  0.00    -0.237 OA
ATOM     85  O   UNL A   1      53.371  23.396  25.059  1.00  0.00    -0.237 OA
ATOM     86  O   UNL A   1      54.190  25.615  24.370  1.00  0.00    -0.744 OA
ENDBRANCH  82  83
ENDBRANCH  56  77
ENDBRANCH  30  31
ENDBRANCH  23  25
ENDBRANCH  22  23
ENDBRANCH  21  22
ENDBRANCH   1  21
TORSDOF 21
ENDMDL
