MODEL 1
REMARK VINA RESULT:     -10.4      0.000      0.000
REMARK SMILES CC1(C)CCSC[C@@]1(Nc1ccccc1Br)C(=O)OCCOC(=O)c1ccc(-c2c3nc(c(-c4ccc(S(=O)(=O)[O-])cc4)c4ccc([nH]4)c(-c4ccc(S(=O)(=O)[O-])cc4)c4nc(c(-c5ccc(S(=O)(=O)[O-])cc5)c5ccc2[nH]5)C=C4)C=C3)cc1
REMARK SMILES IDX 21 1 20 2 19 3 17 4 18 5 8 6 1 7 2 8 3 9 4 10 5 11 7 12 6 13
REMARK SMILES IDX 9 14 10 16 11 17 15 18 12 19 14 20 16 21 13 22 22 23 23 24
REMARK SMILES IDX 24 25 25 26 26 27 84 28 27 29 83 30 28 31 29 32 30 33 77 34
REMARK SMILES IDX 31 35 82 36 76 37 78 38 32 39 81 40 75 41 74 42 33 44 63 45
REMARK SMILES IDX 44 46 62 47 45 48 48 49 61 50 79 51 46 52 47 53 60 55 80 56
REMARK SMILES IDX 49 57 34 58 35 59 43 60 36 61 42 62 37 63 38 64 39 65 40 66
REMARK SMILES IDX 41 67 64 68 65 69 73 70 66 71 72 72 67 73 68 74 69 75 70 76
REMARK SMILES IDX 71 77 50 78 51 79 59 80 52 81 58 82 53 83 54 84 55 85 56 86
REMARK SMILES IDX 57 87
REMARK H PARENT 9 15 78 43 48 54
REMARK Flexibility Score: inf
ROOT
ATOM      1  C   UNL A   1      32.480  29.125  27.413  1.00  0.00     0.275 C 
ENDROOT
BRANCH   1   2
ATOM      2  C   UNL A   1      31.860  28.166  26.393  1.00  0.00     0.274 C 
BRANCH   2   3
ATOM      3  O   UNL A   1      32.275  26.826  26.700  1.00  0.00    -0.460 OA
BRANCH   3   4
ATOM      4  C   UNL A   1      33.073  26.211  25.783  1.00  0.00     0.333 C 
ATOM      5  O   UNL A   1      34.106  26.704  25.344  1.00  0.00    -0.249 OA
BRANCH   4   6
ATOM      6  C   UNL A   1      32.442  24.872  25.292  1.00  0.00     0.150 C 
ATOM      7  C   UNL A   1      34.552  23.734  26.337  1.00  0.00     0.014 C 
ATOM      8  C   UNL A   1      33.639  23.816  25.082  1.00  0.00     0.000 C 
ATOM      9  C   UNL A   1      34.584  24.181  23.901  1.00  0.00     0.014 C 
ATOM     10  C   UNL A   1      33.099  22.389  24.770  1.00  0.00     0.020 C 
ATOM     11  C   UNL A   1      32.211  21.765  25.836  1.00  0.00     0.070 C 
ATOM     12  C   UNL A   1      31.471  24.382  26.406  1.00  0.00     0.110 C 
ATOM     13  S   UNL A   1      30.720  22.730  26.148  1.00  0.00    -0.159 SA
BRANCH   6  14
ATOM     14  N   UNL A   1      31.716  25.062  23.989  1.00  0.00    -0.368 N 
ATOM     15  H   UNL A   1      31.704  24.291  23.377  1.00  0.00     0.161 HD
BRANCH  14  16
ATOM     16  C   UNL A   1      31.056  26.213  23.551  1.00  0.00     0.049 A 
ATOM     17  C   UNL A   1      29.690  26.320  23.895  1.00  0.00     0.027 A 
ATOM     18  C   UNL A   1      31.597  27.279  22.810  1.00  0.00     0.041 A 
ATOM     19  C   UNL A   1      28.905  27.415  23.520  1.00  0.00     0.002 A 
ATOM     20  C   UNL A   1      30.812  28.385  22.449  1.00  0.00     0.018 A 
ATOM     21  Br  UNL A   1      33.336  27.297  22.062  1.00  0.00    -0.049 Br
ATOM     22  C   UNL A   1      29.469  28.452  22.797  1.00  0.00     0.001 A 
ENDBRANCH  14  16
ENDBRANCH   6  14
ENDBRANCH   4   6
ENDBRANCH   3   4
ENDBRANCH   2   3
ENDBRANCH   1   2
BRANCH   1  23
ATOM     23  O   UNL A   1      33.692  29.698  26.888  1.00  0.00    -0.458 OA
BRANCH  23  24
ATOM     24  C   UNL A   1      34.316  30.571  27.726  1.00  0.00     0.338 C 
ATOM     25  O   UNL A   1      33.815  31.530  28.279  1.00  0.00    -0.246 OA
BRANCH  24  26
ATOM     26  C   UNL A   1      35.700  30.112  27.992  1.00  0.00     0.060 A 
ATOM     27  C   UNL A   1      35.986  29.658  29.281  1.00  0.00     0.016 A 
ATOM     28  C   UNL A   1      36.701  30.112  27.017  1.00  0.00     0.016 A 
ATOM     29  C   UNL A   1      37.249  29.153  29.587  1.00  0.00     0.010 A 
ATOM     30  C   UNL A   1      37.988  29.658  27.340  1.00  0.00     0.010 A 
ATOM     31  C   UNL A   1      38.269  29.168  28.625  1.00  0.00    -0.014 A 
BRANCH  31  32
ATOM     32  C   UNL A   1      39.639  28.757  29.029  1.00  0.00     0.031 A 
ATOM     33  C   UNL A   1      40.420  29.646  29.956  1.00  0.00     0.074 A 
ATOM     34  C   UNL A   1      40.160  27.581  28.629  1.00  0.00     0.049 A 
ATOM     35  N   UNL A   1      41.589  29.442  30.507  1.00  0.00    -0.248 NA
ATOM     36  C   UNL A   1      39.804  30.936  30.305  1.00  0.00     0.031 C 
ATOM     37  C   UNL A   1      39.495  26.623  27.751  1.00  0.00     0.029 A 
ATOM     38  N   UNL A   1      41.352  26.973  28.941  1.00  0.00    -0.354 N 
ATOM     39  C   UNL A   1      41.861  30.588  31.243  1.00  0.00     0.074 A 
ATOM     40  C   UNL A   1      40.718  31.465  31.104  1.00  0.00     0.031 C 
ATOM     41  C   UNL A   1      40.254  25.518  27.650  1.00  0.00     0.029 A 
ATOM     42  C   UNL A   1      41.484  25.708  28.415  1.00  0.00     0.049 A 
ATOM     43  H   UNL A   1      42.048  27.403  29.490  1.00  0.00     0.167 HD
ATOM     44  C   UNL A   1      42.982  30.907  31.931  1.00  0.00     0.031 A 
ATOM     45  C   UNL A   1      42.482  24.808  28.537  1.00  0.00     0.031 A 
ATOM     46  C   UNL A   1      44.151  30.074  32.005  1.00  0.00     0.049 A 
ATOM     47  C   UNL A   1      43.720  25.187  29.315  1.00  0.00     0.074 A 
ATOM     48  C   UNL A   1      45.364  30.349  32.614  1.00  0.00     0.029 A 
ATOM     49  N   UNL A   1      44.264  28.818  31.432  1.00  0.00    -0.354 N 
ATOM     50  N   UNL A   1      43.958  26.277  30.006  1.00  0.00    -0.248 NA
ATOM     51  C   UNL A   1      44.834  24.228  29.302  1.00  0.00     0.031 C 
ATOM     52  C   UNL A   1      46.229  29.280  32.359  1.00  0.00     0.029 A 
ATOM     53  C   UNL A   1      45.535  28.314  31.648  1.00  0.00     0.049 A 
ATOM     54  H   UNL A   1      43.548  28.352  30.944  1.00  0.00     0.167 HD
ATOM     55  C   UNL A   1      45.256  26.142  30.490  1.00  0.00     0.074 A 
ATOM     56  C   UNL A   1      45.731  24.843  30.062  1.00  0.00     0.031 C 
ATOM     57  C   UNL A   1      45.999  27.025  31.202  1.00  0.00     0.031 A 
BRANCH  44  58
ATOM     58  C   UNL A   1      43.034  32.274  32.551  1.00  0.00    -0.014 A 
ATOM     59  C   UNL A   1      42.615  32.500  33.874  1.00  0.00     0.010 A 
ATOM     60  C   UNL A   1      43.512  33.353  31.785  1.00  0.00     0.010 A 
ATOM     61  C   UNL A   1      42.642  33.791  34.408  1.00  0.00     0.020 A 
ATOM     62  C   UNL A   1      43.561  34.640  32.322  1.00  0.00     0.020 A 
ATOM     63  C   UNL A   1      43.110  34.854  33.626  1.00  0.00     0.054 A 
BRANCH  63  64
ATOM     64  S   UNL A   1      43.140  36.519  34.342  1.00  0.00     0.124 S 
ATOM     65  O   UNL A   1      41.817  36.607  34.955  1.00  0.00    -0.237 OA
ATOM     66  O   UNL A   1      44.260  36.446  35.277  1.00  0.00    -0.237 OA
ATOM     67  O   UNL A   1      43.351  37.390  33.189  1.00  0.00    -0.744 OA
ENDBRANCH  63  64
ENDBRANCH  44  58
BRANCH  45  68
ATOM     68  C   UNL A   1      42.387  23.467  27.889  1.00  0.00    -0.014 A 
ATOM     69  C   UNL A   1      41.737  22.402  28.541  1.00  0.00     0.010 A 
ATOM     70  C   UNL A   1      42.978  23.233  26.634  1.00  0.00     0.010 A 
ATOM     71  C   UNL A   1      41.700  21.128  27.961  1.00  0.00     0.020 A 
ATOM     72  C   UNL A   1      42.914  21.971  26.037  1.00  0.00     0.020 A 
ATOM     73  C   UNL A   1      42.291  20.921  26.713  1.00  0.00     0.054 A 
BRANCH  73  74
ATOM     74  S   UNL A   1      42.203  19.274  25.954  1.00  0.00     0.124 S 
ATOM     75  O   UNL A   1      43.035  19.443  24.768  1.00  0.00    -0.237 OA
ATOM     76  O   UNL A   1      42.752  18.411  26.996  1.00  0.00    -0.237 OA
ATOM     77  O   UNL A   1      40.775  19.097  25.700  1.00  0.00    -0.744 OA
ENDBRANCH  73  74
ENDBRANCH  45  68
BRANCH  57  78
ATOM     78  C   UNL A   1      47.411  26.632  31.548  1.00  0.00    -0.014 A 
ATOM     79  C   UNL A   1      48.489  27.023  30.734  1.00  0.00     0.010 A 
ATOM     80  C   UNL A   1      47.671  25.931  32.739  1.00  0.00     0.010 A 
ATOM     81  C   UNL A   1      49.800  26.700  31.092  1.00  0.00     0.020 A 
ATOM     82  C   UNL A   1      48.982  25.628  33.115  1.00  0.00     0.020 A 
ATOM     83  C   UNL A   1      50.039  26.004  32.283  1.00  0.00     0.054 A 
BRANCH  83  84
ATOM     84  S   UNL A   1      51.753  25.643  32.755  1.00  0.00     0.124 S 
ATOM     85  O   UNL A   1      52.415  25.556  31.456  1.00  0.00    -0.237 OA
ATOM     86  O   UNL A   1      52.114  26.803  33.568  1.00  0.00    -0.237 OA
ATOM     87  O   UNL A   1      51.652  24.384  33.488  1.00  0.00    -0.744 OA
ENDBRANCH  83  84
ENDBRANCH  57  78
ENDBRANCH  31  32
ENDBRANCH  24  26
ENDBRANCH  23  24
ENDBRANCH   1  23
TORSDOF 16
ENDMDL
MODEL 2
REMARK VINA RESULT:     -10.3      3.940      9.914
REMARK SMILES CC1(C)CCSC[C@@]1(Nc1ccccc1Br)C(=O)OCCOC(=O)c1ccc(-c2c3nc(c(-c4ccc(S(=O)(=O)[O-])cc4)c4ccc([nH]4)c(-c4ccc(S(=O)(=O)[O-])cc4)c4nc(c(-c5ccc(S(=O)(=O)[O-])cc5)c5ccc2[nH]5)C=C4)C=C3)cc1
REMARK SMILES IDX 21 1 20 2 19 3 17 4 18 5 8 6 1 7 2 8 3 9 4 10 5 11 7 12 6 13
REMARK SMILES IDX 9 14 10 16 11 17 15 18 12 19 14 20 16 21 13 22 22 23 23 24
REMARK SMILES IDX 24 25 25 26 26 27 84 28 27 29 83 30 28 31 29 32 30 33 77 34
REMARK SMILES IDX 31 35 82 36 76 37 78 38 32 39 81 40 75 41 74 42 33 44 63 45
REMARK SMILES IDX 44 46 62 47 45 48 48 49 61 50 79 51 46 52 47 53 60 55 80 56
REMARK SMILES IDX 49 57 34 58 35 59 43 60 36 61 42 62 37 63 38 64 39 65 40 66
REMARK SMILES IDX 41 67 64 68 65 69 73 70 66 71 72 72 67 73 68 74 69 75 70 76
REMARK SMILES IDX 71 77 50 78 51 79 59 80 52 81 58 82 53 83 54 84 55 85 56 86
REMARK SMILES IDX 57 87
REMARK H PARENT 9 15 78 43 48 54
REMARK Flexibility Score: inf
ROOT
ATOM      1  C   UNL A   1      37.957  23.147  26.150  1.00  0.00     0.275 C 
ENDROOT
BRANCH   1   2
ATOM      2  C   UNL A   1      37.082  22.897  24.919  1.00  0.00     0.274 C 
BRANCH   2   3
ATOM      3  O   UNL A   1      35.966  23.801  24.949  1.00  0.00    -0.460 OA
BRANCH   3   4
ATOM      4  C   UNL A   1      35.088  23.718  23.911  1.00  0.00     0.333 C 
ATOM      5  O   UNL A   1      35.431  23.611  22.738  1.00  0.00    -0.249 OA
BRANCH   4   6
ATOM      6  C   UNL A   1      33.617  23.889  24.399  1.00  0.00     0.150 C 
ATOM      7  C   UNL A   1      33.609  21.285  24.635  1.00  0.00     0.014 C 
ATOM      8  C   UNL A   1      32.835  22.516  24.087  1.00  0.00     0.000 C 
ATOM      9  C   UNL A   1      32.642  22.246  22.568  1.00  0.00     0.014 C 
ATOM     10  C   UNL A   1      31.406  22.515  24.705  1.00  0.00     0.020 C 
ATOM     11  C   UNL A   1      31.332  22.672  26.217  1.00  0.00     0.070 C 
ATOM     12  C   UNL A   1      33.666  24.154  25.932  1.00  0.00     0.110 C 
ATOM     13  S   UNL A   1      32.046  24.226  26.788  1.00  0.00    -0.159 SA
BRANCH   6  14
ATOM     14  N   UNL A   1      32.936  25.020  23.678  1.00  0.00    -0.368 N 
ATOM     15  H   UNL A   1      32.604  24.825  22.771  1.00  0.00     0.161 HD
BRANCH  14  16
ATOM     16  C   UNL A   1      32.723  26.316  24.153  1.00  0.00     0.049 A 
ATOM     17  C   UNL A   1      33.879  27.071  24.450  1.00  0.00     0.027 A 
ATOM     18  C   UNL A   1      31.489  26.955  24.367  1.00  0.00     0.041 A 
ATOM     19  C   UNL A   1      33.816  28.380  24.937  1.00  0.00     0.002 A 
ATOM     20  C   UNL A   1      31.428  28.276  24.840  1.00  0.00     0.018 A 
ATOM     21  Br  UNL A   1      29.800  26.111  24.233  1.00  0.00    -0.049 Br
ATOM     22  C   UNL A   1      32.587  28.986  25.129  1.00  0.00     0.001 A 
ENDBRANCH  14  16
ENDBRANCH   6  14
ENDBRANCH   4   6
ENDBRANCH   3   4
ENDBRANCH   2   3
ENDBRANCH   1   2
BRANCH   1  23
ATOM     23  O   UNL A   1      38.547  24.460  26.086  1.00  0.00    -0.458 OA
BRANCH  23  24
ATOM     24  C   UNL A   1      39.820  24.533  26.563  1.00  0.00     0.338 C 
ATOM     25  O   UNL A   1      40.786  23.923  26.150  1.00  0.00    -0.246 OA
BRANCH  24  26
ATOM     26  C   UNL A   1      39.909  25.587  27.602  1.00  0.00     0.060 A 
ATOM     27  C   UNL A   1      39.108  25.435  28.736  1.00  0.00     0.016 A 
ATOM     28  C   UNL A   1      40.751  26.697  27.488  1.00  0.00     0.016 A 
ATOM     29  C   UNL A   1      39.185  26.355  29.781  1.00  0.00     0.010 A 
ATOM     30  C   UNL A   1      40.786  27.652  28.514  1.00  0.00     0.010 A 
ATOM     31  C   UNL A   1      40.009  27.484  29.671  1.00  0.00    -0.014 A 
BRANCH  31  32
ATOM     32  C   UNL A   1      39.956  28.515  30.740  1.00  0.00     0.031 A 
ATOM     33  C   UNL A   1      40.998  28.492  31.824  1.00  0.00     0.074 A 
ATOM     34  C   UNL A   1      39.034  29.495  30.717  1.00  0.00     0.049 A 
ATOM     35  N   UNL A   1      41.196  29.342  32.797  1.00  0.00    -0.248 NA
ATOM     36  C   UNL A   1      41.938  27.359  31.808  1.00  0.00     0.031 C 
ATOM     37  C   UNL A   1      37.986  29.641  29.711  1.00  0.00     0.029 A 
ATOM     38  N   UNL A   1      38.852  30.579  31.543  1.00  0.00    -0.354 N 
ATOM     39  C   UNL A   1      42.263  28.833  33.527  1.00  0.00     0.074 A 
ATOM     40  C   UNL A   1      42.698  27.624  32.860  1.00  0.00     0.031 C 
ATOM     41  C   UNL A   1      37.316  30.784  29.934  1.00  0.00     0.029 A 
ATOM     42  C   UNL A   1      37.853  31.431  31.129  1.00  0.00     0.049 A 
ATOM     43  H   UNL A   1      39.388  30.732  32.355  1.00  0.00     0.167 HD
ATOM     44  C   UNL A   1      42.801  29.298  34.679  1.00  0.00     0.031 A 
ATOM     45  C   UNL A   1      37.421  32.595  31.656  1.00  0.00     0.031 A 
ATOM     46  C   UNL A   1      42.322  30.452  35.388  1.00  0.00     0.049 A 
ATOM     47  C   UNL A   1      38.042  33.095  32.938  1.00  0.00     0.074 A 
ATOM     48  C   UNL A   1      42.754  30.955  36.603  1.00  0.00     0.029 A 
ATOM     49  N   UNL A   1      41.287  31.269  34.961  1.00  0.00    -0.354 N 
ATOM     50  N   UNL A   1      39.052  32.600  33.613  1.00  0.00    -0.248 NA
ATOM     51  C   UNL A   1      37.443  34.294  33.544  1.00  0.00     0.031 C 
ATOM     52  C   UNL A   1      41.941  32.042  36.938  1.00  0.00     0.029 A 
ATOM     53  C   UNL A   1      41.046  32.256  35.902  1.00  0.00     0.049 A 
ATOM     54  H   UNL A   1      40.795  31.163  34.115  1.00  0.00     0.167 HD
ATOM     55  C   UNL A   1      39.194  33.413  34.733  1.00  0.00     0.074 A 
ATOM     56  C   UNL A   1      38.205  34.465  34.617  1.00  0.00     0.031 C 
ATOM     57  C   UNL A   1      40.047  33.286  35.780  1.00  0.00     0.031 A 
BRANCH  44  58
ATOM     58  C   UNL A   1      43.893  28.475  35.301  1.00  0.00    -0.014 A 
ATOM     59  C   UNL A   1      45.249  28.717  35.024  1.00  0.00     0.010 A 
ATOM     60  C   UNL A   1      43.544  27.435  36.182  1.00  0.00     0.010 A 
ATOM     61  C   UNL A   1      46.237  27.909  35.592  1.00  0.00     0.020 A 
ATOM     62  C   UNL A   1      44.529  26.640  36.769  1.00  0.00     0.020 A 
ATOM     63  C   UNL A   1      45.870  26.871  36.456  1.00  0.00     0.054 A 
BRANCH  63  64
ATOM     64  S   UNL A   1      47.170  25.838  37.185  1.00  0.00     0.124 S 
ATOM     65  O   UNL A   1      47.944  25.454  36.008  1.00  0.00    -0.237 OA
ATOM     66  O   UNL A   1      47.837  26.761  38.101  1.00  0.00    -0.237 OA
ATOM     67  O   UNL A   1      46.433  24.753  37.827  1.00  0.00    -0.744 OA
ENDBRANCH  63  64
ENDBRANCH  44  58
BRANCH  45  68
ATOM     68  C   UNL A   1      36.323  33.369  31.004  1.00  0.00    -0.014 A 
ATOM     69  C   UNL A   1      36.450  33.810  29.674  1.00  0.00     0.010 A 
ATOM     70  C   UNL A   1      35.158  33.703  31.719  1.00  0.00     0.010 A 
ATOM     71  C   UNL A   1      35.449  34.588  29.082  1.00  0.00     0.020 A 
ATOM     72  C   UNL A   1      34.140  34.451  31.120  1.00  0.00     0.020 A 
ATOM     73  C   UNL A   1      34.300  34.904  29.810  1.00  0.00     0.054 A 
BRANCH  73  74
ATOM     74  S   UNL A   1      32.990  35.881  29.019  1.00  0.00     0.124 S 
ATOM     75  O   UNL A   1      32.193  36.303  30.166  1.00  0.00    -0.237 OA
ATOM     76  O   UNL A   1      33.740  36.937  28.344  1.00  0.00    -0.237 OA
ATOM     77  O   UNL A   1      32.346  34.919  28.126  1.00  0.00    -0.744 OA
ENDBRANCH  73  74
ENDBRANCH  45  68
BRANCH  57  78
ATOM     78  C   UNL A   1      39.941  34.293  36.895  1.00  0.00    -0.014 A 
ATOM     79  C   UNL A   1      40.495  35.579  36.760  1.00  0.00     0.010 A 
ATOM     80  C   UNL A   1      39.215  33.978  38.056  1.00  0.00     0.010 A 
ATOM     81  C   UNL A   1      40.344  36.525  37.778  1.00  0.00     0.020 A 
ATOM     82  C   UNL A   1      39.041  34.928  39.066  1.00  0.00     0.020 A 
ATOM     83  C   UNL A   1      39.617  36.193  38.926  1.00  0.00     0.054 A 
BRANCH  83  84
ATOM     84  S   UNL A   1      39.389  37.454  40.210  1.00  0.00     0.124 S 
ATOM     85  O   UNL A   1      38.634  38.481  39.498  1.00  0.00    -0.237 OA
ATOM     86  O   UNL A   1      38.648  36.731  41.242  1.00  0.00    -0.237 OA
ATOM     87  O   UNL A   1      40.754  37.824  40.577  1.00  0.00    -0.744 OA
ENDBRANCH  83  84
ENDBRANCH  57  78
ENDBRANCH  31  32
ENDBRANCH  24  26
ENDBRANCH  23  24
ENDBRANCH   1  23
TORSDOF 16
ENDMDL
MODEL 3
REMARK VINA RESULT:     -10.2      1.289      2.791
REMARK SMILES CC1(C)CCSC[C@@]1(Nc1ccccc1Br)C(=O)OCCOC(=O)c1ccc(-c2c3nc(c(-c4ccc(S(=O)(=O)[O-])cc4)c4ccc([nH]4)c(-c4ccc(S(=O)(=O)[O-])cc4)c4nc(c(-c5ccc(S(=O)(=O)[O-])cc5)c5ccc2[nH]5)C=C4)C=C3)cc1
REMARK SMILES IDX 21 1 20 2 19 3 17 4 18 5 8 6 1 7 2 8 3 9 4 10 5 11 7 12 6 13
REMARK SMILES IDX 9 14 10 16 11 17 15 18 12 19 14 20 16 21 13 22 22 23 23 24
REMARK SMILES IDX 24 25 25 26 26 27 84 28 27 29 83 30 28 31 29 32 30 33 77 34
REMARK SMILES IDX 31 35 82 36 76 37 78 38 32 39 81 40 75 41 74 42 33 44 63 45
REMARK SMILES IDX 44 46 62 47 45 48 48 49 61 50 79 51 46 52 47 53 60 55 80 56
REMARK SMILES IDX 49 57 34 58 35 59 43 60 36 61 42 62 37 63 38 64 39 65 40 66
REMARK SMILES IDX 41 67 64 68 65 69 73 70 66 71 72 72 67 73 68 74 69 75 70 76
REMARK SMILES IDX 71 77 50 78 51 79 59 80 52 81 58 82 53 83 54 84 55 85 56 86
REMARK SMILES IDX 57 87
REMARK H PARENT 9 15 78 43 48 54
REMARK Flexibility Score: inf
ROOT
ATOM      1  C   UNL A   1      32.779  29.750  26.144  1.00  0.00     0.275 C 
ENDROOT
BRANCH   1   2
ATOM      2  C   UNL A   1      33.518  29.157  24.941  1.00  0.00     0.274 C 
BRANCH   2   3
ATOM      3  O   UNL A   1      33.740  27.758  25.173  1.00  0.00    -0.460 OA
BRANCH   3   4
ATOM      4  C   UNL A   1      33.413  26.913  24.155  1.00  0.00     0.333 C 
ATOM      5  O   UNL A   1      33.359  27.257  22.979  1.00  0.00    -0.249 OA
BRANCH   4   6
ATOM      6  C   UNL A   1      33.011  25.507  24.694  1.00  0.00     0.150 C 
ATOM      7  C   UNL A   1      30.551  26.384  24.559  1.00  0.00     0.014 C 
ATOM      8  C   UNL A   1      31.597  25.658  25.450  1.00  0.00     0.000 C 
ATOM      9  C   UNL A   1      31.683  26.494  26.760  1.00  0.00     0.014 C 
ATOM     10  C   UNL A   1      31.016  24.274  25.866  1.00  0.00     0.020 C 
ATOM     11  C   UNL A   1      30.749  23.295  24.732  1.00  0.00     0.070 C 
ATOM     12  C   UNL A   1      32.874  24.561  23.465  1.00  0.00     0.110 C 
ATOM     13  S   UNL A   1      32.243  22.876  23.813  1.00  0.00    -0.159 SA
BRANCH   6  14
ATOM     14  N   UNL A   1      34.036  24.986  25.663  1.00  0.00    -0.368 N 
ATOM     15  H   UNL A   1      34.108  25.460  26.523  1.00  0.00     0.161 HD
BRANCH  14  16
ATOM     16  C   UNL A   1      34.899  23.903  25.477  1.00  0.00     0.049 A 
ATOM     17  C   UNL A   1      35.819  24.013  24.411  1.00  0.00     0.027 A 
ATOM     18  C   UNL A   1      34.957  22.717  26.231  1.00  0.00     0.041 A 
ATOM     19  C   UNL A   1      36.738  23.004  24.105  1.00  0.00     0.002 A 
ATOM     20  C   UNL A   1      35.892  21.713  25.933  1.00  0.00     0.018 A 
ATOM     21  Br  UNL A   1      33.721  22.237  27.581  1.00  0.00    -0.049 Br
ATOM     22  C   UNL A   1      36.777  21.852  24.872  1.00  0.00     0.001 A 
ENDBRANCH  14  16
ENDBRANCH   6  14
ENDBRANCH   4   6
ENDBRANCH   3   4
ENDBRANCH   2   3
ENDBRANCH   1   2
BRANCH   1  23
ATOM     23  O   UNL A   1      33.504  29.478  27.359  1.00  0.00    -0.458 OA
BRANCH  23  24
ATOM     24  C   UNL A   1      34.242  30.524  27.825  1.00  0.00     0.338 C 
ATOM     25  O   UNL A   1      33.829  31.626  28.126  1.00  0.00    -0.246 OA
BRANCH  24  26
ATOM     26  C   UNL A   1      35.641  30.091  28.052  1.00  0.00     0.060 A 
ATOM     27  C   UNL A   1      35.962  29.605  29.321  1.00  0.00     0.016 A 
ATOM     28  C   UNL A   1      36.624  30.147  27.059  1.00  0.00     0.016 A 
ATOM     29  C   UNL A   1      37.243  29.123  29.588  1.00  0.00     0.010 A 
ATOM     30  C   UNL A   1      37.927  29.715  27.345  1.00  0.00     0.010 A 
ATOM     31  C   UNL A   1      38.243  29.193  28.609  1.00  0.00    -0.014 A 
BRANCH  31  32
ATOM     32  C   UNL A   1      39.630  28.804  28.975  1.00  0.00     0.031 A 
ATOM     33  C   UNL A   1      40.431  29.718  29.861  1.00  0.00     0.074 A 
ATOM     34  C   UNL A   1      40.152  27.627  28.579  1.00  0.00     0.049 A 
ATOM     35  N   UNL A   1      41.619  29.536  30.377  1.00  0.00    -0.248 NA
ATOM     36  C   UNL A   1      39.812  31.007  30.207  1.00  0.00     0.031 C 
ATOM     37  C   UNL A   1      39.470  26.646  27.740  1.00  0.00     0.029 A 
ATOM     38  N   UNL A   1      41.361  27.038  28.863  1.00  0.00    -0.354 N 
ATOM     39  C   UNL A   1      41.902  30.698  31.084  1.00  0.00     0.074 A 
ATOM     40  C   UNL A   1      40.745  31.561  30.967  1.00  0.00     0.031 C 
ATOM     41  C   UNL A   1      40.238  25.548  27.633  1.00  0.00     0.029 A 
ATOM     42  C   UNL A   1      41.490  25.765  28.355  1.00  0.00     0.049 A 
ATOM     43  H   UNL A   1      42.068  27.486  29.381  1.00  0.00     0.167 HD
ATOM     44  C   UNL A   1      43.041  31.042  31.729  1.00  0.00     0.031 A 
ATOM     45  C   UNL A   1      42.502  24.879  28.460  1.00  0.00     0.031 A 
ATOM     46  C   UNL A   1      44.221  30.224  31.780  1.00  0.00     0.049 A 
ATOM     47  C   UNL A   1      43.759  25.285  29.190  1.00  0.00     0.074 A 
ATOM     48  C   UNL A   1      45.449  30.522  32.344  1.00  0.00     0.029 A 
ATOM     49  N   UNL A   1      44.330  28.958  31.225  1.00  0.00    -0.354 N 
ATOM     50  N   UNL A   1      44.007  26.389  29.854  1.00  0.00    -0.248 NA
ATOM     51  C   UNL A   1      44.884  24.338  29.158  1.00  0.00     0.031 C 
ATOM     52  C   UNL A   1      46.319  29.458  32.080  1.00  0.00     0.029 A 
ATOM     53  C   UNL A   1      45.613  28.472  31.409  1.00  0.00     0.049 A 
ATOM     54  H   UNL A   1      43.604  28.476  30.769  1.00  0.00     0.167 HD
ATOM     55  C   UNL A   1      45.322  26.277  30.298  1.00  0.00     0.074 A 
ATOM     56  C   UNL A   1      45.797  24.976  29.877  1.00  0.00     0.031 C 
ATOM     57  C   UNL A   1      46.077  27.181  30.970  1.00  0.00     0.031 A 
BRANCH  44  58
ATOM     58  C   UNL A   1      43.097  32.421  32.323  1.00  0.00    -0.014 A 
ATOM     59  C   UNL A   1      43.446  33.542  31.552  1.00  0.00     0.010 A 
ATOM     60  C   UNL A   1      42.791  32.588  33.686  1.00  0.00     0.010 A 
ATOM     61  C   UNL A   1      43.524  34.805  32.145  1.00  0.00     0.020 A 
ATOM     62  C   UNL A   1      42.846  33.851  34.277  1.00  0.00     0.020 A 
ATOM     63  C   UNL A   1      43.228  34.950  33.506  1.00  0.00     0.054 A 
BRANCH  63  64
ATOM     64  S   UNL A   1      43.331  36.600  34.252  1.00  0.00     0.124 S 
ATOM     65  O   UNL A   1      44.395  36.420  35.235  1.00  0.00    -0.237 OA
ATOM     66  O   UNL A   1      43.667  37.448  33.111  1.00  0.00    -0.237 OA
ATOM     67  O   UNL A   1      41.997  36.812  34.810  1.00  0.00    -0.744 OA
ENDBRANCH  63  64
ENDBRANCH  44  58
BRANCH  45  68
ATOM     68  C   UNL A   1      42.401  23.525  27.838  1.00  0.00    -0.014 A 
ATOM     69  C   UNL A   1      41.921  22.431  28.582  1.00  0.00     0.010 A 
ATOM     70  C   UNL A   1      42.820  23.312  26.513  1.00  0.00     0.010 A 
ATOM     71  C   UNL A   1      41.883  21.150  28.020  1.00  0.00     0.020 A 
ATOM     72  C   UNL A   1      42.753  22.039  25.937  1.00  0.00     0.020 A 
ATOM     73  C   UNL A   1      42.301  20.962  26.700  1.00  0.00     0.054 A 
BRANCH  73  74
ATOM     74  S   UNL A   1      42.212  19.302  25.970  1.00  0.00     0.124 S 
ATOM     75  O   UNL A   1      42.780  18.475  27.029  1.00  0.00    -0.237 OA
ATOM     76  O   UNL A   1      40.781  19.133  25.732  1.00  0.00    -0.237 OA
ATOM     77  O   UNL A   1      43.025  19.423  24.762  1.00  0.00    -0.744 OA
ENDBRANCH  73  74
ENDBRANCH  45  68
BRANCH  57  78
ATOM     78  C   UNL A   1      47.504  26.810  31.277  1.00  0.00    -0.014 A 
ATOM     79  C   UNL A   1      47.827  26.086  32.439  1.00  0.00     0.010 A 
ATOM     80  C   UNL A   1      48.521  27.118  30.357  1.00  0.00     0.010 A 
ATOM     81  C   UNL A   1      49.146  25.699  32.688  1.00  0.00     0.020 A 
ATOM     82  C   UNL A   1      49.838  26.710  30.589  1.00  0.00     0.020 A 
ATOM     83  C   UNL A   1      50.145  26.013  31.760  1.00  0.00     0.054 A 
BRANCH  83  84
ATOM     84  S   UNL A   1      51.841  25.453  32.078  1.00  0.00     0.124 S 
ATOM     85  O   UNL A   1      51.674  24.004  32.149  1.00  0.00    -0.237 OA
ATOM     86  O   UNL A   1      52.566  25.946  30.909  1.00  0.00    -0.237 OA
ATOM     87  O   UNL A   1      52.189  26.103  33.338  1.00  0.00    -0.744 OA
ENDBRANCH  83  84
ENDBRANCH  57  78
ENDBRANCH  31  32
ENDBRANCH  24  26
ENDBRANCH  23  24
ENDBRANCH   1  23
TORSDOF 16
ENDMDL
