MODEL 1
REMARK VINA RESULT:     -11.7      0.000      0.000
REMARK SMILES O=C(OCCOC(=O)c1cn(C2CN(C(=O)Nc3ccsc3)C2)nn1)c1ccc(-c2c3nc(c(-c4ccc(S(=O)(=O)[O-])cc4)c4ccc([nH]4)c(-c4ccc(S(=O)(=O)[O-])cc4)c4nc(c(-c5ccc(S(=O)(=O)[O-])cc5)c5ccc2[nH]5)C=C4)C=C3)cc1
REMARK SMILES IDX 4 1 3 2 2 3 1 4 26 5 27 6 85 7 28 8 84 9 29 10 30 11 31 12
REMARK SMILES IDX 78 13 32 14 83 15 77 16 79 17 33 18 82 19 76 20 75 21 34 23
REMARK SMILES IDX 64 24 45 25 63 26 46 27 49 28 62 29 80 30 47 31 48 32 61 34
REMARK SMILES IDX 81 35 50 36 35 37 36 38 44 39 37 40 43 41 38 42 39 43 40 44
REMARK SMILES IDX 41 45 42 46 65 47 66 48 74 49 67 50 73 51 68 52 69 53 70 54
REMARK SMILES IDX 71 55 72 56 51 57 52 58 60 59 53 60 59 61 54 62 55 63 56 64
REMARK SMILES IDX 57 65 58 66 5 67 6 68 7 69 8 70 9 71 10 72 25 73 11 74 24 75
REMARK SMILES IDX 12 76 13 77 23 78 14 79 15 80 16 81 17 82 18 84 19 85 22 86
REMARK SMILES IDX 20 87 21 88
REMARK H PARENT 79 22 49 33 17 83
REMARK Flexibility Score: inf
ROOT
ATOM      1  C   UNL A   1      40.572  19.923  26.115  1.00  0.00     0.275 C 
ENDROOT
BRANCH   1   2
ATOM      2  O   UNL A   1      40.472  21.130  26.901  1.00  0.00    -0.458 OA
BRANCH   2   3
ATOM      3  C   UNL A   1      39.679  22.162  26.534  1.00  0.00     0.338 C 
ATOM      4  O   UNL A   1      38.570  21.991  26.049  1.00  0.00    -0.246 OA
BRANCH   3   5
ATOM      5  C   UNL A   1      40.114  23.494  27.035  1.00  0.00     0.060 A 
ATOM      6  C   UNL A   1      41.288  23.696  27.767  1.00  0.00     0.016 A 
ATOM      7  C   UNL A   1      39.254  24.577  26.796  1.00  0.00     0.016 A 
ATOM      8  C   UNL A   1      41.538  24.930  28.349  1.00  0.00     0.010 A 
ATOM      9  C   UNL A   1      39.502  25.812  27.378  1.00  0.00     0.010 A 
ATOM     10  C   UNL A   1      40.613  25.966  28.203  1.00  0.00    -0.014 A 
BRANCH  10  11
ATOM     11  C   UNL A   1      40.892  27.239  28.857  1.00  0.00     0.031 A 
ATOM     12  C   UNL A   1      42.023  27.998  28.254  1.00  0.00     0.074 A 
ATOM     13  C   UNL A   1      40.117  27.739  29.843  1.00  0.00     0.049 A 
ATOM     14  N   UNL A   1      43.165  28.287  28.785  1.00  0.00    -0.248 NA
ATOM     15  C   UNL A   1      41.927  28.348  26.826  1.00  0.00     0.031 C 
ATOM     16  C   UNL A   1      38.836  27.217  30.333  1.00  0.00     0.029 A 
ATOM     17  N   UNL A   1      40.253  28.897  30.547  1.00  0.00    -0.354 N 
ATOM     18  C   UNL A   1      43.842  29.060  27.844  1.00  0.00     0.074 A 
ATOM     19  C   UNL A   1      43.115  28.914  26.609  1.00  0.00     0.031 C 
ATOM     20  C   UNL A   1      38.205  28.176  31.049  1.00  0.00     0.029 A 
ATOM     21  C   UNL A   1      39.093  29.317  31.195  1.00  0.00     0.049 A 
ATOM     22  H   UNL A   1      41.100  29.396  30.594  1.00  0.00     0.167 HD
ATOM     23  C   UNL A   1      44.797  29.961  28.213  1.00  0.00     0.031 A 
ATOM     24  C   UNL A   1      38.860  30.535  31.754  1.00  0.00     0.031 A 
ATOM     25  C   UNL A   1      45.268  29.713  29.552  1.00  0.00     0.049 A 
ATOM     26  C   UNL A   1      40.183  31.162  31.994  1.00  0.00     0.074 A 
ATOM     27  C   UNL A   1      45.889  28.659  30.190  1.00  0.00     0.029 A 
ATOM     28  N   UNL A   1      44.760  30.512  30.551  1.00  0.00    -0.354 N 
ATOM     29  N   UNL A   1      41.050  30.693  32.847  1.00  0.00    -0.248 NA
ATOM     30  C   UNL A   1      40.731  32.013  30.951  1.00  0.00     0.031 C 
ATOM     31  C   UNL A   1      45.297  28.618  31.487  1.00  0.00     0.029 A 
ATOM     32  C   UNL A   1      44.416  29.696  31.594  1.00  0.00     0.049 A 
ATOM     33  H   UNL A   1      44.661  31.491  30.519  1.00  0.00     0.167 HD
ATOM     34  C   UNL A   1      42.274  30.809  32.206  1.00  0.00     0.074 A 
ATOM     35  C   UNL A   1      42.026  31.707  31.077  1.00  0.00     0.031 C 
ATOM     36  C   UNL A   1      43.301  29.950  32.480  1.00  0.00     0.031 A 
BRANCH  23  37
ATOM     37  C   UNL A   1      44.966  31.313  27.553  1.00  0.00    -0.014 A 
ATOM     38  C   UNL A   1      46.251  31.685  27.101  1.00  0.00     0.010 A 
ATOM     39  C   UNL A   1      44.004  32.340  27.643  1.00  0.00     0.010 A 
ATOM     40  C   UNL A   1      46.585  33.027  26.877  1.00  0.00     0.020 A 
ATOM     41  C   UNL A   1      44.314  33.676  27.379  1.00  0.00     0.020 A 
ATOM     42  C   UNL A   1      45.616  34.015  27.041  1.00  0.00     0.054 A 
BRANCH  42  43
ATOM     43  S   UNL A   1      46.091  35.755  26.889  1.00  0.00     0.124 S 
ATOM     44  O   UNL A   1      46.792  35.761  25.608  1.00  0.00    -0.237 OA
ATOM     45  O   UNL A   1      44.796  36.429  26.906  1.00  0.00    -0.237 OA
ATOM     46  O   UNL A   1      46.926  35.985  28.065  1.00  0.00    -0.744 OA
ENDBRANCH  42  43
ENDBRANCH  23  37
BRANCH  24  47
ATOM     47  C   UNL A   1      37.593  31.318  31.748  1.00  0.00    -0.014 A 
ATOM     48  C   UNL A   1      36.793  31.440  32.901  1.00  0.00     0.010 A 
ATOM     49  C   UNL A   1      37.319  32.190  30.674  1.00  0.00     0.010 A 
ATOM     50  C   UNL A   1      35.794  32.432  32.995  1.00  0.00     0.020 A 
ATOM     51  C   UNL A   1      36.327  33.176  30.759  1.00  0.00     0.020 A 
ATOM     52  C   UNL A   1      35.583  33.308  31.927  1.00  0.00     0.054 A 
BRANCH  52  53
ATOM     53  S   UNL A   1      34.419  34.697  32.113  1.00  0.00     0.124 S 
ATOM     54  O   UNL A   1      35.215  35.674  32.851  1.00  0.00    -0.237 OA
ATOM     55  O   UNL A   1      34.114  35.048  30.729  1.00  0.00    -0.237 OA
ATOM     56  O   UNL A   1      33.305  34.116  32.861  1.00  0.00    -0.744 OA
ENDBRANCH  52  53
ENDBRANCH  24  47
BRANCH  36  57
ATOM     57  C   UNL A   1      43.181  29.038  33.679  1.00  0.00    -0.014 A 
ATOM     58  C   UNL A   1      43.592  29.386  34.982  1.00  0.00     0.010 A 
ATOM     59  C   UNL A   1      42.473  27.837  33.499  1.00  0.00     0.010 A 
ATOM     60  C   UNL A   1      43.319  28.539  36.068  1.00  0.00     0.020 A 
ATOM     61  C   UNL A   1      42.183  27.000  34.577  1.00  0.00     0.020 A 
ATOM     62  C   UNL A   1      42.615  27.349  35.856  1.00  0.00     0.054 A 
BRANCH  62  63
ATOM     63  S   UNL A   1      42.227  26.271  37.265  1.00  0.00     0.124 S 
ATOM     64  O   UNL A   1      43.210  26.684  38.262  1.00  0.00    -0.237 OA
ATOM     65  O   UNL A   1      40.839  26.618  37.567  1.00  0.00    -0.237 OA
ATOM     66  O   UNL A   1      42.415  24.922  36.732  1.00  0.00    -0.744 OA
ENDBRANCH  62  63
ENDBRANCH  36  57
ENDBRANCH  10  11
ENDBRANCH   3   5
ENDBRANCH   2   3
ENDBRANCH   1   2
BRANCH   1  67
ATOM     67  C   UNL A   1      41.882  19.143  26.194  1.00  0.00     0.275 C 
BRANCH  67  68
ATOM     68  O   UNL A   1      42.669  19.388  25.021  1.00  0.00    -0.457 OA
BRANCH  68  69
ATOM     69  C   UNL A   1      44.017  19.236  25.158  1.00  0.00     0.360 C 
ATOM     70  O   UNL A   1      44.616  18.168  25.088  1.00  0.00    -0.244 OA
BRANCH  69  71
ATOM     71  C   UNL A   1      44.655  20.510  25.381  1.00  0.00     0.190 A 
ATOM     72  C   UNL A   1      44.053  21.698  25.745  1.00  0.00     0.147 A 
ATOM     73  N   UNL A   1      46.004  20.708  25.252  1.00  0.00    -0.123 NA
ATOM     74  N   UNL A   1      45.103  22.559  25.890  1.00  0.00    -0.245 N 
ATOM     75  N   UNL A   1      46.258  21.982  25.508  1.00  0.00    -0.066 NA
BRANCH  74  76
ATOM     76  C   UNL A   1      45.139  23.767  26.647  1.00  0.00     0.148 C 
ATOM     77  C   UNL A   1      45.124  23.717  28.177  1.00  0.00     0.150 C 
ATOM     78  C   UNL A   1      46.616  24.203  26.782  1.00  0.00     0.150 C 
ATOM     79  N   UNL A   1      46.248  24.660  28.100  1.00  0.00    -0.320 N 
ATOM     80  C   UNL A   1      46.861  25.295  29.129  1.00  0.00     0.322 C 
ATOM     81  O   UNL A   1      46.376  25.272  30.264  1.00  0.00    -0.248 OA
ATOM     82  N   UNL A   1      48.097  25.842  28.985  1.00  0.00    -0.307 N 
ATOM     83  H   UNL A   1      48.556  26.027  29.836  1.00  0.00     0.171 HD
BRANCH  82  84
ATOM     84  C   UNL A   1      48.829  26.189  27.865  1.00  0.00     0.053 A 
ATOM     85  C   UNL A   1      48.634  27.295  26.989  1.00  0.00     0.038 A 
ATOM     86  C   UNL A   1      49.960  25.481  27.507  1.00  0.00     0.091 A 
ATOM     87  C   UNL A   1      49.458  27.250  25.885  1.00  0.00     0.067 A 
ATOM     88  S   UNL A   1      50.595  25.980  25.998  1.00  0.00    -0.150 S 
ENDBRANCH  82  84
ENDBRANCH  74  76
ENDBRANCH  69  71
ENDBRANCH  68  69
ENDBRANCH  67  68
ENDBRANCH   1  67
TORSDOF 16
ENDMDL
MODEL 2
REMARK VINA RESULT:     -11.6      3.086     12.255
REMARK SMILES O=C(OCCOC(=O)c1cn(C2CN(C(=O)Nc3ccsc3)C2)nn1)c1ccc(-c2c3nc(c(-c4ccc(S(=O)(=O)[O-])cc4)c4ccc([nH]4)c(-c4ccc(S(=O)(=O)[O-])cc4)c4nc(c(-c5ccc(S(=O)(=O)[O-])cc5)c5ccc2[nH]5)C=C4)C=C3)cc1
REMARK SMILES IDX 4 1 3 2 2 3 1 4 26 5 27 6 85 7 28 8 84 9 29 10 30 11 31 12
REMARK SMILES IDX 78 13 32 14 83 15 77 16 79 17 33 18 82 19 76 20 75 21 34 23
REMARK SMILES IDX 64 24 45 25 63 26 46 27 49 28 62 29 80 30 47 31 48 32 61 34
REMARK SMILES IDX 81 35 50 36 35 37 36 38 44 39 37 40 43 41 38 42 39 43 40 44
REMARK SMILES IDX 41 45 42 46 65 47 66 48 74 49 67 50 73 51 68 52 69 53 70 54
REMARK SMILES IDX 71 55 72 56 51 57 52 58 60 59 53 60 59 61 54 62 55 63 56 64
REMARK SMILES IDX 57 65 58 66 5 67 6 68 7 69 8 70 9 71 10 72 25 73 11 74 24 75
REMARK SMILES IDX 12 76 13 77 23 78 14 79 15 80 16 81 17 82 18 84 19 85 22 86
REMARK SMILES IDX 20 87 21 88
REMARK H PARENT 79 22 49 33 17 83
REMARK Flexibility Score: inf
ROOT
ATOM      1  C   UNL A   1      33.212  33.795  28.019  1.00  0.00     0.275 C 
ENDROOT
BRANCH   1   2
ATOM      2  O   UNL A   1      34.336  32.997  28.449  1.00  0.00    -0.458 OA
BRANCH   2   3
ATOM      3  C   UNL A   1      34.476  31.702  28.089  1.00  0.00     0.338 C 
ATOM      4  O   UNL A   1      33.590  31.085  27.514  1.00  0.00    -0.246 OA
BRANCH   3   5
ATOM      5  C   UNL A   1      35.868  31.180  28.161  1.00  0.00     0.060 A 
ATOM      6  C   UNL A   1      36.224  29.880  27.790  1.00  0.00     0.016 A 
ATOM      7  C   UNL A   1      36.844  32.041  28.687  1.00  0.00     0.016 A 
ATOM      8  C   UNL A   1      37.504  29.412  28.048  1.00  0.00     0.010 A 
ATOM      9  C   UNL A   1      38.125  31.573  28.947  1.00  0.00     0.010 A 
ATOM     10  C   UNL A   1      38.432  30.241  28.683  1.00  0.00    -0.014 A 
BRANCH  10  11
ATOM     11  C   UNL A   1      39.756  29.704  28.970  1.00  0.00     0.031 A 
ATOM     12  C   UNL A   1      40.088  29.651  30.421  1.00  0.00     0.074 A 
ATOM     13  C   UNL A   1      40.559  29.189  28.014  1.00  0.00     0.049 A 
ATOM     14  N   UNL A   1      40.999  30.312  31.057  1.00  0.00    -0.248 NA
ATOM     15  C   UNL A   1      39.194  28.876  31.300  1.00  0.00     0.031 C 
ATOM     16  C   UNL A   1      40.236  28.944  26.604  1.00  0.00     0.029 A 
ATOM     17  N   UNL A   1      41.810  28.664  28.128  1.00  0.00    -0.354 N 
ATOM     18  C   UNL A   1      40.951  29.861  32.375  1.00  0.00     0.074 A 
ATOM     19  C   UNL A   1      39.720  29.123  32.500  1.00  0.00     0.031 C 
ATOM     20  C   UNL A   1      41.151  28.098  26.076  1.00  0.00     0.029 A 
ATOM     21  C   UNL A   1      42.197  27.862  27.055  1.00  0.00     0.049 A 
ATOM     22  H   UNL A   1      42.393  28.836  28.902  1.00  0.00     0.167 HD
ATOM     23  C   UNL A   1      42.044  29.913  33.188  1.00  0.00     0.031 A 
ATOM     24  C   UNL A   1      43.265  27.022  27.003  1.00  0.00     0.031 A 
ATOM     25  C   UNL A   1      43.044  30.814  32.673  1.00  0.00     0.049 A 
ATOM     26  C   UNL A   1      44.210  27.454  28.061  1.00  0.00     0.074 A 
ATOM     27  C   UNL A   1      43.086  32.161  32.381  1.00  0.00     0.029 A 
ATOM     28  N   UNL A   1      44.112  30.250  32.015  1.00  0.00    -0.354 N 
ATOM     29  N   UNL A   1      44.833  28.599  28.037  1.00  0.00    -0.248 NA
ATOM     30  C   UNL A   1      44.093  26.835  29.372  1.00  0.00     0.031 C 
ATOM     31  C   UNL A   1      43.859  32.250  31.185  1.00  0.00     0.029 A 
ATOM     32  C   UNL A   1      44.312  30.968  30.867  1.00  0.00     0.049 A 
ATOM     33  H   UNL A   1      44.636  29.472  32.314  1.00  0.00     0.167 HD
ATOM     34  C   UNL A   1      44.787  29.054  29.346  1.00  0.00     0.074 A 
ATOM     35  C   UNL A   1      44.394  27.888  30.139  1.00  0.00     0.031 C 
ATOM     36  C   UNL A   1      44.793  30.391  29.631  1.00  0.00     0.031 A 
BRANCH  23  37
ATOM     37  C   UNL A   1      42.395  28.825  34.181  1.00  0.00    -0.014 A 
ATOM     38  C   UNL A   1      42.912  27.606  33.690  1.00  0.00     0.010 A 
ATOM     39  C   UNL A   1      41.950  28.831  35.520  1.00  0.00     0.010 A 
ATOM     40  C   UNL A   1      42.866  26.433  34.454  1.00  0.00     0.020 A 
ATOM     41  C   UNL A   1      41.941  27.676  36.306  1.00  0.00     0.020 A 
ATOM     42  C   UNL A   1      42.357  26.475  35.751  1.00  0.00     0.054 A 
BRANCH  42  43
ATOM     43  S   UNL A   1      42.170  24.933  36.678  1.00  0.00     0.124 S 
ATOM     44  O   UNL A   1      40.912  25.162  37.384  1.00  0.00    -0.237 OA
ATOM     45  O   UNL A   1      42.126  23.936  35.611  1.00  0.00    -0.237 OA
ATOM     46  O   UNL A   1      43.365  24.891  37.517  1.00  0.00    -0.744 OA
ENDBRANCH  42  43
ENDBRANCH  23  37
BRANCH  24  47
ATOM     47  C   UNL A   1      43.344  25.680  26.361  1.00  0.00    -0.014 A 
ATOM     48  C   UNL A   1      44.165  25.442  25.240  1.00  0.00     0.010 A 
ATOM     49  C   UNL A   1      42.826  24.554  27.033  1.00  0.00     0.010 A 
ATOM     50  C   UNL A   1      44.497  24.131  24.844  1.00  0.00     0.020 A 
ATOM     51  C   UNL A   1      43.148  23.248  26.644  1.00  0.00     0.020 A 
ATOM     52  C   UNL A   1      44.001  23.040  25.563  1.00  0.00     0.054 A 
BRANCH  52  53
ATOM     53  S   UNL A   1      44.568  21.357  25.162  1.00  0.00     0.124 S 
ATOM     54  O   UNL A   1      44.519  21.351  23.703  1.00  0.00    -0.237 OA
ATOM     55  O   UNL A   1      45.905  21.321  25.748  1.00  0.00    -0.237 OA
ATOM     56  O   UNL A   1      43.585  20.496  25.818  1.00  0.00    -0.744 OA
ENDBRANCH  52  53
ENDBRANCH  24  47
BRANCH  36  57
ATOM     57  C   UNL A   1      45.120  31.366  28.523  1.00  0.00    -0.014 A 
ATOM     58  C   UNL A   1      44.176  31.853  27.596  1.00  0.00     0.010 A 
ATOM     59  C   UNL A   1      46.407  31.931  28.528  1.00  0.00     0.010 A 
ATOM     60  C   UNL A   1      44.525  32.863  26.684  1.00  0.00     0.020 A 
ATOM     61  C   UNL A   1      46.754  32.947  27.637  1.00  0.00     0.020 A 
ATOM     62  C   UNL A   1      45.816  33.402  26.712  1.00  0.00     0.054 A 
BRANCH  62  63
ATOM     63  S   UNL A   1      46.258  34.735  25.561  1.00  0.00     0.124 S 
ATOM     64  O   UNL A   1      45.402  34.459  24.411  1.00  0.00    -0.237 OA
ATOM     65  O   UNL A   1      45.927  35.941  26.317  1.00  0.00    -0.237 OA
ATOM     66  O   UNL A   1      47.688  34.535  25.330  1.00  0.00    -0.744 OA
ENDBRANCH  62  63
ENDBRANCH  36  57
ENDBRANCH  10  11
ENDBRANCH   3   5
ENDBRANCH   2   3
ENDBRANCH   1   2
BRANCH   1  67
ATOM     67  C   UNL A   1      33.015  35.150  28.694  1.00  0.00     0.275 C 
BRANCH  67  68
ATOM     68  O   UNL A   1      32.600  34.963  30.053  1.00  0.00    -0.457 OA
BRANCH  68  69
ATOM     69  C   UNL A   1      32.965  35.939  30.933  1.00  0.00     0.360 C 
ATOM     70  O   UNL A   1      32.403  37.022  31.059  1.00  0.00    -0.244 OA
BRANCH  69  71
ATOM     71  C   UNL A   1      34.101  35.521  31.718  1.00  0.00     0.190 A 
ATOM     72  C   UNL A   1      34.877  34.393  31.536  1.00  0.00     0.147 A 
ATOM     73  N   UNL A   1      34.572  36.225  32.794  1.00  0.00    -0.123 NA
ATOM     74  N   UNL A   1      35.845  34.513  32.492  1.00  0.00    -0.245 N 
ATOM     75  N   UNL A   1      35.604  35.565  33.296  1.00  0.00    -0.066 NA
BRANCH  74  76
ATOM     76  C   UNL A   1      37.132  33.897  32.508  1.00  0.00     0.148 C 
ATOM     77  C   UNL A   1      38.305  34.548  31.772  1.00  0.00     0.150 C 
ATOM     78  C   UNL A   1      37.851  34.325  33.809  1.00  0.00     0.150 C 
ATOM     79  N   UNL A   1      39.055  34.326  33.015  1.00  0.00    -0.320 N 
ATOM     80  C   UNL A   1      40.376  34.544  33.229  1.00  0.00     0.322 C 
ATOM     81  O   UNL A   1      41.136  34.788  32.288  1.00  0.00    -0.248 OA
ATOM     82  N   UNL A   1      40.877  34.656  34.489  1.00  0.00    -0.307 N 
ATOM     83  H   UNL A   1      41.765  35.078  34.530  1.00  0.00     0.171 HD
BRANCH  82  84
ATOM     84  C   UNL A   1      40.371  34.287  35.721  1.00  0.00     0.053 A 
ATOM     85  C   UNL A   1      40.348  32.992  36.314  1.00  0.00     0.038 A 
ATOM     86  C   UNL A   1      39.872  35.230  36.597  1.00  0.00     0.091 A 
ATOM     87  C   UNL A   1      39.630  32.960  37.490  1.00  0.00     0.067 A 
ATOM     88  S   UNL A   1      39.146  34.524  37.977  1.00  0.00    -0.150 S 
ENDBRANCH  82  84
ENDBRANCH  74  76
ENDBRANCH  69  71
ENDBRANCH  68  69
ENDBRANCH  67  68
ENDBRANCH   1  67
TORSDOF 16
ENDMDL
MODEL 3
REMARK VINA RESULT:     -11.2      3.909      6.872
REMARK SMILES O=C(OCCOC(=O)c1cn(C2CN(C(=O)Nc3ccsc3)C2)nn1)c1ccc(-c2c3nc(c(-c4ccc(S(=O)(=O)[O-])cc4)c4ccc([nH]4)c(-c4ccc(S(=O)(=O)[O-])cc4)c4nc(c(-c5ccc(S(=O)(=O)[O-])cc5)c5ccc2[nH]5)C=C4)C=C3)cc1
REMARK SMILES IDX 4 1 3 2 2 3 1 4 26 5 27 6 85 7 28 8 84 9 29 10 30 11 31 12
REMARK SMILES IDX 78 13 32 14 83 15 77 16 79 17 33 18 82 19 76 20 75 21 34 23
REMARK SMILES IDX 64 24 45 25 63 26 46 27 49 28 62 29 80 30 47 31 48 32 61 34
REMARK SMILES IDX 81 35 50 36 35 37 36 38 44 39 37 40 43 41 38 42 39 43 40 44
REMARK SMILES IDX 41 45 42 46 65 47 66 48 74 49 67 50 73 51 68 52 69 53 70 54
REMARK SMILES IDX 71 55 72 56 51 57 52 58 60 59 53 60 59 61 54 62 55 63 56 64
REMARK SMILES IDX 57 65 58 66 5 67 6 68 7 69 8 70 9 71 10 72 25 73 11 74 24 75
REMARK SMILES IDX 12 76 13 77 23 78 14 79 15 80 16 81 17 82 18 84 19 85 22 86
REMARK SMILES IDX 20 87 21 88
REMARK H PARENT 79 22 49 33 17 83
REMARK Flexibility Score: inf
ROOT
ATOM      1  C   UNL A   1      42.641  19.266  26.331  1.00  0.00     0.275 C 
ENDROOT
BRANCH   1   2
ATOM      2  O   UNL A   1      42.918  19.851  25.042  1.00  0.00    -0.458 OA
BRANCH   2   3
ATOM      3  C   UNL A   1      44.040  20.570  24.805  1.00  0.00     0.338 C 
ATOM      4  O   UNL A   1      44.874  20.223  23.981  1.00  0.00    -0.246 OA
BRANCH   3   5
ATOM      5  C   UNL A   1      44.037  21.941  25.382  1.00  0.00     0.060 A 
ATOM      6  C   UNL A   1      44.915  22.355  26.388  1.00  0.00     0.016 A 
ATOM      7  C   UNL A   1      43.055  22.828  24.913  1.00  0.00     0.016 A 
ATOM      8  C   UNL A   1      44.739  23.590  26.996  1.00  0.00     0.010 A 
ATOM      9  C   UNL A   1      42.877  24.063  25.521  1.00  0.00     0.010 A 
ATOM     10  C   UNL A   1      43.682  24.413  26.602  1.00  0.00    -0.014 A 
BRANCH  10  11
ATOM     11  C   UNL A   1      43.506  25.688  27.286  1.00  0.00     0.031 A 
ATOM     12  C   UNL A   1      44.559  26.696  26.975  1.00  0.00     0.074 A 
ATOM     13  C   UNL A   1      42.421  25.969  28.039  1.00  0.00     0.049 A 
ATOM     14  N   UNL A   1      45.442  27.200  27.772  1.00  0.00    -0.248 NA
ATOM     15  C   UNL A   1      44.746  27.076  25.564  1.00  0.00     0.031 C 
ATOM     16  C   UNL A   1      41.205  25.166  28.200  1.00  0.00     0.029 A 
ATOM     17  N   UNL A   1      42.124  27.100  28.738  1.00  0.00    -0.354 N 
ATOM     18  C   UNL A   1      46.146  28.139  27.020  1.00  0.00     0.074 A 
ATOM     19  C   UNL A   1      45.798  27.891  25.644  1.00  0.00     0.031 C 
ATOM     20  C   UNL A   1      40.223  25.938  28.721  1.00  0.00     0.029 A 
ATOM     21  C   UNL A   1      40.776  27.235  29.068  1.00  0.00     0.049 A 
ATOM     22  H   UNL A   1      42.803  27.766  28.989  1.00  0.00     0.167 HD
ATOM     23  C   UNL A   1      46.760  29.207  27.604  1.00  0.00     0.031 A 
ATOM     24  C   UNL A   1      40.153  28.351  29.534  1.00  0.00     0.031 A 
ATOM     25  C   UNL A   1      46.927  29.011  29.022  1.00  0.00     0.049 A 
ATOM     26  C   UNL A   1      41.206  29.236  30.089  1.00  0.00     0.074 A 
ATOM     27  C   UNL A   1      47.585  28.089  29.809  1.00  0.00     0.029 A 
ATOM     28  N   UNL A   1      46.026  29.641  29.849  1.00  0.00    -0.354 N 
ATOM     29  N   UNL A   1      41.916  28.929  31.138  1.00  0.00    -0.248 NA
ATOM     30  C   UNL A   1      41.797  30.227  29.204  1.00  0.00     0.031 C 
ATOM     31  C   UNL A   1      46.714  27.869  30.917  1.00  0.00     0.029 A 
ATOM     32  C   UNL A   1      45.621  28.728  30.785  1.00  0.00     0.049 A 
ATOM     33  H   UNL A   1      45.728  30.577  29.780  1.00  0.00     0.167 HD
ATOM     34  C   UNL A   1      43.205  29.331  30.823  1.00  0.00     0.074 A 
ATOM     35  C   UNL A   1      43.055  30.201  29.655  1.00  0.00     0.031 C 
ATOM     36  C   UNL A   1      44.293  28.702  31.359  1.00  0.00     0.031 A 
BRANCH  23  37
ATOM     37  C   UNL A   1      46.790  30.590  26.987  1.00  0.00    -0.014 A 
ATOM     38  C   UNL A   1      47.983  31.340  27.075  1.00  0.00     0.010 A 
ATOM     39  C   UNL A   1      45.625  31.292  26.615  1.00  0.00     0.010 A 
ATOM     40  C   UNL A   1      47.981  32.733  26.924  1.00  0.00     0.020 A 
ATOM     41  C   UNL A   1      45.620  32.675  26.419  1.00  0.00     0.020 A 
ATOM     42  C   UNL A   1      46.791  33.392  26.619  1.00  0.00     0.054 A 
BRANCH  42  43
ATOM     43  S   UNL A   1      46.768  35.200  26.567  1.00  0.00     0.124 S 
ATOM     44  O   UNL A   1      47.676  35.477  25.457  1.00  0.00    -0.237 OA
ATOM     45  O   UNL A   1      45.357  35.483  26.318  1.00  0.00    -0.237 OA
ATOM     46  O   UNL A   1      47.254  35.586  27.889  1.00  0.00    -0.744 OA
ENDBRANCH  42  43
ENDBRANCH  23  37
BRANCH  24  47
ATOM     47  C   UNL A   1      38.788  28.845  29.199  1.00  0.00    -0.014 A 
ATOM     48  C   UNL A   1      37.802  29.023  30.189  1.00  0.00     0.010 A 
ATOM     49  C   UNL A   1      38.546  29.418  27.933  1.00  0.00     0.010 A 
ATOM     50  C   UNL A   1      36.646  29.791  29.938  1.00  0.00     0.020 A 
ATOM     51  C   UNL A   1      37.399  30.180  27.675  1.00  0.00     0.020 A 
ATOM     52  C   UNL A   1      36.463  30.382  28.684  1.00  0.00     0.054 A 
BRANCH  52  53
ATOM     53  S   UNL A   1      35.063  31.515  28.414  1.00  0.00     0.124 S 
ATOM     54  O   UNL A   1      35.644  32.524  27.533  1.00  0.00    -0.237 OA
ATOM     55  O   UNL A   1      34.061  30.647  27.805  1.00  0.00    -0.237 OA
ATOM     56  O   UNL A   1      34.735  31.984  29.760  1.00  0.00    -0.744 OA
ENDBRANCH  52  53
ENDBRANCH  24  47
BRANCH  36  57
ATOM     57  C   UNL A   1      44.081  27.737  32.502  1.00  0.00    -0.014 A 
ATOM     58  C   UNL A   1      43.752  28.127  33.816  1.00  0.00     0.010 A 
ATOM     59  C   UNL A   1      44.059  26.367  32.186  1.00  0.00     0.010 A 
ATOM     60  C   UNL A   1      43.433  27.166  34.789  1.00  0.00     0.020 A 
ATOM     61  C   UNL A   1      43.726  25.408  33.144  1.00  0.00     0.020 A 
ATOM     62  C   UNL A   1      43.424  25.811  34.444  1.00  0.00     0.054 A 
BRANCH  62  63
ATOM     63  S   UNL A   1      42.975  24.569  35.690  1.00  0.00     0.124 S 
ATOM     64  O   UNL A   1      43.322  25.234  36.942  1.00  0.00    -0.237 OA
ATOM     65  O   UNL A   1      41.545  24.376  35.456  1.00  0.00    -0.237 OA
ATOM     66  O   UNL A   1      43.808  23.417  35.350  1.00  0.00    -0.744 OA
ENDBRANCH  62  63
ENDBRANCH  36  57
ENDBRANCH  10  11
ENDBRANCH   3   5
ENDBRANCH   2   3
ENDBRANCH   1   2
BRANCH   1  67
ATOM     67  C   UNL A   1      41.517  19.889  27.156  1.00  0.00     0.275 C 
BRANCH  67  68
ATOM     68  O   UNL A   1      40.635  20.628  26.302  1.00  0.00    -0.457 OA
BRANCH  68  69
ATOM     69  C   UNL A   1      40.055  21.734  26.849  1.00  0.00     0.360 C 
ATOM     70  O   UNL A   1      40.503  22.370  27.797  1.00  0.00    -0.244 OA
BRANCH  69  71
ATOM     71  C   UNL A   1      38.841  22.074  26.148  1.00  0.00     0.190 A 
ATOM     72  C   UNL A   1      38.154  21.298  25.235  1.00  0.00     0.147 A 
ATOM     73  N   UNL A   1      38.187  23.267  26.309  1.00  0.00    -0.123 NA
ATOM     74  N   UNL A   1      37.055  22.052  24.936  1.00  0.00    -0.245 N 
ATOM     75  N   UNL A   1      37.128  23.265  25.516  1.00  0.00    -0.066 NA
BRANCH  74  76
ATOM     76  C   UNL A   1      35.810  21.602  24.404  1.00  0.00     0.148 C 
ATOM     77  C   UNL A   1      35.156  20.330  24.948  1.00  0.00     0.150 C 
ATOM     78  C   UNL A   1      34.677  22.365  25.127  1.00  0.00     0.150 C 
ATOM     79  N   UNL A   1      33.930  21.135  25.027  1.00  0.00    -0.320 N 
ATOM     80  C   UNL A   1      32.685  20.709  25.352  1.00  0.00     0.322 C 
ATOM     81  O   UNL A   1      32.432  19.504  25.435  1.00  0.00    -0.248 OA
ATOM     82  N   UNL A   1      31.721  21.583  25.747  1.00  0.00    -0.307 N 
ATOM     83  H   UNL A   1      30.964  21.160  26.214  1.00  0.00     0.171 HD
BRANCH  82  84
ATOM     84  C   UNL A   1      31.606  22.954  25.615  1.00  0.00     0.053 A 
ATOM     85  C   UNL A   1      31.315  23.706  24.441  1.00  0.00     0.038 A 
ATOM     86  C   UNL A   1      31.692  23.784  26.714  1.00  0.00     0.091 A 
ATOM     87  C   UNL A   1      31.426  25.065  24.641  1.00  0.00     0.067 A 
ATOM     88  S   UNL A   1      31.696  25.442  26.285  1.00  0.00    -0.150 S 
ENDBRANCH  82  84
ENDBRANCH  74  76
ENDBRANCH  69  71
ENDBRANCH  68  69
ENDBRANCH  67  68
ENDBRANCH   1  67
TORSDOF 16
ENDMDL
