MODEL 1
REMARK VINA RESULT:     -11.0      0.000      0.000
REMARK SMILES Cc1ccc(Nc2c(Cl)cccc2Cl)c(CC(=O)OCCOC(=O)c2ccc(-c3c4nc(c(-c5ccc(S(=O)(=O)[O-])cc5)c5ccc([nH]5)c(-c5ccc(S(=O)(=O)[O-])cc5)c5nc(c(-c6ccc(S(=O)(=O)[O-])cc6)c6ccc3[nH]6)C=C5)C=C4)cc2)c1
REMARK SMILES IDX 20 1 19 2 17 3 18 4 16 5 15 6 1 7 2 8 3 9 85 10 4 11 5 12
REMARK SMILES IDX 6 13 7 15 8 16 13 17 9 18 10 19 12 20 14 21 11 22 21 23
REMARK SMILES IDX 22 24 23 25 24 26 25 27 26 28 84 29 27 30 83 31 28 32 29 33
REMARK SMILES IDX 30 34 77 35 31 36 82 37 76 38 78 39 32 40 81 41 75 42 74 43
REMARK SMILES IDX 33 45 63 46 44 47 62 48 45 49 48 50 61 51 79 52 46 53 47 54
REMARK SMILES IDX 60 56 80 57 49 58 34 59 35 60 43 61 36 62 42 63 37 64 38 65
REMARK SMILES IDX 39 66 40 67 41 68 64 69 65 70 73 71 66 72 72 73 67 74 68 75
REMARK SMILES IDX 69 76 70 77 71 78 50 79 51 80 59 81 52 82 58 83 53 84 54 85
REMARK SMILES IDX 55 86 56 87 57 88
REMARK H PARENT 6 14 78 44 48 55
REMARK Flexibility Score: inf
ROOT
ATOM      1  C   UNL A   1      34.478  30.512  27.154  1.00  0.00     0.274 C 
ENDROOT
BRANCH   1   2
ATOM      2  O   UNL A   1      35.158  31.763  27.253  1.00  0.00    -0.462 OA
BRANCH   2   3
ATOM      3  C   UNL A   1      34.597  32.640  28.112  1.00  0.00     0.310 C 
ATOM      4  O   UNL A   1      33.486  32.485  28.610  1.00  0.00    -0.252 OA
BRANCH   3   5
ATOM      5  C   UNL A   1      35.552  33.797  28.333  1.00  0.00     0.160 C 
BRANCH   5   6
ATOM      6  C   UNL A   1      36.413  33.542  29.541  1.00  0.00    -0.013 A 
ATOM      7  C   UNL A   1      39.787  31.884  29.877  1.00  0.00     0.044 C 
ATOM      8  C   UNL A   1      38.476  32.499  30.250  1.00  0.00    -0.051 A 
ATOM      9  C   UNL A   1      37.922  32.338  31.522  1.00  0.00     0.005 A 
ATOM     10  C   UNL A   1      37.720  33.120  29.267  1.00  0.00     0.009 A 
ATOM     11  C   UNL A   1      36.649  32.844  31.820  1.00  0.00     0.026 A 
ATOM     12  C   UNL A   1      35.882  33.494  30.853  1.00  0.00     0.042 A 
BRANCH  12  13
ATOM     13  N   UNL A   1      34.570  33.917  31.129  1.00  0.00    -0.353 N 
ATOM     14  H   UNL A   1      33.878  33.253  30.903  1.00  0.00     0.167 HD
BRANCH  13  15
ATOM     15  C   UNL A   1      34.052  35.125  31.675  1.00  0.00     0.076 A 
ATOM     16  C   UNL A   1      34.320  35.516  33.000  1.00  0.00     0.066 A 
ATOM     17  C   UNL A   1      33.500  36.105  30.821  1.00  0.00     0.066 A 
ATOM     18  Cl  UNL A   1      35.024  34.430  34.151  1.00  0.00    -0.082 Cl
ATOM     19  C   UNL A   1      34.030  36.815  33.449  1.00  0.00     0.023 A 
ATOM     20  C   UNL A   1      33.278  37.420  31.250  1.00  0.00     0.023 A 
ATOM     21  Cl  UNL A   1      32.941  35.711  29.234  1.00  0.00    -0.082 Cl
ATOM     22  C   UNL A   1      33.535  37.774  32.569  1.00  0.00     0.003 A 
ENDBRANCH  13  15
ENDBRANCH  12  13
ENDBRANCH   5   6
ENDBRANCH   3   5
ENDBRANCH   2   3
ENDBRANCH   1   2
BRANCH   1  23
ATOM     23  C   UNL A   1      35.143  29.416  28.024  1.00  0.00     0.275 C 
BRANCH  23  24
ATOM     24  O   UNL A   1      35.741  29.833  29.306  1.00  0.00    -0.458 OA
BRANCH  24  25
ATOM     25  C   UNL A   1      36.742  29.345  30.109  1.00  0.00     0.338 C 
ATOM     26  O   UNL A   1      36.521  29.150  31.304  1.00  0.00    -0.246 OA
BRANCH  25  27
ATOM     27  C   UNL A   1      37.879  28.633  29.491  1.00  0.00     0.060 A 
ATOM     28  C   UNL A   1      38.433  28.997  28.246  1.00  0.00     0.016 A 
ATOM     29  C   UNL A   1      38.589  27.806  30.304  1.00  0.00     0.016 A 
ATOM     30  C   UNL A   1      39.740  28.597  27.941  1.00  0.00     0.010 A 
ATOM     31  C   UNL A   1      39.941  27.881  30.235  1.00  0.00     0.010 A 
ATOM     32  C   UNL A   1      40.495  28.060  28.984  1.00  0.00    -0.014 A 
BRANCH  32  33
ATOM     33  C   UNL A   1      41.738  27.309  28.916  1.00  0.00     0.031 A 
ATOM     34  C   UNL A   1      41.735  25.937  28.427  1.00  0.00     0.074 A 
ATOM     35  C   UNL A   1      42.846  28.050  29.179  1.00  0.00     0.049 A 
ATOM     36  N   UNL A   1      42.134  24.917  29.102  1.00  0.00    -0.248 NA
ATOM     37  C   UNL A   1      41.242  25.611  27.087  1.00  0.00     0.031 C 
ATOM     38  C   UNL A   1      44.260  27.761  29.074  1.00  0.00     0.029 A 
ATOM     39  N   UNL A   1      42.871  29.352  29.667  1.00  0.00    -0.354 N 
ATOM     40  C   UNL A   1      42.359  23.944  28.151  1.00  0.00     0.074 A 
ATOM     41  C   UNL A   1      41.570  24.315  26.994  1.00  0.00     0.031 C 
ATOM     42  C   UNL A   1      44.938  28.687  29.795  1.00  0.00     0.029 A 
ATOM     43  C   UNL A   1      43.988  29.611  30.418  1.00  0.00     0.049 A 
ATOM     44  H   UNL A   1      42.164  30.014  29.493  1.00  0.00     0.167 HD
ATOM     45  C   UNL A   1      43.493  23.186  28.194  1.00  0.00     0.031 A 
ATOM     46  C   UNL A   1      43.762  29.836  31.748  1.00  0.00     0.031 A 
ATOM     47  C   UNL A   1      44.450  23.748  29.154  1.00  0.00     0.049 A 
ATOM     48  C   UNL A   1      43.996  28.557  32.518  1.00  0.00     0.074 A 
ATOM     49  C   UNL A   1      45.609  24.488  28.968  1.00  0.00     0.029 A 
ATOM     50  N   UNL A   1      44.092  23.927  30.487  1.00  0.00    -0.354 N 
ATOM     51  N   UNL A   1      44.101  27.384  31.950  1.00  0.00    -0.248 NA
ATOM     52  C   UNL A   1      44.213  28.492  33.957  1.00  0.00     0.031 C 
ATOM     53  C   UNL A   1      45.900  25.171  30.179  1.00  0.00     0.029 A 
ATOM     54  C   UNL A   1      44.921  24.851  31.103  1.00  0.00     0.049 A 
ATOM     55  H   UNL A   1      43.348  23.461  30.932  1.00  0.00     0.167 HD
ATOM     56  C   UNL A   1      44.474  26.449  32.867  1.00  0.00     0.074 A 
ATOM     57  C   UNL A   1      44.519  27.190  34.118  1.00  0.00     0.031 C 
ATOM     58  C   UNL A   1      44.752  25.157  32.520  1.00  0.00     0.031 A 
BRANCH  45  59
ATOM     59  C   UNL A   1      43.859  22.223  27.087  1.00  0.00    -0.014 A 
ATOM     60  C   UNL A   1      43.025  21.132  26.776  1.00  0.00     0.010 A 
ATOM     61  C   UNL A   1      45.005  22.392  26.279  1.00  0.00     0.010 A 
ATOM     62  C   UNL A   1      43.339  20.223  25.757  1.00  0.00     0.020 A 
ATOM     63  C   UNL A   1      45.343  21.476  25.267  1.00  0.00     0.020 A 
ATOM     64  C   UNL A   1      44.501  20.396  25.010  1.00  0.00     0.054 A 
BRANCH  64  65
ATOM     65  S   UNL A   1      44.868  19.214  23.685  1.00  0.00     0.124 S 
ATOM     66  O   UNL A   1      43.975  18.102  23.997  1.00  0.00    -0.237 OA
ATOM     67  O   UNL A   1      44.528  19.976  22.486  1.00  0.00    -0.237 OA
ATOM     68  O   UNL A   1      46.291  18.929  23.857  1.00  0.00    -0.744 OA
ENDBRANCH  64  65
ENDBRANCH  45  59
BRANCH  46  69
ATOM     69  C   UNL A   1      42.725  30.907  32.004  1.00  0.00    -0.014 A 
ATOM     70  C   UNL A   1      41.555  30.481  32.677  1.00  0.00     0.010 A 
ATOM     71  C   UNL A   1      42.992  32.293  31.991  1.00  0.00     0.010 A 
ATOM     72  C   UNL A   1      40.779  31.364  33.442  1.00  0.00     0.020 A 
ATOM     73  C   UNL A   1      42.195  33.192  32.741  1.00  0.00     0.020 A 
ATOM     74  C   UNL A   1      41.137  32.706  33.516  1.00  0.00     0.054 A 
BRANCH  74  75
ATOM     75  S   UNL A   1      40.359  33.709  34.826  1.00  0.00     0.124 S 
ATOM     76  O   UNL A   1      41.293  33.568  35.937  1.00  0.00    -0.237 OA
ATOM     77  O   UNL A   1      40.314  35.029  34.196  1.00  0.00    -0.237 OA
ATOM     78  O   UNL A   1      39.058  33.081  35.009  1.00  0.00    -0.744 OA
ENDBRANCH  74  75
ENDBRANCH  46  69
BRANCH  58  79
ATOM     79  C   UNL A   1      45.012  24.040  33.489  1.00  0.00    -0.014 A 
ATOM     80  C   UNL A   1      44.091  23.024  33.772  1.00  0.00     0.010 A 
ATOM     81  C   UNL A   1      46.307  23.921  34.051  1.00  0.00     0.010 A 
ATOM     82  C   UNL A   1      44.425  21.975  34.632  1.00  0.00     0.020 A 
ATOM     83  C   UNL A   1      46.670  22.848  34.856  1.00  0.00     0.020 A 
ATOM     84  C   UNL A   1      45.712  21.895  35.169  1.00  0.00     0.054 A 
BRANCH  84  85
ATOM     85  S   UNL A   1      46.149  20.504  36.233  1.00  0.00     0.124 S 
ATOM     86  O   UNL A   1      45.277  19.451  35.716  1.00  0.00    -0.237 OA
ATOM     87  O   UNL A   1      47.574  20.325  35.966  1.00  0.00    -0.237 OA
ATOM     88  O   UNL A   1      45.828  20.984  37.574  1.00  0.00    -0.744 OA
ENDBRANCH  84  85
ENDBRANCH  58  79
ENDBRANCH  32  33
ENDBRANCH  25  27
ENDBRANCH  24  25
ENDBRANCH  23  24
ENDBRANCH   1  23
TORSDOF 17
ENDMDL
MODEL 2
REMARK VINA RESULT:     -10.8      3.863      6.185
REMARK SMILES Cc1ccc(Nc2c(Cl)cccc2Cl)c(CC(=O)OCCOC(=O)c2ccc(-c3c4nc(c(-c5ccc(S(=O)(=O)[O-])cc5)c5ccc([nH]5)c(-c5ccc(S(=O)(=O)[O-])cc5)c5nc(c(-c6ccc(S(=O)(=O)[O-])cc6)c6ccc3[nH]6)C=C5)C=C4)cc2)c1
REMARK SMILES IDX 20 1 19 2 17 3 18 4 16 5 15 6 1 7 2 8 3 9 85 10 4 11 5 12
REMARK SMILES IDX 6 13 7 15 8 16 13 17 9 18 10 19 12 20 14 21 11 22 21 23
REMARK SMILES IDX 22 24 23 25 24 26 25 27 26 28 84 29 27 30 83 31 28 32 29 33
REMARK SMILES IDX 30 34 77 35 31 36 82 37 76 38 78 39 32 40 81 41 75 42 74 43
REMARK SMILES IDX 33 45 63 46 44 47 62 48 45 49 48 50 61 51 79 52 46 53 47 54
REMARK SMILES IDX 60 56 80 57 49 58 34 59 35 60 43 61 36 62 42 63 37 64 38 65
REMARK SMILES IDX 39 66 40 67 41 68 64 69 65 70 73 71 66 72 72 73 67 74 68 75
REMARK SMILES IDX 69 76 70 77 71 78 50 79 51 80 59 81 52 82 58 83 53 84 54 85
REMARK SMILES IDX 55 86 56 87 57 88
REMARK H PARENT 6 14 78 44 48 55
REMARK Flexibility Score: inf
ROOT
ATOM      1  C   UNL A   1      33.844  30.275  26.878  1.00  0.00     0.274 C 
ENDROOT
BRANCH   1   2
ATOM      2  O   UNL A   1      32.613  29.949  27.521  1.00  0.00    -0.462 OA
BRANCH   2   3
ATOM      3  C   UNL A   1      32.175  28.693  27.291  1.00  0.00     0.310 C 
ATOM      4  O   UNL A   1      31.335  28.130  27.988  1.00  0.00    -0.252 OA
BRANCH   3   5
ATOM      5  C   UNL A   1      32.884  28.136  26.072  1.00  0.00     0.160 C 
BRANCH   5   6
ATOM      6  C   UNL A   1      31.893  27.845  24.978  1.00  0.00    -0.013 A 
ATOM      7  C   UNL A   1      29.391  30.075  23.241  1.00  0.00     0.044 C 
ATOM      8  C   UNL A   1      30.115  28.841  23.675  1.00  0.00    -0.051 A 
ATOM      9  C   UNL A   1      29.570  27.567  23.503  1.00  0.00     0.005 A 
ATOM     10  C   UNL A   1      31.290  28.970  24.401  1.00  0.00     0.009 A 
ATOM     11  C   UNL A   1      30.223  26.432  24.001  1.00  0.00     0.026 A 
ATOM     12  C   UNL A   1      31.418  26.538  24.712  1.00  0.00     0.042 A 
BRANCH  12  13
ATOM     13  N   UNL A   1      32.022  25.407  25.291  1.00  0.00    -0.353 N 
ATOM     14  H   UNL A   1      32.426  25.576  26.174  1.00  0.00     0.167 HD
BRANCH  13  15
ATOM     15  C   UNL A   1      32.160  24.064  24.841  1.00  0.00     0.076 A 
ATOM     16  C   UNL A   1      33.091  23.705  23.849  1.00  0.00     0.066 A 
ATOM     17  C   UNL A   1      31.575  23.010  25.577  1.00  0.00     0.066 A 
ATOM     18  Cl  UNL A   1      33.910  24.892  22.889  1.00  0.00    -0.082 Cl
ATOM     19  C   UNL A   1      33.403  22.360  23.596  1.00  0.00     0.023 A 
ATOM     20  C   UNL A   1      31.940  21.673  25.371  1.00  0.00     0.023 A 
ATOM     21  Cl  UNL A   1      30.277  23.290  26.682  1.00  0.00    -0.082 Cl
ATOM     22  C   UNL A   1      32.849  21.346  24.374  1.00  0.00     0.003 A 
ENDBRANCH  13  15
ENDBRANCH  12  13
ENDBRANCH   5   6
ENDBRANCH   3   5
ENDBRANCH   2   3
ENDBRANCH   1   2
BRANCH   1  23
ATOM     23  C   UNL A   1      34.933  30.712  27.889  1.00  0.00     0.275 C 
BRANCH  23  24
ATOM     24  O   UNL A   1      35.493  29.676  28.777  1.00  0.00    -0.458 OA
BRANCH  24  25
ATOM     25  C   UNL A   1      36.643  29.558  29.516  1.00  0.00     0.338 C 
ATOM     26  O   UNL A   1      36.585  29.618  30.744  1.00  0.00    -0.246 OA
BRANCH  25  27
ATOM     27  C   UNL A   1      37.827  28.914  28.912  1.00  0.00     0.060 A 
ATOM     28  C   UNL A   1      38.425  29.364  27.716  1.00  0.00     0.016 A 
ATOM     29  C   UNL A   1      38.524  28.060  29.708  1.00  0.00     0.016 A 
ATOM     30  C   UNL A   1      39.755  29.017  27.449  1.00  0.00     0.010 A 
ATOM     31  C   UNL A   1      39.876  28.174  29.705  1.00  0.00     0.010 A 
ATOM     32  C   UNL A   1      40.478  28.440  28.493  1.00  0.00    -0.014 A 
BRANCH  32  33
ATOM     33  C   UNL A   1      41.744  27.728  28.439  1.00  0.00     0.031 A 
ATOM     34  C   UNL A   1      41.772  26.315  28.085  1.00  0.00     0.074 A 
ATOM     35  C   UNL A   1      42.835  28.528  28.577  1.00  0.00     0.049 A 
ATOM     36  N   UNL A   1      42.237  25.379  28.835  1.00  0.00    -0.248 NA
ATOM     37  C   UNL A   1      41.233  25.843  26.807  1.00  0.00     0.031 C 
ATOM     38  C   UNL A   1      44.252  28.276  28.435  1.00  0.00     0.029 A 
ATOM     39  N   UNL A   1      42.832  29.870  28.936  1.00  0.00    -0.354 N 
ATOM     40  C   UNL A   1      42.457  24.327  27.973  1.00  0.00     0.074 A 
ATOM     41  C   UNL A   1      41.605  24.556  26.824  1.00  0.00     0.031 C 
ATOM     42  C   UNL A   1      44.926  29.290  29.031  1.00  0.00     0.029 A 
ATOM     43  C   UNL A   1      43.970  30.239  29.605  1.00  0.00     0.049 A 
ATOM     44  H   UNL A   1      42.094  30.488  28.732  1.00  0.00     0.167 HD
ATOM     45  C   UNL A   1      43.619  23.614  28.035  1.00  0.00     0.031 A 
ATOM     46  C   UNL A   1      43.794  30.585  30.917  1.00  0.00     0.031 A 
ATOM     47  C   UNL A   1      44.595  24.299  28.890  1.00  0.00     0.049 A 
ATOM     48  C   UNL A   1      44.109  29.395  31.795  1.00  0.00     0.074 A 
ATOM     49  C   UNL A   1      45.716  25.055  28.580  1.00  0.00     0.029 A 
ATOM     50  N   UNL A   1      44.289  24.595  30.216  1.00  0.00    -0.354 N 
ATOM     51  N   UNL A   1      44.233  28.177  31.338  1.00  0.00    -0.248 NA
ATOM     52  C   UNL A   1      44.390  29.478  33.221  1.00  0.00     0.031 C 
ATOM     53  C   UNL A   1      46.034  25.862  29.704  1.00  0.00     0.029 A 
ATOM     54  C   UNL A   1      45.110  25.601  30.700  1.00  0.00     0.049 A 
ATOM     55  H   UNL A   1      43.583  24.150  30.738  1.00  0.00     0.167 HD
ATOM     56  C   UNL A   1      44.679  27.348  32.321  1.00  0.00     0.074 A 
ATOM     57  C   UNL A   1      44.752  28.209  33.493  1.00  0.00     0.031 C 
ATOM     58  C   UNL A   1      44.991  26.039  32.088  1.00  0.00     0.031 A 
BRANCH  45  59
ATOM     59  C   UNL A   1      43.972  22.560  27.010  1.00  0.00    -0.014 A 
ATOM     60  C   UNL A   1      43.068  21.528  26.696  1.00  0.00     0.010 A 
ATOM     61  C   UNL A   1      45.182  22.583  26.280  1.00  0.00     0.010 A 
ATOM     62  C   UNL A   1      43.368  20.538  25.751  1.00  0.00     0.020 A 
ATOM     63  C   UNL A   1      45.505  21.583  25.345  1.00  0.00     0.020 A 
ATOM     64  C   UNL A   1      44.590  20.567  25.084  1.00  0.00     0.054 A 
BRANCH  64  65
ATOM     65  S   UNL A   1      44.939  19.282  23.853  1.00  0.00     0.124 S 
ATOM     66  O   UNL A   1      44.104  18.173  24.307  1.00  0.00    -0.237 OA
ATOM     67  O   UNL A   1      44.515  19.920  22.609  1.00  0.00    -0.237 OA
ATOM     68  O   UNL A   1      46.379  19.062  23.979  1.00  0.00    -0.744 OA
ENDBRANCH  64  65
ENDBRANCH  45  59
BRANCH  46  69
ATOM     69  C   UNL A   1      42.730  31.641  31.117  1.00  0.00    -0.014 A 
ATOM     70  C   UNL A   1      42.908  32.841  30.389  1.00  0.00     0.010 A 
ATOM     71  C   UNL A   1      41.438  31.381  31.623  1.00  0.00     0.010 A 
ATOM     72  C   UNL A   1      41.827  33.660  30.036  1.00  0.00     0.020 A 
ATOM     73  C   UNL A   1      40.347  32.221  31.291  1.00  0.00     0.020 A 
ATOM     74  C   UNL A   1      40.542  33.315  30.441  1.00  0.00     0.054 A 
BRANCH  74  75
ATOM     75  S   UNL A   1      39.149  34.164  29.625  1.00  0.00     0.124 S 
ATOM     76  O   UNL A   1      39.814  34.962  28.600  1.00  0.00    -0.237 OA
ATOM     77  O   UNL A   1      38.360  33.032  29.138  1.00  0.00    -0.237 OA
ATOM     78  O   UNL A   1      38.527  34.914  30.707  1.00  0.00    -0.744 OA
ENDBRANCH  74  75
ENDBRANCH  46  69
BRANCH  58  79
ATOM     79  C   UNL A   1      45.334  25.031  33.146  1.00  0.00    -0.014 A 
ATOM     80  C   UNL A   1      46.591  24.934  33.753  1.00  0.00     0.010 A 
ATOM     81  C   UNL A   1      44.296  24.216  33.663  1.00  0.00     0.010 A 
ATOM     82  C   UNL A   1      46.821  24.016  34.782  1.00  0.00     0.020 A 
ATOM     83  C   UNL A   1      44.497  23.346  34.728  1.00  0.00     0.020 A 
ATOM     84  C   UNL A   1      45.772  23.228  35.261  1.00  0.00     0.054 A 
BRANCH  84  85
ATOM     85  S   UNL A   1      46.067  22.088  36.629  1.00  0.00     0.124 S 
ATOM     86  O   UNL A   1      45.542  22.845  37.763  1.00  0.00    -0.237 OA
ATOM     87  O   UNL A   1      45.290  20.912  36.246  1.00  0.00    -0.237 OA
ATOM     88  O   UNL A   1      47.516  21.902  36.614  1.00  0.00    -0.744 OA
ENDBRANCH  84  85
ENDBRANCH  58  79
ENDBRANCH  32  33
ENDBRANCH  25  27
ENDBRANCH  24  25
ENDBRANCH  23  24
ENDBRANCH   1  23
TORSDOF 17
ENDMDL
MODEL 3
REMARK VINA RESULT:     -10.8      4.430      6.819
REMARK SMILES Cc1ccc(Nc2c(Cl)cccc2Cl)c(CC(=O)OCCOC(=O)c2ccc(-c3c4nc(c(-c5ccc(S(=O)(=O)[O-])cc5)c5ccc([nH]5)c(-c5ccc(S(=O)(=O)[O-])cc5)c5nc(c(-c6ccc(S(=O)(=O)[O-])cc6)c6ccc3[nH]6)C=C5)C=C4)cc2)c1
REMARK SMILES IDX 20 1 19 2 17 3 18 4 16 5 15 6 1 7 2 8 3 9 85 10 4 11 5 12
REMARK SMILES IDX 6 13 7 15 8 16 13 17 9 18 10 19 12 20 14 21 11 22 21 23
REMARK SMILES IDX 22 24 23 25 24 26 25 27 26 28 84 29 27 30 83 31 28 32 29 33
REMARK SMILES IDX 30 34 77 35 31 36 82 37 76 38 78 39 32 40 81 41 75 42 74 43
REMARK SMILES IDX 33 45 63 46 44 47 62 48 45 49 48 50 61 51 79 52 46 53 47 54
REMARK SMILES IDX 60 56 80 57 49 58 34 59 35 60 43 61 36 62 42 63 37 64 38 65
REMARK SMILES IDX 39 66 40 67 41 68 64 69 65 70 73 71 66 72 72 73 67 74 68 75
REMARK SMILES IDX 69 76 70 77 71 78 50 79 51 80 59 81 52 82 58 83 53 84 54 85
REMARK SMILES IDX 55 86 56 87 57 88
REMARK H PARENT 6 14 78 44 48 55
REMARK Flexibility Score: inf
ROOT
ATOM      1  C   UNL A   1      32.364  27.925  26.304  1.00  0.00     0.274 C 
ENDROOT
BRANCH   1   2
ATOM      2  O   UNL A   1      31.616  26.797  26.754  1.00  0.00    -0.462 OA
BRANCH   2   3
ATOM      3  C   UNL A   1      32.031  25.613  26.255  1.00  0.00     0.310 C 
ATOM      4  O   UNL A   1      33.212  25.333  26.068  1.00  0.00    -0.252 OA
BRANCH   3   5
ATOM      5  C   UNL A   1      30.823  24.739  25.980  1.00  0.00     0.160 C 
BRANCH   5   6
ATOM      6  C   UNL A   1      31.210  23.569  25.116  1.00  0.00    -0.013 A 
ATOM      7  C   UNL A   1      33.195  20.456  25.899  1.00  0.00     0.044 C 
ATOM      8  C   UNL A   1      32.474  21.508  25.118  1.00  0.00    -0.051 A 
ATOM      9  C   UNL A   1      32.635  21.641  23.738  1.00  0.00     0.005 A 
ATOM     10  C   UNL A   1      31.743  22.469  25.800  1.00  0.00     0.009 A 
ATOM     11  C   UNL A   1      32.023  22.692  23.041  1.00  0.00     0.026 A 
ATOM     12  C   UNL A   1      31.263  23.655  23.703  1.00  0.00     0.042 A 
BRANCH  12  13
ATOM     13  N   UNL A   1      30.728  24.759  23.015  1.00  0.00    -0.353 N 
ATOM     14  H   UNL A   1      30.045  24.522  22.346  1.00  0.00     0.167 HD
BRANCH  13  15
ATOM     15  C   UNL A   1      30.988  26.156  23.105  1.00  0.00     0.076 A 
ATOM     16  C   UNL A   1      32.231  26.704  22.735  1.00  0.00     0.066 A 
ATOM     17  C   UNL A   1      29.922  27.062  23.289  1.00  0.00     0.066 A 
ATOM     18  Cl  UNL A   1      33.620  25.712  22.446  1.00  0.00    -0.082 Cl
ATOM     19  C   UNL A   1      32.397  28.089  22.580  1.00  0.00     0.023 A 
ATOM     20  C   UNL A   1      30.071  28.436  23.064  1.00  0.00     0.023 A 
ATOM     21  Cl  UNL A   1      28.401  26.550  23.933  1.00  0.00    -0.082 Cl
ATOM     22  C   UNL A   1      31.313  28.953  22.717  1.00  0.00     0.003 A 
ENDBRANCH  13  15
ENDBRANCH  12  13
ENDBRANCH   5   6
ENDBRANCH   3   5
ENDBRANCH   2   3
ENDBRANCH   1   2
BRANCH   1  23
ATOM     23  C   UNL A   1      33.150  28.602  27.454  1.00  0.00     0.275 C 
BRANCH  23  24
ATOM     24  O   UNL A   1      33.880  29.844  27.142  1.00  0.00    -0.458 OA
BRANCH  24  25
ATOM     25  C   UNL A   1      34.495  30.816  27.891  1.00  0.00     0.338 C 
ATOM     26  O   UNL A   1      33.822  31.723  28.380  1.00  0.00    -0.246 OA
BRANCH  25  27
ATOM     27  C   UNL A   1      35.818  30.538  28.488  1.00  0.00     0.060 A 
ATOM     28  C   UNL A   1      35.988  29.806  29.682  1.00  0.00     0.016 A 
ATOM     29  C   UNL A   1      36.897  30.737  27.685  1.00  0.00     0.016 A 
ATOM     30  C   UNL A   1      37.227  29.208  29.941  1.00  0.00     0.010 A 
ATOM     31  C   UNL A   1      37.852  29.773  27.682  1.00  0.00     0.010 A 
ATOM     32  C   UNL A   1      38.145  29.179  28.891  1.00  0.00    -0.014 A 
BRANCH  32  33
ATOM     33  C   UNL A   1      39.571  28.900  28.936  1.00  0.00     0.031 A 
ATOM     34  C   UNL A   1      40.071  27.592  28.535  1.00  0.00     0.074 A 
ATOM     35  C   UNL A   1      40.339  29.988  29.210  1.00  0.00     0.049 A 
ATOM     36  N   UNL A   1      40.745  26.800  29.292  1.00  0.00    -0.248 NA
ATOM     37  C   UNL A   1      39.815  27.061  27.193  1.00  0.00     0.031 C 
ATOM     38  C   UNL A   1      41.770  30.199  29.198  1.00  0.00     0.029 A 
ATOM     39  N   UNL A   1      39.884  31.236  29.616  1.00  0.00    -0.354 N 
ATOM     40  C   UNL A   1      41.355  25.926  28.417  1.00  0.00     0.074 A 
ATOM     41  C   UNL A   1      40.571  25.955  27.199  1.00  0.00     0.031 C 
ATOM     42  C   UNL A   1      42.039  31.330  29.895  1.00  0.00     0.029 A 
ATOM     43  C   UNL A   1      40.789  31.895  30.407  1.00  0.00     0.049 A 
ATOM     44  H   UNL A   1      39.008  31.607  29.364  1.00  0.00     0.167 HD
ATOM     45  C   UNL A   1      42.673  25.607  28.567  1.00  0.00     0.031 A 
ATOM     46  C   UNL A   1      40.407  32.083  31.707  1.00  0.00     0.031 A 
ATOM     47  C   UNL A   1      43.311  26.503  29.539  1.00  0.00     0.049 A 
ATOM     48  C   UNL A   1      41.007  30.994  32.567  1.00  0.00     0.074 A 
ATOM     49  C   UNL A   1      44.158  27.588  29.368  1.00  0.00     0.029 A 
ATOM     50  N   UNL A   1      42.819  26.602  30.838  1.00  0.00    -0.354 N 
ATOM     51  N   UNL A   1      41.546  29.907  32.080  1.00  0.00    -0.248 NA
ATOM     52  C   UNL A   1      41.130  31.066  34.017  1.00  0.00     0.031 C 
ATOM     53  C   UNL A   1      44.112  28.378  30.548  1.00  0.00     0.029 A 
ATOM     54  C   UNL A   1      43.238  27.779  31.438  1.00  0.00     0.049 A 
ATOM     55  H   UNL A   1      42.249  25.926  31.271  1.00  0.00     0.167 HD
ATOM     56  C   UNL A   1      42.149  29.195  33.071  1.00  0.00     0.074 A 
ATOM     57  C   UNL A   1      41.850  29.957  34.275  1.00  0.00     0.031 C 
ATOM     58  C   UNL A   1      42.875  28.066  32.822  1.00  0.00     0.031 A 
BRANCH  45  59
ATOM     59  C   UNL A   1      43.423  24.784  27.543  1.00  0.00    -0.014 A 
ATOM     60  C   UNL A   1      44.032  25.397  26.432  1.00  0.00     0.010 A 
ATOM     61  C   UNL A   1      43.602  23.388  27.672  1.00  0.00     0.010 A 
ATOM     62  C   UNL A   1      44.732  24.660  25.468  1.00  0.00     0.020 A 
ATOM     63  C   UNL A   1      44.284  22.634  26.701  1.00  0.00     0.020 A 
ATOM     64  C   UNL A   1      44.850  23.280  25.604  1.00  0.00     0.054 A 
BRANCH  64  65
ATOM     65  S   UNL A   1      45.780  22.358  24.349  1.00  0.00     0.124 S 
ATOM     66  O   UNL A   1      44.728  21.908  23.442  1.00  0.00    -0.237 OA
ATOM     67  O   UNL A   1      46.677  23.379  23.814  1.00  0.00    -0.237 OA
ATOM     68  O   UNL A   1      46.432  21.295  25.112  1.00  0.00    -0.744 OA
ENDBRANCH  64  65
ENDBRANCH  45  59
BRANCH  46  69
ATOM     69  C   UNL A   1      39.051  32.740  31.841  1.00  0.00    -0.014 A 
ATOM     70  C   UNL A   1      37.966  31.867  32.093  1.00  0.00     0.010 A 
ATOM     71  C   UNL A   1      38.855  34.109  32.124  1.00  0.00     0.010 A 
ATOM     72  C   UNL A   1      36.806  32.300  32.750  1.00  0.00     0.020 A 
ATOM     73  C   UNL A   1      37.673  34.555  32.763  1.00  0.00     0.020 A 
ATOM     74  C   UNL A   1      36.689  33.632  33.133  1.00  0.00     0.054 A 
BRANCH  74  75
ATOM     75  S   UNL A   1      35.374  34.048  34.327  1.00  0.00     0.124 S 
ATOM     76  O   UNL A   1      35.124  35.459  34.053  1.00  0.00    -0.237 OA
ATOM     77  O   UNL A   1      34.311  33.125  33.926  1.00  0.00    -0.237 OA
ATOM     78  O   UNL A   1      35.978  33.751  35.617  1.00  0.00    -0.744 OA
ENDBRANCH  74  75
ENDBRANCH  46  69
BRANCH  58  79
ATOM     79  C   UNL A   1      43.430  27.146  33.871  1.00  0.00    -0.014 A 
ATOM     80  C   UNL A   1      42.657  26.553  34.875  1.00  0.00     0.010 A 
ATOM     81  C   UNL A   1      44.784  26.743  33.766  1.00  0.00     0.010 A 
ATOM     82  C   UNL A   1      43.227  25.650  35.778  1.00  0.00     0.020 A 
ATOM     83  C   UNL A   1      45.345  25.799  34.618  1.00  0.00     0.020 A 
ATOM     84  C   UNL A   1      44.567  25.281  35.643  1.00  0.00     0.054 A 
BRANCH  84  85
ATOM     85  S   UNL A   1      45.276  24.071  36.780  1.00  0.00     0.124 S 
ATOM     86  O   UNL A   1      44.573  24.384  38.021  1.00  0.00    -0.237 OA
ATOM     87  O   UNL A   1      44.921  22.796  36.161  1.00  0.00    -0.237 OA
ATOM     88  O   UNL A   1      46.703  24.386  36.769  1.00  0.00    -0.744 OA
ENDBRANCH  84  85
ENDBRANCH  58  79
ENDBRANCH  32  33
ENDBRANCH  25  27
ENDBRANCH  24  25
ENDBRANCH  23  24
ENDBRANCH   1  23
TORSDOF 17
ENDMDL
