MODEL 1
REMARK VINA RESULT:      -9.3      0.000      0.000
REMARK SMILES CCCc1cc2c(cc1Cl)C=C(C(=O)OCCOC(=O)c1ccc(-c3c4nc(c(-c5ccc(S(=O)(=O)[O-])cc5)c5ccc([nH]5)c(-c5ccc(S(=O)(=O)[O-])cc5)c5nc(c(-c6ccc(S(=O)(=O)[O-])cc6)c6ccc3[nH]6)C=C5)C=C4)cc1)[C@@H](C(F)(F)F)O2
REMARK SMILES IDX 17 1 16 2 15 3 13 4 14 5 12 6 4 7 5 8 9 9 6 10 8 11 10 12
REMARK SMILES IDX 7 13 86 14 11 15 81 16 3 17 2 18 1 19 82 20 83 21 84 22
REMARK SMILES IDX 85 23 18 24 19 25 20 26 21 27 22 28 80 29 23 30 79 31 24 32
REMARK SMILES IDX 25 33 26 34 73 35 27 36 78 37 72 38 74 39 28 40 77 41 71 42
REMARK SMILES IDX 70 43 29 45 59 46 40 47 58 48 41 49 44 50 57 51 75 52 42 53
REMARK SMILES IDX 43 54 56 56 76 57 45 58 30 59 31 60 39 61 32 62 38 63 33 64
REMARK SMILES IDX 34 65 35 66 36 67 37 68 60 69 61 70 69 71 62 72 68 73 63 74
REMARK SMILES IDX 64 75 65 76 66 77 67 78 46 79 47 80 55 81 48 82 54 83 49 84
REMARK SMILES IDX 50 85 51 86 52 87 53 88
REMARK H PARENT 74 44 44 55
REMARK Flexibility Score: inf
ROOT
ATOM      1  C   UNL A   1      33.208  33.150  27.855  1.00  0.00     0.275 C 
ENDROOT
BRANCH   1   2
ATOM      2  C   UNL A   1      33.543  34.197  28.923  1.00  0.00     0.275 C 
BRANCH   2   3
ATOM      3  O   UNL A   1      34.614  33.766  29.791  1.00  0.00    -0.459 OA
BRANCH   3   4
ATOM      4  C   UNL A   1      34.582  34.248  31.056  1.00  0.00     0.338 C 
ATOM      5  O   UNL A   1      33.578  34.502  31.705  1.00  0.00    -0.246 OA
BRANCH   4   6
ATOM      6  C   UNL A   1      35.951  34.357  31.606  1.00  0.00     0.087 C 
ATOM      7  C   UNL A   1      40.945  34.468  32.262  1.00  0.00    -0.026 A 
ATOM      8  C   UNL A   1      39.835  34.668  33.104  1.00  0.00     0.052 A 
ATOM      9  C   UNL A   1      40.708  34.360  30.878  1.00  0.00     0.045 A 
ATOM     10  C   UNL A   1      38.532  34.614  32.608  1.00  0.00     0.128 A 
ATOM     11  C   UNL A   1      39.408  34.334  30.377  1.00  0.00     0.032 A 
ATOM     12  Cl  UNL A   1      41.999  34.227  29.735  1.00  0.00    -0.084 Cl
ATOM     13  C   UNL A   1      38.323  34.399  31.253  1.00  0.00     0.019 A 
ATOM     14  O   UNL A   1      37.519  34.782  33.510  1.00  0.00    -0.475 OA
ATOM     15  C   UNL A   1      36.976  34.238  30.753  1.00  0.00     0.027 C 
ATOM     16  C   UNL A   1      36.155  34.481  33.090  1.00  0.00     0.316 C 
BRANCH   7  17
ATOM     17  C   UNL A   1      42.357  34.320  32.793  1.00  0.00     0.037 C 
BRANCH  17  18
ATOM     18  C   UNL A   1      42.803  32.952  33.324  1.00  0.00     0.001 C 
ATOM     19  C   UNL A   1      43.291  31.998  32.240  1.00  0.00     0.004 C 
ENDBRANCH  17  18
ENDBRANCH   7  17
BRANCH  16  20
ATOM     20  C   UNL A   1      35.701  33.182  33.775  1.00  0.00     0.430 C 
ATOM     21  F   UNL A   1      34.458  33.302  34.300  1.00  0.00    -0.167 F 
ATOM     22  F   UNL A   1      35.653  32.145  32.903  1.00  0.00    -0.167 F 
ATOM     23  F   UNL A   1      36.529  32.818  34.783  1.00  0.00    -0.167 F 
ENDBRANCH  16  20
ENDBRANCH   4   6
ENDBRANCH   3   4
ENDBRANCH   2   3
ENDBRANCH   1   2
BRANCH   1  24
ATOM     24  O   UNL A   1      34.391  32.512  27.338  1.00  0.00    -0.458 OA
BRANCH  24  25
ATOM     25  C   UNL A   1      34.456  31.178  27.552  1.00  0.00     0.338 C 
ATOM     26  O   UNL A   1      33.638  30.339  27.215  1.00  0.00    -0.246 OA
BRANCH  25  27
ATOM     27  C   UNL A   1      35.777  30.824  28.092  1.00  0.00     0.060 A 
ATOM     28  C   UNL A   1      36.844  31.707  28.157  1.00  0.00     0.016 A 
ATOM     29  C   UNL A   1      35.880  29.572  28.683  1.00  0.00     0.016 A 
ATOM     30  C   UNL A   1      38.022  31.291  28.799  1.00  0.00     0.010 A 
ATOM     31  C   UNL A   1      36.997  29.204  29.421  1.00  0.00     0.010 A 
ATOM     32  C   UNL A   1      38.109  30.042  29.457  1.00  0.00    -0.014 A 
BRANCH  32  33
ATOM     33  C   UNL A   1      39.346  29.619  30.177  1.00  0.00     0.031 A 
ATOM     34  C   UNL A   1      39.603  30.036  31.609  1.00  0.00     0.074 A 
ATOM     35  C   UNL A   1      40.255  28.858  29.533  1.00  0.00     0.049 A 
ATOM     36  N   UNL A   1      40.564  29.653  32.413  1.00  0.00    -0.248 NA
ATOM     37  C   UNL A   1      38.698  31.031  32.215  1.00  0.00     0.031 C 
ATOM     38  C   UNL A   1      40.185  28.484  28.118  1.00  0.00     0.029 A 
ATOM     39  N   UNL A   1      41.390  28.226  29.982  1.00  0.00    -0.354 N 
ATOM     40  C   UNL A   1      40.374  30.355  33.601  1.00  0.00     0.074 A 
ATOM     41  C   UNL A   1      39.270  31.257  33.387  1.00  0.00     0.031 C 
ATOM     42  C   UNL A   1      41.160  27.606  27.845  1.00  0.00     0.029 A 
ATOM     43  C   UNL A   1      41.960  27.389  29.047  1.00  0.00     0.049 A 
ATOM     44  H   UNL A   1      41.760  28.359  30.885  1.00  0.00     0.167 HD
ATOM     45  C   UNL A   1      41.021  30.218  34.782  1.00  0.00     0.031 A 
ATOM     46  C   UNL A   1      42.984  26.517  29.148  1.00  0.00     0.031 A 
ATOM     47  C   UNL A   1      42.091  29.281  34.999  1.00  0.00     0.049 A 
ATOM     48  C   UNL A   1      43.660  26.343  30.480  1.00  0.00     0.074 A 
ATOM     49  C   UNL A   1      42.765  29.010  36.176  1.00  0.00     0.029 A 
ATOM     50  N   UNL A   1      42.630  28.453  34.026  1.00  0.00    -0.354 N 
ATOM     51  N   UNL A   1      43.395  26.939  31.619  1.00  0.00    -0.248 NA
ATOM     52  C   UNL A   1      44.755  25.366  30.554  1.00  0.00     0.031 C 
ATOM     53  C   UNL A   1      43.758  28.069  35.899  1.00  0.00     0.029 A 
ATOM     54  C   UNL A   1      43.643  27.686  34.571  1.00  0.00     0.049 A 
ATOM     55  H   UNL A   1      42.335  28.417  33.087  1.00  0.00     0.167 HD
ATOM     56  C   UNL A   1      44.273  26.394  32.548  1.00  0.00     0.074 A 
ATOM     57  C   UNL A   1      45.063  25.405  31.845  1.00  0.00     0.031 C 
ATOM     58  C   UNL A   1      44.412  26.691  33.864  1.00  0.00     0.031 A 
BRANCH  45  59
ATOM     59  C   UNL A   1      40.560  31.044  35.962  1.00  0.00    -0.014 A 
ATOM     60  C   UNL A   1      39.195  31.103  36.297  1.00  0.00     0.010 A 
ATOM     61  C   UNL A   1      41.465  31.871  36.655  1.00  0.00     0.010 A 
ATOM     62  C   UNL A   1      38.738  31.998  37.269  1.00  0.00     0.020 A 
ATOM     63  C   UNL A   1      41.017  32.741  37.655  1.00  0.00     0.020 A 
ATOM     64  C   UNL A   1      39.651  32.819  37.935  1.00  0.00     0.054 A 
BRANCH  64  65
ATOM     65  S   UNL A   1      39.035  34.010  39.157  1.00  0.00     0.124 S 
ATOM     66  O   UNL A   1      38.851  35.212  38.350  1.00  0.00    -0.237 OA
ATOM     67  O   UNL A   1      37.809  33.374  39.632  1.00  0.00    -0.237 OA
ATOM     68  O   UNL A   1      40.112  34.078  40.143  1.00  0.00    -0.744 OA
ENDBRANCH  64  65
ENDBRANCH  45  59
BRANCH  46  69
ATOM     69  C   UNL A   1      43.346  25.681  27.965  1.00  0.00    -0.014 A 
ATOM     70  C   UNL A   1      42.724  24.437  27.752  1.00  0.00     0.010 A 
ATOM     71  C   UNL A   1      44.388  26.074  27.106  1.00  0.00     0.010 A 
ATOM     72  C   UNL A   1      43.181  23.575  26.750  1.00  0.00     0.020 A 
ATOM     73  C   UNL A   1      44.823  25.232  26.077  1.00  0.00     0.020 A 
ATOM     74  C   UNL A   1      44.238  23.973  25.928  1.00  0.00     0.054 A 
BRANCH  74  75
ATOM     75  S   UNL A   1      44.856  22.806  24.683  1.00  0.00     0.124 S 
ATOM     76  O   UNL A   1      45.794  23.638  23.933  1.00  0.00    -0.237 OA
ATOM     77  O   UNL A   1      45.459  21.757  25.501  1.00  0.00    -0.237 OA
ATOM     78  O   UNL A   1      43.652  22.412  23.956  1.00  0.00    -0.744 OA
ENDBRANCH  74  75
ENDBRANCH  46  69
BRANCH  58  79
ATOM     79  C   UNL A   1      45.444  25.942  34.667  1.00  0.00    -0.014 A 
ATOM     80  C   UNL A   1      45.068  24.776  35.362  1.00  0.00     0.010 A 
ATOM     81  C   UNL A   1      46.726  26.478  34.874  1.00  0.00     0.010 A 
ATOM     82  C   UNL A   1      45.932  24.192  36.290  1.00  0.00     0.020 A 
ATOM     83  C   UNL A   1      47.609  25.874  35.775  1.00  0.00     0.020 A 
ATOM     84  C   UNL A   1      47.194  24.754  36.499  1.00  0.00     0.054 A 
BRANCH  84  85
ATOM     85  S   UNL A   1      48.277  24.019  37.753  1.00  0.00     0.124 S 
ATOM     86  O   UNL A   1      48.138  22.590  37.481  1.00  0.00    -0.237 OA
ATOM     87  O   UNL A   1      49.579  24.597  37.429  1.00  0.00    -0.237 OA
ATOM     88  O   UNL A   1      47.699  24.472  39.016  1.00  0.00    -0.744 OA
ENDBRANCH  84  85
ENDBRANCH  58  79
ENDBRANCH  32  33
ENDBRANCH  25  27
ENDBRANCH  24  25
ENDBRANCH   1  24
TORSDOF 17
ENDMDL
MODEL 2
REMARK VINA RESULT:      -9.3      2.600      3.569
REMARK SMILES CCCc1cc2c(cc1Cl)C=C(C(=O)OCCOC(=O)c1ccc(-c3c4nc(c(-c5ccc(S(=O)(=O)[O-])cc5)c5ccc([nH]5)c(-c5ccc(S(=O)(=O)[O-])cc5)c5nc(c(-c6ccc(S(=O)(=O)[O-])cc6)c6ccc3[nH]6)C=C5)C=C4)cc1)[C@@H](C(F)(F)F)O2
REMARK SMILES IDX 17 1 16 2 15 3 13 4 14 5 12 6 4 7 5 8 9 9 6 10 8 11 10 12
REMARK SMILES IDX 7 13 86 14 11 15 81 16 3 17 2 18 1 19 82 20 83 21 84 22
REMARK SMILES IDX 85 23 18 24 19 25 20 26 21 27 22 28 80 29 23 30 79 31 24 32
REMARK SMILES IDX 25 33 26 34 73 35 27 36 78 37 72 38 74 39 28 40 77 41 71 42
REMARK SMILES IDX 70 43 29 45 59 46 40 47 58 48 41 49 44 50 57 51 75 52 42 53
REMARK SMILES IDX 43 54 56 56 76 57 45 58 30 59 31 60 39 61 32 62 38 63 33 64
REMARK SMILES IDX 34 65 35 66 36 67 37 68 60 69 61 70 69 71 62 72 68 73 63 74
REMARK SMILES IDX 64 75 65 76 66 77 67 78 46 79 47 80 55 81 48 82 54 83 49 84
REMARK SMILES IDX 50 85 51 86 52 87 53 88
REMARK H PARENT 74 44 44 55
REMARK Flexibility Score: inf
ROOT
ATOM      1  C   UNL A   1      33.118  32.508  27.687  1.00  0.00     0.275 C 
ENDROOT
BRANCH   1   2
ATOM      2  C   UNL A   1      33.112  34.014  27.974  1.00  0.00     0.275 C 
BRANCH   2   3
ATOM      3  O   UNL A   1      32.761  34.305  29.345  1.00  0.00    -0.459 OA
BRANCH   3   4
ATOM      4  C   UNL A   1      33.375  35.377  29.899  1.00  0.00     0.338 C 
ATOM      5  O   UNL A   1      33.169  36.549  29.620  1.00  0.00    -0.246 OA
BRANCH   4   6
ATOM      6  C   UNL A   1      34.297  34.950  30.975  1.00  0.00     0.087 C 
ATOM      7  C   UNL A   1      37.252  32.339  34.110  1.00  0.00    -0.026 A 
ATOM      8  C   UNL A   1      36.906  33.697  33.982  1.00  0.00     0.052 A 
ATOM      9  C   UNL A   1      36.855  31.462  33.082  1.00  0.00     0.045 A 
ATOM     10  C   UNL A   1      36.073  34.138  32.954  1.00  0.00     0.128 A 
ATOM     11  C   UNL A   1      36.046  31.906  32.038  1.00  0.00     0.032 A 
ATOM     12  Cl  UNL A   1      37.319  29.796  33.070  1.00  0.00    -0.084 Cl
ATOM     13  C   UNL A   1      35.607  33.231  32.012  1.00  0.00     0.019 A 
ATOM     14  O   UNL A   1      35.762  35.469  32.937  1.00  0.00    -0.475 OA
ATOM     15  C   UNL A   1      34.661  33.663  31.008  1.00  0.00     0.027 C 
ATOM     16  C   UNL A   1      34.702  35.925  32.044  1.00  0.00     0.316 C 
BRANCH   7  17
ATOM     17  C   UNL A   1      37.984  31.792  35.319  1.00  0.00     0.037 C 
BRANCH  17  18
ATOM     18  C   UNL A   1      39.516  31.728  35.285  1.00  0.00     0.001 C 
ATOM     19  C   UNL A   1      40.072  30.317  35.129  1.00  0.00     0.004 C 
ENDBRANCH  17  18
ENDBRANCH   7  17
BRANCH  16  20
ATOM     20  C   UNL A   1      33.470  36.295  32.887  1.00  0.00     0.430 C 
ATOM     21  F   UNL A   1      32.836  37.385  32.393  1.00  0.00    -0.167 F 
ATOM     22  F   UNL A   1      32.557  35.292  32.906  1.00  0.00    -0.167 F 
ATOM     23  F   UNL A   1      33.793  36.566  34.174  1.00  0.00    -0.167 F 
ENDBRANCH  16  20
ENDBRANCH   4   6
ENDBRANCH   3   4
ENDBRANCH   2   3
ENDBRANCH   1   2
BRANCH   1  24
ATOM     24  O   UNL A   1      34.383  31.903  28.016  1.00  0.00    -0.458 OA
BRANCH  24  25
ATOM     25  C   UNL A   1      34.417  30.556  27.891  1.00  0.00     0.338 C 
ATOM     26  O   UNL A   1      33.514  29.831  27.509  1.00  0.00    -0.246 OA
BRANCH  25  27
ATOM     27  C   UNL A   1      35.789  30.071  28.096  1.00  0.00     0.060 A 
ATOM     28  C   UNL A   1      36.838  30.338  27.229  1.00  0.00     0.016 A 
ATOM     29  C   UNL A   1      36.039  29.432  29.302  1.00  0.00     0.016 A 
ATOM     30  C   UNL A   1      38.130  29.920  27.587  1.00  0.00     0.010 A 
ATOM     31  C   UNL A   1      37.329  29.125  29.713  1.00  0.00     0.010 A 
ATOM     32  C   UNL A   1      38.397  29.325  28.842  1.00  0.00    -0.014 A 
BRANCH  32  33
ATOM     33  C   UNL A   1      39.778  28.922  29.240  1.00  0.00     0.031 A 
ATOM     34  C   UNL A   1      40.609  29.779  30.171  1.00  0.00     0.074 A 
ATOM     35  C   UNL A   1      40.295  27.775  28.753  1.00  0.00     0.049 A 
ATOM     36  N   UNL A   1      41.774  29.510  30.709  1.00  0.00    -0.248 NA
ATOM     37  C   UNL A   1      40.100  31.118  30.521  1.00  0.00     0.031 C 
ATOM     38  C   UNL A   1      39.645  26.918  27.758  1.00  0.00     0.029 A 
ATOM     39  N   UNL A   1      41.459  27.106  29.051  1.00  0.00    -0.354 N 
ATOM     40  C   UNL A   1      42.124  30.636  31.450  1.00  0.00     0.074 A 
ATOM     41  C   UNL A   1      41.103  31.628  31.219  1.00  0.00     0.031 C 
ATOM     42  C   UNL A   1      40.359  25.793  27.613  1.00  0.00     0.029 A 
ATOM     43  C   UNL A   1      41.545  25.864  28.461  1.00  0.00     0.049 A 
ATOM     44  H   UNL A   1      42.162  27.480  29.629  1.00  0.00     0.167 HD
ATOM     45  C   UNL A   1      43.168  30.809  32.294  1.00  0.00     0.031 A 
ATOM     46  C   UNL A   1      42.450  24.875  28.610  1.00  0.00     0.031 A 
ATOM     47  C   UNL A   1      44.155  29.795  32.554  1.00  0.00     0.049 A 
ATOM     48  C   UNL A   1      43.577  25.064  29.588  1.00  0.00     0.074 A 
ATOM     49  C   UNL A   1      45.212  29.838  33.446  1.00  0.00     0.029 A 
ATOM     50  N   UNL A   1      44.198  28.553  31.939  1.00  0.00    -0.354 N 
ATOM     51  N   UNL A   1      43.830  26.096  30.358  1.00  0.00    -0.248 NA
ATOM     52  C   UNL A   1      44.529  23.955  29.738  1.00  0.00     0.031 C 
ATOM     53  C   UNL A   1      45.934  28.652  33.319  1.00  0.00     0.029 A 
ATOM     54  C   UNL A   1      45.277  27.831  32.416  1.00  0.00     0.049 A 
ATOM     55  H   UNL A   1      43.557  28.234  31.263  1.00  0.00     0.167 HD
ATOM     56  C   UNL A   1      44.954  25.751  31.100  1.00  0.00     0.074 A 
ATOM     57  C   UNL A   1      45.320  24.408  30.703  1.00  0.00     0.031 C 
ATOM     58  C   UNL A   1      45.621  26.485  32.024  1.00  0.00     0.031 A 
BRANCH  45  59
ATOM     59  C   UNL A   1      43.277  32.109  33.058  1.00  0.00    -0.014 A 
ATOM     60  C   UNL A   1      43.085  32.131  34.452  1.00  0.00     0.010 A 
ATOM     61  C   UNL A   1      43.434  33.330  32.376  1.00  0.00     0.010 A 
ATOM     62  C   UNL A   1      43.009  33.345  35.142  1.00  0.00     0.020 A 
ATOM     63  C   UNL A   1      43.396  34.546  33.067  1.00  0.00     0.020 A 
ATOM     64  C   UNL A   1      43.154  34.545  34.442  1.00  0.00     0.054 A 
BRANCH  64  65
ATOM     65  S   UNL A   1      43.001  36.112  35.344  1.00  0.00     0.124 S 
ATOM     66  O   UNL A   1      44.260  36.170  36.079  1.00  0.00    -0.237 OA
ATOM     67  O   UNL A   1      42.854  37.087  34.266  1.00  0.00    -0.237 OA
ATOM     68  O   UNL A   1      41.806  35.920  36.165  1.00  0.00    -0.744 OA
ENDBRANCH  64  65
ENDBRANCH  45  59
BRANCH  46  69
ATOM     69  C   UNL A   1      42.249  23.589  27.879  1.00  0.00    -0.014 A 
ATOM     70  C   UNL A   1      41.267  22.673  28.300  1.00  0.00     0.010 A 
ATOM     71  C   UNL A   1      43.106  23.226  26.824  1.00  0.00     0.010 A 
ATOM     72  C   UNL A   1      41.191  21.398  27.731  1.00  0.00     0.020 A 
ATOM     73  C   UNL A   1      43.009  21.965  26.225  1.00  0.00     0.020 A 
ATOM     74  C   UNL A   1      42.074  21.047  26.707  1.00  0.00     0.054 A 
BRANCH  74  75
ATOM     75  S   UNL A   1      42.000  19.362  26.036  1.00  0.00     0.124 S 
ATOM     76  O   UNL A   1      42.550  18.577  27.138  1.00  0.00    -0.237 OA
ATOM     77  O   UNL A   1      40.573  19.183  25.784  1.00  0.00    -0.237 OA
ATOM     78  O   UNL A   1      42.837  19.434  24.840  1.00  0.00    -0.744 OA
ENDBRANCH  74  75
ENDBRANCH  46  69
BRANCH  58  79
ATOM     79  C   UNL A   1      46.820  25.872  32.703  1.00  0.00    -0.014 A 
ATOM     80  C   UNL A   1      48.092  26.003  32.111  1.00  0.00     0.010 A 
ATOM     81  C   UNL A   1      46.666  25.030  33.817  1.00  0.00     0.010 A 
ATOM     82  C   UNL A   1      49.175  25.262  32.587  1.00  0.00     0.020 A 
ATOM     83  C   UNL A   1      47.757  24.314  34.319  1.00  0.00     0.020 A 
ATOM     84  C   UNL A   1      48.997  24.412  33.681  1.00  0.00     0.054 A 
BRANCH  84  85
ATOM     85  S   UNL A   1      50.399  23.411  34.244  1.00  0.00     0.124 S 
ATOM     86  O   UNL A   1      49.858  22.765  35.437  1.00  0.00    -0.237 OA
ATOM     87  O   UNL A   1      50.639  22.528  33.105  1.00  0.00    -0.237 OA
ATOM     88  O   UNL A   1      51.448  24.397  34.490  1.00  0.00    -0.744 OA
ENDBRANCH  84  85
ENDBRANCH  58  79
ENDBRANCH  32  33
ENDBRANCH  25  27
ENDBRANCH  24  25
ENDBRANCH   1  24
TORSDOF 17
ENDMDL
MODEL 3
REMARK VINA RESULT:      -9.3      5.784     12.418
REMARK SMILES CCCc1cc2c(cc1Cl)C=C(C(=O)OCCOC(=O)c1ccc(-c3c4nc(c(-c5ccc(S(=O)(=O)[O-])cc5)c5ccc([nH]5)c(-c5ccc(S(=O)(=O)[O-])cc5)c5nc(c(-c6ccc(S(=O)(=O)[O-])cc6)c6ccc3[nH]6)C=C5)C=C4)cc1)[C@@H](C(F)(F)F)O2
REMARK SMILES IDX 17 1 16 2 15 3 13 4 14 5 12 6 4 7 5 8 9 9 6 10 8 11 10 12
REMARK SMILES IDX 7 13 86 14 11 15 81 16 3 17 2 18 1 19 82 20 83 21 84 22
REMARK SMILES IDX 85 23 18 24 19 25 20 26 21 27 22 28 80 29 23 30 79 31 24 32
REMARK SMILES IDX 25 33 26 34 73 35 27 36 78 37 72 38 74 39 28 40 77 41 71 42
REMARK SMILES IDX 70 43 29 45 59 46 40 47 58 48 41 49 44 50 57 51 75 52 42 53
REMARK SMILES IDX 43 54 56 56 76 57 45 58 30 59 31 60 39 61 32 62 38 63 33 64
REMARK SMILES IDX 34 65 35 66 36 67 37 68 60 69 61 70 69 71 62 72 68 73 63 74
REMARK SMILES IDX 64 75 65 76 66 77 67 78 46 79 47 80 55 81 48 82 54 83 49 84
REMARK SMILES IDX 50 85 51 86 52 87 53 88
REMARK H PARENT 74 44 44 55
REMARK Flexibility Score: inf
ROOT
ATOM      1  C   UNL A   1      39.479  20.664  26.152  1.00  0.00     0.275 C 
ENDROOT
BRANCH   1   2
ATOM      2  C   UNL A   1      40.683  19.717  26.192  1.00  0.00     0.275 C 
BRANCH   2   3
ATOM      3  O   UNL A   1      41.783  20.201  25.390  1.00  0.00    -0.459 OA
BRANCH   3   4
ATOM      4  C   UNL A   1      43.023  19.919  25.853  1.00  0.00     0.338 C 
ATOM      5  O   UNL A   1      43.423  18.825  26.222  1.00  0.00    -0.246 OA
BRANCH   4   6
ATOM      6  C   UNL A   1      43.891  21.116  25.779  1.00  0.00     0.087 C 
ATOM      7  C   UNL A   1      45.722  25.786  25.310  1.00  0.00    -0.026 A 
ATOM      8  C   UNL A   1      46.290  24.525  25.578  1.00  0.00     0.052 A 
ATOM      9  C   UNL A   1      44.318  25.886  25.315  1.00  0.00     0.045 A 
ATOM     10  C   UNL A   1      45.496  23.385  25.695  1.00  0.00     0.128 A 
ATOM     11  C   UNL A   1      43.522  24.752  25.460  1.00  0.00     0.032 A 
ATOM     12  Cl  UNL A   1      43.507  27.401  25.114  1.00  0.00    -0.084 Cl
ATOM     13  C   UNL A   1      44.116  23.496  25.588  1.00  0.00     0.019 A 
ATOM     14  O   UNL A   1      46.142  22.200  25.915  1.00  0.00    -0.475 OA
ATOM     15  C   UNL A   1      43.298  22.303  25.604  1.00  0.00     0.027 C 
ATOM     16  C   UNL A   1      45.385  20.960  25.789  1.00  0.00     0.316 C 
BRANCH   7  17
ATOM     17  C   UNL A   1      46.559  27.005  24.979  1.00  0.00     0.037 C 
BRANCH  17  18
ATOM     18  C   UNL A   1      47.934  26.799  24.330  1.00  0.00     0.001 C 
ATOM     19  C   UNL A   1      49.105  27.111  25.255  1.00  0.00     0.004 C 
ENDBRANCH  17  18
ENDBRANCH   7  17
BRANCH  16  20
ATOM     20  C   UNL A   1      45.829  20.237  24.507  1.00  0.00     0.430 C 
ATOM     21  F   UNL A   1      47.081  20.597  24.138  1.00  0.00    -0.167 F 
ATOM     22  F   UNL A   1      45.846  18.891  24.672  1.00  0.00    -0.167 F 
ATOM     23  F   UNL A   1      45.010  20.500  23.461  1.00  0.00    -0.167 F 
ENDBRANCH  16  20
ENDBRANCH   4   6
ENDBRANCH   3   4
ENDBRANCH   2   3
ENDBRANCH   1   2
BRANCH   1  24
ATOM     24  O   UNL A   1      39.870  22.039  26.327  1.00  0.00    -0.458 OA
BRANCH  24  25
ATOM     25  C   UNL A   1      38.891  22.941  26.085  1.00  0.00     0.338 C 
ATOM     26  O   UNL A   1      37.829  22.740  25.521  1.00  0.00    -0.246 OA
BRANCH  25  27
ATOM     27  C   UNL A   1      39.191  24.200  26.783  1.00  0.00     0.060 A 
ATOM     28  C   UNL A   1      38.924  24.418  28.126  1.00  0.00     0.016 A 
ATOM     29  C   UNL A   1      39.904  25.146  26.060  1.00  0.00     0.016 A 
ATOM     30  C   UNL A   1      39.359  25.618  28.712  1.00  0.00     0.010 A 
ATOM     31  C   UNL A   1      40.440  26.275  26.663  1.00  0.00     0.010 A 
ATOM     32  C   UNL A   1      40.140  26.555  27.995  1.00  0.00    -0.014 A 
BRANCH  32  33
ATOM     33  C   UNL A   1      40.641  27.808  28.631  1.00  0.00     0.031 A 
ATOM     34  C   UNL A   1      42.110  27.999  28.943  1.00  0.00     0.074 A 
ATOM     35  C   UNL A   1      39.763  28.786  28.940  1.00  0.00     0.049 A 
ATOM     36  N   UNL A   1      42.721  29.073  29.379  1.00  0.00    -0.248 NA
ATOM     37  C   UNL A   1      43.008  26.841  28.784  1.00  0.00     0.031 C 
ATOM     38  C   UNL A   1      38.308  28.682  28.800  1.00  0.00     0.029 A 
ATOM     39  N   UNL A   1      39.957  30.068  29.395  1.00  0.00    -0.354 N 
ATOM     40  C   UNL A   1      44.057  28.716  29.541  1.00  0.00     0.074 A 
ATOM     41  C   UNL A   1      44.156  27.307  29.251  1.00  0.00     0.031 C 
ATOM     42  C   UNL A   1      37.755  29.876  29.051  1.00  0.00     0.029 A 
ATOM     43  C   UNL A   1      38.804  30.822  29.422  1.00  0.00     0.049 A 
ATOM     44  H   UNL A   1      40.835  30.414  29.675  1.00  0.00     0.167 HD
ATOM     45  C   UNL A   1      45.117  29.502  29.843  1.00  0.00     0.031 A 
ATOM     46  C   UNL A   1      38.609  32.132  29.679  1.00  0.00     0.031 A 
ATOM     47  C   UNL A   1      45.015  30.916  30.084  1.00  0.00     0.049 A 
ATOM     48  C   UNL A   1      39.803  33.000  29.966  1.00  0.00     0.074 A 
ATOM     49  C   UNL A   1      46.034  31.819  30.326  1.00  0.00     0.029 A 
ATOM     50  N   UNL A   1      43.829  31.635  30.096  1.00  0.00    -0.354 N 
ATOM     51  N   UNL A   1      41.071  32.664  30.009  1.00  0.00    -0.248 NA
ATOM     52  C   UNL A   1      39.551  34.426  30.217  1.00  0.00     0.031 C 
ATOM     53  C   UNL A   1      45.460  33.070  30.553  1.00  0.00     0.029 A 
ATOM     54  C   UNL A   1      44.091  32.966  30.363  1.00  0.00     0.049 A 
ATOM     55  H   UNL A   1      42.935  31.255  29.938  1.00  0.00     0.167 HD
ATOM     56  C   UNL A   1      41.769  33.838  30.268  1.00  0.00     0.074 A 
ATOM     57  C   UNL A   1      40.785  34.897  30.350  1.00  0.00     0.031 C 
ATOM     58  C   UNL A   1      43.103  34.017  30.426  1.00  0.00     0.031 A 
BRANCH  45  59
ATOM     59  C   UNL A   1      46.496  28.882  29.871  1.00  0.00    -0.014 A 
ATOM     60  C   UNL A   1      47.056  28.451  31.088  1.00  0.00     0.010 A 
ATOM     61  C   UNL A   1      47.291  28.850  28.709  1.00  0.00     0.010 A 
ATOM     62  C   UNL A   1      48.391  28.041  31.152  1.00  0.00     0.020 A 
ATOM     63  C   UNL A   1      48.616  28.405  28.761  1.00  0.00     0.020 A 
ATOM     64  C   UNL A   1      49.166  28.031  29.989  1.00  0.00     0.054 A 
BRANCH  64  65
ATOM     65  S   UNL A   1      50.911  27.546  30.099  1.00  0.00     0.124 S 
ATOM     66  O   UNL A   1      50.837  26.301  30.858  1.00  0.00    -0.237 OA
ATOM     67  O   UNL A   1      51.293  27.409  28.696  1.00  0.00    -0.237 OA
ATOM     68  O   UNL A   1      51.536  28.668  30.799  1.00  0.00    -0.744 OA
ENDBRANCH  64  65
ENDBRANCH  45  59
BRANCH  46  69
ATOM     69  C   UNL A   1      37.232  32.697  29.569  1.00  0.00    -0.014 A 
ATOM     70  C   UNL A   1      36.733  33.128  28.325  1.00  0.00     0.010 A 
ATOM     71  C   UNL A   1      36.452  32.907  30.721  1.00  0.00     0.010 A 
ATOM     72  C   UNL A   1      35.518  33.816  28.245  1.00  0.00     0.020 A 
ATOM     73  C   UNL A   1      35.218  33.560  30.640  1.00  0.00     0.020 A 
ATOM     74  C   UNL A   1      34.775  34.041  29.406  1.00  0.00     0.054 A 
BRANCH  74  75
ATOM     75  S   UNL A   1      33.238  34.997  29.283  1.00  0.00     0.124 S 
ATOM     76  O   UNL A   1      32.489  34.233  28.289  1.00  0.00    -0.237 OA
ATOM     77  O   UNL A   1      32.717  34.939  30.646  1.00  0.00    -0.237 OA
ATOM     78  O   UNL A   1      33.690  36.316  28.846  1.00  0.00    -0.744 OA
ENDBRANCH  74  75
ENDBRANCH  46  69
BRANCH  58  79
ATOM     79  C   UNL A   1      43.617  35.409  30.693  1.00  0.00    -0.014 A 
ATOM     80  C   UNL A   1      43.692  35.876  32.020  1.00  0.00     0.010 A 
ATOM     81  C   UNL A   1      43.855  36.305  29.637  1.00  0.00     0.010 A 
ATOM     82  C   UNL A   1      43.943  37.224  32.284  1.00  0.00     0.020 A 
ATOM     83  C   UNL A   1      44.144  37.648  29.899  1.00  0.00     0.020 A 
ATOM     84  C   UNL A   1      44.154  38.104  31.220  1.00  0.00     0.054 A 
BRANCH  84  85
ATOM     85  S   UNL A   1      44.416  39.860  31.582  1.00  0.00     0.124 S 
ATOM     86  O   UNL A   1      45.861  39.923  31.781  1.00  0.00    -0.237 OA
ATOM     87  O   UNL A   1      43.918  40.513  30.373  1.00  0.00    -0.237 OA
ATOM     88  O   UNL A   1      43.611  40.088  32.780  1.00  0.00    -0.744 OA
ENDBRANCH  84  85
ENDBRANCH  58  79
ENDBRANCH  32  33
ENDBRANCH  25  27
ENDBRANCH  24  25
ENDBRANCH   1  24
TORSDOF 17
ENDMDL
