MODEL 1
REMARK VINA RESULT:      -9.6      0.000      0.000
REMARK SMILES Cc1nnc(S[C@@H](C)CCO)c(C(=O)OCCOC(=O)c2ccc(-c3c4nc(c(-c5ccc(S(=O)(=O)[O-])cc5)c5ccc([nH]5)c(-c5ccc(S(=O)(=O)[O-])cc5)c5nc(c(-c6ccc(S(=O)(=O)[O-])cc6)c6ccc3[nH]6)C=C5)C=C4)cc2)c1C
REMARK SMILES IDX 16 1 15 2 13 3 14 4 12 5 1 6 2 7 3 8 81 9 4 10 82 11 5 12
REMARK SMILES IDX 6 13 7 14 8 15 9 16 10 17 11 18 17 20 18 21 19 22 20 23
REMARK SMILES IDX 21 24 22 25 80 26 23 27 79 28 24 29 25 30 26 31 73 32 27 33
REMARK SMILES IDX 78 34 72 35 74 36 28 37 77 38 71 39 70 40 29 42 59 43 40 44
REMARK SMILES IDX 58 45 41 46 44 47 57 48 75 49 42 50 43 51 56 53 76 54 45 55
REMARK SMILES IDX 30 56 31 57 39 58 32 59 38 60 33 61 34 62 35 63 36 64 37 65
REMARK SMILES IDX 60 66 61 67 69 68 62 69 68 70 63 71 64 72 65 73 66 74 67 75
REMARK SMILES IDX 46 76 47 77 55 78 48 79 54 80 49 81 50 82 51 83 52 84 53 85
REMARK H PARENT 11 19 74 41 44 52
REMARK Flexibility Score: inf
ROOT
ATOM      1  C   UNL A   1      35.841  22.202  26.048  1.00  0.00     0.275 C 
ENDROOT
BRANCH   1   2
ATOM      2  O   UNL A   1      34.860  21.529  25.259  1.00  0.00    -0.458 OA
BRANCH   2   3
ATOM      3  C   UNL A   1      33.580  21.450  25.716  1.00  0.00     0.341 C 
ATOM      4  O   UNL A   1      33.165  21.750  26.797  1.00  0.00    -0.246 OA
BRANCH   3   5
ATOM      5  C   UNL A   1      32.827  21.087  24.499  1.00  0.00     0.098 A 
ATOM      6  C   UNL A   1      32.279  18.007  22.309  1.00  0.00     0.069 C 
ATOM      7  C   UNL A   1      32.332  19.407  22.844  1.00  0.00     0.064 A 
ATOM      8  N   UNL A   1      31.910  20.387  22.026  1.00  0.00    -0.155 NA
ATOM      9  C   UNL A   1      32.752  19.713  24.131  1.00  0.00    -0.011 A 
ATOM     10  N   UNL A   1      31.876  21.716  22.456  1.00  0.00    -0.143 NA
ATOM     11  C   UNL A   1      33.157  18.622  25.090  1.00  0.00     0.047 C 
ATOM     12  C   UNL A   1      32.352  22.093  23.665  1.00  0.00     0.134 A 
BRANCH  12  13
ATOM     13  S   UNL A   1      31.792  23.705  24.171  1.00  0.00    -0.100 SA
BRANCH  13  14
ATOM     14  C   UNL A   1      33.116  24.882  24.817  1.00  0.00     0.052 C 
ATOM     15  C   UNL A   1      34.192  24.653  23.734  1.00  0.00     0.020 C 
BRANCH  14  16
ATOM     16  C   UNL A   1      32.866  26.393  24.887  1.00  0.00     0.043 C 
BRANCH  16  17
ATOM     17  C   UNL A   1      31.865  26.917  25.932  1.00  0.00     0.157 C 
BRANCH  17  18
ATOM     18  O   UNL A   1      31.499  25.961  26.904  1.00  0.00    -0.396 OA
ATOM     19  H   UNL A   1      30.714  26.270  27.383  1.00  0.00     0.210 HD
ENDBRANCH  17  18
ENDBRANCH  16  17
ENDBRANCH  14  16
ENDBRANCH  13  14
ENDBRANCH  12  13
ENDBRANCH   3   5
ENDBRANCH   2   3
ENDBRANCH   1   2
BRANCH   1  20
ATOM     20  C   UNL A   1      37.208  21.759  25.503  1.00  0.00     0.275 C 
BRANCH  20  21
ATOM     21  O   UNL A   1      38.173  22.840  25.486  1.00  0.00    -0.458 OA
BRANCH  21  22
ATOM     22  C   UNL A   1      39.300  22.738  26.246  1.00  0.00     0.338 C 
ATOM     23  O   UNL A   1      40.014  21.756  26.339  1.00  0.00    -0.246 OA
BRANCH  22  24
ATOM     24  C   UNL A   1      39.576  24.058  26.896  1.00  0.00     0.060 A 
ATOM     25  C   UNL A   1      40.323  25.031  26.223  1.00  0.00     0.016 A 
ATOM     26  C   UNL A   1      39.089  24.353  28.174  1.00  0.00     0.016 A 
ATOM     27  C   UNL A   1      40.492  26.312  26.776  1.00  0.00     0.010 A 
ATOM     28  C   UNL A   1      39.253  25.630  28.729  1.00  0.00     0.010 A 
ATOM     29  C   UNL A   1      39.955  26.623  28.034  1.00  0.00    -0.014 A 
BRANCH  29  30
ATOM     30  C   UNL A   1      40.330  27.883  28.733  1.00  0.00     0.031 A 
ATOM     31  C   UNL A   1      41.698  27.951  29.356  1.00  0.00     0.074 A 
ATOM     32  C   UNL A   1      39.491  28.929  28.867  1.00  0.00     0.049 A 
ATOM     33  N   UNL A   1      42.295  28.956  29.943  1.00  0.00    -0.248 NA
ATOM     34  C   UNL A   1      42.498  26.714  29.315  1.00  0.00     0.031 C 
ATOM     35  C   UNL A   1      38.122  28.999  28.361  1.00  0.00     0.029 A 
ATOM     36  N   UNL A   1      39.676  30.145  29.489  1.00  0.00    -0.354 N 
ATOM     37  C   UNL A   1      43.551  28.485  30.299  1.00  0.00     0.074 A 
ATOM     38  C   UNL A   1      43.611  27.090  29.923  1.00  0.00     0.031 C 
ATOM     39  C   UNL A   1      37.589  30.190  28.696  1.00  0.00     0.029 A 
ATOM     40  C   UNL A   1      38.581  30.977  29.431  1.00  0.00     0.049 A 
ATOM     41  H   UNL A   1      40.518  30.396  29.934  1.00  0.00     0.167 HD
ATOM     42  C   UNL A   1      44.581  29.156  30.864  1.00  0.00     0.031 A 
ATOM     43  C   UNL A   1      38.404  32.230  29.900  1.00  0.00     0.031 A 
ATOM     44  C   UNL A   1      44.521  30.523  31.289  1.00  0.00     0.049 A 
ATOM     45  C   UNL A   1      39.544  32.947  30.582  1.00  0.00     0.074 A 
ATOM     46  C   UNL A   1      45.522  31.290  31.856  1.00  0.00     0.029 A 
ATOM     47  N   UNL A   1      43.391  31.320  31.215  1.00  0.00    -0.354 N 
ATOM     48  N   UNL A   1      40.762  32.521  30.817  1.00  0.00    -0.248 NA
ATOM     49  C   UNL A   1      39.294  34.324  31.045  1.00  0.00     0.031 C 
ATOM     50  C   UNL A   1      44.986  32.544  32.161  1.00  0.00     0.029 A 
ATOM     51  C   UNL A   1      43.664  32.567  31.744  1.00  0.00     0.049 A 
ATOM     52  H   UNL A   1      42.524  31.041  30.842  1.00  0.00     0.167 HD
ATOM     53  C   UNL A   1      41.430  33.585  31.418  1.00  0.00     0.074 A 
ATOM     54  C   UNL A   1      40.483  34.673  31.524  1.00  0.00     0.031 C 
ATOM     55  C   UNL A   1      42.719  33.651  31.832  1.00  0.00     0.031 A 
BRANCH  42  56
ATOM     56  C   UNL A   1      45.868  28.404  31.032  1.00  0.00    -0.014 A 
ATOM     57  C   UNL A   1      46.106  27.670  32.208  1.00  0.00     0.010 A 
ATOM     58  C   UNL A   1      46.837  28.417  30.015  1.00  0.00     0.010 A 
ATOM     59  C   UNL A   1      47.309  26.987  32.380  1.00  0.00     0.020 A 
ATOM     60  C   UNL A   1      48.036  27.717  30.176  1.00  0.00     0.020 A 
ATOM     61  C   UNL A   1      48.268  27.016  31.362  1.00  0.00     0.054 A 
BRANCH  61  62
ATOM     62  S   UNL A   1      49.823  26.124  31.624  1.00  0.00     0.124 S 
ATOM     63  O   UNL A   1      50.766  27.217  31.855  1.00  0.00    -0.237 OA
ATOM     64  O   UNL A   1      49.521  25.298  32.790  1.00  0.00    -0.237 OA
ATOM     65  O   UNL A   1      50.020  25.392  30.375  1.00  0.00    -0.744 OA
ENDBRANCH  61  62
ENDBRANCH  42  56
BRANCH  43  66
ATOM     66  C   UNL A   1      37.099  32.924  29.702  1.00  0.00    -0.014 A 
ATOM     67  C   UNL A   1      36.141  32.942  30.730  1.00  0.00     0.010 A 
ATOM     68  C   UNL A   1      36.806  33.564  28.485  1.00  0.00     0.010 A 
ATOM     69  C   UNL A   1      34.911  33.583  30.546  1.00  0.00     0.020 A 
ATOM     70  C   UNL A   1      35.582  34.220  28.300  1.00  0.00     0.020 A 
ATOM     71  C   UNL A   1      34.643  34.225  29.334  1.00  0.00     0.054 A 
BRANCH  71  72
ATOM     72  S   UNL A   1      33.054  35.083  29.138  1.00  0.00     0.124 S 
ATOM     73  O   UNL A   1      32.384  34.269  28.128  1.00  0.00    -0.237 OA
ATOM     74  O   UNL A   1      32.494  35.005  30.485  1.00  0.00    -0.237 OA
ATOM     75  O   UNL A   1      33.435  36.425  28.704  1.00  0.00    -0.744 OA
ENDBRANCH  71  72
ENDBRANCH  43  66
BRANCH  55  76
ATOM     76  C   UNL A   1      43.229  34.939  32.417  1.00  0.00    -0.014 A 
ATOM     77  C   UNL A   1      43.801  35.925  31.597  1.00  0.00     0.010 A 
ATOM     78  C   UNL A   1      42.960  35.236  33.767  1.00  0.00     0.010 A 
ATOM     79  C   UNL A   1      44.073  37.197  32.110  1.00  0.00     0.020 A 
ATOM     80  C   UNL A   1      43.216  36.510  34.279  1.00  0.00     0.020 A 
ATOM     81  C   UNL A   1      43.761  37.486  33.444  1.00  0.00     0.054 A 
BRANCH  81  82
ATOM     82  S   UNL A   1      44.013  39.180  34.045  1.00  0.00     0.124 S 
ATOM     83  O   UNL A   1      44.131  38.983  35.488  1.00  0.00    -0.237 OA
ATOM     84  O   UNL A   1      45.242  39.577  33.362  1.00  0.00    -0.237 OA
ATOM     85  O   UNL A   1      42.809  39.887  33.613  1.00  0.00    -0.744 OA
ENDBRANCH  81  82
ENDBRANCH  55  76
ENDBRANCH  29  30
ENDBRANCH  22  24
ENDBRANCH  21  22
ENDBRANCH  20  21
ENDBRANCH   1  20
TORSDOF 19
ENDMDL
MODEL 2
REMARK VINA RESULT:      -9.5      2.070      3.430
REMARK SMILES Cc1nnc(S[C@@H](C)CCO)c(C(=O)OCCOC(=O)c2ccc(-c3c4nc(c(-c5ccc(S(=O)(=O)[O-])cc5)c5ccc([nH]5)c(-c5ccc(S(=O)(=O)[O-])cc5)c5nc(c(-c6ccc(S(=O)(=O)[O-])cc6)c6ccc3[nH]6)C=C5)C=C4)cc2)c1C
REMARK SMILES IDX 16 1 15 2 13 3 14 4 12 5 1 6 2 7 3 8 81 9 4 10 82 11 5 12
REMARK SMILES IDX 6 13 7 14 8 15 9 16 10 17 11 18 17 20 18 21 19 22 20 23
REMARK SMILES IDX 21 24 22 25 80 26 23 27 79 28 24 29 25 30 26 31 73 32 27 33
REMARK SMILES IDX 78 34 72 35 74 36 28 37 77 38 71 39 70 40 29 42 59 43 40 44
REMARK SMILES IDX 58 45 41 46 44 47 57 48 75 49 42 50 43 51 56 53 76 54 45 55
REMARK SMILES IDX 30 56 31 57 39 58 32 59 38 60 33 61 34 62 35 63 36 64 37 65
REMARK SMILES IDX 60 66 61 67 69 68 62 69 68 70 63 71 64 72 65 73 66 74 67 75
REMARK SMILES IDX 46 76 47 77 55 78 48 79 54 80 49 81 50 82 51 83 52 84 53 85
REMARK H PARENT 11 19 74 41 44 52
REMARK Flexibility Score: inf
ROOT
ATOM      1  C   UNL A   1      35.733  23.700  24.534  1.00  0.00     0.275 C 
ENDROOT
BRANCH   1   2
ATOM      2  O   UNL A   1      34.877  24.751  24.979  1.00  0.00    -0.458 OA
BRANCH   2   3
ATOM      3  C   UNL A   1      33.960  25.272  24.117  1.00  0.00     0.341 C 
ATOM      4  O   UNL A   1      33.972  25.236  22.922  1.00  0.00    -0.246 OA
BRANCH   3   5
ATOM      5  C   UNL A   1      32.882  25.714  25.023  1.00  0.00     0.098 A 
ATOM      6  C   UNL A   1      32.022  28.776  27.138  1.00  0.00     0.069 C 
ATOM      7  C   UNL A   1      32.068  27.402  26.539  1.00  0.00     0.064 A 
ATOM      8  N   UNL A   1      31.252  26.478  27.075  1.00  0.00    -0.155 NA
ATOM      9  C   UNL A   1      32.872  27.071  25.457  1.00  0.00    -0.011 A 
ATOM     10  N   UNL A   1      31.191  25.184  26.550  1.00  0.00    -0.143 NA
ATOM     11  C   UNL A   1      33.737  28.112  24.792  1.00  0.00     0.047 C 
ATOM     12  C   UNL A   1      32.008  24.772  25.554  1.00  0.00     0.134 A 
BRANCH  12  13
ATOM     13  S   UNL A   1      31.447  23.285  24.752  1.00  0.00    -0.100 SA
BRANCH  13  14
ATOM     14  C   UNL A   1      32.239  21.676  25.332  1.00  0.00     0.052 C 
ATOM     15  C   UNL A   1      32.769  21.164  23.975  1.00  0.00     0.020 C 
BRANCH  14  16
ATOM     16  C   UNL A   1      33.427  21.682  26.302  1.00  0.00     0.043 C 
BRANCH  16  17
ATOM     17  C   UNL A   1      33.225  22.306  27.694  1.00  0.00     0.157 C 
BRANCH  17  18
ATOM     18  O   UNL A   1      31.873  22.405  28.087  1.00  0.00    -0.396 OA
ATOM     19  H   UNL A   1      31.819  22.833  28.956  1.00  0.00     0.210 HD
ENDBRANCH  17  18
ENDBRANCH  16  17
ENDBRANCH  14  16
ENDBRANCH  13  14
ENDBRANCH  12  13
ENDBRANCH   3   5
ENDBRANCH   2   3
ENDBRANCH   1   2
BRANCH   1  20
ATOM     20  C   UNL A   1      36.717  23.432  25.684  1.00  0.00     0.275 C 
BRANCH  20  21
ATOM     21  O   UNL A   1      37.943  22.808  25.228  1.00  0.00    -0.458 OA
BRANCH  21  22
ATOM     22  C   UNL A   1      38.935  22.556  26.127  1.00  0.00     0.338 C 
ATOM     23  O   UNL A   1      39.401  21.462  26.390  1.00  0.00    -0.246 OA
BRANCH  22  24
ATOM     24  C   UNL A   1      39.429  23.851  26.692  1.00  0.00     0.060 A 
ATOM     25  C   UNL A   1      40.097  24.767  25.873  1.00  0.00     0.016 A 
ATOM     26  C   UNL A   1      39.226  24.179  28.037  1.00  0.00     0.016 A 
ATOM     27  C   UNL A   1      40.464  26.032  26.364  1.00  0.00     0.010 A 
ATOM     28  C   UNL A   1      39.588  25.440  28.532  1.00  0.00     0.010 A 
ATOM     29  C   UNL A   1      40.209  26.380  27.699  1.00  0.00    -0.014 A 
BRANCH  29  30
ATOM     30  C   UNL A   1      40.804  27.608  28.294  1.00  0.00     0.031 A 
ATOM     31  C   UNL A   1      42.304  27.671  28.402  1.00  0.00     0.074 A 
ATOM     32  C   UNL A   1      40.065  28.628  28.773  1.00  0.00     0.049 A 
ATOM     33  N   UNL A   1      43.068  28.655  28.800  1.00  0.00    -0.248 NA
ATOM     34  C   UNL A   1      43.039  26.454  28.014  1.00  0.00     0.031 C 
ATOM     35  C   UNL A   1      38.605  28.696  28.782  1.00  0.00     0.029 A 
ATOM     36  N   UNL A   1      40.456  29.812  29.360  1.00  0.00    -0.354 N 
ATOM     37  C   UNL A   1      44.370  28.191  28.667  1.00  0.00     0.074 A 
ATOM     38  C   UNL A   1      44.295  26.820  28.215  1.00  0.00     0.031 C 
ATOM     39  C   UNL A   1      38.223  29.857  29.350  1.00  0.00     0.029 A 
ATOM     40  C   UNL A   1      39.409  30.623  29.736  1.00  0.00     0.049 A 
ATOM     41  H   UNL A   1      41.399  30.057  29.496  1.00  0.00     0.167 HD
ATOM     42  C   UNL A   1      45.532  28.852  28.873  1.00  0.00     0.031 A 
ATOM     43  C   UNL A   1      39.407  31.846  30.308  1.00  0.00     0.031 A 
ATOM     44  C   UNL A   1      45.623  30.193  29.371  1.00  0.00     0.049 A 
ATOM     45  C   UNL A   1      40.713  32.549  30.588  1.00  0.00     0.074 A 
ATOM     46  C   UNL A   1      46.760  30.949  29.594  1.00  0.00     0.029 A 
ATOM     47  N   UNL A   1      44.539  30.969  29.742  1.00  0.00    -0.354 N 
ATOM     48  N   UNL A   1      41.936  32.136  30.358  1.00  0.00    -0.248 NA
ATOM     49  C   UNL A   1      40.640  33.893  31.187  1.00  0.00     0.031 C 
ATOM     50  C   UNL A   1      46.364  32.173  30.139  1.00  0.00     0.029 A 
ATOM     51  C   UNL A   1      44.979  32.192  30.213  1.00  0.00     0.049 A 
ATOM     52  H   UNL A   1      43.596  30.693  29.680  1.00  0.00     0.167 HD
ATOM     53  C   UNL A   1      42.772  33.179  30.747  1.00  0.00     0.074 A 
ATOM     54  C   UNL A   1      41.921  34.241  31.239  1.00  0.00     0.031 C 
ATOM     55  C   UNL A   1      44.124  33.249  30.687  1.00  0.00     0.031 A 
BRANCH  42  56
ATOM     56  C   UNL A   1      46.796  28.119  28.537  1.00  0.00    -0.014 A 
ATOM     57  C   UNL A   1      47.393  27.273  29.489  1.00  0.00     0.010 A 
ATOM     58  C   UNL A   1      47.386  28.261  27.270  1.00  0.00     0.010 A 
ATOM     59  C   UNL A   1      48.580  26.606  29.192  1.00  0.00     0.020 A 
ATOM     60  C   UNL A   1      48.565  27.579  26.962  1.00  0.00     0.020 A 
ATOM     61  C   UNL A   1      49.160  26.764  27.928  1.00  0.00     0.054 A 
BRANCH  61  62
ATOM     62  S   UNL A   1      50.708  25.888  27.579  1.00  0.00     0.124 S 
ATOM     63  O   UNL A   1      51.561  26.325  28.683  1.00  0.00    -0.237 OA
ATOM     64  O   UNL A   1      50.294  24.488  27.621  1.00  0.00    -0.237 OA
ATOM     65  O   UNL A   1      51.100  26.384  26.262  1.00  0.00    -0.744 OA
ENDBRANCH  61  62
ENDBRANCH  42  56
BRANCH  43  66
ATOM     66  C   UNL A   1      38.115  32.523  30.619  1.00  0.00    -0.014 A 
ATOM     67  C   UNL A   1      37.527  32.383  31.888  1.00  0.00     0.010 A 
ATOM     68  C   UNL A   1      37.463  33.303  29.647  1.00  0.00     0.010 A 
ATOM     69  C   UNL A   1      36.310  33.007  32.181  1.00  0.00     0.020 A 
ATOM     70  C   UNL A   1      36.252  33.942  29.941  1.00  0.00     0.020 A 
ATOM     71  C   UNL A   1      35.684  33.790  31.207  1.00  0.00     0.054 A 
BRANCH  71  72
ATOM     72  S   UNL A   1      34.126  34.621  31.630  1.00  0.00     0.124 S 
ATOM     73  O   UNL A   1      33.474  34.741  30.329  1.00  0.00    -0.237 OA
ATOM     74  O   UNL A   1      33.513  33.674  32.558  1.00  0.00    -0.237 OA
ATOM     75  O   UNL A   1      34.556  35.882  32.229  1.00  0.00    -0.744 OA
ENDBRANCH  71  72
ENDBRANCH  43  66
BRANCH  55  76
ATOM     76  C   UNL A   1      44.806  34.515  31.130  1.00  0.00    -0.014 A 
ATOM     77  C   UNL A   1      44.968  35.593  30.244  1.00  0.00     0.010 A 
ATOM     78  C   UNL A   1      45.115  34.690  32.492  1.00  0.00     0.010 A 
ATOM     79  C   UNL A   1      45.404  36.834  30.718  1.00  0.00     0.020 A 
ATOM     80  C   UNL A   1      45.536  35.932  32.973  1.00  0.00     0.020 A 
ATOM     81  C   UNL A   1      45.667  37.000  32.083  1.00  0.00     0.054 A 
BRANCH  81  82
ATOM     82  S   UNL A   1      46.113  38.654  32.684  1.00  0.00     0.124 S 
ATOM     83  O   UNL A   1      44.837  39.152  33.193  1.00  0.00    -0.237 OA
ATOM     84  O   UNL A   1      47.122  38.358  33.698  1.00  0.00    -0.237 OA
ATOM     85  O   UNL A   1      46.613  39.336  31.493  1.00  0.00    -0.744 OA
ENDBRANCH  81  82
ENDBRANCH  55  76
ENDBRANCH  29  30
ENDBRANCH  22  24
ENDBRANCH  21  22
ENDBRANCH  20  21
ENDBRANCH   1  20
TORSDOF 19
ENDMDL
MODEL 3
REMARK VINA RESULT:      -9.5      2.875      9.434
REMARK SMILES Cc1nnc(S[C@@H](C)CCO)c(C(=O)OCCOC(=O)c2ccc(-c3c4nc(c(-c5ccc(S(=O)(=O)[O-])cc5)c5ccc([nH]5)c(-c5ccc(S(=O)(=O)[O-])cc5)c5nc(c(-c6ccc(S(=O)(=O)[O-])cc6)c6ccc3[nH]6)C=C5)C=C4)cc2)c1C
REMARK SMILES IDX 16 1 15 2 13 3 14 4 12 5 1 6 2 7 3 8 81 9 4 10 82 11 5 12
REMARK SMILES IDX 6 13 7 14 8 15 9 16 10 17 11 18 17 20 18 21 19 22 20 23
REMARK SMILES IDX 21 24 22 25 80 26 23 27 79 28 24 29 25 30 26 31 73 32 27 33
REMARK SMILES IDX 78 34 72 35 74 36 28 37 77 38 71 39 70 40 29 42 59 43 40 44
REMARK SMILES IDX 58 45 41 46 44 47 57 48 75 49 42 50 43 51 56 53 76 54 45 55
REMARK SMILES IDX 30 56 31 57 39 58 32 59 38 60 33 61 34 62 35 63 36 64 37 65
REMARK SMILES IDX 60 66 61 67 69 68 62 69 68 70 63 71 64 72 65 73 66 74 67 75
REMARK SMILES IDX 46 76 47 77 55 78 48 79 54 80 49 81 50 82 51 83 52 84 53 85
REMARK H PARENT 11 19 74 41 44 52
REMARK Flexibility Score: inf
ROOT
ATOM      1  C   UNL A   1      34.059  27.395  26.028  1.00  0.00     0.275 C 
ENDROOT
BRANCH   1   2
ATOM      2  O   UNL A   1      33.087  26.350  26.058  1.00  0.00    -0.458 OA
BRANCH   2   3
ATOM      3  C   UNL A   1      32.530  25.927  24.890  1.00  0.00     0.341 C 
ATOM      4  O   UNL A   1      32.518  26.490  23.835  1.00  0.00    -0.246 OA
BRANCH   3   5
ATOM      5  C   UNL A   1      32.124  24.544  25.211  1.00  0.00     0.098 A 
ATOM      6  C   UNL A   1      29.375  22.775  27.186  1.00  0.00     0.069 C 
ATOM      7  C   UNL A   1      30.628  23.099  26.427  1.00  0.00     0.064 A 
ATOM      8  N   UNL A   1      31.529  22.110  26.291  1.00  0.00    -0.155 NA
ATOM      9  C   UNL A   1      30.865  24.335  25.844  1.00  0.00    -0.011 A 
ATOM     10  N   UNL A   1      32.702  22.305  25.558  1.00  0.00    -0.143 NA
ATOM     11  C   UNL A   1      29.834  25.434  25.919  1.00  0.00     0.047 C 
ATOM     12  C   UNL A   1      33.035  23.508  25.038  1.00  0.00     0.134 A 
BRANCH  12  13
ATOM     13  S   UNL A   1      34.295  23.411  23.785  1.00  0.00    -0.100 SA
BRANCH  13  14
ATOM     14  C   UNL A   1      35.812  22.374  24.208  1.00  0.00     0.052 C 
ATOM     15  C   UNL A   1      36.754  22.854  23.082  1.00  0.00     0.020 C 
BRANCH  14  16
ATOM     16  C   UNL A   1      36.562  22.569  25.531  1.00  0.00     0.043 C 
BRANCH  16  17
ATOM     17  C   UNL A   1      37.975  21.975  25.659  1.00  0.00     0.157 C 
BRANCH  17  18
ATOM     18  O   UNL A   1      38.990  22.941  25.832  1.00  0.00    -0.396 OA
ATOM     19  H   UNL A   1      39.646  22.612  26.465  1.00  0.00     0.210 HD
ENDBRANCH  17  18
ENDBRANCH  16  17
ENDBRANCH  14  16
ENDBRANCH  13  14
ENDBRANCH  12  13
ENDBRANCH   3   5
ENDBRANCH   2   3
ENDBRANCH   1   2
BRANCH   1  20
ATOM     20  C   UNL A   1      33.296  28.698  26.318  1.00  0.00     0.275 C 
BRANCH  20  21
ATOM     21  O   UNL A   1      33.575  29.219  27.641  1.00  0.00    -0.458 OA
BRANCH  21  22
ATOM     22  C   UNL A   1      34.328  30.348  27.766  1.00  0.00     0.338 C 
ATOM     23  O   UNL A   1      33.924  31.493  27.659  1.00  0.00    -0.246 OA
BRANCH  22  24
ATOM     24  C   UNL A   1      35.727  29.969  28.137  1.00  0.00     0.060 A 
ATOM     25  C   UNL A   1      36.751  30.040  27.186  1.00  0.00     0.016 A 
ATOM     26  C   UNL A   1      36.046  29.550  29.433  1.00  0.00     0.016 A 
ATOM     27  C   UNL A   1      38.086  29.796  27.552  1.00  0.00     0.010 A 
ATOM     28  C   UNL A   1      37.375  29.307  29.804  1.00  0.00     0.010 A 
ATOM     29  C   UNL A   1      38.409  29.430  28.868  1.00  0.00    -0.014 A 
BRANCH  29  30
ATOM     30  C   UNL A   1      39.771  28.935  29.208  1.00  0.00     0.031 A 
ATOM     31  C   UNL A   1      40.693  29.878  29.932  1.00  0.00     0.074 A 
ATOM     32  C   UNL A   1      40.220  27.713  28.858  1.00  0.00     0.049 A 
ATOM     33  N   UNL A   1      41.890  29.664  30.414  1.00  0.00    -0.248 NA
ATOM     34  C   UNL A   1      40.197  31.251  30.134  1.00  0.00     0.031 C 
ATOM     35  C   UNL A   1      39.466  26.704  28.117  1.00  0.00     0.029 A 
ATOM     36  N   UNL A   1      41.442  27.115  29.080  1.00  0.00    -0.354 N 
ATOM     37  C   UNL A   1      42.268  30.859  31.012  1.00  0.00     0.074 A 
ATOM     38  C   UNL A   1      41.206  31.812  30.779  1.00  0.00     0.031 C 
ATOM     39  C   UNL A   1      40.242  25.616  27.941  1.00  0.00     0.029 A 
ATOM     40  C   UNL A   1      41.546  25.843  28.566  1.00  0.00     0.049 A 
ATOM     41  H   UNL A   1      42.175  27.560  29.564  1.00  0.00     0.167 HD
ATOM     42  C   UNL A   1      43.387  31.137  31.720  1.00  0.00     0.031 A 
ATOM     43  C   UNL A   1      42.565  24.958  28.609  1.00  0.00     0.031 A 
ATOM     44  C   UNL A   1      44.471  30.221  31.915  1.00  0.00     0.049 A 
ATOM     45  C   UNL A   1      43.832  25.304  29.353  1.00  0.00     0.074 A 
ATOM     46  C   UNL A   1      45.636  30.412  32.633  1.00  0.00     0.029 A 
ATOM     47  N   UNL A   1      44.532  28.949  31.372  1.00  0.00    -0.354 N 
ATOM     48  N   UNL A   1      44.130  26.403  30.003  1.00  0.00    -0.248 NA
ATOM     49  C   UNL A   1      44.894  24.284  29.386  1.00  0.00     0.031 C 
ATOM     50  C   UNL A   1      46.424  29.266  32.493  1.00  0.00     0.029 A 
ATOM     51  C   UNL A   1      45.726  28.348  31.722  1.00  0.00     0.049 A 
ATOM     52  H   UNL A   1      43.831  28.534  30.818  1.00  0.00     0.167 HD
ATOM     53  C   UNL A   1      45.393  26.191  30.553  1.00  0.00     0.074 A 
ATOM     54  C   UNL A   1      45.811  24.866  30.151  1.00  0.00     0.031 C 
ATOM     55  C   UNL A   1      46.128  27.022  31.330  1.00  0.00     0.031 A 
BRANCH  42  56
ATOM     56  C   UNL A   1      43.470  32.497  32.347  1.00  0.00    -0.014 A 
ATOM     57  C   UNL A   1      43.779  33.619  31.557  1.00  0.00     0.010 A 
ATOM     58  C   UNL A   1      43.228  32.663  33.721  1.00  0.00     0.010 A 
ATOM     59  C   UNL A   1      43.879  34.882  32.137  1.00  0.00     0.020 A 
ATOM     60  C   UNL A   1      43.309  33.930  34.303  1.00  0.00     0.020 A 
ATOM     61  C   UNL A   1      43.645  35.030  33.509  1.00  0.00     0.054 A 
BRANCH  61  62
ATOM     62  S   UNL A   1      43.792  36.686  34.231  1.00  0.00     0.124 S 
ATOM     63  O   UNL A   1      42.394  37.048  34.450  1.00  0.00    -0.237 OA
ATOM     64  O   UNL A   1      44.573  36.434  35.439  1.00  0.00    -0.237 OA
ATOM     65  O   UNL A   1      44.476  37.458  33.196  1.00  0.00    -0.744 OA
ENDBRANCH  61  62
ENDBRANCH  42  56
BRANCH  43  66
ATOM     66  C   UNL A   1      42.420  23.621  27.965  1.00  0.00    -0.014 A 
ATOM     67  C   UNL A   1      41.800  22.564  28.654  1.00  0.00     0.010 A 
ATOM     68  C   UNL A   1      42.907  23.396  26.665  1.00  0.00     0.010 A 
ATOM     69  C   UNL A   1      41.671  21.305  28.057  1.00  0.00     0.020 A 
ATOM     70  C   UNL A   1      42.767  22.141  26.058  1.00  0.00     0.020 A 
ATOM     71  C   UNL A   1      42.149  21.104  26.759  1.00  0.00     0.054 A 
BRANCH  71  72
ATOM     72  S   UNL A   1      41.931  19.470  25.997  1.00  0.00     0.124 S 
ATOM     73  O   UNL A   1      42.399  18.572  27.049  1.00  0.00    -0.237 OA
ATOM     74  O   UNL A   1      40.495  19.441  25.735  1.00  0.00    -0.237 OA
ATOM     75  O   UNL A   1      42.776  19.527  24.806  1.00  0.00    -0.744 OA
ENDBRANCH  71  72
ENDBRANCH  43  66
BRANCH  55  76
ATOM     76  C   UNL A   1      47.460  26.546  31.845  1.00  0.00    -0.014 A 
ATOM     77  C   UNL A   1      47.568  25.943  33.109  1.00  0.00     0.010 A 
ATOM     78  C   UNL A   1      48.568  26.534  30.978  1.00  0.00     0.010 A 
ATOM     79  C   UNL A   1      48.757  25.312  33.488  1.00  0.00     0.020 A 
ATOM     80  C   UNL A   1      49.753  25.892  31.347  1.00  0.00     0.020 A 
ATOM     81  C   UNL A   1      49.836  25.275  32.597  1.00  0.00     0.054 A 
BRANCH  81  82
ATOM     82  S   UNL A   1      51.320  24.345  33.071  1.00  0.00     0.124 S 
ATOM     83  O   UNL A   1      51.259  23.189  32.180  1.00  0.00    -0.237 OA
ATOM     84  O   UNL A   1      52.391  25.298  32.792  1.00  0.00    -0.237 OA
ATOM     85  O   UNL A   1      51.109  24.048  34.486  1.00  0.00    -0.744 OA
ENDBRANCH  81  82
ENDBRANCH  55  76
ENDBRANCH  29  30
ENDBRANCH  22  24
ENDBRANCH  21  22
ENDBRANCH  20  21
ENDBRANCH   1  20
TORSDOF 19
ENDMDL
