MODEL 1
REMARK VINA RESULT:     -10.9      0.000      0.000
REMARK SMILES CC[C@H](C(=O)OCCOC(=O)c1ccc(-c2c3nc(c(-c4ccc(S(=O)(=O)[O-])cc4)c4ccc([nH]4)c(-c4ccc(S(=O)(=O)[O-])cc4)c4nc(c(-c5ccc(S(=O)(=O)[O-])cc5)c5ccc2[nH]5)C=C4)C=C3)cc1)N1C(=O)c2ccc([N+](=O)[O-])cc2C1=O
REMARK SMILES IDX 8 1 7 2 6 3 4 4 5 5 3 6 2 7 1 8 72 9 73 10 84 11 74 12 75 13
REMARK SMILES IDX 83 14 85 15 76 16 82 17 77 18 78 19 79 20 80 21 81 22 9 23
REMARK SMILES IDX 10 24 11 25 12 26 13 27 71 28 14 29 70 30 15 31 16 32 17 33
REMARK SMILES IDX 64 34 18 35 69 36 63 37 65 38 19 39 68 40 62 41 61 42 20 44
REMARK SMILES IDX 50 45 31 46 49 47 32 48 35 49 48 50 66 51 33 52 34 53 47 55
REMARK SMILES IDX 67 56 36 57 21 58 22 59 30 60 23 61 29 62 24 63 25 64 26 65
REMARK SMILES IDX 27 66 28 67 51 68 52 69 60 70 53 71 59 72 54 73 55 74 56 75
REMARK SMILES IDX 57 76 58 77 37 78 38 79 46 80 39 81 45 82 40 83 41 84 42 85
REMARK SMILES IDX 43 86 44 87
REMARK H PARENT 65 43 35 54
REMARK Flexibility Score: inf
ROOT
ATOM      1  C   UNL A   1      36.250  23.284  25.849  1.00  0.00     0.275 C 
ENDROOT
BRANCH   1   2
ATOM      2  C   UNL A   1      35.098  23.837  25.005  1.00  0.00     0.274 C 
BRANCH   2   3
ATOM      3  O   UNL A   1      34.823  22.997  23.871  1.00  0.00    -0.461 OA
BRANCH   3   4
ATOM      4  C   UNL A   1      33.684  23.277  23.189  1.00  0.00     0.329 C 
ATOM      5  O   UNL A   1      33.657  23.817  22.084  1.00  0.00    -0.250 OA
BRANCH   4   6
ATOM      6  C   UNL A   1      32.407  22.938  23.969  1.00  0.00     0.203 C 
BRANCH   6   7
ATOM      7  C   UNL A   1      31.066  23.445  23.436  1.00  0.00     0.034 C 
ATOM      8  C   UNL A   1      30.654  24.799  24.006  1.00  0.00     0.007 C 
ENDBRANCH   6   7
BRANCH   6   9
ATOM      9  N   UNL A   1      32.458  21.477  24.067  1.00  0.00    -0.260 N 
ATOM     10  C   UNL A   1      32.199  20.665  22.998  1.00  0.00     0.262 C 
ATOM     11  C   UNL A   1      32.812  20.760  25.173  1.00  0.00     0.262 C 
ATOM     12  O   UNL A   1      31.750  20.942  21.903  1.00  0.00    -0.269 OA
ATOM     13  C   UNL A   1      32.573  19.321  23.404  1.00  0.00     0.053 A 
ATOM     14  C   UNL A   1      32.868  19.352  24.756  1.00  0.00     0.060 A 
ATOM     15  O   UNL A   1      33.043  21.151  26.302  1.00  0.00    -0.269 OA
ATOM     16  C   UNL A   1      32.652  18.174  22.641  1.00  0.00     0.022 A 
ATOM     17  C   UNL A   1      33.149  18.195  25.457  1.00  0.00     0.100 A 
ATOM     18  C   UNL A   1      32.963  16.992  23.309  1.00  0.00     0.086 A 
ATOM     19  C   UNL A   1      33.163  17.000  24.713  1.00  0.00     0.270 A 
BRANCH  19  20
ATOM     20  N   UNL A   1      33.318  15.714  25.407  1.00  0.00     0.062 N 
ATOM     21  O   UNL A   1      34.424  15.161  25.348  1.00  0.00    -0.258 OA
ATOM     22  O   UNL A   1      32.315  15.237  25.953  1.00  0.00    -0.258 OA
ENDBRANCH  19  20
ENDBRANCH   6   9
ENDBRANCH   4   6
ENDBRANCH   3   4
ENDBRANCH   2   3
ENDBRANCH   1   2
BRANCH   1  23
ATOM     23  O   UNL A   1      37.537  23.734  25.384  1.00  0.00    -0.458 OA
BRANCH  23  24
ATOM     24  C   UNL A   1      38.600  23.285  26.095  1.00  0.00     0.338 C 
ATOM     25  O   UNL A   1      39.076  22.161  26.075  1.00  0.00    -0.246 OA
BRANCH  24  26
ATOM     26  C   UNL A   1      39.231  24.400  26.817  1.00  0.00     0.060 A 
ATOM     27  C   UNL A   1      38.838  24.646  28.137  1.00  0.00     0.016 A 
ATOM     28  C   UNL A   1      40.135  25.244  26.176  1.00  0.00     0.016 A 
ATOM     29  C   UNL A   1      39.333  25.750  28.821  1.00  0.00     0.010 A 
ATOM     30  C   UNL A   1      40.635  26.350  26.863  1.00  0.00     0.010 A 
ATOM     31  C   UNL A   1      40.222  26.619  28.181  1.00  0.00    -0.014 A 
BRANCH  31  32
ATOM     32  C   UNL A   1      40.662  27.859  28.857  1.00  0.00     0.031 A 
ATOM     33  C   UNL A   1      42.038  27.917  29.455  1.00  0.00     0.074 A 
ATOM     34  C   UNL A   1      39.832  28.915  28.934  1.00  0.00     0.049 A 
ATOM     35  N   UNL A   1      42.577  28.848  30.197  1.00  0.00    -0.248 NA
ATOM     36  C   UNL A   1      42.923  26.769  29.189  1.00  0.00     0.031 C 
ATOM     37  C   UNL A   1      38.498  28.990  28.336  1.00  0.00     0.029 A 
ATOM     38  N   UNL A   1      39.987  30.126  29.558  1.00  0.00    -0.354 N 
ATOM     39  C   UNL A   1      43.855  28.393  30.503  1.00  0.00     0.074 A 
ATOM     40  C   UNL A   1      44.001  27.090  29.890  1.00  0.00     0.031 C 
ATOM     41  C   UNL A   1      37.955  30.184  28.626  1.00  0.00     0.029 A 
ATOM     42  C   UNL A   1      38.877  30.933  29.475  1.00  0.00     0.049 A 
ATOM     43  H   UNL A   1      40.815  30.393  30.020  1.00  0.00     0.167 HD
ATOM     44  C   UNL A   1      44.818  29.012  31.224  1.00  0.00     0.031 A 
ATOM     45  C   UNL A   1      38.623  32.124  30.049  1.00  0.00     0.031 A 
ATOM     46  C   UNL A   1      44.655  30.307  31.831  1.00  0.00     0.049 A 
ATOM     47  C   UNL A   1      39.678  32.748  30.925  1.00  0.00     0.074 A 
ATOM     48  C   UNL A   1      45.566  31.025  32.586  1.00  0.00     0.029 A 
ATOM     49  N   UNL A   1      43.505  31.079  31.752  1.00  0.00    -0.354 N 
ATOM     50  N   UNL A   1      40.880  32.306  31.213  1.00  0.00    -0.248 NA
ATOM     51  C   UNL A   1      39.344  34.036  31.549  1.00  0.00     0.031 C 
ATOM     52  C   UNL A   1      44.946  32.203  33.012  1.00  0.00     0.029 A 
ATOM     53  C   UNL A   1      43.676  32.255  32.460  1.00  0.00     0.049 A 
ATOM     54  H   UNL A   1      42.687  30.827  31.263  1.00  0.00     0.167 HD
ATOM     55  C   UNL A   1      41.460  33.283  32.016  1.00  0.00     0.074 A 
ATOM     56  C   UNL A   1      40.481  34.340  32.160  1.00  0.00     0.031 C 
ATOM     57  C   UNL A   1      42.694  33.305  32.578  1.00  0.00     0.031 A 
BRANCH  44  58
ATOM     58  C   UNL A   1      46.123  28.287  31.422  1.00  0.00    -0.014 A 
ATOM     59  C   UNL A   1      47.199  28.464  30.534  1.00  0.00     0.010 A 
ATOM     60  C   UNL A   1      46.294  27.456  32.546  1.00  0.00     0.010 A 
ATOM     61  C   UNL A   1      48.411  27.802  30.749  1.00  0.00     0.020 A 
ATOM     62  C   UNL A   1      47.514  26.815  32.780  1.00  0.00     0.020 A 
ATOM     63  C   UNL A   1      48.562  26.983  31.874  1.00  0.00     0.054 A 
BRANCH  63  64
ATOM     64  S   UNL A   1      50.159  26.170  32.147  1.00  0.00     0.124 S 
ATOM     65  O   UNL A   1      51.094  27.284  32.005  1.00  0.00    -0.237 OA
ATOM     66  O   UNL A   1      50.019  25.636  33.499  1.00  0.00    -0.237 OA
ATOM     67  O   UNL A   1      50.225  25.167  31.087  1.00  0.00    -0.744 OA
ENDBRANCH  63  64
ENDBRANCH  44  58
BRANCH  45  68
ATOM     68  C   UNL A   1      37.308  32.793  29.843  1.00  0.00    -0.014 A 
ATOM     69  C   UNL A   1      37.138  33.736  28.814  1.00  0.00     0.010 A 
ATOM     70  C   UNL A   1      36.221  32.506  30.690  1.00  0.00     0.010 A 
ATOM     71  C   UNL A   1      35.920  34.403  28.657  1.00  0.00     0.020 A 
ATOM     72  C   UNL A   1      34.991  33.144  30.514  1.00  0.00     0.020 A 
ATOM     73  C   UNL A   1      34.854  34.103  29.510  1.00  0.00     0.054 A 
BRANCH  73  74
ATOM     74  S   UNL A   1      33.277  34.967  29.275  1.00  0.00     0.124 S 
ATOM     75  O   UNL A   1      32.608  34.118  28.294  1.00  0.00    -0.237 OA
ATOM     76  O   UNL A   1      32.707  34.953  30.620  1.00  0.00    -0.237 OA
ATOM     77  O   UNL A   1      33.677  36.286  28.791  1.00  0.00    -0.744 OA
ENDBRANCH  73  74
ENDBRANCH  45  68
BRANCH  57  78
ATOM     78  C   UNL A   1      43.087  34.540  33.346  1.00  0.00    -0.014 A 
ATOM     79  C   UNL A   1      42.825  34.670  34.720  1.00  0.00     0.010 A 
ATOM     80  C   UNL A   1      43.796  35.562  32.684  1.00  0.00     0.010 A 
ATOM     81  C   UNL A   1      43.238  35.811  35.412  1.00  0.00     0.020 A 
ATOM     82  C   UNL A   1      44.240  36.688  33.379  1.00  0.00     0.020 A 
ATOM     83  C   UNL A   1      43.948  36.811  34.738  1.00  0.00     0.054 A 
BRANCH  83  84
ATOM     84  S   UNL A   1      44.523  38.254  35.673  1.00  0.00     0.124 S 
ATOM     85  O   UNL A   1      44.071  37.940  37.025  1.00  0.00    -0.237 OA
ATOM     86  O   UNL A   1      45.969  38.211  35.468  1.00  0.00    -0.237 OA
ATOM     87  O   UNL A   1      43.842  39.377  35.034  1.00  0.00    -0.744 OA
ENDBRANCH  83  84
ENDBRANCH  57  78
ENDBRANCH  31  32
ENDBRANCH  24  26
ENDBRANCH  23  24
ENDBRANCH   1  23
TORSDOF 17
ENDMDL
MODEL 2
REMARK VINA RESULT:     -10.9      3.737     10.048
REMARK SMILES CC[C@H](C(=O)OCCOC(=O)c1ccc(-c2c3nc(c(-c4ccc(S(=O)(=O)[O-])cc4)c4ccc([nH]4)c(-c4ccc(S(=O)(=O)[O-])cc4)c4nc(c(-c5ccc(S(=O)(=O)[O-])cc5)c5ccc2[nH]5)C=C4)C=C3)cc1)N1C(=O)c2ccc([N+](=O)[O-])cc2C1=O
REMARK SMILES IDX 8 1 7 2 6 3 4 4 5 5 3 6 2 7 1 8 72 9 73 10 84 11 74 12 75 13
REMARK SMILES IDX 83 14 85 15 76 16 82 17 77 18 78 19 79 20 80 21 81 22 9 23
REMARK SMILES IDX 10 24 11 25 12 26 13 27 71 28 14 29 70 30 15 31 16 32 17 33
REMARK SMILES IDX 64 34 18 35 69 36 63 37 65 38 19 39 68 40 62 41 61 42 20 44
REMARK SMILES IDX 50 45 31 46 49 47 32 48 35 49 48 50 66 51 33 52 34 53 47 55
REMARK SMILES IDX 67 56 36 57 21 58 22 59 30 60 23 61 29 62 24 63 25 64 26 65
REMARK SMILES IDX 27 66 28 67 51 68 52 69 60 70 53 71 59 72 54 73 55 74 56 75
REMARK SMILES IDX 57 76 58 77 37 78 38 79 46 80 39 81 45 82 40 83 41 84 42 85
REMARK SMILES IDX 43 86 44 87
REMARK H PARENT 65 43 35 54
REMARK Flexibility Score: inf
ROOT
ATOM      1  C   UNL A   1      32.376  28.748  27.597  1.00  0.00     0.275 C 
ENDROOT
BRANCH   1   2
ATOM      2  C   UNL A   1      31.736  27.702  26.680  1.00  0.00     0.274 C 
BRANCH   2   3
ATOM      3  O   UNL A   1      32.721  27.029  25.879  1.00  0.00    -0.461 OA
BRANCH   3   4
ATOM      4  C   UNL A   1      32.294  25.919  25.226  1.00  0.00     0.329 C 
ATOM      5  O   UNL A   1      31.860  24.913  25.785  1.00  0.00    -0.250 OA
BRANCH   4   6
ATOM      6  C   UNL A   1      32.487  25.994  23.705  1.00  0.00     0.203 C 
BRANCH   6   7
ATOM      7  C   UNL A   1      32.491  24.693  22.902  1.00  0.00     0.034 C 
ATOM      8  C   UNL A   1      33.808  23.926  22.986  1.00  0.00     0.007 C 
ENDBRANCH   6   7
BRANCH   6   9
ATOM      9  N   UNL A   1      31.427  26.913  23.283  1.00  0.00    -0.260 N 
ATOM     10  C   UNL A   1      30.101  26.617  23.435  1.00  0.00     0.262 C 
ATOM     11  C   UNL A   1      31.610  28.159  22.756  1.00  0.00     0.262 C 
ATOM     12  O   UNL A   1      29.571  25.572  23.758  1.00  0.00    -0.269 OA
ATOM     13  C   UNL A   1      29.371  27.836  23.133  1.00  0.00     0.053 A 
ATOM     14  C   UNL A   1      30.274  28.759  22.634  1.00  0.00     0.060 A 
ATOM     15  O   UNL A   1      32.643  28.713  22.431  1.00  0.00    -0.269 OA
ATOM     16  C   UNL A   1      28.027  28.105  23.291  1.00  0.00     0.022 A 
ATOM     17  C   UNL A   1      29.856  29.983  22.149  1.00  0.00     0.100 A 
ATOM     18  C   UNL A   1      27.574  29.342  22.839  1.00  0.00     0.086 A 
ATOM     19  C   UNL A   1      28.477  30.252  22.232  1.00  0.00     0.270 A 
BRANCH  19  20
ATOM     20  N   UNL A   1      27.936  31.470  21.614  1.00  0.00     0.062 N 
ATOM     21  O   UNL A   1      27.601  31.408  20.424  1.00  0.00    -0.258 OA
ATOM     22  O   UNL A   1      27.907  32.496  22.306  1.00  0.00    -0.258 OA
ENDBRANCH  19  20
ENDBRANCH   6   9
ENDBRANCH   4   6
ENDBRANCH   3   4
ENDBRANCH   2   3
ENDBRANCH   1   2
BRANCH   1  23
ATOM     23  O   UNL A   1      33.813  28.766  27.492  1.00  0.00    -0.458 OA
BRANCH  23  24
ATOM     24  C   UNL A   1      34.393  29.975  27.683  1.00  0.00     0.338 C 
ATOM     25  O   UNL A   1      33.849  31.067  27.639  1.00  0.00    -0.246 OA
BRANCH  24  26
ATOM     26  C   UNL A   1      35.789  29.802  28.113  1.00  0.00     0.060 A 
ATOM     27  C   UNL A   1      36.805  29.977  27.167  1.00  0.00     0.016 A 
ATOM     28  C   UNL A   1      36.089  29.390  29.410  1.00  0.00     0.016 A 
ATOM     29  C   UNL A   1      38.128  29.723  27.505  1.00  0.00     0.010 A 
ATOM     30  C   UNL A   1      37.418  29.139  29.751  1.00  0.00     0.010 A 
ATOM     31  C   UNL A   1      38.441  29.285  28.796  1.00  0.00    -0.014 A 
BRANCH  31  32
ATOM     32  C   UNL A   1      39.829  28.900  29.131  1.00  0.00     0.031 A 
ATOM     33  C   UNL A   1      40.731  29.908  29.783  1.00  0.00     0.074 A 
ATOM     34  C   UNL A   1      40.271  27.661  28.848  1.00  0.00     0.049 A 
ATOM     35  N   UNL A   1      42.009  29.825  30.044  1.00  0.00    -0.248 NA
ATOM     36  C   UNL A   1      40.113  31.183  30.188  1.00  0.00     0.031 C 
ATOM     37  C   UNL A   1      39.464  26.584  28.272  1.00  0.00     0.029 A 
ATOM     38  N   UNL A   1      41.514  27.103  29.000  1.00  0.00    -0.354 N 
ATOM     39  C   UNL A   1      42.353  31.040  30.626  1.00  0.00     0.074 A 
ATOM     40  C   UNL A   1      41.157  31.854  30.653  1.00  0.00     0.031 C 
ATOM     41  C   UNL A   1      40.235  25.496  28.115  1.00  0.00     0.029 A 
ATOM     42  C   UNL A   1      41.599  25.815  28.526  1.00  0.00     0.049 A 
ATOM     43  H   UNL A   1      42.273  27.578  29.410  1.00  0.00     0.167 HD
ATOM     44  C   UNL A   1      43.559  31.435  31.098  1.00  0.00     0.031 A 
ATOM     45  C   UNL A   1      42.665  25.001  28.405  1.00  0.00     0.031 A 
ATOM     46  C   UNL A   1      44.741  30.615  31.059  1.00  0.00     0.049 A 
ATOM     47  C   UNL A   1      44.014  25.500  28.853  1.00  0.00     0.074 A 
ATOM     48  C   UNL A   1      46.014  30.918  31.508  1.00  0.00     0.029 A 
ATOM     49  N   UNL A   1      44.794  29.329  30.542  1.00  0.00    -0.354 N 
ATOM     50  N   UNL A   1      44.330  26.654  29.394  1.00  0.00    -0.248 NA
ATOM     51  C   UNL A   1      45.151  24.586  28.678  1.00  0.00     0.031 C 
ATOM     52  C   UNL A   1      46.850  29.838  31.208  1.00  0.00     0.029 A 
ATOM     53  C   UNL A   1      46.082  28.833  30.643  1.00  0.00     0.049 A 
ATOM     54  H   UNL A   1      44.028  28.840  30.161  1.00  0.00     0.167 HD
ATOM     55  C   UNL A   1      45.693  26.585  29.664  1.00  0.00     0.074 A 
ATOM     56  C   UNL A   1      46.138  25.275  29.234  1.00  0.00     0.031 C 
ATOM     57  C   UNL A   1      46.502  27.518  30.223  1.00  0.00     0.031 A 
BRANCH  44  58
ATOM     58  C   UNL A   1      43.668  32.823  31.672  1.00  0.00    -0.014 A 
ATOM     59  C   UNL A   1      43.940  33.933  30.852  1.00  0.00     0.010 A 
ATOM     60  C   UNL A   1      43.439  33.029  33.045  1.00  0.00     0.010 A 
ATOM     61  C   UNL A   1      44.011  35.218  31.398  1.00  0.00     0.020 A 
ATOM     62  C   UNL A   1      43.480  34.316  33.591  1.00  0.00     0.020 A 
ATOM     63  C   UNL A   1      43.777  35.401  32.765  1.00  0.00     0.054 A 
BRANCH  63  64
ATOM     64  S   UNL A   1      43.837  37.084  33.438  1.00  0.00     0.124 S 
ATOM     65  O   UNL A   1      45.123  37.087  34.131  1.00  0.00    -0.237 OA
ATOM     66  O   UNL A   1      43.769  37.910  32.235  1.00  0.00    -0.237 OA
ATOM     67  O   UNL A   1      42.664  37.153  34.306  1.00  0.00    -0.744 OA
ENDBRANCH  63  64
ENDBRANCH  44  58
BRANCH  45  68
ATOM     68  C   UNL A   1      42.512  23.644  27.811  1.00  0.00    -0.014 A 
ATOM     69  C   UNL A   1      42.231  22.533  28.625  1.00  0.00     0.010 A 
ATOM     70  C   UNL A   1      42.667  23.451  26.425  1.00  0.00     0.010 A 
ATOM     71  C   UNL A   1      42.143  21.253  28.072  1.00  0.00     0.020 A 
ATOM     72  C   UNL A   1      42.544  22.178  25.863  1.00  0.00     0.020 A 
ATOM     73  C   UNL A   1      42.302  21.084  26.694  1.00  0.00     0.054 A 
BRANCH  73  74
ATOM     74  S   UNL A   1      42.164  19.414  25.997  1.00  0.00     0.124 S 
ATOM     75  O   UNL A   1      42.997  19.515  24.802  1.00  0.00    -0.237 OA
ATOM     76  O   UNL A   1      42.695  18.580  27.071  1.00  0.00    -0.237 OA
ATOM     77  O   UNL A   1      40.731  19.263  25.750  1.00  0.00    -0.744 OA
ENDBRANCH  73  74
ENDBRANCH  45  68
BRANCH  57  78
ATOM     78  C   UNL A   1      47.939  27.138  30.469  1.00  0.00    -0.014 A 
ATOM     79  C   UNL A   1      48.946  27.410  29.527  1.00  0.00     0.010 A 
ATOM     80  C   UNL A   1      48.293  26.555  31.701  1.00  0.00     0.010 A 
ATOM     81  C   UNL A   1      50.276  27.082  29.801  1.00  0.00     0.020 A 
ATOM     82  C   UNL A   1      49.625  26.255  31.992  1.00  0.00     0.020 A 
ATOM     83  C   UNL A   1      50.608  26.510  31.034  1.00  0.00     0.054 A 
BRANCH  83  84
ATOM     84  S   UNL A   1      52.348  26.147  31.387  1.00  0.00     0.124 S 
ATOM     85  O   UNL A   1      52.267  24.816  31.984  1.00  0.00    -0.237 OA
ATOM     86  O   UNL A   1      52.962  26.204  30.062  1.00  0.00    -0.237 OA
ATOM     87  O   UNL A   1      52.749  27.215  32.300  1.00  0.00    -0.744 OA
ENDBRANCH  83  84
ENDBRANCH  57  78
ENDBRANCH  31  32
ENDBRANCH  24  26
ENDBRANCH  23  24
ENDBRANCH   1  23
TORSDOF 17
ENDMDL
MODEL 3
REMARK VINA RESULT:     -10.9      5.322     12.227
REMARK SMILES CC[C@H](C(=O)OCCOC(=O)c1ccc(-c2c3nc(c(-c4ccc(S(=O)(=O)[O-])cc4)c4ccc([nH]4)c(-c4ccc(S(=O)(=O)[O-])cc4)c4nc(c(-c5ccc(S(=O)(=O)[O-])cc5)c5ccc2[nH]5)C=C4)C=C3)cc1)N1C(=O)c2ccc([N+](=O)[O-])cc2C1=O
REMARK SMILES IDX 8 1 7 2 6 3 4 4 5 5 3 6 2 7 1 8 72 9 73 10 84 11 74 12 75 13
REMARK SMILES IDX 83 14 85 15 76 16 82 17 77 18 78 19 79 20 80 21 81 22 9 23
REMARK SMILES IDX 10 24 11 25 12 26 13 27 71 28 14 29 70 30 15 31 16 32 17 33
REMARK SMILES IDX 64 34 18 35 69 36 63 37 65 38 19 39 68 40 62 41 61 42 20 44
REMARK SMILES IDX 50 45 31 46 49 47 32 48 35 49 48 50 66 51 33 52 34 53 47 55
REMARK SMILES IDX 67 56 36 57 21 58 22 59 30 60 23 61 29 62 24 63 25 64 26 65
REMARK SMILES IDX 27 66 28 67 51 68 52 69 60 70 53 71 59 72 54 73 55 74 56 75
REMARK SMILES IDX 57 76 58 77 37 78 38 79 46 80 39 81 45 82 40 83 41 84 42 85
REMARK SMILES IDX 43 86 44 87
REMARK H PARENT 65 43 35 54
REMARK Flexibility Score: inf
ROOT
ATOM      1  C   UNL A   1      34.131  33.068  28.274  1.00  0.00     0.275 C 
ENDROOT
BRANCH   1   2
ATOM      2  C   UNL A   1      34.454  34.298  29.128  1.00  0.00     0.274 C 
BRANCH   2   3
ATOM      3  O   UNL A   1      35.316  33.965  30.229  1.00  0.00    -0.461 OA
BRANCH   3   4
ATOM      4  C   UNL A   1      34.778  34.109  31.466  1.00  0.00     0.329 C 
ATOM      5  O   UNL A   1      33.741  33.562  31.836  1.00  0.00    -0.250 OA
BRANCH   4   6
ATOM      6  C   UNL A   1      35.544  35.101  32.353  1.00  0.00     0.203 C 
BRANCH   6   7
ATOM      7  C   UNL A   1      34.771  35.878  33.418  1.00  0.00     0.034 C 
ATOM      8  C   UNL A   1      34.012  37.082  32.867  1.00  0.00     0.007 C 
ENDBRANCH   6   7
BRANCH   6   9
ATOM      9  N   UNL A   1      36.614  34.277  32.921  1.00  0.00    -0.260 N 
ATOM     10  C   UNL A   1      37.893  34.307  32.440  1.00  0.00     0.262 C 
ATOM     11  C   UNL A   1      36.499  33.446  33.998  1.00  0.00     0.262 C 
ATOM     12  O   UNL A   1      38.333  34.835  31.437  1.00  0.00    -0.269 OA
ATOM     13  C   UNL A   1      38.705  33.559  33.384  1.00  0.00     0.053 A 
ATOM     14  C   UNL A   1      37.852  32.956  34.292  1.00  0.00     0.060 A 
ATOM     15  O   UNL A   1      35.504  33.134  34.626  1.00  0.00    -0.269 OA
ATOM     16  C   UNL A   1      40.077  33.429  33.436  1.00  0.00     0.022 A 
ATOM     17  C   UNL A   1      38.325  32.080  35.250  1.00  0.00     0.100 A 
ATOM     18  C   UNL A   1      40.593  32.575  34.409  1.00  0.00     0.086 A 
ATOM     19  C   UNL A   1      39.718  31.874  35.277  1.00  0.00     0.270 A 
BRANCH  19  20
ATOM     20  N   UNL A   1      40.284  30.856  36.172  1.00  0.00     0.062 N 
ATOM     21  O   UNL A   1      41.181  31.212  36.949  1.00  0.00    -0.258 OA
ATOM     22  O   UNL A   1      39.873  29.696  36.049  1.00  0.00    -0.258 OA
ENDBRANCH  19  20
ENDBRANCH   6   9
ENDBRANCH   4   6
ENDBRANCH   3   4
ENDBRANCH   2   3
ENDBRANCH   1   2
BRANCH   1  23
ATOM     23  O   UNL A   1      34.313  31.835  28.996  1.00  0.00    -0.458 OA
BRANCH  23  24
ATOM     24  C   UNL A   1      34.451  30.728  28.228  1.00  0.00     0.338 C 
ATOM     25  O   UNL A   1      33.648  30.288  27.420  1.00  0.00    -0.246 OA
BRANCH  24  26
ATOM     26  C   UNL A   1      35.805  30.174  28.381  1.00  0.00     0.060 A 
ATOM     27  C   UNL A   1      36.199  29.719  29.645  1.00  0.00     0.016 A 
ATOM     28  C   UNL A   1      36.702  30.178  27.316  1.00  0.00     0.016 A 
ATOM     29  C   UNL A   1      37.501  29.283  29.857  1.00  0.00     0.010 A 
ATOM     30  C   UNL A   1      38.009  29.737  27.528  1.00  0.00     0.010 A 
ATOM     31  C   UNL A   1      38.419  29.307  28.802  1.00  0.00    -0.014 A 
BRANCH  31  32
ATOM     32  C   UNL A   1      39.836  28.957  29.046  1.00  0.00     0.031 A 
ATOM     33  C   UNL A   1      40.765  30.004  29.592  1.00  0.00     0.074 A 
ATOM     34  C   UNL A   1      40.280  27.717  28.774  1.00  0.00     0.049 A 
ATOM     35  N   UNL A   1      42.059  29.952  29.759  1.00  0.00    -0.248 NA
ATOM     36  C   UNL A   1      40.153  31.282  29.998  1.00  0.00     0.031 C 
ATOM     37  C   UNL A   1      39.453  26.606  28.298  1.00  0.00     0.029 A 
ATOM     38  N   UNL A   1      41.542  27.185  28.851  1.00  0.00    -0.354 N 
ATOM     39  C   UNL A   1      42.423  31.193  30.271  1.00  0.00     0.074 A 
ATOM     40  C   UNL A   1      41.216  31.987  30.359  1.00  0.00     0.031 C 
ATOM     41  C   UNL A   1      40.232  25.526  28.121  1.00  0.00     0.029 A 
ATOM     42  C   UNL A   1      41.617  25.883  28.417  1.00  0.00     0.049 A 
ATOM     43  H   UNL A   1      42.319  27.688  29.186  1.00  0.00     0.167 HD
ATOM     44  C   UNL A   1      43.652  31.625  30.637  1.00  0.00     0.031 A 
ATOM     45  C   UNL A   1      42.686  25.084  28.244  1.00  0.00     0.031 A 
ATOM     46  C   UNL A   1      44.843  30.824  30.537  1.00  0.00     0.049 A 
ATOM     47  C   UNL A   1      44.055  25.621  28.571  1.00  0.00     0.074 A 
ATOM     48  C   UNL A   1      46.141  31.165  30.878  1.00  0.00     0.029 A 
ATOM     49  N   UNL A   1      44.883  29.521  30.062  1.00  0.00    -0.354 N 
ATOM     50  N   UNL A   1      44.387  26.799  29.047  1.00  0.00    -0.248 NA
ATOM     51  C   UNL A   1      45.193  24.720  28.343  1.00  0.00     0.031 C 
ATOM     52  C   UNL A   1      46.973  30.090  30.554  1.00  0.00     0.029 A 
ATOM     53  C   UNL A   1      46.185  29.051  30.083  1.00  0.00     0.049 A 
ATOM     54  H   UNL A   1      44.101  29.006  29.757  1.00  0.00     0.167 HD
ATOM     55  C   UNL A   1      45.768  26.763  29.216  1.00  0.00     0.074 A 
ATOM     56  C   UNL A   1      46.205  25.446  28.799  1.00  0.00     0.031 C 
ATOM     57  C   UNL A   1      46.598  27.729  29.679  1.00  0.00     0.031 A 
BRANCH  44  58
ATOM     58  C   UNL A   1      43.776  33.035  31.151  1.00  0.00    -0.014 A 
ATOM     59  C   UNL A   1      43.610  33.332  32.516  1.00  0.00     0.010 A 
ATOM     60  C   UNL A   1      44.119  34.072  30.263  1.00  0.00     0.010 A 
ATOM     61  C   UNL A   1      43.756  34.643  32.978  1.00  0.00     0.020 A 
ATOM     62  C   UNL A   1      44.294  35.379  30.727  1.00  0.00     0.020 A 
ATOM     63  C   UNL A   1      44.100  35.659  32.080  1.00  0.00     0.054 A 
BRANCH  63  64
ATOM     64  S   UNL A   1      44.321  37.342  32.717  1.00  0.00     0.124 S 
ATOM     65  O   UNL A   1      43.874  38.154  31.587  1.00  0.00    -0.237 OA
ATOM     66  O   UNL A   1      43.447  37.358  33.886  1.00  0.00    -0.237 OA
ATOM     67  O   UNL A   1      45.750  37.419  33.009  1.00  0.00    -0.744 OA
ENDBRANCH  63  64
ENDBRANCH  44  58
BRANCH  45  68
ATOM     68  C   UNL A   1      42.516  23.703  27.711  1.00  0.00    -0.014 A 
ATOM     69  C   UNL A   1      42.443  22.603  28.582  1.00  0.00     0.010 A 
ATOM     70  C   UNL A   1      42.445  23.480  26.323  1.00  0.00     0.010 A 
ATOM     71  C   UNL A   1      42.340  21.304  28.077  1.00  0.00     0.020 A 
ATOM     72  C   UNL A   1      42.305  22.185  25.815  1.00  0.00     0.020 A 
ATOM     73  C   UNL A   1      42.272  21.104  26.696  1.00  0.00     0.054 A 
BRANCH  73  74
ATOM     74  S   UNL A   1      42.117  19.410  26.064  1.00  0.00     0.124 S 
ATOM     75  O   UNL A   1      42.600  18.620  27.193  1.00  0.00    -0.237 OA
ATOM     76  O   UNL A   1      40.687  19.308  25.785  1.00  0.00    -0.237 OA
ATOM     77  O   UNL A   1      42.978  19.405  24.883  1.00  0.00    -0.744 OA
ENDBRANCH  73  74
ENDBRANCH  45  68
BRANCH  57  78
ATOM     78  C   UNL A   1      48.057  27.383  29.829  1.00  0.00    -0.014 A 
ATOM     79  C   UNL A   1      48.988  27.655  28.812  1.00  0.00     0.010 A 
ATOM     80  C   UNL A   1      48.509  26.833  31.044  1.00  0.00     0.010 A 
ATOM     81  C   UNL A   1      50.341  27.358  28.997  1.00  0.00     0.020 A 
ATOM     82  C   UNL A   1      49.865  26.566  31.245  1.00  0.00     0.020 A 
ATOM     83  C   UNL A   1      50.771  26.819  30.215  1.00  0.00     0.054 A 
BRANCH  83  84
ATOM     84  S   UNL A   1      52.540  26.498  30.449  1.00  0.00     0.124 S 
ATOM     85  O   UNL A   1      52.965  26.133  29.100  1.00  0.00    -0.237 OA
ATOM     86  O   UNL A   1      53.036  27.782  30.939  1.00  0.00    -0.237 OA
ATOM     87  O   UNL A   1      52.570  25.412  31.426  1.00  0.00    -0.744 OA
ENDBRANCH  83  84
ENDBRANCH  57  78
ENDBRANCH  31  32
ENDBRANCH  24  26
ENDBRANCH  23  24
ENDBRANCH   1  23
TORSDOF 17
ENDMDL
