MODEL 1
REMARK VINA RESULT:     -10.1      0.000      0.000
REMARK SMILES CCCCCCNC(=O)Oc1cccc(-c2ccc([C@@H](C)C(=O)OCCOC(=O)c3ccc(-c4c5nc(c(-c6ccc(S(=O)(=O)[O-])cc6)c6ccc([nH]6)c(-c6ccc(S(=O)(=O)[O-])cc6)c6nc(c(-c7ccc(S(=O)(=O)[O-])cc7)c7ccc4[nH]7)C=C6)C=C5)cc3)cc2C(F)(F)F)c1
REMARK SMILES IDX 20 1 21 2 19 3 16 4 17 5 91 6 18 7 90 8 15 9 11 10 12 11
REMARK SMILES IDX 96 12 13 13 14 14 10 15 8 16 7 17 9 19 6 20 5 21 4 22 3 23
REMARK SMILES IDX 2 24 1 25 92 26 93 27 94 28 95 29 22 30 23 31 24 32 25 33
REMARK SMILES IDX 26 34 27 35 28 36 29 37 30 38 31 39 89 40 32 41 88 42 33 43
REMARK SMILES IDX 34 44 35 45 82 46 36 47 87 48 81 49 83 50 37 51 86 52 80 53
REMARK SMILES IDX 79 54 38 56 68 57 49 58 67 59 50 60 53 61 66 62 84 63 51 64
REMARK SMILES IDX 52 65 65 67 85 68 54 69 39 70 40 71 48 72 41 73 47 74 42 75
REMARK SMILES IDX 43 76 44 77 45 78 46 79 69 80 70 81 78 82 71 83 77 84 72 85
REMARK SMILES IDX 73 86 74 87 75 88 76 89 55 90 56 91 64 92 57 93 63 94 58 95
REMARK SMILES IDX 59 96 60 97 61 98 62 99
REMARK H PARENT 7 18 83 55 53 66
REMARK Flexibility Score: inf
ROOT
ATOM      1  C   UNL A   1      41.331  22.565  26.942  1.00  0.00     0.126 C 
ATOM      2  C   UNL A   1      41.595  22.337  28.428  1.00  0.00     0.025 C 
ENDROOT
BRANCH   1   3
ATOM      3  C   UNL A   1      39.859  22.820  26.648  1.00  0.00    -0.033 A 
ATOM      4  C   UNL A   1      37.098  23.235  26.059  1.00  0.00    -0.006 A 
ATOM      5  C   UNL A   1      37.856  24.182  26.777  1.00  0.00     0.009 A 
ATOM      6  C   UNL A   1      37.746  22.061  25.621  1.00  0.00     0.064 A 
ATOM      7  C   UNL A   1      39.210  23.986  27.058  1.00  0.00     0.005 A 
ATOM      8  C   UNL A   1      39.112  21.869  25.934  1.00  0.00     0.018 A 
BRANCH   4   9
ATOM      9  C   UNL A   1      35.687  23.541  25.769  1.00  0.00    -0.014 A 
ATOM     10  C   UNL A   1      33.956  24.562  24.415  1.00  0.00     0.133 A 
ATOM     11  C   UNL A   1      32.972  24.158  25.315  1.00  0.00     0.047 A 
ATOM     12  C   UNL A   1      35.303  24.259  24.627  1.00  0.00     0.056 A 
ATOM     13  C   UNL A   1      33.336  23.423  26.438  1.00  0.00     0.004 A 
ATOM     14  C   UNL A   1      34.681  23.123  26.663  1.00  0.00     0.009 A 
BRANCH  10  15
ATOM     15  O   UNL A   1      33.546  25.416  23.377  1.00  0.00    -0.410 OA
BRANCH  15  16
ATOM     16  C   UNL A   1      33.009  24.859  22.227  1.00  0.00     0.412 C 
ATOM     17  N   UNL A   1      31.821  25.432  21.862  1.00  0.00    -0.321 N 
ATOM     18  H   UNL A   1      31.393  25.078  21.048  1.00  0.00     0.167 HD
ATOM     19  O   UNL A   1      33.491  23.935  21.583  1.00  0.00    -0.224 OA
BRANCH  17  20
ATOM     20  C   UNL A   1      31.124  26.506  22.545  1.00  0.00     0.119 C 
BRANCH  20  21
ATOM     21  C   UNL A   1      31.997  27.746  22.726  1.00  0.00     0.021 C 
BRANCH  21  22
ATOM     22  C   UNL A   1      31.874  28.435  24.091  1.00  0.00     0.002 C 
BRANCH  22  23
ATOM     23  C   UNL A   1      31.639  27.505  25.287  1.00  0.00    -0.000 C 
BRANCH  23  24
ATOM     24  C   UNL A   1      32.503  27.785  26.518  1.00  0.00    -0.003 C 
ATOM     25  C   UNL A   1      31.724  28.381  27.680  1.00  0.00     0.004 C 
ENDBRANCH  23  24
ENDBRANCH  22  23
ENDBRANCH  21  22
ENDBRANCH  20  21
ENDBRANCH  17  20
ENDBRANCH  15  16
ENDBRANCH  10  15
ENDBRANCH   4   9
BRANCH   6  26
ATOM     26  C   UNL A   1      37.043  20.968  24.843  1.00  0.00     0.417 C 
ATOM     27  F   UNL A   1      36.037  20.385  25.561  1.00  0.00    -0.166 F 
ATOM     28  F   UNL A   1      36.458  21.429  23.704  1.00  0.00    -0.166 F 
ATOM     29  F   UNL A   1      37.845  19.932  24.471  1.00  0.00    -0.166 F 
ENDBRANCH   6  26
ENDBRANCH   1   3
BRANCH   1  30
ATOM     30  C   UNL A   1      42.004  21.471  26.119  1.00  0.00     0.313 C 
ATOM     31  O   UNL A   1      41.818  20.280  26.346  1.00  0.00    -0.252 OA
BRANCH  30  32
ATOM     32  O   UNL A   1      42.768  21.942  25.100  1.00  0.00    -0.462 OA
BRANCH  32  33
ATOM     33  C   UNL A   1      43.808  22.876  25.448  1.00  0.00     0.274 C 
BRANCH  33  34
ATOM     34  C   UNL A   1      43.563  24.249  24.816  1.00  0.00     0.275 C 
BRANCH  34  35
ATOM     35  O   UNL A   1      43.011  25.177  25.766  1.00  0.00    -0.458 OA
BRANCH  35  36
ATOM     36  C   UNL A   1      43.852  26.166  26.149  1.00  0.00     0.338 C 
ATOM     37  O   UNL A   1      44.890  26.503  25.607  1.00  0.00    -0.246 OA
BRANCH  36  38
ATOM     38  C   UNL A   1      43.270  26.906  27.278  1.00  0.00     0.060 A 
ATOM     39  C   UNL A   1      43.669  28.231  27.460  1.00  0.00     0.016 A 
ATOM     40  C   UNL A   1      42.427  26.283  28.199  1.00  0.00     0.016 A 
ATOM     41  C   UNL A   1      43.250  28.940  28.582  1.00  0.00     0.010 A 
ATOM     42  C   UNL A   1      41.996  26.999  29.321  1.00  0.00     0.010 A 
ATOM     43  C   UNL A   1      42.421  28.324  29.528  1.00  0.00    -0.014 A 
BRANCH  43  44
ATOM     44  C   UNL A   1      42.055  29.062  30.760  1.00  0.00     0.031 A 
ATOM     45  C   UNL A   1      40.815  29.911  30.784  1.00  0.00     0.074 A 
ATOM     46  C   UNL A   1      42.815  28.940  31.865  1.00  0.00     0.049 A 
ATOM     47  N   UNL A   1      40.343  30.656  31.750  1.00  0.00    -0.248 NA
ATOM     48  C   UNL A   1      40.001  29.925  29.558  1.00  0.00     0.031 C 
ATOM     49  C   UNL A   1      44.019  28.113  31.974  1.00  0.00     0.029 A 
ATOM     50  N   UNL A   1      42.683  29.506  33.107  1.00  0.00    -0.354 N 
ATOM     51  C   UNL A   1      39.189  31.243  31.247  1.00  0.00     0.074 A 
ATOM     52  C   UNL A   1      39.042  30.781  29.883  1.00  0.00     0.031 C 
ATOM     53  C   UNL A   1      44.511  28.223  33.219  1.00  0.00     0.029 A 
ATOM     54  C   UNL A   1      43.683  29.155  33.980  1.00  0.00     0.049 A 
ATOM     55  H   UNL A   1      41.942  30.108  33.349  1.00  0.00     0.167 HD
ATOM     56  C   UNL A   1      38.331  32.090  31.863  1.00  0.00     0.031 A 
ATOM     57  C   UNL A   1      43.918  29.553  35.245  1.00  0.00     0.031 A 
ATOM     58  C   UNL A   1      38.480  32.544  33.221  1.00  0.00     0.049 A 
ATOM     59  C   UNL A   1      42.973  30.522  35.898  1.00  0.00     0.074 A 
ATOM     60  C   UNL A   1      37.660  33.397  33.941  1.00  0.00     0.029 A 
ATOM     61  N   UNL A   1      39.520  32.183  34.066  1.00  0.00    -0.354 N 
ATOM     62  N   UNL A   1      41.886  31.069  35.406  1.00  0.00    -0.248 NA
ATOM     63  C   UNL A   1      43.283  30.925  37.276  1.00  0.00     0.031 C 
ATOM     64  C   UNL A   1      38.226  33.582  35.208  1.00  0.00     0.029 A 
ATOM     65  C   UNL A   1      39.373  32.808  35.293  1.00  0.00     0.049 A 
ATOM     66  H   UNL A   1      40.254  31.572  33.829  1.00  0.00     0.167 HD
ATOM     67  C   UNL A   1      41.373  31.868  36.421  1.00  0.00     0.074 A 
ATOM     68  C   UNL A   1      42.259  31.721  37.558  1.00  0.00     0.031 C 
ATOM     69  C   UNL A   1      40.268  32.654  36.412  1.00  0.00     0.031 A 
BRANCH  56  70
ATOM     70  C   UNL A   1      37.173  32.610  31.054  1.00  0.00    -0.014 A 
ATOM     71  C   UNL A   1      35.890  32.045  31.167  1.00  0.00     0.010 A 
ATOM     72  C   UNL A   1      37.371  33.692  30.177  1.00  0.00     0.010 A 
ATOM     73  C   UNL A   1      34.836  32.524  30.382  1.00  0.00     0.020 A 
ATOM     74  C   UNL A   1      36.315  34.187  29.409  1.00  0.00     0.020 A 
ATOM     75  C   UNL A   1      35.058  33.586  29.500  1.00  0.00     0.054 A 
BRANCH  75  76
ATOM     76  S   UNL A   1      33.675  34.189  28.491  1.00  0.00     0.124 S 
ATOM     77  O   UNL A   1      34.332  35.176  27.638  1.00  0.00    -0.237 OA
ATOM     78  O   UNL A   1      33.218  32.979  27.812  1.00  0.00    -0.237 OA
ATOM     79  O   UNL A   1      32.743  34.738  29.473  1.00  0.00    -0.744 OA
ENDBRANCH  75  76
ENDBRANCH  56  70
BRANCH  57  80
ATOM     80  C   UNL A   1      45.118  29.048  35.965  1.00  0.00    -0.014 A 
ATOM     81  C   UNL A   1      46.353  29.710  35.856  1.00  0.00     0.010 A 
ATOM     82  C   UNL A   1      45.021  27.911  36.788  1.00  0.00     0.010 A 
ATOM     83  C   UNL A   1      47.471  29.238  36.550  1.00  0.00     0.020 A 
ATOM     84  C   UNL A   1      46.129  27.451  37.502  1.00  0.00     0.020 A 
ATOM     85  C   UNL A   1      47.352  28.113  37.371  1.00  0.00     0.054 A 
BRANCH  85  86
ATOM     86  S   UNL A   1      48.796  27.555  38.318  1.00  0.00     0.124 S 
ATOM     87  O   UNL A   1      48.898  28.582  39.349  1.00  0.00    -0.237 OA
ATOM     88  O   UNL A   1      48.382  26.232  38.780  1.00  0.00    -0.237 OA
ATOM     89  O   UNL A   1      49.871  27.551  37.327  1.00  0.00    -0.744 OA
ENDBRANCH  85  86
ENDBRANCH  57  80
BRANCH  69  90
ATOM     90  C   UNL A   1      39.941  33.395  37.679  1.00  0.00    -0.014 A 
ATOM     91  C   UNL A   1      39.123  32.819  38.668  1.00  0.00     0.010 A 
ATOM     92  C   UNL A   1      40.495  34.669  37.903  1.00  0.00     0.010 A 
ATOM     93  C   UNL A   1      38.840  33.517  39.844  1.00  0.00     0.020 A 
ATOM     94  C   UNL A   1      40.233  35.360  39.088  1.00  0.00     0.020 A 
ATOM     95  C   UNL A   1      39.394  34.786  40.045  1.00  0.00     0.054 A 
BRANCH  95  96
ATOM     96  S   UNL A   1      39.045  35.660  41.597  1.00  0.00     0.124 S 
ATOM     97  O   UNL A   1      39.605  36.983  41.331  1.00  0.00    -0.237 OA
ATOM     98  O   UNL A   1      37.589  35.600  41.682  1.00  0.00    -0.237 OA
ATOM     99  O   UNL A   1      39.755  34.873  42.603  1.00  0.00    -0.744 OA
ENDBRANCH  95  96
ENDBRANCH  69  90
ENDBRANCH  43  44
ENDBRANCH  36  38
ENDBRANCH  35  36
ENDBRANCH  34  35
ENDBRANCH  33  34
ENDBRANCH  32  33
ENDBRANCH  30  32
ENDBRANCH   1  30
TORSDOF 24
ENDMDL
MODEL 2
REMARK VINA RESULT:      -9.9      6.597     12.171
REMARK SMILES CCCCCCNC(=O)Oc1cccc(-c2ccc([C@@H](C)C(=O)OCCOC(=O)c3ccc(-c4c5nc(c(-c6ccc(S(=O)(=O)[O-])cc6)c6ccc([nH]6)c(-c6ccc(S(=O)(=O)[O-])cc6)c6nc(c(-c7ccc(S(=O)(=O)[O-])cc7)c7ccc4[nH]7)C=C6)C=C5)cc3)cc2C(F)(F)F)c1
REMARK SMILES IDX 20 1 21 2 19 3 16 4 17 5 91 6 18 7 90 8 15 9 11 10 12 11
REMARK SMILES IDX 96 12 13 13 14 14 10 15 8 16 7 17 9 19 6 20 5 21 4 22 3 23
REMARK SMILES IDX 2 24 1 25 92 26 93 27 94 28 95 29 22 30 23 31 24 32 25 33
REMARK SMILES IDX 26 34 27 35 28 36 29 37 30 38 31 39 89 40 32 41 88 42 33 43
REMARK SMILES IDX 34 44 35 45 82 46 36 47 87 48 81 49 83 50 37 51 86 52 80 53
REMARK SMILES IDX 79 54 38 56 68 57 49 58 67 59 50 60 53 61 66 62 84 63 51 64
REMARK SMILES IDX 52 65 65 67 85 68 54 69 39 70 40 71 48 72 41 73 47 74 42 75
REMARK SMILES IDX 43 76 44 77 45 78 46 79 69 80 70 81 78 82 71 83 77 84 72 85
REMARK SMILES IDX 73 86 74 87 75 88 76 89 55 90 56 91 64 92 57 93 63 94 58 95
REMARK SMILES IDX 59 96 60 97 61 98 62 99
REMARK H PARENT 7 18 83 55 53 66
REMARK Flexibility Score: inf
ROOT
ATOM      1  C   UNL A   1      32.919  29.801  25.690  1.00  0.00     0.126 C 
ATOM      2  C   UNL A   1      31.564  30.502  25.761  1.00  0.00     0.025 C 
ENDROOT
BRANCH   1   3
ATOM      3  C   UNL A   1      32.804  28.370  25.184  1.00  0.00    -0.033 A 
ATOM      4  C   UNL A   1      32.515  25.692  24.241  1.00  0.00    -0.006 A 
ATOM      5  C   UNL A   1      33.781  26.274  24.453  1.00  0.00     0.009 A 
ATOM      6  C   UNL A   1      31.372  26.472  24.519  1.00  0.00     0.064 A 
ATOM      7  C   UNL A   1      33.926  27.581  24.924  1.00  0.00     0.005 A 
ATOM      8  C   UNL A   1      31.537  27.801  24.974  1.00  0.00     0.018 A 
BRANCH   4   9
ATOM      9  C   UNL A   1      32.453  24.294  23.784  1.00  0.00    -0.014 A 
ATOM     10  C   UNL A   1      32.281  21.913  24.205  1.00  0.00     0.133 A 
ATOM     11  C   UNL A   1      32.419  21.633  22.847  1.00  0.00     0.047 A 
ATOM     12  C   UNL A   1      32.292  23.226  24.681  1.00  0.00     0.056 A 
ATOM     13  C   UNL A   1      32.555  22.683  21.945  1.00  0.00     0.004 A 
ATOM     14  C   UNL A   1      32.576  23.999  22.411  1.00  0.00     0.009 A 
BRANCH  10  15
ATOM     15  O   UNL A   1      32.288  20.812  25.077  1.00  0.00    -0.410 OA
BRANCH  15  16
ATOM     16  C   UNL A   1      32.958  19.661  24.693  1.00  0.00     0.412 C 
ATOM     17  N   UNL A   1      34.295  19.700  24.982  1.00  0.00    -0.321 N 
ATOM     18  H   UNL A   1      34.822  18.906  24.734  1.00  0.00     0.167 HD
ATOM     19  O   UNL A   1      32.460  18.693  24.129  1.00  0.00    -0.224 OA
BRANCH  17  20
ATOM     20  C   UNL A   1      35.018  20.787  25.615  1.00  0.00     0.119 C 
BRANCH  20  21
ATOM     21  C   UNL A   1      35.894  21.557  24.630  1.00  0.00     0.021 C 
BRANCH  21  22
ATOM     22  C   UNL A   1      37.188  22.133  25.222  1.00  0.00     0.002 C 
BRANCH  22  23
ATOM     23  C   UNL A   1      37.215  23.655  25.404  1.00  0.00    -0.000 C 
BRANCH  23  24
ATOM     24  C   UNL A   1      37.941  24.155  26.656  1.00  0.00    -0.003 C 
ATOM     25  C   UNL A   1      39.441  24.308  26.462  1.00  0.00     0.004 C 
ENDBRANCH  23  24
ENDBRANCH  22  23
ENDBRANCH  21  22
ENDBRANCH  20  21
ENDBRANCH  17  20
ENDBRANCH  15  16
ENDBRANCH  10  15
ENDBRANCH   4   9
BRANCH   6  26
ATOM     26  C   UNL A   1      29.957  25.964  24.332  1.00  0.00     0.417 C 
ATOM     27  F   UNL A   1      29.404  25.526  25.502  1.00  0.00    -0.166 F 
ATOM     28  F   UNL A   1      29.113  26.926  23.869  1.00  0.00    -0.166 F 
ATOM     29  F   UNL A   1      29.841  24.908  23.480  1.00  0.00    -0.166 F 
ENDBRANCH   6  26
ENDBRANCH   1   3
BRANCH   1  30
ATOM     30  C   UNL A   1      33.675  29.996  27.000  1.00  0.00     0.313 C 
ATOM     31  O   UNL A   1      33.506  29.256  27.964  1.00  0.00    -0.252 OA
BRANCH  30  32
ATOM     32  O   UNL A   1      34.573  31.014  26.971  1.00  0.00    -0.462 OA
BRANCH  32  33
ATOM     33  C   UNL A   1      34.874  31.649  28.228  1.00  0.00     0.274 C 
BRANCH  33  34
ATOM     34  C   UNL A   1      36.338  31.436  28.627  1.00  0.00     0.275 C 
BRANCH  34  35
ATOM     35  O   UNL A   1      36.810  30.137  28.229  1.00  0.00    -0.458 OA
BRANCH  35  36
ATOM     36  C   UNL A   1      37.471  29.453  29.192  1.00  0.00     0.338 C 
ATOM     37  O   UNL A   1      37.014  29.024  30.237  1.00  0.00    -0.246 OA
BRANCH  36  38
ATOM     38  C   UNL A   1      38.841  29.164  28.748  1.00  0.00     0.060 A 
ATOM     39  C   UNL A   1      39.781  28.823  29.721  1.00  0.00     0.016 A 
ATOM     40  C   UNL A   1      39.222  29.322  27.415  1.00  0.00     0.016 A 
ATOM     41  C   UNL A   1      41.119  28.662  29.376  1.00  0.00     0.010 A 
ATOM     42  C   UNL A   1      40.566  29.150  27.066  1.00  0.00     0.010 A 
ATOM     43  C   UNL A   1      41.524  28.839  28.047  1.00  0.00    -0.014 A 
BRANCH  43  44
ATOM     44  C   UNL A   1      42.965  28.751  27.711  1.00  0.00     0.031 A 
ATOM     45  C   UNL A   1      43.523  27.480  27.135  1.00  0.00     0.074 A 
ATOM     46  C   UNL A   1      43.760  29.823  27.888  1.00  0.00     0.049 A 
ATOM     47  N   UNL A   1      44.757  27.195  26.806  1.00  0.00    -0.248 NA
ATOM     48  C   UNL A   1      42.568  26.386  26.901  1.00  0.00     0.031 C 
ATOM     49  C   UNL A   1      43.324  31.122  28.402  1.00  0.00     0.029 A 
ATOM     50  N   UNL A   1      45.101  29.989  27.650  1.00  0.00    -0.354 N 
ATOM     51  C   UNL A   1      44.733  25.885  26.345  1.00  0.00     0.074 A 
ATOM     52  C   UNL A   1      43.364  25.425  26.452  1.00  0.00     0.031 C 
ATOM     53  C   UNL A   1      44.377  31.955  28.434  1.00  0.00     0.029 A 
ATOM     54  C   UNL A   1      45.567  31.237  27.983  1.00  0.00     0.049 A 
ATOM     55  H   UNL A   1      45.674  29.281  27.277  1.00  0.00     0.167 HD
ATOM     56  C   UNL A   1      45.757  25.133  25.875  1.00  0.00     0.031 A 
ATOM     57  C   UNL A   1      46.815  31.742  27.946  1.00  0.00     0.031 A 
ATOM     58  C   UNL A   1      47.115  25.595  25.768  1.00  0.00     0.049 A 
ATOM     59  C   UNL A   1      47.943  30.878  27.455  1.00  0.00     0.074 A 
ATOM     60  C   UNL A   1      48.224  24.913  25.296  1.00  0.00     0.029 A 
ATOM     61  N   UNL A   1      47.552  26.860  26.136  1.00  0.00    -0.354 N 
ATOM     62  N   UNL A   1      47.903  29.639  27.024  1.00  0.00    -0.248 NA
ATOM     63  C   UNL A   1      49.283  31.480  27.444  1.00  0.00     0.031 C 
ATOM     64  C   UNL A   1      49.339  25.752  25.418  1.00  0.00     0.029 A 
ATOM     65  C   UNL A   1      48.916  26.973  25.920  1.00  0.00     0.049 A 
ATOM     66  H   UNL A   1      46.977  27.572  26.498  1.00  0.00     0.167 HD
ATOM     67  C   UNL A   1      49.209  29.319  26.673  1.00  0.00     0.074 A 
ATOM     68  C   UNL A   1      50.012  30.498  26.928  1.00  0.00     0.031 C 
ATOM     69  C   UNL A   1      49.700  28.153  26.185  1.00  0.00     0.031 A 
BRANCH  56  70
ATOM     70  C   UNL A   1      45.447  23.714  25.479  1.00  0.00    -0.014 A 
ATOM     71  C   UNL A   1      45.063  23.389  24.166  1.00  0.00     0.010 A 
ATOM     72  C   UNL A   1      45.556  22.688  26.436  1.00  0.00     0.010 A 
ATOM     73  C   UNL A   1      44.748  22.068  23.829  1.00  0.00     0.020 A 
ATOM     74  C   UNL A   1      45.265  21.365  26.096  1.00  0.00     0.020 A 
ATOM     75  C   UNL A   1      44.843  21.066  24.799  1.00  0.00     0.054 A 
BRANCH  75  76
ATOM     76  S   UNL A   1      44.428  19.360  24.338  1.00  0.00     0.124 S 
ATOM     77  O   UNL A   1      44.544  19.405  22.882  1.00  0.00    -0.237 OA
ATOM     78  O   UNL A   1      45.456  18.581  25.024  1.00  0.00    -0.237 OA
ATOM     79  O   UNL A   1      43.072  19.183  24.849  1.00  0.00    -0.744 OA
ENDBRANCH  75  76
ENDBRANCH  56  70
BRANCH  57  80
ATOM     80  C   UNL A   1      47.061  33.133  28.413  1.00  0.00    -0.014 A 
ATOM     81  C   UNL A   1      47.437  33.389  29.743  1.00  0.00     0.010 A 
ATOM     82  C   UNL A   1      46.944  34.209  27.515  1.00  0.00     0.010 A 
ATOM     83  C   UNL A   1      47.682  34.699  30.168  1.00  0.00     0.020 A 
ATOM     84  C   UNL A   1      47.213  35.516  27.930  1.00  0.00     0.020 A 
ATOM     85  C   UNL A   1      47.572  35.754  29.258  1.00  0.00     0.054 A 
BRANCH  85  86
ATOM     86  S   UNL A   1      47.960  37.438  29.810  1.00  0.00     0.124 S 
ATOM     87  O   UNL A   1      48.961  37.854  28.833  1.00  0.00    -0.237 OA
ATOM     88  O   UNL A   1      46.666  38.110  29.716  1.00  0.00    -0.237 OA
ATOM     89  O   UNL A   1      48.454  37.244  31.172  1.00  0.00    -0.744 OA
ENDBRANCH  85  86
ENDBRANCH  57  80
BRANCH  69  90
ATOM     90  C   UNL A   1      51.169  28.104  25.869  1.00  0.00    -0.014 A 
ATOM     91  C   UNL A   1      52.084  27.513  26.760  1.00  0.00     0.010 A 
ATOM     92  C   UNL A   1      51.635  28.617  24.645  1.00  0.00     0.010 A 
ATOM     93  C   UNL A   1      53.444  27.465  26.444  1.00  0.00     0.020 A 
ATOM     94  C   UNL A   1      52.991  28.551  24.317  1.00  0.00     0.020 A 
ATOM     95  C   UNL A   1      53.890  27.989  25.226  1.00  0.00     0.054 A 
BRANCH  95  96
ATOM     96  S   UNL A   1      55.655  27.882  24.818  1.00  0.00     0.124 S 
ATOM     97  O   UNL A   1      56.247  27.575  26.118  1.00  0.00    -0.237 OA
ATOM     98  O   UNL A   1      55.696  26.800  23.838  1.00  0.00    -0.237 OA
ATOM     99  O   UNL A   1      55.967  29.207  24.287  1.00  0.00    -0.744 OA
ENDBRANCH  95  96
ENDBRANCH  69  90
ENDBRANCH  43  44
ENDBRANCH  36  38
ENDBRANCH  35  36
ENDBRANCH  34  35
ENDBRANCH  33  34
ENDBRANCH  32  33
ENDBRANCH  30  32
ENDBRANCH   1  30
TORSDOF 24
ENDMDL
MODEL 3
REMARK VINA RESULT:      -9.8      5.935     11.935
REMARK SMILES CCCCCCNC(=O)Oc1cccc(-c2ccc([C@@H](C)C(=O)OCCOC(=O)c3ccc(-c4c5nc(c(-c6ccc(S(=O)(=O)[O-])cc6)c6ccc([nH]6)c(-c6ccc(S(=O)(=O)[O-])cc6)c6nc(c(-c7ccc(S(=O)(=O)[O-])cc7)c7ccc4[nH]7)C=C6)C=C5)cc3)cc2C(F)(F)F)c1
REMARK SMILES IDX 20 1 21 2 19 3 16 4 17 5 91 6 18 7 90 8 15 9 11 10 12 11
REMARK SMILES IDX 96 12 13 13 14 14 10 15 8 16 7 17 9 19 6 20 5 21 4 22 3 23
REMARK SMILES IDX 2 24 1 25 92 26 93 27 94 28 95 29 22 30 23 31 24 32 25 33
REMARK SMILES IDX 26 34 27 35 28 36 29 37 30 38 31 39 89 40 32 41 88 42 33 43
REMARK SMILES IDX 34 44 35 45 82 46 36 47 87 48 81 49 83 50 37 51 86 52 80 53
REMARK SMILES IDX 79 54 38 56 68 57 49 58 67 59 50 60 53 61 66 62 84 63 51 64
REMARK SMILES IDX 52 65 65 67 85 68 54 69 39 70 40 71 48 72 41 73 47 74 42 75
REMARK SMILES IDX 43 76 44 77 45 78 46 79 69 80 70 81 78 82 71 83 77 84 72 85
REMARK SMILES IDX 73 86 74 87 75 88 76 89 55 90 56 91 64 92 57 93 63 94 58 95
REMARK SMILES IDX 59 96 60 97 61 98 62 99
REMARK H PARENT 7 18 83 55 53 66
REMARK Flexibility Score: inf
ROOT
ATOM      1  C   UNL A   1      33.222  31.402  26.790  1.00  0.00     0.126 C 
ATOM      2  C   UNL A   1      31.888  31.868  27.369  1.00  0.00     0.025 C 
ENDROOT
BRANCH   1   3
ATOM      3  C   UNL A   1      33.160  29.972  26.271  1.00  0.00    -0.033 A 
ATOM      4  C   UNL A   1      32.979  27.308  25.265  1.00  0.00    -0.006 A 
ATOM      5  C   UNL A   1      34.022  27.710  26.123  1.00  0.00     0.009 A 
ATOM      6  C   UNL A   1      32.003  28.264  24.915  1.00  0.00     0.064 A 
ATOM      7  C   UNL A   1      34.108  29.010  26.625  1.00  0.00     0.005 A 
ATOM      8  C   UNL A   1      32.117  29.583  25.415  1.00  0.00     0.018 A 
BRANCH   4   9
ATOM      9  C   UNL A   1      32.941  25.906  24.816  1.00  0.00    -0.014 A 
ATOM     10  C   UNL A   1      32.281  23.591  25.092  1.00  0.00     0.133 A 
ATOM     11  C   UNL A   1      32.973  23.225  23.940  1.00  0.00     0.047 A 
ATOM     12  C   UNL A   1      32.254  24.915  25.534  1.00  0.00     0.056 A 
ATOM     13  C   UNL A   1      33.637  24.201  23.205  1.00  0.00     0.004 A 
ATOM     14  C   UNL A   1      33.624  25.526  23.643  1.00  0.00     0.009 A 
BRANCH  10  15
ATOM     15  O   UNL A   1      31.749  22.544  25.864  1.00  0.00    -0.410 OA
BRANCH  15  16
ATOM     16  C   UNL A   1      32.515  22.017  26.892  1.00  0.00     0.412 C 
ATOM     17  N   UNL A   1      33.011  20.775  26.605  1.00  0.00    -0.321 N 
ATOM     18  H   UNL A   1      33.567  20.352  27.299  1.00  0.00     0.167 HD
ATOM     19  O   UNL A   1      32.735  22.553  27.973  1.00  0.00    -0.224 OA
BRANCH  17  20
ATOM     20  C   UNL A   1      32.806  20.015  25.386  1.00  0.00     0.119 C 
BRANCH  20  21
ATOM     21  C   UNL A   1      32.685  18.515  25.647  1.00  0.00     0.021 C 
BRANCH  21  22
ATOM     22  C   UNL A   1      32.519  17.647  24.392  1.00  0.00     0.002 C 
BRANCH  22  23
ATOM     23  C   UNL A   1      33.792  17.413  23.572  1.00  0.00    -0.000 C 
BRANCH  23  24
ATOM     24  C   UNL A   1      35.067  17.181  24.386  1.00  0.00    -0.003 C 
ATOM     25  C   UNL A   1      35.038  15.894  25.196  1.00  0.00     0.004 C 
ENDBRANCH  23  24
ENDBRANCH  22  23
ENDBRANCH  21  22
ENDBRANCH  20  21
ENDBRANCH  17  20
ENDBRANCH  15  16
ENDBRANCH  10  15
ENDBRANCH   4   9
BRANCH   6  26
ATOM     26  C   UNL A   1      30.834  27.959  24.001  1.00  0.00     0.417 C 
ATOM     27  F   UNL A   1      29.948  27.085  24.566  1.00  0.00    -0.166 F 
ATOM     28  F   UNL A   1      30.106  29.067  23.694  1.00  0.00    -0.166 F 
ATOM     29  F   UNL A   1      31.176  27.383  22.815  1.00  0.00    -0.166 F 
ENDBRANCH   6  26
ENDBRANCH   1   3
BRANCH   1  30
ATOM     30  C   UNL A   1      34.351  31.718  27.764  1.00  0.00     0.313 C 
ATOM     31  O   UNL A   1      35.531  31.560  27.465  1.00  0.00    -0.252 OA
BRANCH  30  32
ATOM     32  O   UNL A   1      33.929  32.233  28.947  1.00  0.00    -0.462 OA
BRANCH  32  33
ATOM     33  C   UNL A   1      34.839  33.115  29.633  1.00  0.00     0.274 C 
BRANCH  33  34
ATOM     34  C   UNL A   1      35.342  32.497  30.940  1.00  0.00     0.275 C 
BRANCH  34  35
ATOM     35  O   UNL A   1      36.058  31.272  30.704  1.00  0.00    -0.458 OA
BRANCH  35  36
ATOM     36  C   UNL A   1      37.011  30.985  31.621  1.00  0.00     0.338 C 
ATOM     37  O   UNL A   1      36.912  31.050  32.834  1.00  0.00    -0.246 OA
BRANCH  36  38
ATOM     38  C   UNL A   1      38.198  30.436  30.951  1.00  0.00     0.060 A 
ATOM     39  C   UNL A   1      39.255  30.005  31.754  1.00  0.00     0.016 A 
ATOM     40  C   UNL A   1      38.315  30.437  29.561  1.00  0.00     0.016 A 
ATOM     41  C   UNL A   1      40.452  29.594  31.174  1.00  0.00     0.010 A 
ATOM     42  C   UNL A   1      39.514  30.013  28.977  1.00  0.00     0.010 A 
ATOM     43  C   UNL A   1      40.594  29.609  29.781  1.00  0.00    -0.014 A 
BRANCH  43  44
ATOM     44  C   UNL A   1      41.903  29.253  29.183  1.00  0.00     0.031 A 
ATOM     45  C   UNL A   1      42.130  27.867  28.650  1.00  0.00     0.074 A 
ATOM     46  C   UNL A   1      42.871  30.185  29.086  1.00  0.00     0.049 A 
ATOM     47  N   UNL A   1      43.210  27.352  28.120  1.00  0.00    -0.248 NA
ATOM     48  C   UNL A   1      40.993  26.936  28.724  1.00  0.00     0.031 C 
ATOM     49  C   UNL A   1      42.752  31.574  29.532  1.00  0.00     0.029 A 
ATOM     50  N   UNL A   1      44.141  30.102  28.576  1.00  0.00    -0.354 N 
ATOM     51  C   UNL A   1      42.893  26.034  27.816  1.00  0.00     0.074 A 
ATOM     52  C   UNL A   1      41.523  25.823  28.236  1.00  0.00     0.031 C 
ATOM     53  C   UNL A   1      43.903  32.215  29.270  1.00  0.00     0.029 A 
ATOM     54  C   UNL A   1      44.850  31.275  28.675  1.00  0.00     0.049 A 
ATOM     55  H   UNL A   1      44.510  29.282  28.177  1.00  0.00     0.167 HD
ATOM     56  C   UNL A   1      43.670  25.087  27.239  1.00  0.00     0.031 A 
ATOM     57  C   UNL A   1      46.124  31.556  28.344  1.00  0.00     0.031 A 
ATOM     58  C   UNL A   1      45.030  25.303  26.821  1.00  0.00     0.049 A 
ATOM     59  C   UNL A   1      46.981  30.479  27.739  1.00  0.00     0.074 A 
ATOM     60  C   UNL A   1      45.900  24.409  26.220  1.00  0.00     0.029 A 
ATOM     61  N   UNL A   1      45.720  26.499  26.960  1.00  0.00    -0.354 N 
ATOM     62  N   UNL A   1      46.665  29.236  27.459  1.00  0.00    -0.248 NA
ATOM     63  C   UNL A   1      48.364  30.842  27.402  1.00  0.00     0.031 C 
ATOM     64  C   UNL A   1      47.129  25.053  26.032  1.00  0.00     0.029 A 
ATOM     65  C   UNL A   1      47.009  26.362  26.472  1.00  0.00     0.049 A 
ATOM     66  H   UNL A   1      45.348  27.323  27.347  1.00  0.00     0.167 HD
ATOM     67  C   UNL A   1      47.805  28.674  26.898  1.00  0.00     0.074 A 
ATOM     68  C   UNL A   1      48.812  29.715  26.864  1.00  0.00     0.031 C 
ATOM     69  C   UNL A   1      48.001  27.408  26.451  1.00  0.00     0.031 A 
BRANCH  56  70
ATOM     70  C   UNL A   1      43.073  23.716  27.066  1.00  0.00    -0.014 A 
ATOM     71  C   UNL A   1      42.361  23.370  25.904  1.00  0.00     0.010 A 
ATOM     72  C   UNL A   1      43.242  22.754  28.079  1.00  0.00     0.010 A 
ATOM     73  C   UNL A   1      41.788  22.101  25.778  1.00  0.00     0.020 A 
ATOM     74  C   UNL A   1      42.690  21.477  27.946  1.00  0.00     0.020 A 
ATOM     75  C   UNL A   1      41.948  21.165  26.805  1.00  0.00     0.054 A 
BRANCH  75  76
ATOM     76  S   UNL A   1      41.195  19.525  26.619  1.00  0.00     0.124 S 
ATOM     77  O   UNL A   1      40.932  19.155  28.008  1.00  0.00    -0.237 OA
ATOM     78  O   UNL A   1      40.010  19.802  25.811  1.00  0.00    -0.237 OA
ATOM     79  O   UNL A   1      42.231  18.741  25.952  1.00  0.00    -0.744 OA
ENDBRANCH  75  76
ENDBRANCH  56  70
BRANCH  57  80
ATOM     80  C   UNL A   1      46.669  32.916  28.602  1.00  0.00    -0.014 A 
ATOM     81  C   UNL A   1      47.315  33.213  29.814  1.00  0.00     0.010 A 
ATOM     82  C   UNL A   1      46.566  33.915  27.617  1.00  0.00     0.010 A 
ATOM     83  C   UNL A   1      47.840  34.490  30.040  1.00  0.00     0.020 A 
ATOM     84  C   UNL A   1      47.110  35.184  27.830  1.00  0.00     0.020 A 
ATOM     85  C   UNL A   1      47.737  35.467  29.046  1.00  0.00     0.054 A 
BRANCH  85  86
ATOM     86  S   UNL A   1      48.483  37.096  29.330  1.00  0.00     0.124 S 
ATOM     87  O   UNL A   1      48.965  37.445  27.998  1.00  0.00    -0.237 OA
ATOM     88  O   UNL A   1      47.353  37.882  29.820  1.00  0.00    -0.237 OA
ATOM     89  O   UNL A   1      49.520  36.826  30.324  1.00  0.00    -0.744 OA
ENDBRANCH  85  86
ENDBRANCH  57  80
BRANCH  69  90
ATOM     90  C   UNL A   1      49.347  27.087  25.864  1.00  0.00    -0.014 A 
ATOM     91  C   UNL A   1      50.356  26.491  26.642  1.00  0.00     0.010 A 
ATOM     92  C   UNL A   1      49.592  27.346  24.503  1.00  0.00     0.010 A 
ATOM     93  C   UNL A   1      51.596  26.187  26.076  1.00  0.00     0.020 A 
ATOM     94  C   UNL A   1      50.823  27.023  23.928  1.00  0.00     0.020 A 
ATOM     95  C   UNL A   1      51.824  26.460  24.723  1.00  0.00     0.054 A 
BRANCH  95  96
ATOM     96  S   UNL A   1      53.429  26.023  23.997  1.00  0.00     0.124 S 
ATOM     97  O   UNL A   1      53.715  24.745  24.644  1.00  0.00    -0.237 OA
ATOM     98  O   UNL A   1      53.131  25.952  22.569  1.00  0.00    -0.237 OA
ATOM     99  O   UNL A   1      54.298  27.130  24.391  1.00  0.00    -0.744 OA
ENDBRANCH  95  96
ENDBRANCH  69  90
ENDBRANCH  43  44
ENDBRANCH  36  38
ENDBRANCH  35  36
ENDBRANCH  34  35
ENDBRANCH  33  34
ENDBRANCH  32  33
ENDBRANCH  30  32
ENDBRANCH   1  30
TORSDOF 24
ENDMDL
