MODEL 1
REMARK VINA RESULT:      -9.9      0.000      0.000
REMARK SMILES O=C(N[C@@H](Cc1c[nH]c2ccccc12)C(=O)N[C@@H](CS)C(=O)N[C@@H](CO)C(=O)OCCOC(=O)c1ccc(-c2c3nc(c(-c4ccc(S(=O)(=O)[O-])cc4)c4ccc([nH]4)c(-c4ccc(S(=O)(=O)[O-])cc4)c4nc(c(-c5ccc(S(=O)(=O)[O-])cc5)c5ccc2[nH]5)C=C4)C=C3)cc1)c1ccc(F)cc1
REMARK SMILES IDX 29 1 27 2 28 3 24 4 23 5 21 6 22 7 18 9 17 10 15 11 16 12
REMARK SMILES IDX 4 14 3 15 1 16 2 17 95 19 96 20 101 21 97 22 100 23 98 24
REMARK SMILES IDX 99 25 5 26 6 27 7 28 14 29 8 30 9 31 13 32 10 34 12 35 11 36
REMARK SMILES IDX 19 37 20 38 25 40 26 41 30 43 31 44 32 45 33 46 34 47 35 48
REMARK SMILES IDX 36 49 94 50 37 51 93 52 38 53 39 54 40 55 87 56 41 57 92 58
REMARK SMILES IDX 86 59 88 60 42 61 91 62 85 63 84 64 43 66 73 67 54 68 72 69
REMARK SMILES IDX 55 70 58 71 71 72 89 73 56 74 57 75 70 77 90 78 59 79 44 80
REMARK SMILES IDX 45 81 53 82 46 83 52 84 47 85 48 86 49 87 50 88 51 89 74 90
REMARK SMILES IDX 75 91 83 92 76 93 82 94 77 95 78 96 79 97 80 98 81 99 60 100
REMARK SMILES IDX 61 101 69 102 62 103 68 104 63 105 64 106 65 107 66 108
REMARK SMILES IDX 67 109
REMARK H PARENT 23 8 17 13 3 18 8 33 20 39 26 42 88 65 58 76
REMARK Flexibility Score: inf
ROOT
ATOM      1  O   UNL A   1      35.068  21.649  24.188  1.00  0.00    -0.460 OA
ENDROOT
BRANCH   1   2
ATOM      2  C   UNL A   1      34.389  20.515  24.524  1.00  0.00     0.331 C 
ATOM      3  O   UNL A   1      34.910  19.450  24.832  1.00  0.00    -0.250 OA
BRANCH   2   4
ATOM      4  C   UNL A   1      32.873  20.689  24.375  1.00  0.00     0.218 C 
BRANCH   4   5
ATOM      5  N   UNL A   1      32.481  21.525  23.218  1.00  0.00    -0.339 N 
ATOM      6  C   UNL A   1      31.833  22.713  23.417  1.00  0.00     0.244 C 
ATOM      7  O   UNL A   1      30.601  22.680  23.494  1.00  0.00    -0.273 OA
ATOM      8  H   UNL A   1      32.690  21.226  22.304  1.00  0.00     0.164 HD
BRANCH   6   9
ATOM      9  C   UNL A   1      32.651  24.043  23.473  1.00  0.00     0.181 C 
BRANCH   9  10
ATOM     10  N   UNL A   1      33.570  23.981  24.611  1.00  0.00    -0.342 N 
ATOM     11  C   UNL A   1      33.794  24.800  25.669  1.00  0.00     0.243 C 
ATOM     12  O   UNL A   1      34.483  24.314  26.577  1.00  0.00    -0.273 OA
ATOM     13  H   UNL A   1      34.143  23.181  24.609  1.00  0.00     0.164 HD
BRANCH  11  14
ATOM     14  C   UNL A   1      33.297  26.263  25.796  1.00  0.00     0.176 C 
BRANCH  14  15
ATOM     15  N   UNL A   1      33.664  27.075  24.636  1.00  0.00    -0.340 N 
ATOM     16  O   UNL A   1      34.317  28.922  23.524  1.00  0.00    -0.269 OA
ATOM     17  C   UNL A   1      34.071  28.393  24.604  1.00  0.00     0.251 C 
ATOM     18  H   UNL A   1      33.613  26.620  23.764  1.00  0.00     0.164 HD
BRANCH  17  19
ATOM     19  C   UNL A   1      34.123  29.205  25.846  1.00  0.00     0.040 A 
ATOM     20  C   UNL A   1      33.110  30.111  26.184  1.00  0.00     0.017 A 
ATOM     21  C   UNL A   1      35.231  29.049  26.691  1.00  0.00     0.017 A 
ATOM     22  C   UNL A   1      33.248  30.915  27.320  1.00  0.00     0.040 A 
ATOM     23  C   UNL A   1      35.361  29.850  27.829  1.00  0.00     0.040 A 
ATOM     24  C   UNL A   1      34.377  30.787  28.124  1.00  0.00     0.123 A 
ATOM     25  F   UNL A   1      34.520  31.581  29.194  1.00  0.00    -0.207 F 
ENDBRANCH  17  19
ENDBRANCH  14  15
BRANCH  14  26
ATOM     26  C   UNL A   1      31.891  26.523  26.371  1.00  0.00     0.072 C 
BRANCH  26  27
ATOM     27  C   UNL A   1      30.716  26.540  25.443  1.00  0.00    -0.020 A 
ATOM     28  C   UNL A   1      29.786  25.525  25.313  1.00  0.00     0.087 A 
ATOM     29  C   UNL A   1      30.265  27.607  24.593  1.00  0.00     0.003 A 
ATOM     30  N   UNL A   1      28.929  25.847  24.296  1.00  0.00    -0.361 N 
ATOM     31  C   UNL A   1      29.190  27.117  23.846  1.00  0.00     0.046 A 
ATOM     32  C   UNL A   1      30.666  28.943  24.380  1.00  0.00     0.010 A 
ATOM     33  H   UNL A   1      28.227  25.255  23.940  1.00  0.00     0.166 HD
ATOM     34  C   UNL A   1      28.544  27.867  22.854  1.00  0.00     0.026 A 
ATOM     35  C   UNL A   1      29.987  29.727  23.438  1.00  0.00     0.001 A 
ATOM     36  C   UNL A   1      28.955  29.189  22.673  1.00  0.00     0.002 A 
ENDBRANCH  26  27
ENDBRANCH  14  26
ENDBRANCH  11  14
ENDBRANCH   9  10
BRANCH   9  37
ATOM     37  C   UNL A   1      33.269  24.528  22.167  1.00  0.00     0.101 C 
BRANCH  37  38
ATOM     38  S   UNL A   1      32.488  26.048  21.569  1.00  0.00    -0.177 SA
ATOM     39  H   UNL A   1      33.328  27.099  21.770  1.00  0.00     0.102 HD
ENDBRANCH  37  38
ENDBRANCH   9  37
ENDBRANCH   6   9
ENDBRANCH   4   5
BRANCH   4  40
ATOM     40  C   UNL A   1      32.248  19.283  24.285  1.00  0.00     0.193 C 
BRANCH  40  41
ATOM     41  O   UNL A   1      32.270  18.637  25.563  1.00  0.00    -0.394 OA
ATOM     42  H   UNL A   1      33.147  18.252  25.716  1.00  0.00     0.210 HD
ENDBRANCH  40  41
ENDBRANCH   4  40
ENDBRANCH   2   4
ENDBRANCH   1   2
BRANCH   1  43
ATOM     43  C   UNL A   1      36.498  21.622  24.384  1.00  0.00     0.274 C 
BRANCH  43  44
ATOM     44  C   UNL A   1      36.825  22.119  25.788  1.00  0.00     0.275 C 
BRANCH  44  45
ATOM     45  O   UNL A   1      37.775  23.189  25.673  1.00  0.00    -0.458 OA
BRANCH  45  46
ATOM     46  C   UNL A   1      38.994  22.976  26.229  1.00  0.00     0.338 C 
ATOM     47  O   UNL A   1      39.604  21.921  26.240  1.00  0.00    -0.246 OA
BRANCH  46  48
ATOM     48  C   UNL A   1      39.527  24.254  26.774  1.00  0.00     0.060 A 
ATOM     49  C   UNL A   1      40.169  25.168  25.946  1.00  0.00     0.016 A 
ATOM     50  C   UNL A   1      39.484  24.507  28.149  1.00  0.00     0.016 A 
ATOM     51  C   UNL A   1      40.840  26.260  26.503  1.00  0.00     0.010 A 
ATOM     52  C   UNL A   1      40.084  25.664  28.683  1.00  0.00     0.010 A 
ATOM     53  C   UNL A   1      40.816  26.552  27.876  1.00  0.00    -0.014 A 
BRANCH  53  54
ATOM     54  C   UNL A   1      41.578  27.723  28.451  1.00  0.00     0.031 A 
ATOM     55  C   UNL A   1      40.853  28.875  29.126  1.00  0.00     0.074 A 
ATOM     56  C   UNL A   1      42.931  27.786  28.436  1.00  0.00     0.049 A 
ATOM     57  N   UNL A   1      41.270  30.099  29.354  1.00  0.00    -0.248 NA
ATOM     58  C   UNL A   1      39.482  28.623  29.591  1.00  0.00     0.031 C 
ATOM     59  C   UNL A   1      43.842  26.753  27.940  1.00  0.00     0.029 A 
ATOM     60  N   UNL A   1      43.788  28.774  28.878  1.00  0.00    -0.354 N 
ATOM     61  C   UNL A   1      40.181  30.785  29.892  1.00  0.00     0.074 A 
ATOM     62  C   UNL A   1      39.095  29.831  29.979  1.00  0.00     0.031 C 
ATOM     63  C   UNL A   1      45.106  27.102  28.206  1.00  0.00     0.029 A 
ATOM     64  C   UNL A   1      45.117  28.475  28.690  1.00  0.00     0.049 A 
ATOM     65  H   UNL A   1      43.476  29.613  29.289  1.00  0.00     0.167 HD
ATOM     66  C   UNL A   1      40.092  32.089  30.260  1.00  0.00     0.031 A 
ATOM     67  C   UNL A   1      46.235  29.225  28.774  1.00  0.00     0.031 A 
ATOM     68  C   UNL A   1      41.206  33.006  30.274  1.00  0.00     0.049 A 
ATOM     69  C   UNL A   1      46.117  30.687  29.066  1.00  0.00     0.074 A 
ATOM     70  C   UNL A   1      41.222  34.343  30.643  1.00  0.00     0.029 A 
ATOM     71  N   UNL A   1      42.510  32.676  29.940  1.00  0.00    -0.354 N 
ATOM     72  N   UNL A   1      45.050  31.376  29.379  1.00  0.00    -0.248 NA
ATOM     73  C   UNL A   1      47.347  31.482  28.954  1.00  0.00     0.031 C 
ATOM     74  C   UNL A   1      42.524  34.832  30.481  1.00  0.00     0.029 A 
ATOM     75  C   UNL A   1      43.331  33.785  30.066  1.00  0.00     0.049 A 
ATOM     76  H   UNL A   1      42.809  31.782  29.654  1.00  0.00     0.167 HD
ATOM     77  C   UNL A   1      45.476  32.693  29.501  1.00  0.00     0.074 A 
ATOM     78  C   UNL A   1      46.904  32.698  29.246  1.00  0.00     0.031 C 
ATOM     79  C   UNL A   1      44.745  33.795  29.793  1.00  0.00     0.031 A 
BRANCH  66  80
ATOM     80  C   UNL A   1      38.726  32.641  30.603  1.00  0.00    -0.014 A 
ATOM     81  C   UNL A   1      38.209  32.633  31.910  1.00  0.00     0.010 A 
ATOM     82  C   UNL A   1      37.962  33.233  29.575  1.00  0.00     0.010 A 
ATOM     83  C   UNL A   1      36.939  33.164  32.172  1.00  0.00     0.020 A 
ATOM     84  C   UNL A   1      36.707  33.789  29.837  1.00  0.00     0.020 A 
ATOM     85  C   UNL A   1      36.192  33.731  31.132  1.00  0.00     0.054 A 
BRANCH  85  86
ATOM     86  S   UNL A   1      34.548  34.411  31.494  1.00  0.00     0.124 S 
ATOM     87  O   UNL A   1      34.869  35.517  32.393  1.00  0.00    -0.237 OA
ATOM     88  O   UNL A   1      34.059  34.798  30.173  1.00  0.00    -0.237 OA
ATOM     89  O   UNL A   1      33.838  33.294  32.113  1.00  0.00    -0.744 OA
ENDBRANCH  85  86
ENDBRANCH  66  80
BRANCH  67  90
ATOM     90  C   UNL A   1      47.548  28.609  28.430  1.00  0.00    -0.014 A 
ATOM     91  C   UNL A   1      48.344  28.022  29.425  1.00  0.00     0.010 A 
ATOM     92  C   UNL A   1      47.958  28.528  27.084  1.00  0.00     0.010 A 
ATOM     93  C   UNL A   1      49.506  27.325  29.076  1.00  0.00     0.020 A 
ATOM     94  C   UNL A   1      49.096  27.802  26.729  1.00  0.00     0.020 A 
ATOM     95  C   UNL A   1      49.862  27.202  27.728  1.00  0.00     0.054 A 
BRANCH  95  96
ATOM     96  S   UNL A   1      51.286  26.169  27.284  1.00  0.00     0.124 S 
ATOM     97  O   UNL A   1      52.188  26.394  28.409  1.00  0.00    -0.237 OA
ATOM     98  O   UNL A   1      50.698  24.835  27.199  1.00  0.00    -0.237 OA
ATOM     99  O   UNL A   1      51.726  26.727  26.007  1.00  0.00    -0.744 OA
ENDBRANCH  95  96
ENDBRANCH  67  90
BRANCH  79 100
ATOM    100  C   UNL A   1      45.486  35.100  29.881  1.00  0.00    -0.014 A 
ATOM    101  C   UNL A   1      45.546  35.974  28.782  1.00  0.00     0.010 A 
ATOM    102  C   UNL A   1      46.122  35.459  31.083  1.00  0.00     0.010 A 
ATOM    103  C   UNL A   1      46.257  37.173  28.873  1.00  0.00     0.020 A 
ATOM    104  C   UNL A   1      46.815  36.668  31.184  1.00  0.00     0.020 A 
ATOM    105  C   UNL A   1      46.891  37.511  30.074  1.00  0.00     0.054 A 
BRANCH 105 106
ATOM    106  S   UNL A   1      47.788  39.084  30.176  1.00  0.00     0.124 S 
ATOM    107  O   UNL A   1      47.320  39.618  31.453  1.00  0.00    -0.237 OA
ATOM    108  O   UNL A   1      49.186  38.660  30.147  1.00  0.00    -0.237 OA
ATOM    109  O   UNL A   1      47.340  39.815  28.993  1.00  0.00    -0.744 OA
ENDBRANCH 105 106
ENDBRANCH  79 100
ENDBRANCH  53  54
ENDBRANCH  46  48
ENDBRANCH  45  46
ENDBRANCH  44  45
ENDBRANCH  43  44
ENDBRANCH   1  43
TORSDOF 26
ENDMDL
MODEL 2
REMARK VINA RESULT:      -9.5      1.753      2.197
REMARK SMILES O=C(N[C@@H](Cc1c[nH]c2ccccc12)C(=O)N[C@@H](CS)C(=O)N[C@@H](CO)C(=O)OCCOC(=O)c1ccc(-c2c3nc(c(-c4ccc(S(=O)(=O)[O-])cc4)c4ccc([nH]4)c(-c4ccc(S(=O)(=O)[O-])cc4)c4nc(c(-c5ccc(S(=O)(=O)[O-])cc5)c5ccc2[nH]5)C=C4)C=C3)cc1)c1ccc(F)cc1
REMARK SMILES IDX 29 1 27 2 28 3 24 4 23 5 21 6 22 7 18 9 17 10 15 11 16 12
REMARK SMILES IDX 4 14 3 15 1 16 2 17 95 19 96 20 101 21 97 22 100 23 98 24
REMARK SMILES IDX 99 25 5 26 6 27 7 28 14 29 8 30 9 31 13 32 10 34 12 35 11 36
REMARK SMILES IDX 19 37 20 38 25 40 26 41 30 43 31 44 32 45 33 46 34 47 35 48
REMARK SMILES IDX 36 49 94 50 37 51 93 52 38 53 39 54 40 55 87 56 41 57 92 58
REMARK SMILES IDX 86 59 88 60 42 61 91 62 85 63 84 64 43 66 73 67 54 68 72 69
REMARK SMILES IDX 55 70 58 71 71 72 89 73 56 74 57 75 70 77 90 78 59 79 44 80
REMARK SMILES IDX 45 81 53 82 46 83 52 84 47 85 48 86 49 87 50 88 51 89 74 90
REMARK SMILES IDX 75 91 83 92 76 93 82 94 77 95 78 96 79 97 80 98 81 99 60 100
REMARK SMILES IDX 61 101 69 102 62 103 68 104 63 105 64 106 65 107 66 108
REMARK SMILES IDX 67 109
REMARK H PARENT 23 8 17 13 3 18 8 33 20 39 26 42 88 65 58 76
REMARK Flexibility Score: inf
ROOT
ATOM      1  O   UNL A   1      35.229  21.811  24.273  1.00  0.00    -0.460 OA
ENDROOT
BRANCH   1   2
ATOM      2  C   UNL A   1      34.541  20.668  24.558  1.00  0.00     0.331 C 
ATOM      3  O   UNL A   1      35.053  19.605  24.889  1.00  0.00    -0.250 OA
BRANCH   2   4
ATOM      4  C   UNL A   1      33.037  20.828  24.315  1.00  0.00     0.218 C 
BRANCH   4   5
ATOM      5  N   UNL A   1      32.710  21.609  23.102  1.00  0.00    -0.339 N 
ATOM      6  C   UNL A   1      31.935  22.733  23.196  1.00  0.00     0.244 C 
ATOM      7  O   UNL A   1      30.712  22.586  23.130  1.00  0.00    -0.273 OA
ATOM      8  H   UNL A   1      33.052  21.320  22.226  1.00  0.00     0.164 HD
BRANCH   6   9
ATOM      9  C   UNL A   1      32.615  24.135  23.316  1.00  0.00     0.181 C 
BRANCH   9  10
ATOM     10  N   UNL A   1      33.598  24.089  24.401  1.00  0.00    -0.342 N 
ATOM     11  C   UNL A   1      33.838  24.887  25.471  1.00  0.00     0.243 C 
ATOM     12  O   UNL A   1      34.600  24.411  26.325  1.00  0.00    -0.273 OA
ATOM     13  H   UNL A   1      34.211  23.321  24.341  1.00  0.00     0.164 HD
BRANCH  11  14
ATOM     14  C   UNL A   1      33.273  26.317  25.672  1.00  0.00     0.176 C 
BRANCH  14  15
ATOM     15  N   UNL A   1      33.596  27.201  24.551  1.00  0.00    -0.340 N 
ATOM     16  O   UNL A   1      34.227  29.110  23.536  1.00  0.00    -0.269 OA
ATOM     17  C   UNL A   1      34.028  28.511  24.588  1.00  0.00     0.251 C 
ATOM     18  H   UNL A   1      33.492  26.809  23.654  1.00  0.00     0.164 HD
BRANCH  17  19
ATOM     19  C   UNL A   1      34.160  29.234  25.878  1.00  0.00     0.040 A 
ATOM     20  C   UNL A   1      33.264  30.241  26.261  1.00  0.00     0.017 A 
ATOM     21  C   UNL A   1      35.224  28.887  26.723  1.00  0.00     0.017 A 
ATOM     22  C   UNL A   1      33.483  30.952  27.446  1.00  0.00     0.040 A 
ATOM     23  C   UNL A   1      35.434  29.596  27.910  1.00  0.00     0.040 A 
ATOM     24  C   UNL A   1      34.572  30.633  28.252  1.00  0.00     0.123 A 
ATOM     25  F   UNL A   1      34.795  31.336  29.370  1.00  0.00    -0.207 F 
ENDBRANCH  17  19
ENDBRANCH  14  15
BRANCH  14  26
ATOM     26  C   UNL A   1      31.860  26.483  26.263  1.00  0.00     0.072 C 
BRANCH  26  27
ATOM     27  C   UNL A   1      30.684  26.535  25.337  1.00  0.00    -0.020 A 
ATOM     28  C   UNL A   1      29.765  25.518  25.154  1.00  0.00     0.087 A 
ATOM     29  C   UNL A   1      30.223  27.639  24.542  1.00  0.00     0.003 A 
ATOM     30  N   UNL A   1      28.904  25.884  24.155  1.00  0.00    -0.361 N 
ATOM     31  C   UNL A   1      29.152  27.178  23.771  1.00  0.00     0.046 A 
ATOM     32  C   UNL A   1      30.610  28.988  24.398  1.00  0.00     0.010 A 
ATOM     33  H   UNL A   1      28.208  25.303  23.770  1.00  0.00     0.166 HD
ATOM     34  C   UNL A   1      28.499  27.970  22.819  1.00  0.00     0.026 A 
ATOM     35  C   UNL A   1      29.923  29.813  23.497  1.00  0.00     0.001 A 
ATOM     36  C   UNL A   1      28.896  29.305  22.705  1.00  0.00     0.002 A 
ENDBRANCH  26  27
ENDBRANCH  14  26
ENDBRANCH  11  14
ENDBRANCH   9  10
BRANCH   9  37
ATOM     37  C   UNL A   1      33.108  24.776  22.023  1.00  0.00     0.101 C 
BRANCH  37  38
ATOM     38  S   UNL A   1      31.983  26.067  21.435  1.00  0.00    -0.177 SA
ATOM     39  H   UNL A   1      31.533  25.744  20.192  1.00  0.00     0.102 HD
ENDBRANCH  37  38
ENDBRANCH   9  37
ENDBRANCH   6   9
ENDBRANCH   4   5
BRANCH   4  40
ATOM     40  C   UNL A   1      32.420  19.417  24.255  1.00  0.00     0.193 C 
BRANCH  40  41
ATOM     41  O   UNL A   1      32.115  18.941  25.571  1.00  0.00    -0.394 OA
ATOM     42  H   UNL A   1      32.453  18.037  25.674  1.00  0.00     0.210 HD
ENDBRANCH  40  41
ENDBRANCH   4  40
ENDBRANCH   2   4
ENDBRANCH   1   2
BRANCH   1  43
ATOM     43  C   UNL A   1      36.667  21.737  24.376  1.00  0.00     0.274 C 
BRANCH  43  44
ATOM     44  C   UNL A   1      37.092  22.115  25.791  1.00  0.00     0.275 C 
BRANCH  44  45
ATOM     45  O   UNL A   1      37.848  23.333  25.721  1.00  0.00    -0.458 OA
BRANCH  45  46
ATOM     46  C   UNL A   1      39.140  23.266  26.128  1.00  0.00     0.338 C 
ATOM     47  O   UNL A   1      39.926  22.369  25.879  1.00  0.00    -0.246 OA
BRANCH  46  48
ATOM     48  C   UNL A   1      39.493  24.501  26.879  1.00  0.00     0.060 A 
ATOM     49  C   UNL A   1      40.363  25.440  26.335  1.00  0.00     0.016 A 
ATOM     50  C   UNL A   1      39.039  24.684  28.189  1.00  0.00     0.016 A 
ATOM     51  C   UNL A   1      40.843  26.485  27.129  1.00  0.00     0.010 A 
ATOM     52  C   UNL A   1      39.459  25.798  28.943  1.00  0.00     0.010 A 
ATOM     53  C   UNL A   1      40.408  26.708  28.445  1.00  0.00    -0.014 A 
BRANCH  53  54
ATOM     54  C   UNL A   1      40.970  27.828  29.288  1.00  0.00     0.031 A 
ATOM     55  C   UNL A   1      40.138  29.058  29.614  1.00  0.00     0.074 A 
ATOM     56  C   UNL A   1      42.212  27.779  29.827  1.00  0.00     0.049 A 
ATOM     57  N   UNL A   1      40.532  30.249  29.999  1.00  0.00    -0.248 NA
ATOM     58  C   UNL A   1      38.680  28.935  29.477  1.00  0.00     0.031 C 
ATOM     59  C   UNL A   1      43.150  26.658  29.741  1.00  0.00     0.029 A 
ATOM     60  N   UNL A   1      42.898  28.705  30.586  1.00  0.00    -0.354 N 
ATOM     61  C   UNL A   1      39.384  31.040  30.049  1.00  0.00     0.074 A 
ATOM     62  C   UNL A   1      38.277  30.183  29.679  1.00  0.00     0.031 C 
ATOM     63  C   UNL A   1      44.222  26.910  30.502  1.00  0.00     0.029 A 
ATOM     64  C   UNL A   1      44.156  28.291  30.955  1.00  0.00     0.049 A 
ATOM     65  H   UNL A   1      42.521  29.579  30.838  1.00  0.00     0.167 HD
ATOM     66  C   UNL A   1      39.269  32.357  30.355  1.00  0.00     0.031 A 
ATOM     67  C   UNL A   1      45.204  28.948  31.492  1.00  0.00     0.031 A 
ATOM     68  C   UNL A   1      40.357  33.179  30.828  1.00  0.00     0.049 A 
ATOM     69  C   UNL A   1      45.108  30.423  31.719  1.00  0.00     0.074 A 
ATOM     70  C   UNL A   1      40.340  34.521  31.178  1.00  0.00     0.029 A 
ATOM     71  N   UNL A   1      41.649  32.731  31.054  1.00  0.00    -0.354 N 
ATOM     72  N   UNL A   1      44.071  31.208  31.573  1.00  0.00    -0.248 NA
ATOM     73  C   UNL A   1      46.341  31.109  32.124  1.00  0.00     0.031 C 
ATOM     74  C   UNL A   1      41.632  34.894  31.566  1.00  0.00     0.029 A 
ATOM     75  C   UNL A   1      42.442  33.772  31.511  1.00  0.00     0.049 A 
ATOM     76  H   UNL A   1      41.958  31.807  30.911  1.00  0.00     0.167 HD
ATOM     77  C   UNL A   1      44.526  32.488  31.865  1.00  0.00     0.074 A 
ATOM     78  C   UNL A   1      45.927  32.366  32.216  1.00  0.00     0.031 C 
ATOM     79  C   UNL A   1      43.839  33.655  31.839  1.00  0.00     0.031 A 
BRANCH  66  80
ATOM     80  C   UNL A   1      37.937  33.031  30.113  1.00  0.00    -0.014 A 
ATOM     81  C   UNL A   1      37.525  33.469  28.842  1.00  0.00     0.010 A 
ATOM     82  C   UNL A   1      37.051  33.180  31.201  1.00  0.00     0.010 A 
ATOM     83  C   UNL A   1      36.276  34.082  28.675  1.00  0.00     0.020 A 
ATOM     84  C   UNL A   1      35.793  33.766  31.033  1.00  0.00     0.020 A 
ATOM     85  C   UNL A   1      35.421  34.234  29.773  1.00  0.00     0.054 A 
BRANCH  85  86
ATOM     86  S   UNL A   1      33.809  35.034  29.532  1.00  0.00     0.124 S 
ATOM     87  O   UNL A   1      32.991  33.926  29.046  1.00  0.00    -0.237 OA
ATOM     88  O   UNL A   1      33.482  35.513  30.873  1.00  0.00    -0.237 OA
ATOM     89  O   UNL A   1      34.083  36.082  28.551  1.00  0.00    -0.744 OA
ENDBRANCH  85  86
ENDBRANCH  66  80
BRANCH  67  90
ATOM     90  C   UNL A   1      46.483  28.215  31.712  1.00  0.00    -0.014 A 
ATOM     91  C   UNL A   1      46.758  27.612  32.949  1.00  0.00     0.010 A 
ATOM     92  C   UNL A   1      47.388  28.041  30.646  1.00  0.00     0.010 A 
ATOM     93  C   UNL A   1      47.894  26.810  33.103  1.00  0.00     0.020 A 
ATOM     94  C   UNL A   1      48.502  27.211  30.785  1.00  0.00     0.020 A 
ATOM     95  C   UNL A   1      48.746  26.598  32.014  1.00  0.00     0.054 A 
BRANCH  95  96
ATOM     96  S   UNL A   1      50.129  25.436  32.190  1.00  0.00     0.124 S 
ATOM     97  O   UNL A   1      51.233  26.326  32.533  1.00  0.00    -0.237 OA
ATOM     98  O   UNL A   1      49.669  24.554  33.260  1.00  0.00    -0.237 OA
ATOM     99  O   UNL A   1      50.215  24.808  30.873  1.00  0.00    -0.744 OA
ENDBRANCH  95  96
ENDBRANCH  67  90
BRANCH  79 100
ATOM    100  C   UNL A   1      44.593  34.896  32.229  1.00  0.00    -0.014 A 
ATOM    101  C   UNL A   1      45.211  35.704  31.259  1.00  0.00     0.010 A 
ATOM    102  C   UNL A   1      44.675  35.263  33.584  1.00  0.00     0.010 A 
ATOM    103  C   UNL A   1      45.925  36.843  31.639  1.00  0.00     0.020 A 
ATOM    104  C   UNL A   1      45.370  36.413  33.966  1.00  0.00     0.020 A 
ATOM    105  C   UNL A   1      46.004  37.188  32.993  1.00  0.00     0.054 A 
BRANCH 105 106
ATOM    106  S   UNL A   1      46.917  38.683  33.462  1.00  0.00     0.124 S 
ATOM    107  O   UNL A   1      45.908  39.725  33.279  1.00  0.00    -0.237 OA
ATOM    108  O   UNL A   1      47.294  38.409  34.846  1.00  0.00    -0.237 OA
ATOM    109  O   UNL A   1      48.029  38.721  32.514  1.00  0.00    -0.744 OA
ENDBRANCH 105 106
ENDBRANCH  79 100
ENDBRANCH  53  54
ENDBRANCH  46  48
ENDBRANCH  45  46
ENDBRANCH  44  45
ENDBRANCH  43  44
ENDBRANCH   1  43
TORSDOF 26
ENDMDL
MODEL 3
REMARK VINA RESULT:      -8.8      2.349      3.404
REMARK SMILES O=C(N[C@@H](Cc1c[nH]c2ccccc12)C(=O)N[C@@H](CS)C(=O)N[C@@H](CO)C(=O)OCCOC(=O)c1ccc(-c2c3nc(c(-c4ccc(S(=O)(=O)[O-])cc4)c4ccc([nH]4)c(-c4ccc(S(=O)(=O)[O-])cc4)c4nc(c(-c5ccc(S(=O)(=O)[O-])cc5)c5ccc2[nH]5)C=C4)C=C3)cc1)c1ccc(F)cc1
REMARK SMILES IDX 29 1 27 2 28 3 24 4 23 5 21 6 22 7 18 9 17 10 15 11 16 12
REMARK SMILES IDX 4 14 3 15 1 16 2 17 95 19 96 20 101 21 97 22 100 23 98 24
REMARK SMILES IDX 99 25 5 26 6 27 7 28 14 29 8 30 9 31 13 32 10 34 12 35 11 36
REMARK SMILES IDX 19 37 20 38 25 40 26 41 30 43 31 44 32 45 33 46 34 47 35 48
REMARK SMILES IDX 36 49 94 50 37 51 93 52 38 53 39 54 40 55 87 56 41 57 92 58
REMARK SMILES IDX 86 59 88 60 42 61 91 62 85 63 84 64 43 66 73 67 54 68 72 69
REMARK SMILES IDX 55 70 58 71 71 72 89 73 56 74 57 75 70 77 90 78 59 79 44 80
REMARK SMILES IDX 45 81 53 82 46 83 52 84 47 85 48 86 49 87 50 88 51 89 74 90
REMARK SMILES IDX 75 91 83 92 76 93 82 94 77 95 78 96 79 97 80 98 81 99 60 100
REMARK SMILES IDX 61 101 69 102 62 103 68 104 63 105 64 106 65 107 66 108
REMARK SMILES IDX 67 109
REMARK H PARENT 23 8 17 13 3 18 8 33 20 39 26 42 88 65 58 76
REMARK Flexibility Score: inf
ROOT
ATOM      1  O   UNL A   1      37.434  20.974  25.905  1.00  0.00    -0.460 OA
ENDROOT
BRANCH   1   2
ATOM      2  C   UNL A   1      36.829  22.191  26.024  1.00  0.00     0.331 C 
ATOM      3  O   UNL A   1      37.411  23.269  25.997  1.00  0.00    -0.250 OA
BRANCH   2   4
ATOM      4  C   UNL A   1      35.327  22.061  26.303  1.00  0.00     0.218 C 
BRANCH   4   5
ATOM      5  N   UNL A   1      34.677  23.340  26.665  1.00  0.00    -0.339 N 
ATOM      6  C   UNL A   1      34.181  24.159  25.689  1.00  0.00     0.244 C 
ATOM      7  O   UNL A   1      34.956  24.981  25.190  1.00  0.00    -0.273 OA
ATOM      8  H   UNL A   1      34.600  23.600  27.611  1.00  0.00     0.164 HD
BRANCH   6   9
ATOM      9  C   UNL A   1      32.671  24.071  25.295  1.00  0.00     0.181 C 
BRANCH   9  10
ATOM     10  N   UNL A   1      31.905  24.956  26.175  1.00  0.00    -0.342 N 
ATOM     11  C   UNL A   1      31.738  26.302  26.221  1.00  0.00     0.243 C 
ATOM     12  O   UNL A   1      30.820  26.696  26.953  1.00  0.00    -0.273 OA
ATOM     13  H   UNL A   1      31.409  24.478  26.877  1.00  0.00     0.164 HD
BRANCH  11  14
ATOM     14  C   UNL A   1      32.612  27.343  25.475  1.00  0.00     0.176 C 
BRANCH  14  15
ATOM     15  N   UNL A   1      33.912  27.537  26.119  1.00  0.00    -0.340 N 
ATOM     16  O   UNL A   1      35.536  28.654  27.209  1.00  0.00    -0.269 OA
ATOM     17  C   UNL A   1      34.402  28.667  26.742  1.00  0.00     0.251 C 
ATOM     18  H   UNL A   1      34.515  26.759  26.106  1.00  0.00     0.164 HD
BRANCH  17  19
ATOM     19  C   UNL A   1      33.613  29.924  26.769  1.00  0.00     0.040 A 
ATOM     20  C   UNL A   1      34.029  31.047  27.497  1.00  0.00     0.017 A 
ATOM     21  C   UNL A   1      32.415  29.969  26.042  1.00  0.00     0.017 A 
ATOM     22  C   UNL A   1      33.207  32.177  27.561  1.00  0.00     0.040 A 
ATOM     23  C   UNL A   1      31.601  31.103  26.103  1.00  0.00     0.040 A 
ATOM     24  C   UNL A   1      31.996  32.190  26.876  1.00  0.00     0.123 A 
ATOM     25  F   UNL A   1      31.198  33.263  26.965  1.00  0.00    -0.207 F 
ENDBRANCH  17  19
ENDBRANCH  14  15
BRANCH  14  26
ATOM     26  C   UNL A   1      32.629  27.333  23.934  1.00  0.00     0.072 C 
BRANCH  26  27
ATOM     27  C   UNL A   1      31.720  28.261  23.189  1.00  0.00    -0.020 A 
ATOM     28  C   UNL A   1      32.131  29.242  22.305  1.00  0.00     0.087 A 
ATOM     29  C   UNL A   1      30.284  28.272  23.161  1.00  0.00     0.003 A 
ATOM     30  N   UNL A   1      31.034  29.958  21.908  1.00  0.00    -0.361 N 
ATOM     31  C   UNL A   1      29.892  29.381  22.406  1.00  0.00     0.046 A 
ATOM     32  C   UNL A   1      29.275  27.450  23.705  1.00  0.00     0.010 A 
ATOM     33  H   UNL A   1      31.061  30.767  21.348  1.00  0.00     0.166 HD
ATOM     34  C   UNL A   1      28.552  29.748  22.227  1.00  0.00     0.026 A 
ATOM     35  C   UNL A   1      27.929  27.767  23.478  1.00  0.00     0.001 A 
ATOM     36  C   UNL A   1      27.574  28.910  22.766  1.00  0.00     0.002 A 
ENDBRANCH  26  27
ENDBRANCH  14  26
ENDBRANCH  11  14
ENDBRANCH   9  10
BRANCH   9  37
ATOM     37  C   UNL A   1      32.337  24.184  23.812  1.00  0.00     0.101 C 
BRANCH  37  38
ATOM     38  S   UNL A   1      30.561  24.013  23.502  1.00  0.00    -0.177 SA
ATOM     39  H   UNL A   1      29.902  23.911  24.688  1.00  0.00     0.102 HD
ENDBRANCH  37  38
ENDBRANCH   9  37
ENDBRANCH   6   9
ENDBRANCH   4   5
BRANCH   4  40
ATOM     40  C   UNL A   1      34.673  21.434  25.057  1.00  0.00     0.193 C 
BRANCH  40  41
ATOM     41  O   UNL A   1      35.069  20.066  24.910  1.00  0.00    -0.394 OA
ATOM     42  H   UNL A   1      36.012  20.024  24.685  1.00  0.00     0.210 HD
ENDBRANCH  40  41
ENDBRANCH   4  40
ENDBRANCH   2   4
ENDBRANCH   1   2
BRANCH   1  43
ATOM     43  C   UNL A   1      38.800  20.980  25.441  1.00  0.00     0.274 C 
BRANCH  43  44
ATOM     44  C   UNL A   1      39.734  21.198  26.627  1.00  0.00     0.275 C 
BRANCH  44  45
ATOM     45  O   UNL A   1      40.706  20.142  26.631  1.00  0.00    -0.458 OA
BRANCH  45  46
ATOM     46  C   UNL A   1      41.921  20.436  26.105  1.00  0.00     0.338 C 
ATOM     47  O   UNL A   1      42.543  19.755  25.309  1.00  0.00    -0.246 OA
BRANCH  46  48
ATOM     48  C   UNL A   1      42.369  21.769  26.592  1.00  0.00     0.060 A 
ATOM     49  C   UNL A   1      42.155  22.913  25.831  1.00  0.00     0.016 A 
ATOM     50  C   UNL A   1      43.106  21.877  27.776  1.00  0.00     0.016 A 
ATOM     51  C   UNL A   1      42.757  24.118  26.203  1.00  0.00     0.010 A 
ATOM     52  C   UNL A   1      43.626  23.121  28.185  1.00  0.00     0.010 A 
ATOM     53  C   UNL A   1      43.500  24.270  27.384  1.00  0.00    -0.014 A 
BRANCH  53  54
ATOM     54  C   UNL A   1      44.165  25.578  27.741  1.00  0.00     0.031 A 
ATOM     55  C   UNL A   1      43.395  26.682  28.446  1.00  0.00     0.074 A 
ATOM     56  C   UNL A   1      45.475  25.817  27.496  1.00  0.00     0.049 A 
ATOM     57  N   UNL A   1      43.661  27.966  28.516  1.00  0.00    -0.248 NA
ATOM     58  C   UNL A   1      42.164  26.296  29.150  1.00  0.00     0.031 C 
ATOM     59  C   UNL A   1      46.438  24.870  26.928  1.00  0.00     0.029 A 
ATOM     60  N   UNL A   1      46.239  26.945  27.719  1.00  0.00    -0.354 N 
ATOM     61  C   UNL A   1      42.582  28.550  29.179  1.00  0.00     0.074 A 
ATOM     62  C   UNL A   1      41.672  27.474  29.513  1.00  0.00     0.031 C 
ATOM     63  C   UNL A   1      47.663  25.405  26.954  1.00  0.00     0.029 A 
ATOM     64  C   UNL A   1      47.551  26.806  27.333  1.00  0.00     0.049 A 
ATOM     65  H   UNL A   1      45.877  27.769  28.117  1.00  0.00     0.167 HD
ATOM     66  C   UNL A   1      42.364  29.859  29.465  1.00  0.00     0.031 A 
ATOM     67  C   UNL A   1      48.548  27.701  27.176  1.00  0.00     0.031 A 
ATOM     68  C   UNL A   1      43.322  30.912  29.229  1.00  0.00     0.049 A 
ATOM     69  C   UNL A   1      48.268  29.156  27.381  1.00  0.00     0.074 A 
ATOM     70  C   UNL A   1      43.203  32.268  29.496  1.00  0.00     0.029 A 
ATOM     71  N   UNL A   1      44.592  30.726  28.706  1.00  0.00    -0.354 N 
ATOM     72  N   UNL A   1      47.174  29.725  27.820  1.00  0.00    -0.248 NA
ATOM     73  C   UNL A   1      49.338  30.091  27.011  1.00  0.00     0.031 C 
ATOM     74  C   UNL A   1      44.379  32.906  29.086  1.00  0.00     0.029 A 
ATOM     75  C   UNL A   1      45.254  31.941  28.615  1.00  0.00     0.049 A 
ATOM     76  H   UNL A   1      44.969  29.857  28.437  1.00  0.00     0.167 HD
ATOM     77  C   UNL A   1      47.420  31.091  27.777  1.00  0.00     0.074 A 
ATOM     78  C   UNL A   1      48.775  31.260  27.288  1.00  0.00     0.031 C 
ATOM     79  C   UNL A   1      46.591  32.110  28.110  1.00  0.00     0.031 A 
BRANCH  66  80
ATOM     80  C   UNL A   1      41.003  30.256  29.992  1.00  0.00    -0.014 A 
ATOM     81  C   UNL A   1      40.820  30.860  31.248  1.00  0.00     0.010 A 
ATOM     82  C   UNL A   1      39.877  30.057  29.166  1.00  0.00     0.010 A 
ATOM     83  C   UNL A   1      39.536  31.214  31.684  1.00  0.00     0.020 A 
ATOM     84  C   UNL A   1      38.598  30.434  29.585  1.00  0.00     0.020 A 
ATOM     85  C   UNL A   1      38.432  30.991  30.853  1.00  0.00     0.054 A 
BRANCH  85  86
ATOM     86  S   UNL A   1      36.777  31.454  31.440  1.00  0.00     0.124 S 
ATOM     87  O   UNL A   1      36.349  32.404  30.417  1.00  0.00    -0.237 OA
ATOM     88  O   UNL A   1      36.067  30.177  31.446  1.00  0.00    -0.237 OA
ATOM     89  O   UNL A   1      37.024  32.031  32.759  1.00  0.00    -0.744 OA
ENDBRANCH  85  86
ENDBRANCH  66  80
BRANCH  67  90
ATOM     90  C   UNL A   1      49.867  27.234  26.662  1.00  0.00    -0.014 A 
ATOM     91  C   UNL A   1      50.874  26.822  27.547  1.00  0.00     0.010 A 
ATOM     92  C   UNL A   1      50.079  27.112  25.274  1.00  0.00     0.010 A 
ATOM     93  C   UNL A   1      52.055  26.255  27.055  1.00  0.00     0.020 A 
ATOM     94  C   UNL A   1      51.239  26.513  24.780  1.00  0.00     0.020 A 
ATOM     95  C   UNL A   1      52.220  26.085  25.675  1.00  0.00     0.054 A 
BRANCH  95  96
ATOM     96  S   UNL A   1      53.688  25.212  25.065  1.00  0.00     0.124 S 
ATOM     97  O   UNL A   1      53.668  25.539  23.643  1.00  0.00    -0.237 OA
ATOM     98  O   UNL A   1      54.767  25.821  25.840  1.00  0.00    -0.237 OA
ATOM     99  O   UNL A   1      53.413  23.814  25.392  1.00  0.00    -0.744 OA
ENDBRANCH  95  96
ENDBRANCH  67  90
BRANCH  79 100
ATOM    100  C   UNL A   1      47.141  33.504  27.982  1.00  0.00    -0.014 A 
ATOM    101  C   UNL A   1      47.878  34.090  29.025  1.00  0.00     0.010 A 
ATOM    102  C   UNL A   1      46.924  34.231  26.798  1.00  0.00     0.010 A 
ATOM    103  C   UNL A   1      48.364  35.394  28.899  1.00  0.00     0.020 A 
ATOM    104  C   UNL A   1      47.427  35.527  26.661  1.00  0.00     0.020 A 
ATOM    105  C   UNL A   1      48.132  36.106  27.718  1.00  0.00     0.054 A 
BRANCH 105 106
ATOM    106  S   UNL A   1      48.792  37.789  27.567  1.00  0.00     0.124 S 
ATOM    107  O   UNL A   1      49.681  37.871  28.724  1.00  0.00    -0.237 OA
ATOM    108  O   UNL A   1      49.455  37.759  26.266  1.00  0.00    -0.237 OA
ATOM    109  O   UNL A   1      47.603  38.635  27.635  1.00  0.00    -0.744 OA
ENDBRANCH 105 106
ENDBRANCH  79 100
ENDBRANCH  53  54
ENDBRANCH  46  48
ENDBRANCH  45  46
ENDBRANCH  44  45
ENDBRANCH  43  44
ENDBRANCH   1  43
TORSDOF 26
ENDMDL
