MODEL 1
REMARK VINA RESULT:     -11.7      0.000      0.000
REMARK SMILES C[C@@H](C(=O)OCCOC(=O)c1ccc(-c2c3nc(c(-c4ccc(S(=O)(=O)[O-])cc4)c4ccc([nH]4)c(-c4ccc(S(=O)(=O)[O-])cc4)c4nc(c(-c5ccc(S(=O)(=O)[O-])cc5)c5ccc2[nH]5)C=C4)C=C3)cc1)c1ccc(C[C@H]2CCCC2=O)c(-c2ccccc2)c1
REMARK SMILES IDX 6 1 5 2 3 3 4 4 2 5 1 6 71 7 72 8 89 9 73 10 82 11 74 12
REMARK SMILES IDX 83 13 84 14 88 15 85 16 87 17 86 18 75 19 76 20 77 21 80 22
REMARK SMILES IDX 78 23 79 24 81 25 7 26 8 27 9 28 10 29 11 30 12 31 70 32
REMARK SMILES IDX 13 33 69 34 14 35 15 36 16 37 63 38 17 39 68 40 62 41 64 42
REMARK SMILES IDX 18 43 67 44 61 45 60 46 19 48 49 49 30 50 48 51 31 52 34 53
REMARK SMILES IDX 47 54 65 55 32 56 33 57 46 59 66 60 35 61 20 62 21 63 29 64
REMARK SMILES IDX 22 65 28 66 23 67 24 68 25 69 26 70 27 71 50 72 51 73 59 74
REMARK SMILES IDX 52 75 58 76 53 77 54 78 55 79 56 80 57 81 36 82 37 83 45 84
REMARK SMILES IDX 38 85 44 86 39 87 40 88 41 89 42 90 43 91
REMARK H PARENT 64 47 34 58
REMARK Flexibility Score: inf
ROOT
ATOM      1  C   UNL A   1      33.288  29.846  26.571  1.00  0.00     0.274 C 
ENDROOT
BRANCH   1   2
ATOM      2  O   UNL A   1      32.981  28.494  26.976  1.00  0.00    -0.462 OA
BRANCH   2   3
ATOM      3  C   UNL A   1      31.913  27.900  26.371  1.00  0.00     0.313 C 
ATOM      4  O   UNL A   1      31.037  27.292  26.976  1.00  0.00    -0.252 OA
BRANCH   3   5
ATOM      5  C   UNL A   1      31.963  28.012  24.830  1.00  0.00     0.126 C 
ATOM      6  C   UNL A   1      30.679  28.588  24.223  1.00  0.00     0.025 C 
BRANCH   5   7
ATOM      7  C   UNL A   1      32.358  26.661  24.250  1.00  0.00    -0.033 A 
ATOM      8  C   UNL A   1      31.487  25.954  23.424  1.00  0.00     0.005 A 
ATOM      9  C   UNL A   1      33.541  26.018  24.658  1.00  0.00     0.013 A 
ATOM     10  C   UNL A   1      31.619  24.574  23.317  1.00  0.00     0.004 A 
ATOM     11  C   UNL A   1      33.714  24.637  24.461  1.00  0.00    -0.015 A 
ATOM     12  C   UNL A   1      32.603  23.893  24.040  1.00  0.00    -0.039 A 
BRANCH  11  13
ATOM     13  C   UNL A   1      35.036  23.992  24.523  1.00  0.00    -0.018 A 
ATOM     14  C   UNL A   1      35.443  23.189  23.432  1.00  0.00     0.009 A 
ATOM     15  C   UNL A   1      35.883  24.077  25.629  1.00  0.00     0.009 A 
ATOM     16  C   UNL A   1      36.600  22.416  23.486  1.00  0.00     0.001 A 
ATOM     17  C   UNL A   1      37.045  23.299  25.686  1.00  0.00     0.001 A 
ATOM     18  C   UNL A   1      37.392  22.458  24.625  1.00  0.00     0.000 A 
ENDBRANCH  11  13
BRANCH  12  19
ATOM     19  C   UNL A   1      32.444  22.412  24.336  1.00  0.00     0.047 C 
BRANCH  19  20
ATOM     20  C   UNL A   1      32.418  21.925  25.809  1.00  0.00     0.060 C 
ATOM     21  C   UNL A   1      33.566  21.019  26.282  1.00  0.00     0.012 C 
ATOM     22  C   UNL A   1      32.317  22.882  26.994  1.00  0.00     0.136 C 
ATOM     23  C   UNL A   1      34.229  21.718  27.468  1.00  0.00     0.009 C 
ATOM     24  C   UNL A   1      33.092  22.405  28.181  1.00  0.00     0.076 C 
ATOM     25  O   UNL A   1      31.608  23.869  27.089  1.00  0.00    -0.299 OA
ENDBRANCH  19  20
ENDBRANCH  12  19
ENDBRANCH   5   7
ENDBRANCH   3   5
ENDBRANCH   2   3
ENDBRANCH   1   2
BRANCH   1  26
ATOM     26  C   UNL A   1      34.019  30.572  27.700  1.00  0.00     0.275 C 
BRANCH  26  27
ATOM     27  O   UNL A   1      35.315  29.977  27.902  1.00  0.00    -0.458 OA
BRANCH  27  28
ATOM     28  C   UNL A   1      36.015  30.377  28.991  1.00  0.00     0.338 C 
ATOM     29  O   UNL A   1      35.578  30.988  29.960  1.00  0.00    -0.246 OA
BRANCH  28  30
ATOM     30  C   UNL A   1      37.424  29.949  28.855  1.00  0.00     0.060 A 
ATOM     31  C   UNL A   1      38.004  30.021  27.605  1.00  0.00     0.016 A 
ATOM     32  C   UNL A   1      38.181  29.438  29.916  1.00  0.00     0.016 A 
ATOM     33  C   UNL A   1      39.323  29.601  27.423  1.00  0.00     0.010 A 
ATOM     34  C   UNL A   1      39.538  29.070  29.727  1.00  0.00     0.010 A 
ATOM     35  C   UNL A   1      40.135  29.172  28.466  1.00  0.00    -0.014 A 
BRANCH  35  36
ATOM     36  C   UNL A   1      41.522  28.751  28.092  1.00  0.00     0.031 A 
ATOM     37  C   UNL A   1      42.669  29.629  28.501  1.00  0.00     0.074 A 
ATOM     38  C   UNL A   1      41.810  27.518  27.612  1.00  0.00     0.049 A 
ATOM     39  N   UNL A   1      43.944  29.484  28.252  1.00  0.00    -0.248 NA
ATOM     40  C   UNL A   1      42.335  30.832  29.277  1.00  0.00     0.031 C 
ATOM     41  C   UNL A   1      40.828  26.495  27.268  1.00  0.00     0.029 A 
ATOM     42  N   UNL A   1      43.020  26.881  27.409  1.00  0.00    -0.354 N 
ATOM     43  C   UNL A   1      44.545  30.646  28.709  1.00  0.00     0.074 A 
ATOM     44  C   UNL A   1      43.515  31.429  29.357  1.00  0.00     0.031 C 
ATOM     45  C   UNL A   1      41.464  25.333  27.025  1.00  0.00     0.029 A 
ATOM     46  C   UNL A   1      42.909  25.535  27.117  1.00  0.00     0.049 A 
ATOM     47  H   UNL A   1      43.886  27.346  27.468  1.00  0.00     0.167 HD
ATOM     48  C   UNL A   1      45.820  31.056  28.514  1.00  0.00     0.031 A 
ATOM     49  C   UNL A   1      43.858  24.583  26.948  1.00  0.00     0.031 A 
ATOM     50  C   UNL A   1      46.840  30.263  27.881  1.00  0.00     0.049 A 
ATOM     51  C   UNL A   1      45.304  25.016  26.851  1.00  0.00     0.074 A 
ATOM     52  C   UNL A   1      48.119  30.634  27.502  1.00  0.00     0.029 A 
ATOM     53  N   UNL A   1      46.703  28.922  27.562  1.00  0.00    -0.354 N 
ATOM     54  N   UNL A   1      45.828  26.198  27.072  1.00  0.00    -0.248 NA
ATOM     55  C   UNL A   1      46.277  24.010  26.389  1.00  0.00     0.031 C 
ATOM     56  C   UNL A   1      48.747  29.520  26.930  1.00  0.00     0.029 A 
ATOM     57  C   UNL A   1      47.877  28.445  27.004  1.00  0.00     0.049 A 
ATOM     58  H   UNL A   1      45.890  28.386  27.709  1.00  0.00     0.167 HD
ATOM     59  C   UNL A   1      47.165  26.097  26.699  1.00  0.00     0.074 A 
ATOM     60  C   UNL A   1      47.398  24.717  26.333  1.00  0.00     0.031 C 
ATOM     61  C   UNL A   1      48.098  27.076  26.613  1.00  0.00     0.031 A 
BRANCH  48  62
ATOM     62  C   UNL A   1      46.107  32.498  28.820  1.00  0.00    -0.014 A 
ATOM     63  C   UNL A   1      45.872  33.529  27.899  1.00  0.00     0.010 A 
ATOM     64  C   UNL A   1      46.683  32.803  30.070  1.00  0.00     0.010 A 
ATOM     65  C   UNL A   1      46.254  34.839  28.205  1.00  0.00     0.020 A 
ATOM     66  C   UNL A   1      47.039  34.112  30.389  1.00  0.00     0.020 A 
ATOM     67  C   UNL A   1      46.844  35.119  29.444  1.00  0.00     0.054 A 
BRANCH  67  68
ATOM     68  S   UNL A   1      47.348  36.821  29.813  1.00  0.00     0.124 S 
ATOM     69  O   UNL A   1      46.126  37.565  29.523  1.00  0.00    -0.237 OA
ATOM     70  O   UNL A   1      47.720  36.747  31.223  1.00  0.00    -0.237 OA
ATOM     71  O   UNL A   1      48.457  37.061  28.892  1.00  0.00    -0.744 OA
ENDBRANCH  67  68
ENDBRANCH  48  62
BRANCH  49  72
ATOM     72  C   UNL A   1      43.513  23.134  26.771  1.00  0.00    -0.014 A 
ATOM     73  C   UNL A   1      43.808  22.470  25.560  1.00  0.00     0.010 A 
ATOM     74  C   UNL A   1      42.843  22.415  27.775  1.00  0.00     0.010 A 
ATOM     75  C   UNL A   1      43.443  21.130  25.363  1.00  0.00     0.020 A 
ATOM     76  C   UNL A   1      42.511  21.065  27.598  1.00  0.00     0.020 A 
ATOM     77  C   UNL A   1      42.803  20.433  26.389  1.00  0.00     0.054 A 
BRANCH  77  78
ATOM     78  S   UNL A   1      42.410  18.672  26.169  1.00  0.00     0.124 S 
ATOM     79  O   UNL A   1      42.654  18.136  27.504  1.00  0.00    -0.237 OA
ATOM     80  O   UNL A   1      41.012  18.701  25.745  1.00  0.00    -0.237 OA
ATOM     81  O   UNL A   1      43.354  18.248  25.137  1.00  0.00    -0.744 OA
ENDBRANCH  77  78
ENDBRANCH  49  72
BRANCH  61  82
ATOM     82  C   UNL A   1      49.447  26.709  26.054  1.00  0.00    -0.014 A 
ATOM     83  C   UNL A   1      49.753  26.956  24.702  1.00  0.00     0.010 A 
ATOM     84  C   UNL A   1      50.439  26.176  26.894  1.00  0.00     0.010 A 
ATOM     85  C   UNL A   1      51.019  26.649  24.194  1.00  0.00     0.020 A 
ATOM     86  C   UNL A   1      51.712  25.885  26.393  1.00  0.00     0.020 A 
ATOM     87  C   UNL A   1      51.991  26.111  25.043  1.00  0.00     0.054 A 
BRANCH  87  88
ATOM     88  S   UNL A   1      53.639  25.753  24.371  1.00  0.00     0.124 S 
ATOM     89  O   UNL A   1      53.865  24.386  24.834  1.00  0.00    -0.237 OA
ATOM     90  O   UNL A   1      53.441  25.904  22.932  1.00  0.00    -0.237 OA
ATOM     91  O   UNL A   1      54.491  26.768  24.986  1.00  0.00    -0.744 OA
ENDBRANCH  87  88
ENDBRANCH  61  82
ENDBRANCH  35  36
ENDBRANCH  28  30
ENDBRANCH  27  28
ENDBRANCH  26  27
ENDBRANCH   1  26
TORSDOF 18
ENDMDL
MODEL 2
REMARK VINA RESULT:     -11.5      6.373     11.805
REMARK SMILES C[C@@H](C(=O)OCCOC(=O)c1ccc(-c2c3nc(c(-c4ccc(S(=O)(=O)[O-])cc4)c4ccc([nH]4)c(-c4ccc(S(=O)(=O)[O-])cc4)c4nc(c(-c5ccc(S(=O)(=O)[O-])cc5)c5ccc2[nH]5)C=C4)C=C3)cc1)c1ccc(C[C@H]2CCCC2=O)c(-c2ccccc2)c1
REMARK SMILES IDX 6 1 5 2 3 3 4 4 2 5 1 6 71 7 72 8 89 9 73 10 82 11 74 12
REMARK SMILES IDX 83 13 84 14 88 15 85 16 87 17 86 18 75 19 76 20 77 21 80 22
REMARK SMILES IDX 78 23 79 24 81 25 7 26 8 27 9 28 10 29 11 30 12 31 70 32
REMARK SMILES IDX 13 33 69 34 14 35 15 36 16 37 63 38 17 39 68 40 62 41 64 42
REMARK SMILES IDX 18 43 67 44 61 45 60 46 19 48 49 49 30 50 48 51 31 52 34 53
REMARK SMILES IDX 47 54 65 55 32 56 33 57 46 59 66 60 35 61 20 62 21 63 29 64
REMARK SMILES IDX 22 65 28 66 23 67 24 68 25 69 26 70 27 71 50 72 51 73 59 74
REMARK SMILES IDX 52 75 58 76 53 77 54 78 55 79 56 80 57 81 36 82 37 83 45 84
REMARK SMILES IDX 38 85 44 86 39 87 40 88 41 89 42 90 43 91
REMARK H PARENT 64 47 34 58
REMARK Flexibility Score: inf
ROOT
ATOM      1  C   UNL A   1      36.557  22.506  25.292  1.00  0.00     0.274 C 
ENDROOT
BRANCH   1   2
ATOM      2  O   UNL A   1      35.521  22.929  24.378  1.00  0.00    -0.462 OA
BRANCH   2   3
ATOM      3  C   UNL A   1      34.318  22.296  24.480  1.00  0.00     0.313 C 
ATOM      4  O   UNL A   1      33.629  21.980  23.517  1.00  0.00    -0.252 OA
BRANCH   3   5
ATOM      5  C   UNL A   1      33.879  22.083  25.947  1.00  0.00     0.126 C 
ATOM      6  C   UNL A   1      33.391  20.658  26.233  1.00  0.00     0.025 C 
BRANCH   5   7
ATOM      7  C   UNL A   1      32.869  23.159  26.320  1.00  0.00    -0.033 A 
ATOM      8  C   UNL A   1      31.561  22.825  26.664  1.00  0.00     0.005 A 
ATOM      9  C   UNL A   1      33.179  24.523  26.174  1.00  0.00     0.013 A 
ATOM     10  C   UNL A   1      30.553  23.771  26.512  1.00  0.00     0.004 A 
ATOM     11  C   UNL A   1      32.161  25.491  26.117  1.00  0.00    -0.015 A 
ATOM     12  C   UNL A   1      30.839  25.041  26.003  1.00  0.00    -0.039 A 
BRANCH  11  13
ATOM     13  C   UNL A   1      32.424  26.923  26.333  1.00  0.00    -0.018 A 
ATOM     14  C   UNL A   1      33.575  27.491  25.739  1.00  0.00     0.009 A 
ATOM     15  C   UNL A   1      31.634  27.738  27.145  1.00  0.00     0.009 A 
ATOM     16  C   UNL A   1      33.982  28.791  26.030  1.00  0.00     0.001 A 
ATOM     17  C   UNL A   1      32.043  29.044  27.441  1.00  0.00     0.001 A 
ATOM     18  C   UNL A   1      33.221  29.561  26.899  1.00  0.00     0.000 A 
ENDBRANCH  11  13
BRANCH  12  19
ATOM     19  C   UNL A   1      29.739  25.872  25.365  1.00  0.00     0.047 C 
BRANCH  19  20
ATOM     20  C   UNL A   1      29.886  26.332  23.891  1.00  0.00     0.060 C 
ATOM     21  C   UNL A   1      30.071  27.836  23.627  1.00  0.00     0.012 C 
ATOM     22  C   UNL A   1      30.938  25.756  22.946  1.00  0.00     0.136 C 
ATOM     23  C   UNL A   1      31.387  27.998  22.866  1.00  0.00     0.009 C 
ATOM     24  C   UNL A   1      31.466  26.776  21.987  1.00  0.00     0.076 C 
ATOM     25  O   UNL A   1      31.270  24.589  22.833  1.00  0.00    -0.299 OA
ENDBRANCH  19  20
ENDBRANCH  12  19
ENDBRANCH   5   7
ENDBRANCH   3   5
ENDBRANCH   2   3
ENDBRANCH   1   2
BRANCH   1  26
ATOM     26  C   UNL A   1      37.822  23.332  25.060  1.00  0.00     0.275 C 
BRANCH  26  27
ATOM     27  O   UNL A   1      38.071  24.170  26.204  1.00  0.00    -0.458 OA
BRANCH  27  28
ATOM     28  C   UNL A   1      39.335  24.189  26.692  1.00  0.00     0.338 C 
ATOM     29  O   UNL A   1      40.244  23.417  26.405  1.00  0.00    -0.246 OA
BRANCH  28  30
ATOM     30  C   UNL A   1      39.481  25.315  27.640  1.00  0.00     0.060 A 
ATOM     31  C   UNL A   1      38.896  25.194  28.884  1.00  0.00     0.016 A 
ATOM     32  C   UNL A   1      40.142  26.508  27.324  1.00  0.00     0.016 A 
ATOM     33  C   UNL A   1      38.984  26.243  29.801  1.00  0.00     0.010 A 
ATOM     34  C   UNL A   1      40.272  27.542  28.287  1.00  0.00     0.010 A 
ATOM     35  C   UNL A   1      39.706  27.406  29.559  1.00  0.00    -0.014 A 
BRANCH  35  36
ATOM     36  C   UNL A   1      39.687  28.432  30.649  1.00  0.00     0.031 A 
ATOM     37  C   UNL A   1      40.895  28.557  31.531  1.00  0.00     0.074 A 
ATOM     38  C   UNL A   1      38.742  29.398  30.731  1.00  0.00     0.049 A 
ATOM     39  N   UNL A   1      41.084  29.344  32.558  1.00  0.00    -0.248 NA
ATOM     40  C   UNL A   1      42.029  27.671  31.228  1.00  0.00     0.031 C 
ATOM     41  C   UNL A   1      37.561  29.498  29.880  1.00  0.00     0.029 A 
ATOM     42  N   UNL A   1      38.668  30.532  31.517  1.00  0.00    -0.354 N 
ATOM     43  C   UNL A   1      42.292  28.947  33.111  1.00  0.00     0.074 A 
ATOM     44  C   UNL A   1      42.846  27.934  32.238  1.00  0.00     0.031 C 
ATOM     45  C   UNL A   1      36.956  30.682  30.097  1.00  0.00     0.029 A 
ATOM     46  C   UNL A   1      37.656  31.404  31.159  1.00  0.00     0.049 A 
ATOM     47  H   UNL A   1      39.282  30.706  32.267  1.00  0.00     0.167 HD
ATOM     48  C   UNL A   1      42.832  29.328  34.292  1.00  0.00     0.031 A 
ATOM     49  C   UNL A   1      37.337  32.633  31.629  1.00  0.00     0.031 A 
ATOM     50  C   UNL A   1      42.281  30.347  35.145  1.00  0.00     0.049 A 
ATOM     51  C   UNL A   1      38.025  33.126  32.883  1.00  0.00     0.074 A 
ATOM     52  C   UNL A   1      42.663  30.708  36.426  1.00  0.00     0.029 A 
ATOM     53  N   UNL A   1      41.243  31.192  34.786  1.00  0.00    -0.354 N 
ATOM     54  N   UNL A   1      39.039  32.601  33.528  1.00  0.00    -0.248 NA
ATOM     55  C   UNL A   1      37.465  34.328  33.528  1.00  0.00     0.031 C 
ATOM     56  C   UNL A   1      41.837  31.758  36.850  1.00  0.00     0.029 A 
ATOM     57  C   UNL A   1      40.979  32.083  35.812  1.00  0.00     0.049 A 
ATOM     58  H   UNL A   1      40.762  31.162  33.927  1.00  0.00     0.167 HD
ATOM     59  C   UNL A   1      39.183  33.356  34.689  1.00  0.00     0.074 A 
ATOM     60  C   UNL A   1      38.221  34.433  34.613  1.00  0.00     0.031 C 
ATOM     61  C   UNL A   1      40.001  33.137  35.747  1.00  0.00     0.031 A 
BRANCH  48  62
ATOM     62  C   UNL A   1      43.970  28.493  34.801  1.00  0.00    -0.014 A 
ATOM     63  C   UNL A   1      45.314  28.821  34.568  1.00  0.00     0.010 A 
ATOM     64  C   UNL A   1      43.657  27.307  35.497  1.00  0.00     0.010 A 
ATOM     65  C   UNL A   1      46.327  27.949  34.981  1.00  0.00     0.020 A 
ATOM     66  C   UNL A   1      44.666  26.450  35.934  1.00  0.00     0.020 A 
ATOM     67  C   UNL A   1      45.995  26.766  35.651  1.00  0.00     0.054 A 
BRANCH  67  68
ATOM     68  S   UNL A   1      47.323  25.642  36.161  1.00  0.00     0.124 S 
ATOM     69  O   UNL A   1      46.649  24.346  36.125  1.00  0.00    -0.237 OA
ATOM     70  O   UNL A   1      48.336  25.852  35.131  1.00  0.00    -0.237 OA
ATOM     71  O   UNL A   1      47.687  26.118  37.493  1.00  0.00    -0.744 OA
ENDBRANCH  67  68
ENDBRANCH  48  62
BRANCH  49  72
ATOM     72  C   UNL A   1      36.271  33.478  30.997  1.00  0.00    -0.014 A 
ATOM     73  C   UNL A   1      35.110  33.826  31.722  1.00  0.00     0.010 A 
ATOM     74  C   UNL A   1      36.369  33.899  29.660  1.00  0.00     0.010 A 
ATOM     75  C   UNL A   1      34.081  34.571  31.125  1.00  0.00     0.020 A 
ATOM     76  C   UNL A   1      35.362  34.676  29.072  1.00  0.00     0.020 A 
ATOM     77  C   UNL A   1      34.219  34.998  29.804  1.00  0.00     0.054 A 
BRANCH  77  78
ATOM     78  S   UNL A   1      32.930  36.040  29.058  1.00  0.00     0.124 S 
ATOM     79  O   UNL A   1      32.159  36.456  30.224  1.00  0.00    -0.237 OA
ATOM     80  O   UNL A   1      33.702  37.093  28.401  1.00  0.00    -0.237 OA
ATOM     81  O   UNL A   1      32.248  35.122  28.147  1.00  0.00    -0.744 OA
ENDBRANCH  77  78
ENDBRANCH  49  72
BRANCH  61  82
ATOM     82  C   UNL A   1      39.860  34.047  36.939  1.00  0.00    -0.014 A 
ATOM     83  C   UNL A   1      40.553  35.272  36.991  1.00  0.00     0.010 A 
ATOM     84  C   UNL A   1      38.983  33.713  37.984  1.00  0.00     0.010 A 
ATOM     85  C   UNL A   1      40.392  36.132  38.080  1.00  0.00     0.020 A 
ATOM     86  C   UNL A   1      38.805  34.580  39.067  1.00  0.00     0.020 A 
ATOM     87  C   UNL A   1      39.521  35.779  39.116  1.00  0.00     0.054 A 
BRANCH  87  88
ATOM     88  S   UNL A   1      39.300  36.927  40.504  1.00  0.00     0.124 S 
ATOM     89  O   UNL A   1      40.680  37.204  40.892  1.00  0.00    -0.237 OA
ATOM     90  O   UNL A   1      38.584  38.042  39.889  1.00  0.00    -0.237 OA
ATOM     91  O   UNL A   1      38.523  36.154  41.471  1.00  0.00    -0.744 OA
ENDBRANCH  87  88
ENDBRANCH  61  82
ENDBRANCH  35  36
ENDBRANCH  28  30
ENDBRANCH  27  28
ENDBRANCH  26  27
ENDBRANCH   1  26
TORSDOF 18
ENDMDL
MODEL 3
REMARK VINA RESULT:     -11.5      1.865      2.372
REMARK SMILES C[C@@H](C(=O)OCCOC(=O)c1ccc(-c2c3nc(c(-c4ccc(S(=O)(=O)[O-])cc4)c4ccc([nH]4)c(-c4ccc(S(=O)(=O)[O-])cc4)c4nc(c(-c5ccc(S(=O)(=O)[O-])cc5)c5ccc2[nH]5)C=C4)C=C3)cc1)c1ccc(C[C@H]2CCCC2=O)c(-c2ccccc2)c1
REMARK SMILES IDX 6 1 5 2 3 3 4 4 2 5 1 6 71 7 72 8 89 9 73 10 82 11 74 12
REMARK SMILES IDX 83 13 84 14 88 15 85 16 87 17 86 18 75 19 76 20 77 21 80 22
REMARK SMILES IDX 78 23 79 24 81 25 7 26 8 27 9 28 10 29 11 30 12 31 70 32
REMARK SMILES IDX 13 33 69 34 14 35 15 36 16 37 63 38 17 39 68 40 62 41 64 42
REMARK SMILES IDX 18 43 67 44 61 45 60 46 19 48 49 49 30 50 48 51 31 52 34 53
REMARK SMILES IDX 47 54 65 55 32 56 33 57 46 59 66 60 35 61 20 62 21 63 29 64
REMARK SMILES IDX 22 65 28 66 23 67 24 68 25 69 26 70 27 71 50 72 51 73 59 74
REMARK SMILES IDX 52 75 58 76 53 77 54 78 55 79 56 80 57 81 36 82 37 83 45 84
REMARK SMILES IDX 38 85 44 86 39 87 40 88 41 89 42 90 43 91
REMARK H PARENT 64 47 34 58
REMARK Flexibility Score: inf
ROOT
ATOM      1  C   UNL A   1      31.979  29.133  26.264  1.00  0.00     0.274 C 
ENDROOT
BRANCH   1   2
ATOM      2  O   UNL A   1      32.103  27.741  25.902  1.00  0.00    -0.462 OA
BRANCH   2   3
ATOM      3  C   UNL A   1      31.323  27.303  24.874  1.00  0.00     0.313 C 
ATOM      4  O   UNL A   1      30.185  26.870  25.016  1.00  0.00    -0.252 OA
BRANCH   3   5
ATOM      5  C   UNL A   1      32.054  27.342  23.512  1.00  0.00     0.126 C 
ATOM      6  C   UNL A   1      31.177  27.860  22.367  1.00  0.00     0.025 C 
BRANCH   5   7
ATOM      7  C   UNL A   1      32.663  25.973  23.241  1.00  0.00    -0.033 A 
ATOM      8  C   UNL A   1      32.038  25.067  22.388  1.00  0.00     0.005 A 
ATOM      9  C   UNL A   1      33.784  25.525  23.963  1.00  0.00     0.013 A 
ATOM     10  C   UNL A   1      32.295  23.708  22.529  1.00  0.00     0.004 A 
ATOM     11  C   UNL A   1      34.101  24.157  24.025  1.00  0.00    -0.015 A 
ATOM     12  C   UNL A   1      33.160  23.246  23.525  1.00  0.00    -0.039 A 
BRANCH  11  13
ATOM     13  C   UNL A   1      35.428  23.674  24.440  1.00  0.00    -0.018 A 
ATOM     14  C   UNL A   1      36.057  22.680  23.654  1.00  0.00     0.009 A 
ATOM     15  C   UNL A   1      36.073  24.096  25.604  1.00  0.00     0.009 A 
ATOM     16  C   UNL A   1      37.230  22.055  24.067  1.00  0.00     0.001 A 
ATOM     17  C   UNL A   1      37.251  23.466  26.022  1.00  0.00     0.001 A 
ATOM     18  C   UNL A   1      37.817  22.438  25.265  1.00  0.00     0.000 A 
ENDBRANCH  11  13
BRANCH  12  19
ATOM     19  C   UNL A   1      33.060  21.813  24.018  1.00  0.00     0.047 C 
BRANCH  19  20
ATOM     20  C   UNL A   1      32.757  21.538  25.514  1.00  0.00     0.060 C 
ATOM     21  C   UNL A   1      33.895  20.974  26.381  1.00  0.00     0.012 C 
ATOM     22  C   UNL A   1      32.198  22.604  26.454  1.00  0.00     0.136 C 
ATOM     23  C   UNL A   1      34.109  21.955  27.533  1.00  0.00     0.009 C 
ATOM     24  C   UNL A   1      32.727  22.472  27.847  1.00  0.00     0.076 C 
ATOM     25  O   UNL A   1      31.325  23.418  26.211  1.00  0.00    -0.299 OA
ENDBRANCH  19  20
ENDBRANCH  12  19
ENDBRANCH   5   7
ENDBRANCH   3   5
ENDBRANCH   2   3
ENDBRANCH   1   2
BRANCH   1  26
ATOM     26  C   UNL A   1      33.361  29.787  26.294  1.00  0.00     0.275 C 
BRANCH  26  27
ATOM     27  O   UNL A   1      34.051  29.411  27.500  1.00  0.00    -0.458 OA
BRANCH  27  28
ATOM     28  C   UNL A   1      34.681  30.397  28.184  1.00  0.00     0.338 C 
ATOM     29  O   UNL A   1      34.185  31.446  28.582  1.00  0.00    -0.246 OA
BRANCH  28  30
ATOM     30  C   UNL A   1      36.092  30.018  28.407  1.00  0.00     0.060 A 
ATOM     31  C   UNL A   1      36.991  30.239  27.384  1.00  0.00     0.016 A 
ATOM     32  C   UNL A   1      36.551  29.410  29.582  1.00  0.00     0.016 A 
ATOM     33  C   UNL A   1      38.329  29.871  27.539  1.00  0.00     0.010 A 
ATOM     34  C   UNL A   1      37.926  29.095  29.746  1.00  0.00     0.010 A 
ATOM     35  C   UNL A   1      38.842  29.348  28.719  1.00  0.00    -0.014 A 
BRANCH  35  36
ATOM     36  C   UNL A   1      40.298  29.001  28.709  1.00  0.00     0.031 A 
ATOM     37  C   UNL A   1      41.238  29.848  29.518  1.00  0.00     0.074 A 
ATOM     38  C   UNL A   1      40.772  27.839  28.202  1.00  0.00     0.049 A 
ATOM     39  N   UNL A   1      42.539  29.758  29.624  1.00  0.00    -0.248 NA
ATOM     40  C   UNL A   1      40.640  30.945  30.292  1.00  0.00     0.031 C 
ATOM     41  C   UNL A   1      39.979  26.844  27.487  1.00  0.00     0.029 A 
ATOM     42  N   UNL A   1      42.022  27.254  28.282  1.00  0.00    -0.354 N 
ATOM     43  C   UNL A   1      42.927  30.871  30.355  1.00  0.00     0.074 A 
ATOM     44  C   UNL A   1      41.718  31.552  30.765  1.00  0.00     0.031 C 
ATOM     45  C   UNL A   1      40.717  25.731  27.310  1.00  0.00     0.029 A 
ATOM     46  C   UNL A   1      42.067  25.949  27.828  1.00  0.00     0.049 A 
ATOM     47  H   UNL A   1      42.812  27.726  28.633  1.00  0.00     0.167 HD
ATOM     48  C   UNL A   1      44.183  31.326  30.572  1.00  0.00     0.031 A 
ATOM     49  C   UNL A   1      43.074  25.043  27.833  1.00  0.00     0.031 A 
ATOM     50  C   UNL A   1      45.378  30.633  30.172  1.00  0.00     0.049 A 
ATOM     51  C   UNL A   1      44.465  25.513  28.196  1.00  0.00     0.074 A 
ATOM     52  C   UNL A   1      46.691  31.071  30.211  1.00  0.00     0.029 A 
ATOM     53  N   UNL A   1      45.406  29.336  29.686  1.00  0.00    -0.354 N 
ATOM     54  N   UNL A   1      44.844  26.671  28.681  1.00  0.00    -0.248 NA
ATOM     55  C   UNL A   1      45.579  24.587  27.922  1.00  0.00     0.031 C 
ATOM     56  C   UNL A   1      47.511  30.044  29.725  1.00  0.00     0.029 A 
ATOM     57  C   UNL A   1      46.712  28.950  29.435  1.00  0.00     0.049 A 
ATOM     58  H   UNL A   1      44.613  28.771  29.540  1.00  0.00     0.167 HD
ATOM     59  C   UNL A   1      46.236  26.641  28.693  1.00  0.00     0.074 A 
ATOM     60  C   UNL A   1      46.633  25.319  28.261  1.00  0.00     0.031 C 
ATOM     61  C   UNL A   1      47.104  27.642  28.978  1.00  0.00     0.031 A 
BRANCH  48  62
ATOM     62  C   UNL A   1      44.298  32.727  31.099  1.00  0.00    -0.014 A 
ATOM     63  C   UNL A   1      44.558  33.009  32.449  1.00  0.00     0.010 A 
ATOM     64  C   UNL A   1      44.083  33.789  30.199  1.00  0.00     0.010 A 
ATOM     65  C   UNL A   1      44.553  34.333  32.898  1.00  0.00     0.020 A 
ATOM     66  C   UNL A   1      44.105  35.112  30.638  1.00  0.00     0.020 A 
ATOM     67  C   UNL A   1      44.316  35.374  31.992  1.00  0.00     0.054 A 
BRANCH  67  68
ATOM     68  S   UNL A   1      44.296  37.082  32.600  1.00  0.00     0.124 S 
ATOM     69  O   UNL A   1      45.577  37.167  33.296  1.00  0.00    -0.237 OA
ATOM     70  O   UNL A   1      44.197  37.860  31.368  1.00  0.00    -0.237 OA
ATOM     71  O   UNL A   1      43.115  37.130  33.459  1.00  0.00    -0.744 OA
ENDBRANCH  67  68
ENDBRANCH  48  62
BRANCH  49  72
ATOM     72  C   UNL A   1      42.867  23.618  27.413  1.00  0.00    -0.014 A 
ATOM     73  C   UNL A   1      43.027  23.240  26.061  1.00  0.00     0.010 A 
ATOM     74  C   UNL A   1      42.459  22.637  28.332  1.00  0.00     0.010 A 
ATOM     75  C   UNL A   1      42.785  21.922  25.646  1.00  0.00     0.020 A 
ATOM     76  C   UNL A   1      42.254  21.310  27.929  1.00  0.00     0.020 A 
ATOM     77  C   UNL A   1      42.407  20.963  26.587  1.00  0.00     0.054 A 
BRANCH  77  78
ATOM     78  S   UNL A   1      42.182  19.236  26.067  1.00  0.00     0.124 S 
ATOM     79  O   UNL A   1      40.762  19.198  25.738  1.00  0.00    -0.237 OA
ATOM     80  O   UNL A   1      43.097  19.115  24.934  1.00  0.00    -0.237 OA
ATOM     81  O   UNL A   1      42.574  18.478  27.254  1.00  0.00    -0.744 OA
ENDBRANCH  77  78
ENDBRANCH  49  72
BRANCH  61  82
ATOM     82  C   UNL A   1      48.572  27.370  28.787  1.00  0.00    -0.014 A 
ATOM     83  C   UNL A   1      49.180  27.568  27.532  1.00  0.00     0.010 A 
ATOM     84  C   UNL A   1      49.366  26.978  29.878  1.00  0.00     0.010 A 
ATOM     85  C   UNL A   1      50.550  27.350  27.367  1.00  0.00     0.020 A 
ATOM     86  C   UNL A   1      50.741  26.777  29.719  1.00  0.00     0.020 A 
ATOM     87  C   UNL A   1      51.324  26.952  28.461  1.00  0.00     0.054 A 
BRANCH  87  88
ATOM     88  S   UNL A   1      53.108  26.710  28.232  1.00  0.00     0.124 S 
ATOM     89  O   UNL A   1      53.510  26.172  29.528  1.00  0.00    -0.237 OA
ATOM     90  O   UNL A   1      53.165  25.769  27.116  1.00  0.00    -0.237 OA
ATOM     91  O   UNL A   1      53.603  28.052  27.933  1.00  0.00    -0.744 OA
ENDBRANCH  87  88
ENDBRANCH  61  82
ENDBRANCH  35  36
ENDBRANCH  28  30
ENDBRANCH  27  28
ENDBRANCH  26  27
ENDBRANCH   1  26
TORSDOF 18
ENDMDL
