MODEL 1
REMARK VINA RESULT:      -9.8      0.000      0.000
REMARK SMILES C[C@H](CC[NH2+][C@@H]1CCOC2(CCC2)C1)CCC(=O)OCCOC(=O)c1ccc(-c2c3nc(c(-c4ccc(S(=O)(=O)[O-])cc4)c4ccc([nH]4)c(-c4ccc(S(=O)(=O)[O-])cc4)c4nc(c(-c5ccc(S(=O)(=O)[O-])cc5)c5ccc2[nH]5)C=C4)C=C3)cc1
REMARK SMILES IDX 19 1 17 2 18 3 16 4 15 5 2 6 1 7 3 8 4 9 5 10 6 13 7 14
REMARK SMILES IDX 14 15 8 16 10 17 9 18 11 19 13 20 12 21 20 22 21 23 22 24
REMARK SMILES IDX 23 25 24 26 25 27 26 28 84 29 27 30 83 31 28 32 29 33 30 34
REMARK SMILES IDX 77 35 31 36 82 37 76 38 78 39 32 40 81 41 75 42 74 43 33 45
REMARK SMILES IDX 63 46 44 47 62 48 45 49 48 50 61 51 79 52 46 53 47 54 60 56
REMARK SMILES IDX 80 57 49 58 34 59 35 60 43 61 36 62 42 63 37 64 38 65 39 66
REMARK SMILES IDX 40 67 41 68 64 69 65 70 73 71 66 72 72 73 67 74 68 75 69 76
REMARK SMILES IDX 70 77 71 78 50 79 51 80 59 81 52 82 58 83 53 84 54 85 55 86
REMARK SMILES IDX 56 87 57 88
REMARK H PARENT 5 11 5 12 78 44 48 55
REMARK Flexibility Score: inf
ROOT
ATOM      1  O   UNL A   1      39.284  21.953  26.597  1.00  0.00    -0.462 OA
ENDROOT
BRANCH   1   2
ATOM      2  C   UNL A   1      38.242  22.058  25.735  1.00  0.00     0.305 C 
ATOM      3  O   UNL A   1      37.882  21.183  24.959  1.00  0.00    -0.252 OA
BRANCH   2   4
ATOM      4  C   UNL A   1      37.574  23.417  25.808  1.00  0.00     0.123 C 
BRANCH   4   5
ATOM      5  C   UNL A   1      36.625  23.713  24.641  1.00  0.00     0.015 C 
BRANCH   5   6
ATOM      6  C   UNL A   1      35.147  23.469  25.003  1.00  0.00    -0.008 C 
ATOM      7  C   UNL A   1      34.451  22.612  23.937  1.00  0.00     0.008 C 
BRANCH   6   8
ATOM      8  C   UNL A   1      34.386  24.763  25.399  1.00  0.00     0.064 C 
BRANCH   8   9
ATOM      9  C   UNL A   1      33.958  25.743  24.290  1.00  0.00     0.261 C 
BRANCH   9  10
ATOM     10  N   UNL A   1      33.387  26.910  24.917  1.00  0.00    -0.344 N 
ATOM     11  H   UNL A   1      33.711  26.922  25.884  1.00  0.00     0.346 HD
ATOM     12  H   UNL A   1      32.382  26.800  24.783  1.00  0.00     0.346 HD
BRANCH  10  13
ATOM     13  C   UNL A   1      33.685  28.220  24.346  1.00  0.00     0.187 C 
ATOM     14  C   UNL A   1      33.476  29.222  25.485  1.00  0.00     0.093 C 
ATOM     15  C   UNL A   1      32.760  28.635  23.189  1.00  0.00     0.100 C 
ATOM     16  C   UNL A   1      32.028  29.179  25.958  1.00  0.00     0.167 C 
ATOM     17  C   UNL A   1      31.287  28.724  23.618  1.00  0.00     0.074 C 
ATOM     18  O   UNL A   1      31.124  29.424  24.885  1.00  0.00    -0.375 OA
ATOM     19  C   UNL A   1      30.347  29.339  22.524  1.00  0.00     0.036 C 
ATOM     20  C   UNL A   1      30.476  27.406  23.394  1.00  0.00     0.036 C 
ATOM     21  C   UNL A   1      29.309  28.262  22.890  1.00  0.00     0.006 C 
ENDBRANCH  10  13
ENDBRANCH   9  10
ENDBRANCH   8   9
ENDBRANCH   6   8
ENDBRANCH   5   6
ENDBRANCH   4   5
ENDBRANCH   2   4
ENDBRANCH   1   2
BRANCH   1  22
ATOM     22  C   UNL A   1      40.537  21.485  26.074  1.00  0.00     0.274 C 
BRANCH  22  23
ATOM     23  C   UNL A   1      41.614  22.553  26.269  1.00  0.00     0.275 C 
BRANCH  23  24
ATOM     24  O   UNL A   1      41.010  23.831  26.536  1.00  0.00    -0.458 OA
BRANCH  24  25
ATOM     25  C   UNL A   1      41.779  24.913  26.284  1.00  0.00     0.338 C 
ATOM     26  O   UNL A   1      42.400  25.165  25.260  1.00  0.00    -0.246 OA
BRANCH  25  27
ATOM     27  C   UNL A   1      41.670  25.847  27.411  1.00  0.00     0.060 A 
ATOM     28  C   UNL A   1      40.633  25.668  28.329  1.00  0.00     0.016 A 
ATOM     29  C   UNL A   1      42.554  26.919  27.535  1.00  0.00     0.016 A 
ATOM     30  C   UNL A   1      40.477  26.559  29.388  1.00  0.00     0.010 A 
ATOM     31  C   UNL A   1      42.398  27.812  28.598  1.00  0.00     0.010 A 
ATOM     32  C   UNL A   1      41.356  27.641  29.528  1.00  0.00    -0.014 A 
BRANCH  32  33
ATOM     33  C   UNL A   1      41.164  28.625  30.620  1.00  0.00     0.031 A 
ATOM     34  C   UNL A   1      42.048  28.573  31.833  1.00  0.00     0.074 A 
ATOM     35  C   UNL A   1      40.196  29.556  30.524  1.00  0.00     0.049 A 
ATOM     36  N   UNL A   1      41.977  29.272  32.937  1.00  0.00    -0.248 NA
ATOM     37  C   UNL A   1      43.154  27.602  31.802  1.00  0.00     0.031 C 
ATOM     38  C   UNL A   1      39.305  29.736  29.378  1.00  0.00     0.029 A 
ATOM     39  N   UNL A   1      39.796  30.522  31.414  1.00  0.00    -0.354 N 
ATOM     40  C   UNL A   1      43.010  28.808  33.743  1.00  0.00     0.074 A 
ATOM     41  C   UNL A   1      43.685  27.761  33.006  1.00  0.00     0.031 C 
ATOM     42  C   UNL A   1      38.465  30.754  29.632  1.00  0.00     0.029 A 
ATOM     43  C   UNL A   1      38.724  31.262  30.976  1.00  0.00     0.049 A 
ATOM     44  H   UNL A   1      40.235  30.670  32.282  1.00  0.00     0.167 HD
ATOM     45  C   UNL A   1      43.360  29.216  34.986  1.00  0.00     0.031 A 
ATOM     46  C   UNL A   1      38.012  32.222  31.598  1.00  0.00     0.031 A 
ATOM     47  C   UNL A   1      42.685  30.259  35.714  1.00  0.00     0.049 A 
ATOM     48  C   UNL A   1      38.383  32.617  33.002  1.00  0.00     0.074 A 
ATOM     49  C   UNL A   1      42.973  30.757  36.973  1.00  0.00     0.029 A 
ATOM     50  N   UNL A   1      41.585  30.964  35.247  1.00  0.00    -0.354 N 
ATOM     51  N   UNL A   1      39.361  32.168  33.753  1.00  0.00    -0.248 NA
ATOM     52  C   UNL A   1      37.552  33.645  33.643  1.00  0.00     0.031 C 
ATOM     53  C   UNL A   1      42.018  31.730  37.287  1.00  0.00     0.029 A 
ATOM     54  C   UNL A   1      41.167  31.876  36.202  1.00  0.00     0.049 A 
ATOM     55  H   UNL A   1      41.163  30.835  34.368  1.00  0.00     0.167 HD
ATOM     56  C   UNL A   1      39.276  32.875  34.947  1.00  0.00     0.074 A 
ATOM     57  C   UNL A   1      38.160  33.789  34.814  1.00  0.00     0.031 C 
ATOM     58  C   UNL A   1      40.053  32.777  36.054  1.00  0.00     0.031 A 
BRANCH  45  59
ATOM     59  C   UNL A   1      44.501  28.499  35.658  1.00  0.00    -0.014 A 
ATOM     60  C   UNL A   1      44.291  27.319  36.395  1.00  0.00     0.010 A 
ATOM     61  C   UNL A   1      45.808  28.999  35.523  1.00  0.00     0.010 A 
ATOM     62  C   UNL A   1      45.364  26.677  37.021  1.00  0.00     0.020 A 
ATOM     63  C   UNL A   1      46.887  28.347  36.126  1.00  0.00     0.020 A 
ATOM     64  C   UNL A   1      46.655  27.199  36.887  1.00  0.00     0.054 A 
BRANCH  64  65
ATOM     65  S   UNL A   1      48.032  26.341  37.697  1.00  0.00     0.124 S 
ATOM     66  O   UNL A   1      47.337  25.536  38.699  1.00  0.00    -0.237 OA
ATOM     67  O   UNL A   1      48.636  25.591  36.598  1.00  0.00    -0.237 OA
ATOM     68  O   UNL A   1      48.852  27.427  38.229  1.00  0.00    -0.744 OA
ENDBRANCH  64  65
ENDBRANCH  45  59
BRANCH  46  69
ATOM     69  C   UNL A   1      36.859  32.859  30.905  1.00  0.00    -0.014 A 
ATOM     70  C   UNL A   1      35.541  32.496  31.230  1.00  0.00     0.010 A 
ATOM     71  C   UNL A   1      37.075  33.843  29.922  1.00  0.00     0.010 A 
ATOM     72  C   UNL A   1      34.460  33.096  30.578  1.00  0.00     0.020 A 
ATOM     73  C   UNL A   1      35.996  34.464  29.288  1.00  0.00     0.020 A 
ATOM     74  C   UNL A   1      34.694  34.079  29.612  1.00  0.00     0.054 A 
BRANCH  74  75
ATOM     75  S   UNL A   1      33.275  34.887  28.822  1.00  0.00     0.124 S 
ATOM     76  O   UNL A   1      32.821  33.859  27.890  1.00  0.00    -0.237 OA
ATOM     77  O   UNL A   1      32.390  35.152  29.952  1.00  0.00    -0.237 OA
ATOM     78  O   UNL A   1      33.860  36.077  28.206  1.00  0.00    -0.744 OA
ENDBRANCH  74  75
ENDBRANCH  46  69
BRANCH  58  79
ATOM     79  C   UNL A   1      39.745  33.705  37.197  1.00  0.00    -0.014 A 
ATOM     80  C   UNL A   1      38.957  33.287  38.284  1.00  0.00     0.010 A 
ATOM     81  C   UNL A   1      40.298  35.000  37.207  1.00  0.00     0.010 A 
ATOM     82  C   UNL A   1      38.704  34.158  39.347  1.00  0.00     0.020 A 
ATOM     83  C   UNL A   1      40.068  35.864  38.281  1.00  0.00     0.020 A 
ATOM     84  C   UNL A   1      39.259  35.441  39.338  1.00  0.00     0.054 A 
BRANCH  84  85
ATOM     85  S   UNL A   1      38.951  36.539  40.749  1.00  0.00     0.124 S 
ATOM     86  O   UNL A   1      37.966  35.782  41.515  1.00  0.00    -0.237 OA
ATOM     87  O   UNL A   1      40.273  36.654  41.362  1.00  0.00    -0.237 OA
ATOM     88  O   UNL A   1      38.451  37.766  40.130  1.00  0.00    -0.744 OA
ENDBRANCH  84  85
ENDBRANCH  58  79
ENDBRANCH  32  33
ENDBRANCH  25  27
ENDBRANCH  24  25
ENDBRANCH  23  24
ENDBRANCH  22  23
ENDBRANCH   1  22
TORSDOF 20
ENDMDL
MODEL 2
REMARK VINA RESULT:      -9.6      4.341     10.593
REMARK SMILES C[C@H](CC[NH2+][C@@H]1CCOC2(CCC2)C1)CCC(=O)OCCOC(=O)c1ccc(-c2c3nc(c(-c4ccc(S(=O)(=O)[O-])cc4)c4ccc([nH]4)c(-c4ccc(S(=O)(=O)[O-])cc4)c4nc(c(-c5ccc(S(=O)(=O)[O-])cc5)c5ccc2[nH]5)C=C4)C=C3)cc1
REMARK SMILES IDX 19 1 17 2 18 3 16 4 15 5 2 6 1 7 3 8 4 9 5 10 6 13 7 14
REMARK SMILES IDX 14 15 8 16 10 17 9 18 11 19 13 20 12 21 20 22 21 23 22 24
REMARK SMILES IDX 23 25 24 26 25 27 26 28 84 29 27 30 83 31 28 32 29 33 30 34
REMARK SMILES IDX 77 35 31 36 82 37 76 38 78 39 32 40 81 41 75 42 74 43 33 45
REMARK SMILES IDX 63 46 44 47 62 48 45 49 48 50 61 51 79 52 46 53 47 54 60 56
REMARK SMILES IDX 80 57 49 58 34 59 35 60 43 61 36 62 42 63 37 64 38 65 39 66
REMARK SMILES IDX 40 67 41 68 64 69 65 70 73 71 66 72 72 73 67 74 68 75 69 76
REMARK SMILES IDX 70 77 71 78 50 79 51 80 59 81 52 82 58 83 53 84 54 85 55 86
REMARK SMILES IDX 56 87 57 88
REMARK H PARENT 5 11 5 12 78 44 48 55
REMARK Flexibility Score: inf
ROOT
ATOM      1  O   UNL A   1      32.517  29.643  24.757  1.00  0.00    -0.462 OA
ENDROOT
BRANCH   1   2
ATOM      2  C   UNL A   1      31.842  28.756  23.985  1.00  0.00     0.305 C 
ATOM      3  O   UNL A   1      30.645  28.518  24.071  1.00  0.00    -0.252 OA
BRANCH   2   4
ATOM      4  C   UNL A   1      32.752  28.045  23.002  1.00  0.00     0.123 C 
BRANCH   4   5
ATOM      5  C   UNL A   1      33.708  27.036  23.648  1.00  0.00     0.015 C 
BRANCH   5   6
ATOM      6  C   UNL A   1      33.277  25.576  23.411  1.00  0.00    -0.008 C 
ATOM      7  C   UNL A   1      32.756  25.379  21.980  1.00  0.00     0.008 C 
BRANCH   6   8
ATOM      8  C   UNL A   1      32.352  25.016  24.524  1.00  0.00     0.064 C 
BRANCH   8   9
ATOM      9  C   UNL A   1      32.192  23.489  24.660  1.00  0.00     0.261 C 
BRANCH   9  10
ATOM     10  N   UNL A   1      33.499  22.917  24.881  1.00  0.00    -0.344 N 
ATOM     11  H   UNL A   1      34.163  23.690  24.915  1.00  0.00     0.346 HD
ATOM     12  H   UNL A   1      33.617  22.258  24.112  1.00  0.00     0.346 HD
BRANCH  10  13
ATOM     13  C   UNL A   1      33.708  22.112  26.080  1.00  0.00     0.187 C 
ATOM     14  C   UNL A   1      35.209  21.805  26.110  1.00  0.00     0.093 C 
ATOM     15  C   UNL A   1      32.960  20.769  26.085  1.00  0.00     0.100 C 
ATOM     16  C   UNL A   1      35.602  21.007  24.874  1.00  0.00     0.167 C 
ATOM     17  C   UNL A   1      33.387  19.856  24.924  1.00  0.00     0.074 C 
ATOM     18  O   UNL A   1      34.834  19.813  24.761  1.00  0.00    -0.375 OA
ATOM     19  C   UNL A   1      32.799  18.405  25.013  1.00  0.00     0.036 C 
ATOM     20  C   UNL A   1      32.504  19.999  23.641  1.00  0.00     0.036 C 
ATOM     21  C   UNL A   1      32.546  18.475  23.496  1.00  0.00     0.006 C 
ENDBRANCH  10  13
ENDBRANCH   9  10
ENDBRANCH   8   9
ENDBRANCH   6   8
ENDBRANCH   5   6
ENDBRANCH   4   5
ENDBRANCH   2   4
ENDBRANCH   1   2
BRANCH   1  22
ATOM     22  C   UNL A   1      31.863  30.129  25.940  1.00  0.00     0.274 C 
BRANCH  22  23
ATOM     23  C   UNL A   1      32.556  29.573  27.184  1.00  0.00     0.275 C 
BRANCH  23  24
ATOM     24  O   UNL A   1      33.985  29.637  27.033  1.00  0.00    -0.458 OA
BRANCH  24  25
ATOM     25  C   UNL A   1      34.619  30.565  27.784  1.00  0.00     0.338 C 
ATOM     26  O   UNL A   1      34.158  31.608  28.227  1.00  0.00    -0.246 OA
BRANCH  25  27
ATOM     27  C   UNL A   1      35.962  30.073  28.113  1.00  0.00     0.060 A 
ATOM     28  C   UNL A   1      36.176  29.502  29.370  1.00  0.00     0.016 A 
ATOM     29  C   UNL A   1      37.014  30.217  27.208  1.00  0.00     0.016 A 
ATOM     30  C   UNL A   1      37.447  29.061  29.728  1.00  0.00     0.010 A 
ATOM     31  C   UNL A   1      38.289  29.773  27.568  1.00  0.00     0.010 A 
ATOM     32  C   UNL A   1      38.515  29.198  28.832  1.00  0.00    -0.014 A 
BRANCH  32  33
ATOM     33  C   UNL A   1      39.881  28.781  29.227  1.00  0.00     0.031 A 
ATOM     34  C   UNL A   1      40.767  29.741  29.969  1.00  0.00     0.074 A 
ATOM     35  C   UNL A   1      40.326  27.550  28.914  1.00  0.00     0.049 A 
ATOM     36  N   UNL A   1      42.022  29.609  30.312  1.00  0.00    -0.248 NA
ATOM     37  C   UNL A   1      40.160  31.020  30.373  1.00  0.00     0.031 C 
ATOM     38  C   UNL A   1      39.545  26.514  28.237  1.00  0.00     0.029 A 
ATOM     39  N   UNL A   1      41.551  26.964  29.121  1.00  0.00    -0.354 N 
ATOM     40  C   UNL A   1      42.366  30.797  30.948  1.00  0.00     0.074 A 
ATOM     41  C   UNL A   1      41.190  31.640  30.933  1.00  0.00     0.031 C 
ATOM     42  C   UNL A   1      40.308  25.418  28.087  1.00  0.00     0.029 A 
ATOM     43  C   UNL A   1      41.644  25.692  28.609  1.00  0.00     0.049 A 
ATOM     44  H   UNL A   1      42.291  27.413  29.590  1.00  0.00     0.167 HD
ATOM     45  C   UNL A   1      43.555  31.151  31.490  1.00  0.00     0.031 A 
ATOM     46  C   UNL A   1      42.695  24.851  28.544  1.00  0.00     0.031 A 
ATOM     47  C   UNL A   1      44.721  30.306  31.503  1.00  0.00     0.049 A 
ATOM     48  C   UNL A   1      44.022  25.291  29.101  1.00  0.00     0.074 A 
ATOM     49  C   UNL A   1      45.968  30.568  32.043  1.00  0.00     0.029 A 
ATOM     50  N   UNL A   1      44.783  29.037  30.949  1.00  0.00    -0.354 N 
ATOM     51  N   UNL A   1      44.332  26.418  29.697  1.00  0.00    -0.248 NA
ATOM     52  C   UNL A   1      45.141  24.347  28.973  1.00  0.00     0.031 C 
ATOM     53  C   UNL A   1      46.799  29.475  31.773  1.00  0.00     0.029 A 
ATOM     54  C   UNL A   1      46.054  28.511  31.113  1.00  0.00     0.049 A 
ATOM     55  H   UNL A   1      44.035  28.577  30.505  1.00  0.00     0.167 HD
ATOM     56  C   UNL A   1      45.676  26.309  30.035  1.00  0.00     0.074 A 
ATOM     57  C   UNL A   1      46.116  25.003  29.588  1.00  0.00     0.031 C 
ATOM     58  C   UNL A   1      46.475  27.209  30.660  1.00  0.00     0.031 A 
BRANCH  45  59
ATOM     59  C   UNL A   1      43.667  32.533  32.077  1.00  0.00    -0.014 A 
ATOM     60  C   UNL A   1      43.400  32.776  33.437  1.00  0.00     0.010 A 
ATOM     61  C   UNL A   1      44.074  33.602  31.258  1.00  0.00     0.010 A 
ATOM     62  C   UNL A   1      43.498  34.070  33.956  1.00  0.00     0.020 A 
ATOM     63  C   UNL A   1      44.197  34.893  31.778  1.00  0.00     0.020 A 
ATOM     64  C   UNL A   1      43.890  35.122  33.121  1.00  0.00     0.054 A 
BRANCH  64  65
ATOM     65  S   UNL A   1      44.022  36.790  33.821  1.00  0.00     0.124 S 
ATOM     66  O   UNL A   1      44.431  36.508  35.195  1.00  0.00    -0.237 OA
ATOM     67  O   UNL A   1      45.039  37.414  32.979  1.00  0.00    -0.237 OA
ATOM     68  O   UNL A   1      42.675  37.335  33.672  1.00  0.00    -0.744 OA
ENDBRANCH  64  65
ENDBRANCH  45  59
BRANCH  46  69
ATOM     69  C   UNL A   1      42.540  23.517  27.903  1.00  0.00    -0.014 A 
ATOM     70  C   UNL A   1      42.804  23.347  26.534  1.00  0.00     0.010 A 
ATOM     71  C   UNL A   1      42.138  22.403  28.666  1.00  0.00     0.010 A 
ATOM     72  C   UNL A   1      42.659  22.092  25.934  1.00  0.00     0.020 A 
ATOM     73  C   UNL A   1      42.018  21.143  28.076  1.00  0.00     0.020 A 
ATOM     74  C   UNL A   1      42.269  20.996  26.711  1.00  0.00     0.054 A 
BRANCH  74  75
ATOM     75  S   UNL A   1      42.144  19.366  25.925  1.00  0.00     0.124 S 
ATOM     76  O   UNL A   1      42.605  18.480  26.990  1.00  0.00    -0.237 OA
ATOM     77  O   UNL A   1      40.723  19.278  25.600  1.00  0.00    -0.237 OA
ATOM     78  O   UNL A   1      43.034  19.475  24.771  1.00  0.00    -0.744 OA
ENDBRANCH  74  75
ENDBRANCH  46  69
BRANCH  58  79
ATOM     79  C   UNL A   1      47.898  26.800  30.929  1.00  0.00    -0.014 A 
ATOM     80  C   UNL A   1      48.923  27.084  30.011  1.00  0.00     0.010 A 
ATOM     81  C   UNL A   1      48.219  26.167  32.144  1.00  0.00     0.010 A 
ATOM     82  C   UNL A   1      50.243  26.717  30.291  1.00  0.00     0.020 A 
ATOM     83  C   UNL A   1      49.540  25.821  32.439  1.00  0.00     0.020 A 
ATOM     84  C   UNL A   1      50.543  26.086  31.502  1.00  0.00     0.054 A 
BRANCH  84  85
ATOM     85  S   UNL A   1      52.267  25.656  31.864  1.00  0.00     0.124 S 
ATOM     86  O   UNL A   1      52.918  25.904  30.580  1.00  0.00    -0.237 OA
ATOM     87  O   UNL A   1      52.614  26.587  32.936  1.00  0.00    -0.237 OA
ATOM     88  O   UNL A   1      52.197  24.252  32.266  1.00  0.00    -0.744 OA
ENDBRANCH  84  85
ENDBRANCH  58  79
ENDBRANCH  32  33
ENDBRANCH  25  27
ENDBRANCH  24  25
ENDBRANCH  23  24
ENDBRANCH  22  23
ENDBRANCH   1  22
TORSDOF 20
ENDMDL
MODEL 3
REMARK VINA RESULT:      -9.5      1.655      2.417
REMARK SMILES C[C@H](CC[NH2+][C@@H]1CCOC2(CCC2)C1)CCC(=O)OCCOC(=O)c1ccc(-c2c3nc(c(-c4ccc(S(=O)(=O)[O-])cc4)c4ccc([nH]4)c(-c4ccc(S(=O)(=O)[O-])cc4)c4nc(c(-c5ccc(S(=O)(=O)[O-])cc5)c5ccc2[nH]5)C=C4)C=C3)cc1
REMARK SMILES IDX 19 1 17 2 18 3 16 4 15 5 2 6 1 7 3 8 4 9 5 10 6 13 7 14
REMARK SMILES IDX 14 15 8 16 10 17 9 18 11 19 13 20 12 21 20 22 21 23 22 24
REMARK SMILES IDX 23 25 24 26 25 27 26 28 84 29 27 30 83 31 28 32 29 33 30 34
REMARK SMILES IDX 77 35 31 36 82 37 76 38 78 39 32 40 81 41 75 42 74 43 33 45
REMARK SMILES IDX 63 46 44 47 62 48 45 49 48 50 61 51 79 52 46 53 47 54 60 56
REMARK SMILES IDX 80 57 49 58 34 59 35 60 43 61 36 62 42 63 37 64 38 65 39 66
REMARK SMILES IDX 40 67 41 68 64 69 65 70 73 71 66 72 72 73 67 74 68 75 69 76
REMARK SMILES IDX 70 77 71 78 50 79 51 80 59 81 52 82 58 83 53 84 54 85 55 86
REMARK SMILES IDX 56 87 57 88
REMARK H PARENT 5 11 5 12 78 44 48 55
REMARK Flexibility Score: inf
ROOT
ATOM      1  O   UNL A   1      37.297  23.530  25.088  1.00  0.00    -0.462 OA
ENDROOT
BRANCH   1   2
ATOM      2  C   UNL A   1      36.638  23.047  24.006  1.00  0.00     0.305 C 
ATOM      3  O   UNL A   1      36.887  23.340  22.843  1.00  0.00    -0.252 OA
BRANCH   2   4
ATOM      4  C   UNL A   1      35.510  22.110  24.393  1.00  0.00     0.123 C 
BRANCH   4   5
ATOM      5  C   UNL A   1      34.109  22.701  24.200  1.00  0.00     0.015 C 
BRANCH   5   6
ATOM      6  C   UNL A   1      33.247  22.609  25.473  1.00  0.00    -0.008 C 
ATOM      7  C   UNL A   1      31.892  21.950  25.176  1.00  0.00     0.008 C 
BRANCH   6   8
ATOM      8  C   UNL A   1      33.166  23.943  26.262  1.00  0.00     0.064 C 
BRANCH   8   9
ATOM      9  C   UNL A   1      34.080  25.111  25.845  1.00  0.00     0.261 C 
BRANCH   9  10
ATOM     10  N   UNL A   1      33.348  26.342  26.028  1.00  0.00    -0.344 N 
ATOM     11  H   UNL A   1      34.027  27.102  26.007  1.00  0.00     0.346 HD
ATOM     12  H   UNL A   1      32.851  26.209  26.908  1.00  0.00     0.346 HD
BRANCH  10  13
ATOM     13  C   UNL A   1      32.299  26.673  25.069  1.00  0.00     0.187 C 
ATOM     14  C   UNL A   1      33.028  27.021  23.768  1.00  0.00     0.093 C 
ATOM     15  C   UNL A   1      31.440  27.888  25.458  1.00  0.00     0.100 C 
ATOM     16  C   UNL A   1      33.933  28.226  23.983  1.00  0.00     0.167 C 
ATOM     17  C   UNL A   1      32.271  29.175  25.586  1.00  0.00     0.074 C 
ATOM     18  O   UNL A   1      33.200  29.343  24.477  1.00  0.00    -0.375 OA
ATOM     19  C   UNL A   1      31.405  30.468  25.780  1.00  0.00     0.036 C 
ATOM     20  C   UNL A   1      32.791  29.459  27.034  1.00  0.00     0.036 C 
ATOM     21  C   UNL A   1      32.436  30.935  26.824  1.00  0.00     0.006 C 
ENDBRANCH  10  13
ENDBRANCH   9  10
ENDBRANCH   8   9
ENDBRANCH   6   8
ENDBRANCH   5   6
ENDBRANCH   4   5
ENDBRANCH   2   4
ENDBRANCH   1   2
BRANCH   1  22
ATOM     22  C   UNL A   1      38.020  22.592  25.902  1.00  0.00     0.274 C 
BRANCH  22  23
ATOM     23  C   UNL A   1      39.251  23.267  26.506  1.00  0.00     0.275 C 
BRANCH  23  24
ATOM     24  O   UNL A   1      38.926  24.595  26.954  1.00  0.00    -0.458 OA
BRANCH  24  25
ATOM     25  C   UNL A   1      39.870  25.538  26.742  1.00  0.00     0.338 C 
ATOM     26  O   UNL A   1      40.543  25.707  25.735  1.00  0.00    -0.246 OA
BRANCH  25  27
ATOM     27  C   UNL A   1      39.897  26.450  27.891  1.00  0.00     0.060 A 
ATOM     28  C   UNL A   1      40.672  27.610  27.807  1.00  0.00     0.016 A 
ATOM     29  C   UNL A   1      39.201  26.143  29.061  1.00  0.00     0.016 A 
ATOM     30  C   UNL A   1      40.750  28.477  28.893  1.00  0.00     0.010 A 
ATOM     31  C   UNL A   1      39.280  27.014  30.150  1.00  0.00     0.010 A 
ATOM     32  C   UNL A   1      40.058  28.183  30.075  1.00  0.00    -0.014 A 
BRANCH  32  33
ATOM     33  C   UNL A   1      40.181  29.073  31.255  1.00  0.00     0.031 A 
ATOM     34  C   UNL A   1      41.319  28.881  32.218  1.00  0.00     0.074 A 
ATOM     35  C   UNL A   1      39.271  30.043  31.463  1.00  0.00     0.049 A 
ATOM     36  N   UNL A   1      41.545  29.482  33.357  1.00  0.00    -0.248 NA
ATOM     37  C   UNL A   1      42.330  27.878  31.850  1.00  0.00     0.031 C 
ATOM     38  C   UNL A   1      38.149  30.357  30.577  1.00  0.00     0.029 A 
ATOM     39  N   UNL A   1      39.144  30.940  32.494  1.00  0.00    -0.354 N 
ATOM     40  C   UNL A   1      42.710  28.911  33.858  1.00  0.00     0.074 A 
ATOM     41  C   UNL A   1      43.135  27.910  32.904  1.00  0.00     0.031 C 
ATOM     42  C   UNL A   1      37.450  31.377  31.101  1.00  0.00     0.029 A 
ATOM     43  C   UNL A   1      38.042  31.755  32.380  1.00  0.00     0.049 A 
ATOM     44  H   UNL A   1      39.780  30.995  33.243  1.00  0.00     0.167 HD
ATOM     45  C   UNL A   1      43.360  29.195  35.012  1.00  0.00     0.031 A 
ATOM     46  C   UNL A   1      37.550  32.681  33.226  1.00  0.00     0.031 A 
ATOM     47  C   UNL A   1      42.933  30.193  35.956  1.00  0.00     0.049 A 
ATOM     48  C   UNL A   1      38.258  32.936  34.529  1.00  0.00     0.074 A 
ATOM     49  C   UNL A   1      43.533  30.566  37.146  1.00  0.00     0.029 A 
ATOM     50  N   UNL A   1      41.796  30.975  35.819  1.00  0.00    -0.354 N 
ATOM     51  N   UNL A   1      39.356  32.387  34.990  1.00  0.00    -0.248 NA
ATOM     52  C   UNL A   1      37.657  33.934  35.426  1.00  0.00     0.031 C 
ATOM     53  C   UNL A   1      42.734  31.542  37.752  1.00  0.00     0.029 A 
ATOM     54  C   UNL A   1      41.664  31.814  36.913  1.00  0.00     0.049 A 
ATOM     55  H   UNL A   1      41.175  30.940  35.057  1.00  0.00     0.167 HD
ATOM     56  C   UNL A   1      39.592  32.988  36.222  1.00  0.00     0.074 A 
ATOM     57  C   UNL A   1      38.528  33.951  36.427  1.00  0.00     0.031 C 
ATOM     58  C   UNL A   1      40.598  32.765  37.103  1.00  0.00     0.031 A 
BRANCH  45  59
ATOM     59  C   UNL A   1      44.584  28.380  35.337  1.00  0.00    -0.014 A 
ATOM     60  C   UNL A   1      45.867  28.791  34.932  1.00  0.00     0.010 A 
ATOM     61  C   UNL A   1      44.449  27.197  36.085  1.00  0.00     0.010 A 
ATOM     62  C   UNL A   1      46.987  28.011  35.234  1.00  0.00     0.020 A 
ATOM     63  C   UNL A   1      45.569  26.427  36.411  1.00  0.00     0.020 A 
ATOM     64  C   UNL A   1      46.830  26.830  35.968  1.00  0.00     0.054 A 
BRANCH  64  65
ATOM     65  S   UNL A   1      48.300  25.843  36.358  1.00  0.00     0.124 S 
ATOM     66  O   UNL A   1      48.181  24.739  35.408  1.00  0.00    -0.237 OA
ATOM     67  O   UNL A   1      49.394  26.777  36.100  1.00  0.00    -0.237 OA
ATOM     68  O   UNL A   1      48.113  25.481  37.760  1.00  0.00    -0.744 OA
ENDBRANCH  64  65
ENDBRANCH  45  59
BRANCH  46  69
ATOM     69  C   UNL A   1      36.305  33.418  32.876  1.00  0.00    -0.014 A 
ATOM     70  C   UNL A   1      35.044  32.853  33.134  1.00  0.00     0.010 A 
ATOM     71  C   UNL A   1      36.375  34.698  32.294  1.00  0.00     0.010 A 
ATOM     72  C   UNL A   1      33.876  33.548  32.805  1.00  0.00     0.020 A 
ATOM     73  C   UNL A   1      35.210  35.406  31.989  1.00  0.00     0.020 A 
ATOM     74  C   UNL A   1      33.966  34.823  32.237  1.00  0.00     0.054 A 
BRANCH  74  75
ATOM     75  S   UNL A   1      32.438  35.730  31.874  1.00  0.00     0.124 S 
ATOM     76  O   UNL A   1      32.804  37.096  32.237  1.00  0.00    -0.237 OA
ATOM     77  O   UNL A   1      32.254  35.483  30.447  1.00  0.00    -0.237 OA
ATOM     78  O   UNL A   1      31.450  35.094  32.742  1.00  0.00    -0.744 OA
ENDBRANCH  74  75
ENDBRANCH  46  69
BRANCH  58  79
ATOM     79  C   UNL A   1      40.617  33.599  38.355  1.00  0.00    -0.014 A 
ATOM     80  C   UNL A   1      41.350  34.796  38.421  1.00  0.00     0.010 A 
ATOM     81  C   UNL A   1      39.845  33.203  39.463  1.00  0.00     0.010 A 
ATOM     82  C   UNL A   1      41.335  35.569  39.587  1.00  0.00     0.020 A 
ATOM     83  C   UNL A   1      39.807  33.985  40.620  1.00  0.00     0.020 A 
ATOM     84  C   UNL A   1      40.565  35.157  40.679  1.00  0.00     0.054 A 
BRANCH  84  85
ATOM     85  S   UNL A   1      40.527  36.197  42.165  1.00  0.00     0.124 S 
ATOM     86  O   UNL A   1      39.143  36.662  42.175  1.00  0.00    -0.237 OA
ATOM     87  O   UNL A   1      40.883  35.257  43.226  1.00  0.00    -0.237 OA
ATOM     88  O   UNL A   1      41.529  37.227  41.893  1.00  0.00    -0.744 OA
ENDBRANCH  84  85
ENDBRANCH  58  79
ENDBRANCH  32  33
ENDBRANCH  25  27
ENDBRANCH  24  25
ENDBRANCH  23  24
ENDBRANCH  22  23
ENDBRANCH   1  22
TORSDOF 20
ENDMDL
