MODEL 1
REMARK VINA RESULT:     -13.8      0.000      0.000
REMARK SMILES Cc1ccc(NC(=O)c2cnn3c2NC2=C(C(=O)CCC2)[C@H]3c2ccc(C(=O)OCCOC(=O)c3ccc(-c4c5nc(c(-c6ccc(S(=O)(=O)[O-])cc6)c6ccc([nH]6)c(-c6ccc(S(=O)(=O)[O-])cc6)c6nc(c(-c7ccc(S(=O)(=O)[O-])cc7)c7ccc4[nH]7)C=C6)C=C5)cc3)cc2)cc1
REMARK SMILES IDX 30 1 29 2 27 3 28 4 26 5 23 6 24 7 96 8 25 9 95 10 22 11
REMARK SMILES IDX 9 12 10 13 13 14 11 15 12 16 14 17 15 18 16 20 21 21 17 22
REMARK SMILES IDX 20 23 18 24 19 25 7 26 6 27 8 29 5 30 1 31 2 32 3 33 98 34
REMARK SMILES IDX 4 35 97 36 31 37 32 38 33 39 34 40 35 41 36 42 94 43 37 44
REMARK SMILES IDX 93 45 38 46 39 47 40 48 87 49 41 50 92 51 86 52 88 53 42 54
REMARK SMILES IDX 91 55 85 56 84 57 43 59 73 60 54 61 72 62 55 63 58 64 71 65
REMARK SMILES IDX 89 66 56 67 57 68 70 70 90 71 59 72 44 73 45 74 53 75 46 76
REMARK SMILES IDX 52 77 47 78 48 79 49 80 50 81 51 82 74 83 75 84 83 85 76 86
REMARK SMILES IDX 82 87 77 88 78 89 79 90 80 91 81 92 60 93 61 94 69 95 62 96
REMARK SMILES IDX 68 97 63 98 64 99 65 100 66 101 67 102
REMARK H PARENT 14 19 6 28 88 58 58 69
REMARK Flexibility Score: inf
ROOT
ATOM      1  C   UNL A   1      34.385  31.761  27.947  1.00  0.00     0.275 C 
ENDROOT
BRANCH   1   2
ATOM      2  O   UNL A   1      34.082  30.772  26.946  1.00  0.00    -0.458 OA
BRANCH   2   3
ATOM      3  C   UNL A   1      32.823  30.276  26.968  1.00  0.00     0.338 C 
ATOM      4  O   UNL A   1      31.792  30.924  27.033  1.00  0.00    -0.246 OA
BRANCH   3   5
ATOM      5  C   UNL A   1      32.851  28.849  26.611  1.00  0.00     0.060 A 
ATOM      6  C   UNL A   1      32.784  26.011  26.372  1.00  0.00    -0.019 A 
ATOM      7  C   UNL A   1      33.946  26.736  26.055  1.00  0.00     0.007 A 
ATOM      8  C   UNL A   1      31.660  26.786  26.740  1.00  0.00     0.007 A 
ATOM      9  C   UNL A   1      33.984  28.148  26.183  1.00  0.00     0.016 A 
ATOM     10  C   UNL A   1      31.678  28.167  26.865  1.00  0.00     0.016 A 
BRANCH   6  11
ATOM     11  C   UNL A   1      32.711  24.444  26.270  1.00  0.00     0.175 C 
ATOM     12  C   UNL A   1      32.427  24.239  22.763  1.00  0.00     0.102 A 
ATOM     13  C   UNL A   1      31.244  23.576  23.204  1.00  0.00     0.151 A 
ATOM     14  C   UNL A   1      33.258  24.172  23.867  1.00  0.00     0.142 A 
ATOM     15  N   UNL A   1      31.180  23.468  24.537  1.00  0.00    -0.178 NA
ATOM     16  N   UNL A   1      32.347  24.025  24.907  1.00  0.00    -0.237 N 
ATOM     17  N   UNL A   1      34.572  24.379  24.219  1.00  0.00    -0.343 N 
ATOM     18  C   UNL A   1      35.007  24.035  25.520  1.00  0.00     0.026 C 
ATOM     19  H   UNL A   1      35.204  24.765  23.569  1.00  0.00     0.168 HD
ATOM     20  C   UNL A   1      34.060  23.789  26.458  1.00  0.00     0.044 C 
ATOM     21  C   UNL A   1      36.384  23.476  25.759  1.00  0.00     0.055 C 
ATOM     22  C   UNL A   1      34.016  22.306  26.749  1.00  0.00     0.163 C 
ATOM     23  C   UNL A   1      36.341  21.951  25.895  1.00  0.00     0.014 C 
ATOM     24  O   UNL A   1      33.166  21.838  27.503  1.00  0.00    -0.294 OA
ATOM     25  C   UNL A   1      34.915  21.412  25.892  1.00  0.00     0.081 C 
BRANCH  12  26
ATOM     26  C   UNL A   1      32.671  24.852  21.485  1.00  0.00     0.261 C 
ATOM     27  N   UNL A   1      32.203  26.134  21.234  1.00  0.00    -0.322 N 
ATOM     28  H   UNL A   1      32.189  26.355  20.275  1.00  0.00     0.170 HD
ATOM     29  O   UNL A   1      33.281  24.259  20.592  1.00  0.00    -0.269 OA
BRANCH  27  30
ATOM     30  C   UNL A   1      31.738  27.199  22.052  1.00  0.00     0.041 A 
ATOM     31  C   UNL A   1      30.055  30.422  24.439  1.00  0.00     0.044 C 
ATOM     32  C   UNL A   1      30.611  29.298  23.617  1.00  0.00    -0.051 A 
ATOM     33  C   UNL A   1      31.961  29.298  23.290  1.00  0.00     0.005 A 
ATOM     34  C   UNL A   1      29.819  28.244  23.155  1.00  0.00     0.005 A 
ATOM     35  C   UNL A   1      32.505  28.265  22.517  1.00  0.00     0.026 A 
ATOM     36  C   UNL A   1      30.375  27.214  22.375  1.00  0.00     0.026 A 
ENDBRANCH  27  30
ENDBRANCH  12  26
ENDBRANCH   6  11
ENDBRANCH   3   5
ENDBRANCH   2   3
ENDBRANCH   1   2
BRANCH   1  37
ATOM     37  C   UNL A   1      35.460  31.349  28.982  1.00  0.00     0.275 C 
BRANCH  37  38
ATOM     38  O   UNL A   1      35.907  29.979  28.940  1.00  0.00    -0.458 OA
BRANCH  38  39
ATOM     39  C   UNL A   1      36.584  29.545  30.045  1.00  0.00     0.338 C 
ATOM     40  O   UNL A   1      36.098  29.468  31.159  1.00  0.00    -0.246 OA
BRANCH  39  41
ATOM     41  C   UNL A   1      37.787  28.815  29.557  1.00  0.00     0.060 A 
ATOM     42  C   UNL A   1      38.218  28.996  28.233  1.00  0.00     0.016 A 
ATOM     43  C   UNL A   1      38.658  28.316  30.529  1.00  0.00     0.016 A 
ATOM     44  C   UNL A   1      39.556  28.787  27.906  1.00  0.00     0.010 A 
ATOM     45  C   UNL A   1      39.995  28.276  30.253  1.00  0.00     0.010 A 
ATOM     46  C   UNL A   1      40.439  28.462  28.936  1.00  0.00    -0.014 A 
BRANCH  46  47
ATOM     47  C   UNL A   1      41.758  27.891  28.734  1.00  0.00     0.031 A 
ATOM     48  C   UNL A   1      42.009  26.461  28.512  1.00  0.00     0.074 A 
ATOM     49  C   UNL A   1      42.671  28.867  28.527  1.00  0.00     0.049 A 
ATOM     50  N   UNL A   1      43.154  25.912  28.726  1.00  0.00    -0.248 NA
ATOM     51  C   UNL A   1      40.999  25.509  28.047  1.00  0.00     0.031 C 
ATOM     52  C   UNL A   1      43.979  28.818  27.909  1.00  0.00     0.029 A 
ATOM     53  N   UNL A   1      42.556  30.197  28.962  1.00  0.00    -0.354 N 
ATOM     54  C   UNL A   1      43.134  24.676  28.113  1.00  0.00     0.074 A 
ATOM     55  C   UNL A   1      41.741  24.409  27.838  1.00  0.00     0.031 C 
ATOM     56  C   UNL A   1      44.653  29.929  28.270  1.00  0.00     0.029 A 
ATOM     57  C   UNL A   1      43.836  30.638  29.254  1.00  0.00     0.049 A 
ATOM     58  H   UNL A   1      41.724  30.717  29.044  1.00  0.00     0.167 HD
ATOM     59  C   UNL A   1      44.314  24.116  27.717  1.00  0.00     0.031 A 
ATOM     60  C   UNL A   1      44.187  30.937  30.540  1.00  0.00     0.031 A 
ATOM     61  C   UNL A   1      45.420  25.028  27.999  1.00  0.00     0.049 A 
ATOM     62  C   UNL A   1      45.257  29.978  30.990  1.00  0.00     0.074 A 
ATOM     63  C   UNL A   1      46.065  25.944  27.185  1.00  0.00     0.029 A 
ATOM     64  N   UNL A   1      45.758  25.341  29.307  1.00  0.00    -0.354 N 
ATOM     65  N   UNL A   1      45.353  28.746  30.570  1.00  0.00    -0.248 NA
ATOM     66  C   UNL A   1      46.336  30.364  31.888  1.00  0.00     0.031 C 
ATOM     67  C   UNL A   1      46.732  26.870  28.021  1.00  0.00     0.029 A 
ATOM     68  C   UNL A   1      46.504  26.502  29.338  1.00  0.00     0.049 A 
ATOM     69  H   UNL A   1      45.503  24.812  30.097  1.00  0.00     0.167 HD
ATOM     70  C   UNL A   1      46.539  28.224  31.009  1.00  0.00     0.074 A 
ATOM     71  C   UNL A   1      47.093  29.254  31.872  1.00  0.00     0.031 C 
ATOM     72  C   UNL A   1      47.024  27.019  30.591  1.00  0.00     0.031 A 
BRANCH  59  73
ATOM     73  C   UNL A   1      44.472  22.940  26.777  1.00  0.00    -0.014 A 
ATOM     74  C   UNL A   1      43.378  22.058  26.611  1.00  0.00     0.010 A 
ATOM     75  C   UNL A   1      45.630  22.635  26.038  1.00  0.00     0.010 A 
ATOM     76  C   UNL A   1      43.447  20.906  25.821  1.00  0.00     0.020 A 
ATOM     77  C   UNL A   1      45.717  21.472  25.244  1.00  0.00     0.020 A 
ATOM     78  C   UNL A   1      44.625  20.609  25.150  1.00  0.00     0.054 A 
BRANCH  78  79
ATOM     79  S   UNL A   1      44.686  19.097  24.152  1.00  0.00     0.124 S 
ATOM     80  O   UNL A   1      44.369  19.591  22.814  1.00  0.00    -0.237 OA
ATOM     81  O   UNL A   1      46.060  18.645  24.344  1.00  0.00    -0.237 OA
ATOM     82  O   UNL A   1      43.661  18.243  24.752  1.00  0.00    -0.744 OA
ENDBRANCH  78  79
ENDBRANCH  59  73
BRANCH  60  83
ATOM     83  C   UNL A   1      43.078  31.457  31.407  1.00  0.00    -0.014 A 
ATOM     84  C   UNL A   1      42.449  32.664  31.023  1.00  0.00     0.010 A 
ATOM     85  C   UNL A   1      42.428  30.644  32.354  1.00  0.00     0.010 A 
ATOM     86  C   UNL A   1      41.168  32.994  31.483  1.00  0.00     0.020 A 
ATOM     87  C   UNL A   1      41.144  30.979  32.827  1.00  0.00     0.020 A 
ATOM     88  C   UNL A   1      40.509  32.133  32.359  1.00  0.00     0.054 A 
BRANCH  88  89
ATOM     89  S   UNL A   1      38.748  32.442  32.707  1.00  0.00     0.124 S 
ATOM     90  O   UNL A   1      38.264  31.110  33.057  1.00  0.00    -0.237 OA
ATOM     91  O   UNL A   1      38.823  33.398  33.811  1.00  0.00    -0.237 OA
ATOM     92  O   UNL A   1      38.245  32.986  31.448  1.00  0.00    -0.744 OA
ENDBRANCH  88  89
ENDBRANCH  60  83
BRANCH  72  93
ATOM     93  C   UNL A   1      48.148  26.263  31.240  1.00  0.00    -0.014 A 
ATOM     94  C   UNL A   1      48.087  25.766  32.548  1.00  0.00     0.010 A 
ATOM     95  C   UNL A   1      49.268  25.889  30.456  1.00  0.00     0.010 A 
ATOM     96  C   UNL A   1      49.127  24.998  33.077  1.00  0.00     0.020 A 
ATOM     97  C   UNL A   1      50.282  25.075  30.953  1.00  0.00     0.020 A 
ATOM     98  C   UNL A   1      50.219  24.658  32.276  1.00  0.00     0.054 A 
BRANCH  98  99
ATOM     99  S   UNL A   1      51.523  23.613  32.958  1.00  0.00     0.124 S 
ATOM    100  O   UNL A   1      51.279  23.733  34.393  1.00  0.00    -0.237 OA
ATOM    101  O   UNL A   1      51.227  22.305  32.380  1.00  0.00    -0.237 OA
ATOM    102  O   UNL A   1      52.751  24.237  32.474  1.00  0.00    -0.744 OA
ENDBRANCH  98  99
ENDBRANCH  72  93
ENDBRANCH  46  47
ENDBRANCH  39  41
ENDBRANCH  38  39
ENDBRANCH  37  38
ENDBRANCH   1  37
TORSDOF 17
ENDMDL
MODEL 2
REMARK VINA RESULT:     -13.4      3.893     10.283
REMARK SMILES Cc1ccc(NC(=O)c2cnn3c2NC2=C(C(=O)CCC2)[C@H]3c2ccc(C(=O)OCCOC(=O)c3ccc(-c4c5nc(c(-c6ccc(S(=O)(=O)[O-])cc6)c6ccc([nH]6)c(-c6ccc(S(=O)(=O)[O-])cc6)c6nc(c(-c7ccc(S(=O)(=O)[O-])cc7)c7ccc4[nH]7)C=C6)C=C5)cc3)cc2)cc1
REMARK SMILES IDX 30 1 29 2 27 3 28 4 26 5 23 6 24 7 96 8 25 9 95 10 22 11
REMARK SMILES IDX 9 12 10 13 13 14 11 15 12 16 14 17 15 18 16 20 21 21 17 22
REMARK SMILES IDX 20 23 18 24 19 25 7 26 6 27 8 29 5 30 1 31 2 32 3 33 98 34
REMARK SMILES IDX 4 35 97 36 31 37 32 38 33 39 34 40 35 41 36 42 94 43 37 44
REMARK SMILES IDX 93 45 38 46 39 47 40 48 87 49 41 50 92 51 86 52 88 53 42 54
REMARK SMILES IDX 91 55 85 56 84 57 43 59 73 60 54 61 72 62 55 63 58 64 71 65
REMARK SMILES IDX 89 66 56 67 57 68 70 70 90 71 59 72 44 73 45 74 53 75 46 76
REMARK SMILES IDX 52 77 47 78 48 79 49 80 50 81 51 82 74 83 75 84 83 85 76 86
REMARK SMILES IDX 82 87 77 88 78 89 79 90 80 91 81 92 60 93 61 94 69 95 62 96
REMARK SMILES IDX 68 97 63 98 64 99 65 100 66 101 67 102
REMARK H PARENT 14 19 6 28 88 58 58 69
REMARK Flexibility Score: inf
ROOT
ATOM      1  C   UNL A   1      39.708  22.085  26.465  1.00  0.00     0.275 C 
ENDROOT
BRANCH   1   2
ATOM      2  O   UNL A   1      38.282  22.279  26.461  1.00  0.00    -0.458 OA
BRANCH   2   3
ATOM      3  C   UNL A   1      37.609  21.685  25.448  1.00  0.00     0.338 C 
ATOM      4  O   UNL A   1      37.518  20.486  25.245  1.00  0.00    -0.246 OA
BRANCH   3   5
ATOM      5  C   UNL A   1      36.753  22.677  24.779  1.00  0.00     0.060 A 
ATOM      6  C   UNL A   1      34.796  24.526  23.846  1.00  0.00    -0.019 A 
ATOM      7  C   UNL A   1      35.213  23.449  23.044  1.00  0.00     0.007 A 
ATOM      8  C   UNL A   1      35.457  24.656  25.088  1.00  0.00     0.007 A 
ATOM      9  C   UNL A   1      36.181  22.523  23.511  1.00  0.00     0.016 A 
ATOM     10  C   UNL A   1      36.408  23.762  25.558  1.00  0.00     0.016 A 
BRANCH   6  11
ATOM     11  C   UNL A   1      33.707  25.558  23.375  1.00  0.00     0.175 C 
ATOM     12  C   UNL A   1      31.023  24.256  25.253  1.00  0.00     0.102 A 
ATOM     13  C   UNL A   1      30.529  24.173  23.919  1.00  0.00     0.151 A 
ATOM     14  C   UNL A   1      32.024  25.207  25.163  1.00  0.00     0.142 A 
ATOM     15  N   UNL A   1      31.375  24.696  23.023  1.00  0.00    -0.178 NA
ATOM     16  N   UNL A   1      32.366  25.139  23.817  1.00  0.00    -0.237 N 
ATOM     17  N   UNL A   1      32.827  25.980  25.968  1.00  0.00    -0.343 N 
ATOM     18  C   UNL A   1      33.664  26.960  25.384  1.00  0.00     0.026 C 
ATOM     19  H   UNL A   1      32.821  25.852  26.945  1.00  0.00     0.168 HD
ATOM     20  C   UNL A   1      33.859  26.904  24.043  1.00  0.00     0.044 C 
ATOM     21  C   UNL A   1      33.922  28.274  26.069  1.00  0.00     0.055 C 
ATOM     22  C   UNL A   1      33.108  28.036  23.379  1.00  0.00     0.163 C 
ATOM     23  C   UNL A   1      33.036  29.380  25.488  1.00  0.00     0.014 C 
ATOM     24  O   UNL A   1      33.066  28.129  22.154  1.00  0.00    -0.294 OA
ATOM     25  C   UNL A   1      32.230  28.901  24.286  1.00  0.00     0.081 C 
BRANCH  12  26
ATOM     26  C   UNL A   1      30.594  23.504  26.402  1.00  0.00     0.261 C 
ATOM     27  N   UNL A   1      31.037  22.201  26.578  1.00  0.00    -0.322 N 
ATOM     28  H   UNL A   1      30.496  21.697  27.229  1.00  0.00     0.170 HD
ATOM     29  O   UNL A   1      29.825  23.986  27.237  1.00  0.00    -0.269 OA
BRANCH  27  30
ATOM     30  C   UNL A   1      32.095  21.429  26.027  1.00  0.00     0.041 A 
ATOM     31  C   UNL A   1      35.138  18.908  24.211  1.00  0.00     0.044 C 
ATOM     32  C   UNL A   1      34.074  19.774  24.815  1.00  0.00    -0.051 A 
ATOM     33  C   UNL A   1      34.325  20.420  26.018  1.00  0.00     0.005 A 
ATOM     34  C   UNL A   1      32.824  19.952  24.217  1.00  0.00     0.005 A 
ATOM     35  C   UNL A   1      33.346  21.228  26.608  1.00  0.00     0.026 A 
ATOM     36  C   UNL A   1      31.846  20.763  24.822  1.00  0.00     0.026 A 
ENDBRANCH  27  30
ENDBRANCH  12  26
ENDBRANCH   6  11
ENDBRANCH   3   5
ENDBRANCH   2   3
ENDBRANCH   1   2
BRANCH   1  37
ATOM     37  C   UNL A   1      40.552  23.375  26.608  1.00  0.00     0.275 C 
BRANCH  37  38
ATOM     38  O   UNL A   1      39.829  24.622  26.629  1.00  0.00    -0.458 OA
BRANCH  38  39
ATOM     39  C   UNL A   1      40.561  25.734  26.322  1.00  0.00     0.338 C 
ATOM     40  O   UNL A   1      41.166  25.888  25.277  1.00  0.00    -0.246 OA
BRANCH  39  41
ATOM     41  C   UNL A   1      40.123  26.812  27.252  1.00  0.00     0.060 A 
ATOM     42  C   UNL A   1      39.401  26.478  28.410  1.00  0.00     0.016 A 
ATOM     43  C   UNL A   1      40.788  28.037  27.154  1.00  0.00     0.016 A 
ATOM     44  C   UNL A   1      39.442  27.321  29.518  1.00  0.00     0.010 A 
ATOM     45  C   UNL A   1      40.969  28.777  28.288  1.00  0.00     0.010 A 
ATOM     46  C   UNL A   1      40.260  28.450  29.453  1.00  0.00    -0.014 A 
BRANCH  46  47
ATOM     47  C   UNL A   1      40.162  29.584  30.352  1.00  0.00     0.031 A 
ATOM     48  C   UNL A   1      39.226  30.701  30.169  1.00  0.00     0.074 A 
ATOM     49  C   UNL A   1      40.855  29.349  31.490  1.00  0.00     0.049 A 
ATOM     50  N   UNL A   1      39.402  31.856  30.710  1.00  0.00    -0.248 NA
ATOM     51  C   UNL A   1      38.015  30.634  29.350  1.00  0.00     0.031 C 
ATOM     52  C   UNL A   1      40.751  29.956  32.799  1.00  0.00     0.029 A 
ATOM     53  N   UNL A   1      41.934  28.458  31.619  1.00  0.00    -0.354 N 
ATOM     54  C   UNL A   1      38.206  32.537  30.615  1.00  0.00     0.074 A 
ATOM     55  C   UNL A   1      37.428  31.808  29.640  1.00  0.00     0.031 C 
ATOM     56  C   UNL A   1      41.879  29.671  33.483  1.00  0.00     0.029 A 
ATOM     57  C   UNL A   1      42.793  28.999  32.560  1.00  0.00     0.049 A 
ATOM     58  H   UNL A   1      42.055  27.611  31.132  1.00  0.00     0.167 HD
ATOM     59  C   UNL A   1      37.928  33.515  31.525  1.00  0.00     0.031 A 
ATOM     60  C   UNL A   1      44.038  29.425  32.194  1.00  0.00     0.031 A 
ATOM     61  C   UNL A   1      39.007  33.606  32.506  1.00  0.00     0.049 A 
ATOM     62  C   UNL A   1      44.127  30.913  32.403  1.00  0.00     0.074 A 
ATOM     63  C   UNL A   1      39.130  33.049  33.769  1.00  0.00     0.029 A 
ATOM     64  N   UNL A   1      40.274  34.021  32.122  1.00  0.00    -0.354 N 
ATOM     65  N   UNL A   1      43.113  31.726  32.285  1.00  0.00    -0.248 NA
ATOM     66  C   UNL A   1      45.350  31.579  32.830  1.00  0.00     0.031 C 
ATOM     67  C   UNL A   1      40.502  33.055  34.111  1.00  0.00     0.029 A 
ATOM     68  C   UNL A   1      41.205  33.631  33.064  1.00  0.00     0.049 A 
ATOM     69  H   UNL A   1      40.479  34.521  31.299  1.00  0.00     0.167 HD
ATOM     70  C   UNL A   1      43.486  32.962  32.738  1.00  0.00     0.074 A 
ATOM     71  C   UNL A   1      44.907  32.834  33.018  1.00  0.00     0.031 C 
ATOM     72  C   UNL A   1      42.605  33.988  32.919  1.00  0.00     0.031 A 
BRANCH  59  73
ATOM     73  C   UNL A   1      36.575  34.149  31.769  1.00  0.00    -0.014 A 
ATOM     74  C   UNL A   1      35.575  34.002  30.780  1.00  0.00     0.010 A 
ATOM     75  C   UNL A   1      36.214  34.886  32.911  1.00  0.00     0.010 A 
ATOM     76  C   UNL A   1      34.317  34.607  30.879  1.00  0.00     0.020 A 
ATOM     77  C   UNL A   1      34.952  35.510  33.021  1.00  0.00     0.020 A 
ATOM     78  C   UNL A   1      34.016  35.374  31.996  1.00  0.00     0.054 A 
BRANCH  78  79
ATOM     79  S   UNL A   1      32.384  36.160  32.082  1.00  0.00     0.124 S 
ATOM     80  O   UNL A   1      32.596  37.214  33.071  1.00  0.00    -0.237 OA
ATOM     81  O   UNL A   1      32.181  36.618  30.711  1.00  0.00    -0.237 OA
ATOM     82  O   UNL A   1      31.500  35.078  32.513  1.00  0.00    -0.744 OA
ENDBRANCH  78  79
ENDBRANCH  59  73
BRANCH  60  83
ATOM     83  C   UNL A   1      44.667  28.677  31.055  1.00  0.00    -0.014 A 
ATOM     84  C   UNL A   1      45.148  27.371  31.307  1.00  0.00     0.010 A 
ATOM     85  C   UNL A   1      44.486  29.069  29.716  1.00  0.00     0.010 A 
ATOM     86  C   UNL A   1      45.337  26.453  30.266  1.00  0.00     0.020 A 
ATOM     87  C   UNL A   1      44.686  28.151  28.666  1.00  0.00     0.020 A 
ATOM     88  C   UNL A   1      45.075  26.839  28.952  1.00  0.00     0.054 A 
BRANCH  88  89
ATOM     89  S   UNL A   1      45.051  25.551  27.665  1.00  0.00     0.124 S 
ATOM     90  O   UNL A   1      45.363  26.312  26.460  1.00  0.00    -0.237 OA
ATOM     91  O   UNL A   1      46.099  24.643  28.129  1.00  0.00    -0.237 OA
ATOM     92  O   UNL A   1      43.692  25.020  27.743  1.00  0.00    -0.744 OA
ENDBRANCH  88  89
ENDBRANCH  60  83
BRANCH  72  93
ATOM     93  C   UNL A   1      42.979  35.428  33.125  1.00  0.00    -0.014 A 
ATOM     94  C   UNL A   1      43.648  36.195  32.162  1.00  0.00     0.010 A 
ATOM     95  C   UNL A   1      42.503  36.104  34.276  1.00  0.00     0.010 A 
ATOM     96  C   UNL A   1      43.899  37.553  32.370  1.00  0.00     0.020 A 
ATOM     97  C   UNL A   1      42.696  37.469  34.466  1.00  0.00     0.020 A 
ATOM     98  C   UNL A   1      43.423  38.181  33.522  1.00  0.00     0.054 A 
BRANCH  98  99
ATOM     99  S   UNL A   1      43.705  39.950  33.744  1.00  0.00     0.124 S 
ATOM    100  O   UNL A   1      44.142  40.008  35.136  1.00  0.00    -0.237 OA
ATOM    101  O   UNL A   1      44.736  40.242  32.751  1.00  0.00    -0.237 OA
ATOM    102  O   UNL A   1      42.400  40.543  33.469  1.00  0.00    -0.744 OA
ENDBRANCH  98  99
ENDBRANCH  72  93
ENDBRANCH  46  47
ENDBRANCH  39  41
ENDBRANCH  38  39
ENDBRANCH  37  38
ENDBRANCH   1  37
TORSDOF 17
ENDMDL
MODEL 3
REMARK VINA RESULT:     -13.1      2.668      3.533
REMARK SMILES Cc1ccc(NC(=O)c2cnn3c2NC2=C(C(=O)CCC2)[C@H]3c2ccc(C(=O)OCCOC(=O)c3ccc(-c4c5nc(c(-c6ccc(S(=O)(=O)[O-])cc6)c6ccc([nH]6)c(-c6ccc(S(=O)(=O)[O-])cc6)c6nc(c(-c7ccc(S(=O)(=O)[O-])cc7)c7ccc4[nH]7)C=C6)C=C5)cc3)cc2)cc1
REMARK SMILES IDX 30 1 29 2 27 3 28 4 26 5 23 6 24 7 96 8 25 9 95 10 22 11
REMARK SMILES IDX 9 12 10 13 13 14 11 15 12 16 14 17 15 18 16 20 21 21 17 22
REMARK SMILES IDX 20 23 18 24 19 25 7 26 6 27 8 29 5 30 1 31 2 32 3 33 98 34
REMARK SMILES IDX 4 35 97 36 31 37 32 38 33 39 34 40 35 41 36 42 94 43 37 44
REMARK SMILES IDX 93 45 38 46 39 47 40 48 87 49 41 50 92 51 86 52 88 53 42 54
REMARK SMILES IDX 91 55 85 56 84 57 43 59 73 60 54 61 72 62 55 63 58 64 71 65
REMARK SMILES IDX 89 66 56 67 57 68 70 70 90 71 59 72 44 73 45 74 53 75 46 76
REMARK SMILES IDX 52 77 47 78 48 79 49 80 50 81 51 82 74 83 75 84 83 85 76 86
REMARK SMILES IDX 82 87 77 88 78 89 79 90 80 91 81 92 60 93 61 94 69 95 62 96
REMARK SMILES IDX 68 97 63 98 64 99 65 100 66 101 67 102
REMARK H PARENT 14 19 6 28 88 58 58 69
REMARK Flexibility Score: inf
ROOT
ATOM      1  C   UNL A   1      34.443  31.939  28.017  1.00  0.00     0.275 C 
ENDROOT
BRANCH   1   2
ATOM      2  O   UNL A   1      34.104  30.547  27.884  1.00  0.00    -0.458 OA
BRANCH   2   3
ATOM      3  C   UNL A   1      32.942  30.282  27.242  1.00  0.00     0.338 C 
ATOM      4  O   UNL A   1      32.126  31.102  26.856  1.00  0.00    -0.246 OA
BRANCH   3   5
ATOM      5  C   UNL A   1      32.929  28.875  26.812  1.00  0.00     0.060 A 
ATOM      6  C   UNL A   1      32.792  26.055  26.431  1.00  0.00    -0.019 A 
ATOM      7  C   UNL A   1      33.962  26.771  26.121  1.00  0.00     0.007 A 
ATOM      8  C   UNL A   1      31.696  26.833  26.867  1.00  0.00     0.007 A 
ATOM      9  C   UNL A   1      34.034  28.173  26.319  1.00  0.00     0.016 A 
ATOM     10  C   UNL A   1      31.748  28.206  27.062  1.00  0.00     0.016 A 
BRANCH   6  11
ATOM     11  C   UNL A   1      32.682  24.497  26.251  1.00  0.00     0.175 C 
ATOM     12  C   UNL A   1      32.393  24.474  22.738  1.00  0.00     0.102 A 
ATOM     13  C   UNL A   1      31.194  23.818  23.147  1.00  0.00     0.151 A 
ATOM     14  C   UNL A   1      33.223  24.332  23.836  1.00  0.00     0.142 A 
ATOM     15  N   UNL A   1      31.128  23.646  24.473  1.00  0.00    -0.178 NA
ATOM     16  N   UNL A   1      32.308  24.155  24.869  1.00  0.00    -0.237 N 
ATOM     17  N   UNL A   1      34.541  24.490  24.197  1.00  0.00    -0.343 N 
ATOM     18  C   UNL A   1      34.968  24.072  25.478  1.00  0.00     0.026 C 
ATOM     19  H   UNL A   1      35.182  24.892  23.566  1.00  0.00     0.168 HD
ATOM     20  C   UNL A   1      34.014  23.801  26.404  1.00  0.00     0.044 C 
ATOM     21  C   UNL A   1      36.330  23.469  25.688  1.00  0.00     0.055 C 
ATOM     22  C   UNL A   1      33.935  22.307  26.621  1.00  0.00     0.163 C 
ATOM     23  C   UNL A   1      36.251  21.940  25.748  1.00  0.00     0.014 C 
ATOM     24  O   UNL A   1      33.074  21.823  27.352  1.00  0.00    -0.294 OA
ATOM     25  C   UNL A   1      34.812  21.436  25.720  1.00  0.00     0.081 C 
BRANCH  12  26
ATOM     26  C   UNL A   1      32.652  25.144  21.492  1.00  0.00     0.261 C 
ATOM     27  N   UNL A   1      32.174  26.430  21.288  1.00  0.00    -0.322 N 
ATOM     28  H   UNL A   1      32.174  26.693  20.340  1.00  0.00     0.170 HD
ATOM     29  O   UNL A   1      33.283  24.596  20.585  1.00  0.00    -0.269 OA
BRANCH  27  30
ATOM     30  C   UNL A   1      31.684  27.454  22.143  1.00  0.00     0.041 A 
ATOM     31  C   UNL A   1      29.935  30.573  24.619  1.00  0.00     0.044 C 
ATOM     32  C   UNL A   1      30.513  29.486  23.764  1.00  0.00    -0.051 A 
ATOM     33  C   UNL A   1      31.885  29.448  23.549  1.00  0.00     0.005 A 
ATOM     34  C   UNL A   1      29.722  28.506  23.160  1.00  0.00     0.005 A 
ATOM     35  C   UNL A   1      32.451  28.448  22.749  1.00  0.00     0.026 A 
ATOM     36  C   UNL A   1      30.301  27.510  22.353  1.00  0.00     0.026 A 
ENDBRANCH  27  30
ENDBRANCH  12  26
ENDBRANCH   6  11
ENDBRANCH   3   5
ENDBRANCH   2   3
ENDBRANCH   1   2
BRANCH   1  37
ATOM     37  C   UNL A   1      35.958  32.257  28.001  1.00  0.00     0.275 C 
BRANCH  37  38
ATOM     38  O   UNL A   1      36.359  33.527  28.554  1.00  0.00    -0.458 OA
BRANCH  38  39
ATOM     39  C   UNL A   1      36.340  33.610  29.917  1.00  0.00     0.338 C 
ATOM     40  O   UNL A   1      35.413  34.063  30.563  1.00  0.00    -0.246 OA
BRANCH  39  41
ATOM     41  C   UNL A   1      37.396  32.689  30.422  1.00  0.00     0.060 A 
ATOM     42  C   UNL A   1      37.040  31.411  30.882  1.00  0.00     0.016 A 
ATOM     43  C   UNL A   1      38.711  32.969  30.041  1.00  0.00     0.016 A 
ATOM     44  C   UNL A   1      37.974  30.378  30.850  1.00  0.00     0.010 A 
ATOM     45  C   UNL A   1      39.574  31.927  29.847  1.00  0.00     0.010 A 
ATOM     46  C   UNL A   1      39.227  30.645  30.297  1.00  0.00    -0.014 A 
BRANCH  46  47
ATOM     47  C   UNL A   1      40.400  29.813  30.488  1.00  0.00     0.031 A 
ATOM     48  C   UNL A   1      40.663  28.578  29.738  1.00  0.00     0.074 A 
ATOM     49  C   UNL A   1      41.317  30.453  31.249  1.00  0.00     0.049 A 
ATOM     50  N   UNL A   1      41.460  27.660  30.162  1.00  0.00    -0.248 NA
ATOM     51  C   UNL A   1      40.047  28.247  28.453  1.00  0.00     0.031 C 
ATOM     52  C   UNL A   1      42.741  30.238  31.389  1.00  0.00     0.029 A 
ATOM     53  N   UNL A   1      41.042  31.477  32.170  1.00  0.00    -0.354 N 
ATOM     54  C   UNL A   1      41.729  26.829  29.094  1.00  0.00     0.074 A 
ATOM     55  C   UNL A   1      40.723  27.139  28.105  1.00  0.00     0.031 C 
ATOM     56  C   UNL A   1      43.148  30.852  32.519  1.00  0.00     0.029 A 
ATOM     57  C   UNL A   1      41.954  31.346  33.204  1.00  0.00     0.049 A 
ATOM     58  H   UNL A   1      40.334  32.158  32.094  1.00  0.00     0.167 HD
ATOM     59  C   UNL A   1      42.898  26.125  29.084  1.00  0.00     0.031 A 
ATOM     60  C   UNL A   1      41.532  31.001  34.456  1.00  0.00     0.031 A 
ATOM     61  C   UNL A   1      43.696  26.461  30.261  1.00  0.00     0.049 A 
ATOM     62  C   UNL A   1      42.115  29.660  34.815  1.00  0.00     0.074 A 
ATOM     63  C   UNL A   1      44.731  27.367  30.423  1.00  0.00     0.029 A 
ATOM     64  N   UNL A   1      43.251  26.123  31.531  1.00  0.00    -0.354 N 
ATOM     65  N   UNL A   1      42.371  28.722  33.945  1.00  0.00    -0.248 NA
ATOM     66  C   UNL A   1      42.516  29.311  36.171  1.00  0.00     0.031 C 
ATOM     67  C   UNL A   1      44.854  27.640  31.805  1.00  0.00     0.029 A 
ATOM     68  C   UNL A   1      43.906  26.886  32.478  1.00  0.00     0.049 A 
ATOM     69  H   UNL A   1      42.571  25.440  31.728  1.00  0.00     0.167 HD
ATOM     70  C   UNL A   1      43.076  27.727  34.567  1.00  0.00     0.074 A 
ATOM     71  C   UNL A   1      43.096  28.115  35.968  1.00  0.00     0.031 C 
ATOM     72  C   UNL A   1      43.653  26.689  33.895  1.00  0.00     0.031 A 
BRANCH  59  73
ATOM     73  C   UNL A   1      43.502  25.415  27.890  1.00  0.00    -0.014 A 
ATOM     74  C   UNL A   1      43.462  24.001  27.857  1.00  0.00     0.010 A 
ATOM     75  C   UNL A   1      44.111  26.043  26.790  1.00  0.00     0.010 A 
ATOM     76  C   UNL A   1      44.053  23.251  26.835  1.00  0.00     0.020 A 
ATOM     77  C   UNL A   1      44.719  25.300  25.755  1.00  0.00     0.020 A 
ATOM     78  C   UNL A   1      44.694  23.905  25.792  1.00  0.00     0.054 A 
BRANCH  78  79
ATOM     79  S   UNL A   1      45.466  22.901  24.495  1.00  0.00     0.124 S 
ATOM     80  O   UNL A   1      46.060  21.806  25.258  1.00  0.00    -0.237 OA
ATOM     81  O   UNL A   1      44.328  22.537  23.657  1.00  0.00    -0.237 OA
ATOM     82  O   UNL A   1      46.427  23.812  23.876  1.00  0.00    -0.744 OA
ENDBRANCH  78  79
ENDBRANCH  59  73
BRANCH  60  83
ATOM     83  C   UNL A   1      40.154  31.467  34.825  1.00  0.00    -0.014 A 
ATOM     84  C   UNL A   1      39.995  32.818  35.213  1.00  0.00     0.010 A 
ATOM     85  C   UNL A   1      39.002  30.739  34.475  1.00  0.00     0.010 A 
ATOM     86  C   UNL A   1      38.746  33.450  35.149  1.00  0.00     0.020 A 
ATOM     87  C   UNL A   1      37.743  31.369  34.420  1.00  0.00     0.020 A 
ATOM     88  C   UNL A   1      37.632  32.729  34.723  1.00  0.00     0.054 A 
BRANCH  88  89
ATOM     89  S   UNL A   1      36.096  33.645  34.375  1.00  0.00     0.124 S 
ATOM     90  O   UNL A   1      35.361  32.707  33.533  1.00  0.00    -0.237 OA
ATOM     91  O   UNL A   1      35.556  33.846  35.719  1.00  0.00    -0.237 OA
ATOM     92  O   UNL A   1      36.569  34.857  33.709  1.00  0.00    -0.744 OA
ENDBRANCH  88  89
ENDBRANCH  60  83
BRANCH  72  93
ATOM     93  C   UNL A   1      44.177  25.430  34.526  1.00  0.00    -0.014 A 
ATOM     94  C   UNL A   1      43.390  24.292  34.740  1.00  0.00     0.010 A 
ATOM     95  C   UNL A   1      45.567  25.315  34.777  1.00  0.00     0.010 A 
ATOM     96  C   UNL A   1      43.946  23.118  35.254  1.00  0.00     0.020 A 
ATOM     97  C   UNL A   1      46.142  24.132  35.233  1.00  0.00     0.020 A 
ATOM     98  C   UNL A   1      45.319  23.047  35.499  1.00  0.00     0.054 A 
BRANCH  98  99
ATOM     99  S   UNL A   1      46.028  21.501  36.105  1.00  0.00     0.124 S 
ATOM    100  O   UNL A   1      45.661  21.541  37.518  1.00  0.00    -0.237 OA
ATOM    101  O   UNL A   1      45.337  20.492  35.306  1.00  0.00    -0.237 OA
ATOM    102  O   UNL A   1      47.453  21.643  35.821  1.00  0.00    -0.744 OA
ENDBRANCH  98  99
ENDBRANCH  72  93
ENDBRANCH  46  47
ENDBRANCH  39  41
ENDBRANCH  38  39
ENDBRANCH  37  38
ENDBRANCH   1  37
TORSDOF 17
ENDMDL
