MODEL 1
REMARK VINA RESULT:     -10.6      0.000      0.000
REMARK SMILES C[C@]1(C(=O)Nc2ccc(C(=O)OCCOC(=O)c3ccc(-c4c5nc(c(-c6ccc(S(=O)(=O)[O-])cc6)c6ccc([nH]6)c(-c6ccc(S(=O)(=O)[O-])cc6)c6nc(c(-c7ccc(S(=O)(=O)[O-])cc7)c7ccc4[nH]7)C=C6)C=C5)cc3)c(O)c2)CCCO1
REMARK SMILES IDX 14 1 13 2 12 3 10 4 11 5 9 6 6 7 7 8 80 9 8 10 78 11 5 12
REMARK SMILES IDX 3 13 4 14 2 16 1 17 81 18 84 19 82 20 83 21 79 22 15 24
REMARK SMILES IDX 16 25 17 26 18 27 19 28 77 29 20 30 76 31 21 32 22 33 23 34
REMARK SMILES IDX 70 35 24 36 75 37 69 38 71 39 25 40 74 41 68 42 67 43 26 45
REMARK SMILES IDX 56 46 37 47 55 48 38 49 41 50 54 51 72 52 39 53 40 54 53 56
REMARK SMILES IDX 73 57 42 58 27 59 28 60 36 61 29 62 35 63 30 64 31 65 32 66
REMARK SMILES IDX 33 67 34 68 57 69 58 70 66 71 59 72 65 73 60 74 61 75 62 76
REMARK SMILES IDX 63 77 64 78 43 79 44 80 52 81 45 82 51 83 46 84 47 85 48 86
REMARK SMILES IDX 49 87 50 88
REMARK H PARENT 5 15 79 23 71 44 41 55
REMARK Flexibility Score: inf
ROOT
ATOM      1  C   UNL A   1      32.358  29.194  27.024  1.00  0.00     0.275 C 
ENDROOT
BRANCH   1   2
ATOM      2  C   UNL A   1      32.072  29.285  25.521  1.00  0.00     0.275 C 
BRANCH   2   3
ATOM      3  O   UNL A   1      33.196  28.837  24.733  1.00  0.00    -0.458 OA
BRANCH   3   4
ATOM      4  C   UNL A   1      32.895  28.101  23.630  1.00  0.00     0.342 C 
ATOM      5  O   UNL A   1      32.412  28.530  22.595  1.00  0.00    -0.246 OA
BRANCH   4   6
ATOM      6  C   UNL A   1      33.338  26.689  23.796  1.00  0.00     0.101 A 
ATOM      7  C   UNL A   1      33.759  23.966  24.281  1.00  0.00     0.045 A 
ATOM      8  C   UNL A   1      33.631  24.841  25.357  1.00  0.00     0.027 A 
ATOM      9  C   UNL A   1      33.834  24.458  22.979  1.00  0.00     0.073 A 
ATOM     10  C   UNL A   1      33.414  26.199  25.113  1.00  0.00     0.022 A 
ATOM     11  C   UNL A   1      33.607  25.814  22.736  1.00  0.00     0.132 A 
BRANCH   7  12
ATOM     12  N   UNL A   1      33.794  22.593  24.514  1.00  0.00    -0.323 N 
ATOM     13  C   UNL A   1      34.906  21.788  24.627  1.00  0.00     0.256 C 
ATOM     14  O   UNL A   1      34.689  20.574  24.730  1.00  0.00    -0.271 OA
ATOM     15  H   UNL A   1      32.922  22.145  24.607  1.00  0.00     0.170 HD
BRANCH  13  16
ATOM     16  C   UNL A   1      36.357  22.373  24.631  1.00  0.00     0.144 C 
ATOM     17  C   UNL A   1      36.823  22.808  23.238  1.00  0.00     0.053 C 
ATOM     18  C   UNL A   1      36.530  23.458  25.689  1.00  0.00     0.048 C 
ATOM     19  O   UNL A   1      37.303  21.357  25.043  1.00  0.00    -0.365 OA
ATOM     20  C   UNL A   1      38.008  23.426  25.983  1.00  0.00     0.032 C 
ATOM     21  C   UNL A   1      38.366  21.970  25.788  1.00  0.00     0.162 C 
ENDBRANCH  13  16
ENDBRANCH   7  12
BRANCH  11  22
ATOM     22  O   UNL A   1      33.638  26.191  21.421  1.00  0.00    -0.507 OA
ATOM     23  H   UNL A   1      33.038  25.810  20.810  1.00  0.00     0.293 HD
ENDBRANCH  11  22
ENDBRANCH   4   6
ENDBRANCH   3   4
ENDBRANCH   2   3
ENDBRANCH   1   2
BRANCH   1  24
ATOM     24  O   UNL A   1      33.772  29.125  27.295  1.00  0.00    -0.458 OA
BRANCH  24  25
ATOM     25  C   UNL A   1      34.337  30.295  27.676  1.00  0.00     0.338 C 
ATOM     26  O   UNL A   1      33.792  31.384  27.751  1.00  0.00    -0.246 OA
BRANCH  25  27
ATOM     27  C   UNL A   1      35.703  30.059  28.171  1.00  0.00     0.060 A 
ATOM     28  C   UNL A   1      36.736  30.247  27.259  1.00  0.00     0.016 A 
ATOM     29  C   UNL A   1      35.974  29.560  29.446  1.00  0.00     0.016 A 
ATOM     30  C   UNL A   1      38.042  29.908  27.592  1.00  0.00     0.010 A 
ATOM     31  C   UNL A   1      37.299  29.247  29.794  1.00  0.00     0.010 A 
ATOM     32  C   UNL A   1      38.344  29.400  28.863  1.00  0.00    -0.014 A 
BRANCH  32  33
ATOM     33  C   UNL A   1      39.753  29.022  29.166  1.00  0.00     0.031 A 
ATOM     34  C   UNL A   1      40.654  29.954  29.933  1.00  0.00     0.074 A 
ATOM     35  C   UNL A   1      40.199  27.796  28.825  1.00  0.00     0.049 A 
ATOM     36  N   UNL A   1      41.896  29.775  30.310  1.00  0.00    -0.248 NA
ATOM     37  C   UNL A   1      40.092  31.256  30.322  1.00  0.00     0.031 C 
ATOM     38  C   UNL A   1      39.421  26.784  28.109  1.00  0.00     0.029 A 
ATOM     39  N   UNL A   1      41.406  27.182  29.057  1.00  0.00    -0.354 N 
ATOM     40  C   UNL A   1      42.272  30.946  30.958  1.00  0.00     0.074 A 
ATOM     41  C   UNL A   1      41.132  31.838  30.904  1.00  0.00     0.031 C 
ATOM     42  C   UNL A   1      40.150  25.663  27.999  1.00  0.00     0.029 A 
ATOM     43  C   UNL A   1      41.469  25.893  28.584  1.00  0.00     0.049 A 
ATOM     44  H   UNL A   1      42.154  27.624  29.519  1.00  0.00     0.167 HD
ATOM     45  C   UNL A   1      43.456  31.253  31.545  1.00  0.00     0.031 A 
ATOM     46  C   UNL A   1      42.475  24.996  28.599  1.00  0.00     0.031 A 
ATOM     47  C   UNL A   1      44.586  30.361  31.613  1.00  0.00     0.049 A 
ATOM     48  C   UNL A   1      43.787  25.371  29.228  1.00  0.00     0.074 A 
ATOM     49  C   UNL A   1      45.819  30.580  32.207  1.00  0.00     0.029 A 
ATOM     50  N   UNL A   1      44.626  29.084  31.075  1.00  0.00    -0.354 N 
ATOM     51  N   UNL A   1      44.122  26.487  29.832  1.00  0.00    -0.248 NA
ATOM     52  C   UNL A   1      44.858  24.367  29.177  1.00  0.00     0.031 C 
ATOM     53  C   UNL A   1      46.621  29.456  31.979  1.00  0.00     0.029 A 
ATOM     54  C   UNL A   1      45.869  28.514  31.297  1.00  0.00     0.049 A 
ATOM     55  H   UNL A   1      43.880  28.646  30.605  1.00  0.00     0.167 HD
ATOM     56  C   UNL A   1      45.441  26.316  30.237  1.00  0.00     0.074 A 
ATOM     57  C   UNL A   1      45.832  24.979  29.837  1.00  0.00     0.031 C 
ATOM     58  C   UNL A   1      46.257  27.190  30.877  1.00  0.00     0.031 A 
BRANCH  45  59
ATOM     59  C   UNL A   1      43.608  32.636  32.127  1.00  0.00    -0.014 A 
ATOM     60  C   UNL A   1      43.363  32.894  33.488  1.00  0.00     0.010 A 
ATOM     61  C   UNL A   1      44.043  33.688  31.300  1.00  0.00     0.010 A 
ATOM     62  C   UNL A   1      43.509  34.188  33.999  1.00  0.00     0.020 A 
ATOM     63  C   UNL A   1      44.216  34.977  31.813  1.00  0.00     0.020 A 
ATOM     64  C   UNL A   1      43.928  35.222  33.157  1.00  0.00     0.054 A 
BRANCH  64  65
ATOM     65  S   UNL A   1      44.116  36.890  33.847  1.00  0.00     0.124 S 
ATOM     66  O   UNL A   1      43.316  36.802  35.066  1.00  0.00    -0.237 OA
ATOM     67  O   UNL A   1      45.559  36.994  34.050  1.00  0.00    -0.237 OA
ATOM     68  O   UNL A   1      43.573  37.760  32.807  1.00  0.00    -0.744 OA
ENDBRANCH  64  65
ENDBRANCH  45  59
BRANCH  46  69
ATOM     69  C   UNL A   1      42.284  23.662  27.966  1.00  0.00    -0.014 A 
ATOM     70  C   UNL A   1      42.509  23.474  26.591  1.00  0.00     0.010 A 
ATOM     71  C   UNL A   1      41.891  22.561  28.750  1.00  0.00     0.010 A 
ATOM     72  C   UNL A   1      42.340  22.213  26.013  1.00  0.00     0.020 A 
ATOM     73  C   UNL A   1      41.750  21.293  28.182  1.00  0.00     0.020 A 
ATOM     74  C   UNL A   1      41.967  21.128  26.814  1.00  0.00     0.054 A 
BRANCH  74  75
ATOM     75  S   UNL A   1      41.823  19.485  26.058  1.00  0.00     0.124 S 
ATOM     76  O   UNL A   1      40.395  19.404  25.774  1.00  0.00    -0.237 OA
ATOM     77  O   UNL A   1      42.696  19.595  24.892  1.00  0.00    -0.237 OA
ATOM     78  O   UNL A   1      42.307  18.586  27.105  1.00  0.00    -0.744 OA
ENDBRANCH  74  75
ENDBRANCH  46  69
BRANCH  58  79
ATOM     79  C   UNL A   1      47.654  26.722  31.191  1.00  0.00    -0.014 A 
ATOM     80  C   UNL A   1      48.713  26.938  30.290  1.00  0.00     0.010 A 
ATOM     81  C   UNL A   1      47.915  26.076  32.413  1.00  0.00     0.010 A 
ATOM     82  C   UNL A   1      49.999  26.477  30.587  1.00  0.00     0.020 A 
ATOM     83  C   UNL A   1      49.206  25.638  32.725  1.00  0.00     0.020 A 
ATOM     84  C   UNL A   1      50.235  25.824  31.800  1.00  0.00     0.054 A 
BRANCH  84  85
ATOM     85  S   UNL A   1      51.916  25.249  32.170  1.00  0.00     0.124 S 
ATOM     86  O   UNL A   1      52.160  25.844  33.480  1.00  0.00    -0.237 OA
ATOM     87  O   UNL A   1      51.769  23.795  32.158  1.00  0.00    -0.237 OA
ATOM     88  O   UNL A   1      52.718  25.797  31.077  1.00  0.00    -0.744 OA
ENDBRANCH  84  85
ENDBRANCH  58  79
ENDBRANCH  32  33
ENDBRANCH  25  27
ENDBRANCH  24  25
ENDBRANCH   1  24
TORSDOF 17
ENDMDL
MODEL 2
REMARK VINA RESULT:     -10.4      4.357     10.390
REMARK SMILES C[C@]1(C(=O)Nc2ccc(C(=O)OCCOC(=O)c3ccc(-c4c5nc(c(-c6ccc(S(=O)(=O)[O-])cc6)c6ccc([nH]6)c(-c6ccc(S(=O)(=O)[O-])cc6)c6nc(c(-c7ccc(S(=O)(=O)[O-])cc7)c7ccc4[nH]7)C=C6)C=C5)cc3)c(O)c2)CCCO1
REMARK SMILES IDX 14 1 13 2 12 3 10 4 11 5 9 6 6 7 7 8 80 9 8 10 78 11 5 12
REMARK SMILES IDX 3 13 4 14 2 16 1 17 81 18 84 19 82 20 83 21 79 22 15 24
REMARK SMILES IDX 16 25 17 26 18 27 19 28 77 29 20 30 76 31 21 32 22 33 23 34
REMARK SMILES IDX 70 35 24 36 75 37 69 38 71 39 25 40 74 41 68 42 67 43 26 45
REMARK SMILES IDX 56 46 37 47 55 48 38 49 41 50 54 51 72 52 39 53 40 54 53 56
REMARK SMILES IDX 73 57 42 58 27 59 28 60 36 61 29 62 35 63 30 64 31 65 32 66
REMARK SMILES IDX 33 67 34 68 57 69 58 70 66 71 59 72 65 73 60 74 61 75 62 76
REMARK SMILES IDX 63 77 64 78 43 79 44 80 52 81 45 82 51 83 46 84 47 85 48 86
REMARK SMILES IDX 49 87 50 88
REMARK H PARENT 5 15 79 23 71 44 41 55
REMARK Flexibility Score: inf
ROOT
ATOM      1  C   UNL A   1      40.864  22.253  26.370  1.00  0.00     0.275 C 
ENDROOT
BRANCH   1   2
ATOM      2  C   UNL A   1      39.774  21.205  26.122  1.00  0.00     0.275 C 
BRANCH   2   3
ATOM      3  O   UNL A   1      38.644  21.764  25.418  1.00  0.00    -0.458 OA
BRANCH   3   4
ATOM      4  C   UNL A   1      37.644  20.894  25.111  1.00  0.00     0.342 C 
ATOM      5  O   UNL A   1      37.790  19.760  24.686  1.00  0.00    -0.246 OA
BRANCH   4   6
ATOM      6  C   UNL A   1      36.315  21.463  25.469  1.00  0.00     0.101 A 
ATOM      7  C   UNL A   1      33.769  22.161  26.393  1.00  0.00     0.045 A 
ATOM      8  C   UNL A   1      33.910  21.076  25.531  1.00  0.00     0.027 A 
ATOM      9  C   UNL A   1      34.857  22.986  26.671  1.00  0.00     0.073 A 
ATOM     10  C   UNL A   1      35.183  20.725  25.076  1.00  0.00     0.022 A 
ATOM     11  C   UNL A   1      36.130  22.629  26.224  1.00  0.00     0.132 A 
BRANCH   7  12
ATOM     12  N   UNL A   1      32.535  22.405  26.991  1.00  0.00    -0.323 N 
ATOM     13  C   UNL A   1      31.637  23.406  26.690  1.00  0.00     0.256 C 
ATOM     14  O   UNL A   1      30.649  23.489  27.429  1.00  0.00    -0.271 OA
ATOM     15  H   UNL A   1      32.274  21.792  27.716  1.00  0.00     0.170 HD
BRANCH  13  16
ATOM     16  C   UNL A   1      31.853  24.376  25.481  1.00  0.00     0.144 C 
ATOM     17  C   UNL A   1      30.554  25.045  25.021  1.00  0.00     0.053 C 
ATOM     18  C   UNL A   1      32.980  25.369  25.743  1.00  0.00     0.048 C 
ATOM     19  O   UNL A   1      32.325  23.638  24.327  1.00  0.00    -0.365 OA
ATOM     20  C   UNL A   1      33.454  25.733  24.359  1.00  0.00     0.032 C 
ATOM     21  C   UNL A   1      33.228  24.460  23.574  1.00  0.00     0.162 C 
ENDBRANCH  13  16
ENDBRANCH   7  12
BRANCH  11  22
ATOM     22  O   UNL A   1      37.144  23.467  26.599  1.00  0.00    -0.507 OA
ATOM     23  H   UNL A   1      37.069  23.971  27.385  1.00  0.00     0.293 HD
ENDBRANCH  11  22
ENDBRANCH   4   6
ENDBRANCH   3   4
ENDBRANCH   2   3
ENDBRANCH   1   2
BRANCH   1  24
ATOM     24  O   UNL A   1      40.330  23.446  26.978  1.00  0.00    -0.458 OA
BRANCH  24  25
ATOM     25  C   UNL A   1      41.033  24.576  26.729  1.00  0.00     0.338 C 
ATOM     26  O   UNL A   1      41.737  24.805  25.759  1.00  0.00    -0.246 OA
BRANCH  25  27
ATOM     27  C   UNL A   1      40.702  25.607  27.726  1.00  0.00     0.060 A 
ATOM     28  C   UNL A   1      41.667  26.584  27.954  1.00  0.00     0.016 A 
ATOM     29  C   UNL A   1      39.544  25.570  28.503  1.00  0.00     0.016 A 
ATOM     30  C   UNL A   1      41.506  27.509  28.979  1.00  0.00     0.010 A 
ATOM     31  C   UNL A   1      39.365  26.525  29.518  1.00  0.00     0.010 A 
ATOM     32  C   UNL A   1      40.355  27.493  29.778  1.00  0.00    -0.014 A 
BRANCH  32  33
ATOM     33  C   UNL A   1      40.238  28.484  30.884  1.00  0.00     0.031 A 
ATOM     34  C   UNL A   1      41.177  28.440  32.062  1.00  0.00     0.074 A 
ATOM     35  C   UNL A   1      39.339  29.484  30.789  1.00  0.00     0.049 A 
ATOM     36  N   UNL A   1      41.238  29.240  33.097  1.00  0.00    -0.248 NA
ATOM     37  C   UNL A   1      42.170  27.356  32.083  1.00  0.00     0.031 C 
ATOM     38  C   UNL A   1      38.391  29.663  29.686  1.00  0.00     0.029 A 
ATOM     39  N   UNL A   1      39.090  30.552  31.615  1.00  0.00    -0.354 N 
ATOM     40  C   UNL A   1      42.257  28.746  33.904  1.00  0.00     0.074 A 
ATOM     41  C   UNL A   1      42.773  27.562  33.247  1.00  0.00     0.031 C 
ATOM     42  C   UNL A   1      37.697  30.794  29.882  1.00  0.00     0.029 A 
ATOM     43  C   UNL A   1      38.106  31.392  31.151  1.00  0.00     0.049 A 
ATOM     44  H   UNL A   1      39.571  30.702  32.461  1.00  0.00     0.167 HD
ATOM     45  C   UNL A   1      42.722  29.230  35.082  1.00  0.00     0.031 A 
ATOM     46  C   UNL A   1      37.574  32.509  31.685  1.00  0.00     0.031 A 
ATOM     47  C   UNL A   1      42.220  30.416  35.730  1.00  0.00     0.049 A 
ATOM     48  C   UNL A   1      38.086  33.008  33.007  1.00  0.00     0.074 A 
ATOM     49  C   UNL A   1      42.646  30.993  36.916  1.00  0.00     0.029 A 
ATOM     50  N   UNL A   1      41.188  31.208  35.252  1.00  0.00    -0.354 N 
ATOM     51  N   UNL A   1      39.048  32.522  33.755  1.00  0.00    -0.248 NA
ATOM     52  C   UNL A   1      37.440  34.206  33.559  1.00  0.00     0.031 C 
ATOM     53  C   UNL A   1      41.834  32.102  37.181  1.00  0.00     0.029 A 
ATOM     54  C   UNL A   1      40.943  32.251  36.131  1.00  0.00     0.049 A 
ATOM     55  H   UNL A   1      40.700  31.052  34.411  1.00  0.00     0.167 HD
ATOM     56  C   UNL A   1      39.125  33.359  34.863  1.00  0.00     0.074 A 
ATOM     57  C   UNL A   1      38.135  34.398  34.672  1.00  0.00     0.031 C 
ATOM     58  C   UNL A   1      39.940  33.270  35.944  1.00  0.00     0.031 A 
BRANCH  45  59
ATOM     59  C   UNL A   1      43.808  28.448  35.777  1.00  0.00    -0.014 A 
ATOM     60  C   UNL A   1      45.170  28.733  35.570  1.00  0.00     0.010 A 
ATOM     61  C   UNL A   1      43.455  27.434  36.687  1.00  0.00     0.010 A 
ATOM     62  C   UNL A   1      46.156  27.990  36.225  1.00  0.00     0.020 A 
ATOM     63  C   UNL A   1      44.437  26.706  37.364  1.00  0.00     0.020 A 
ATOM     64  C   UNL A   1      45.783  26.976  37.113  1.00  0.00     0.054 A 
BRANCH  64  65
ATOM     65  S   UNL A   1      47.082  26.031  37.957  1.00  0.00     0.124 S 
ATOM     66  O   UNL A   1      48.262  26.370  37.165  1.00  0.00    -0.237 OA
ATOM     67  O   UNL A   1      47.055  26.581  39.309  1.00  0.00    -0.237 OA
ATOM     68  O   UNL A   1      46.634  24.646  37.842  1.00  0.00    -0.744 OA
ENDBRANCH  64  65
ENDBRANCH  45  59
BRANCH  46  69
ATOM     69  C   UNL A   1      36.469  33.213  30.978  1.00  0.00    -0.014 A 
ATOM     70  C   UNL A   1      35.191  33.314  31.553  1.00  0.00     0.010 A 
ATOM     71  C   UNL A   1      36.703  33.807  29.723  1.00  0.00     0.010 A 
ATOM     72  C   UNL A   1      34.166  33.991  30.883  1.00  0.00     0.020 A 
ATOM     73  C   UNL A   1      35.691  34.509  29.065  1.00  0.00     0.020 A 
ATOM     74  C   UNL A   1      34.426  34.589  29.646  1.00  0.00     0.054 A 
BRANCH  74  75
ATOM     75  S   UNL A   1      33.103  35.525  28.827  1.00  0.00     0.124 S 
ATOM     76  O   UNL A   1      32.453  34.494  28.025  1.00  0.00    -0.237 OA
ATOM     77  O   UNL A   1      32.327  36.032  29.957  1.00  0.00    -0.237 OA
ATOM     78  O   UNL A   1      33.827  36.545  28.072  1.00  0.00    -0.744 OA
ENDBRANCH  74  75
ENDBRANCH  46  69
BRANCH  58  79
ATOM     79  C   UNL A   1      39.796  34.333  37.001  1.00  0.00    -0.014 A 
ATOM     80  C   UNL A   1      38.988  34.127  38.134  1.00  0.00     0.010 A 
ATOM     81  C   UNL A   1      40.496  35.546  36.870  1.00  0.00     0.010 A 
ATOM     82  C   UNL A   1      38.848  35.133  39.095  1.00  0.00     0.020 A 
ATOM     83  C   UNL A   1      40.379  36.543  37.843  1.00  0.00     0.020 A 
ATOM     84  C   UNL A   1      39.540  36.337  38.940  1.00  0.00     0.054 A 
BRANCH  84  85
ATOM     85  S   UNL A   1      39.354  37.621  40.207  1.00  0.00     0.124 S 
ATOM     86  O   UNL A   1      40.685  38.220  40.232  1.00  0.00    -0.237 OA
ATOM     87  O   UNL A   1      38.296  38.467  39.658  1.00  0.00    -0.237 OA
ATOM     88  O   UNL A   1      38.984  36.873  41.407  1.00  0.00    -0.744 OA
ENDBRANCH  84  85
ENDBRANCH  58  79
ENDBRANCH  32  33
ENDBRANCH  25  27
ENDBRANCH  24  25
ENDBRANCH   1  24
TORSDOF 17
ENDMDL
MODEL 3
REMARK VINA RESULT:     -10.4      3.073      6.655
REMARK SMILES C[C@]1(C(=O)Nc2ccc(C(=O)OCCOC(=O)c3ccc(-c4c5nc(c(-c6ccc(S(=O)(=O)[O-])cc6)c6ccc([nH]6)c(-c6ccc(S(=O)(=O)[O-])cc6)c6nc(c(-c7ccc(S(=O)(=O)[O-])cc7)c7ccc4[nH]7)C=C6)C=C5)cc3)c(O)c2)CCCO1
REMARK SMILES IDX 14 1 13 2 12 3 10 4 11 5 9 6 6 7 7 8 80 9 8 10 78 11 5 12
REMARK SMILES IDX 3 13 4 14 2 16 1 17 81 18 84 19 82 20 83 21 79 22 15 24
REMARK SMILES IDX 16 25 17 26 18 27 19 28 77 29 20 30 76 31 21 32 22 33 23 34
REMARK SMILES IDX 70 35 24 36 75 37 69 38 71 39 25 40 74 41 68 42 67 43 26 45
REMARK SMILES IDX 56 46 37 47 55 48 38 49 41 50 54 51 72 52 39 53 40 54 53 56
REMARK SMILES IDX 73 57 42 58 27 59 28 60 36 61 29 62 35 63 30 64 31 65 32 66
REMARK SMILES IDX 33 67 34 68 57 69 58 70 66 71 59 72 65 73 60 74 61 75 62 76
REMARK SMILES IDX 63 77 64 78 43 79 44 80 52 81 45 82 51 83 46 84 47 85 48 86
REMARK SMILES IDX 49 87 50 88
REMARK H PARENT 5 15 79 23 71 44 41 55
REMARK Flexibility Score: inf
ROOT
ATOM      1  C   UNL A   1      33.592  32.861  27.962  1.00  0.00     0.275 C 
ENDROOT
BRANCH   1   2
ATOM      2  C   UNL A   1      33.974  34.260  28.457  1.00  0.00     0.275 C 
BRANCH   2   3
ATOM      3  O   UNL A   1      32.907  34.870  29.215  1.00  0.00    -0.458 OA
BRANCH   3   4
ATOM      4  C   UNL A   1      33.234  35.996  29.905  1.00  0.00     0.342 C 
ATOM      5  O   UNL A   1      33.191  37.136  29.472  1.00  0.00    -0.246 OA
BRANCH   4   6
ATOM      6  C   UNL A   1      33.554  35.678  31.324  1.00  0.00     0.101 A 
ATOM      7  C   UNL A   1      34.493  34.835  33.820  1.00  0.00     0.045 A 
ATOM      8  C   UNL A   1      33.916  33.906  32.957  1.00  0.00     0.027 A 
ATOM      9  C   UNL A   1      34.463  36.194  33.514  1.00  0.00     0.073 A 
ATOM     10  C   UNL A   1      33.454  34.328  31.708  1.00  0.00     0.022 A 
ATOM     11  C   UNL A   1      34.010  36.613  32.262  1.00  0.00     0.132 A 
BRANCH   7  12
ATOM     12  N   UNL A   1      35.116  34.393  34.985  1.00  0.00    -0.323 N 
ATOM     13  C   UNL A   1      36.305  33.705  35.094  1.00  0.00     0.256 C 
ATOM     14  O   UNL A   1      36.609  33.324  36.230  1.00  0.00    -0.271 OA
ATOM     15  H   UNL A   1      34.652  34.594  35.830  1.00  0.00     0.170 HD
BRANCH  13  16
ATOM     16  C   UNL A   1      37.218  33.426  33.854  1.00  0.00     0.144 C 
ATOM     17  C   UNL A   1      36.772  32.198  33.054  1.00  0.00     0.053 C 
ATOM     18  C   UNL A   1      37.401  34.672  32.992  1.00  0.00     0.048 C 
ATOM     19  O   UNL A   1      38.567  33.124  34.286  1.00  0.00    -0.365 OA
ATOM     20  C   UNL A   1      38.718  34.427  32.301  1.00  0.00     0.032 C 
ATOM     21  C   UNL A   1      39.501  33.635  33.325  1.00  0.00     0.162 C 
ENDBRANCH  13  16
ENDBRANCH   7  12
BRANCH  11  22
ATOM     22  O   UNL A   1      34.078  37.959  32.030  1.00  0.00    -0.507 OA
ATOM     23  H   UNL A   1      34.872  38.340  31.709  1.00  0.00     0.293 HD
ENDBRANCH  11  22
ENDBRANCH   4   6
ENDBRANCH   3   4
ENDBRANCH   2   3
ENDBRANCH   1   2
BRANCH   1  24
ATOM     24  O   UNL A   1      34.239  31.828  28.731  1.00  0.00    -0.458 OA
BRANCH  24  25
ATOM     25  C   UNL A   1      34.353  30.635  28.101  1.00  0.00     0.338 C 
ATOM     26  O   UNL A   1      33.513  30.091  27.402  1.00  0.00    -0.246 OA
BRANCH  25  27
ATOM     27  C   UNL A   1      35.728  30.126  28.226  1.00  0.00     0.060 A 
ATOM     28  C   UNL A   1      36.143  29.764  29.503  1.00  0.00     0.016 A 
ATOM     29  C   UNL A   1      36.630  30.105  27.162  1.00  0.00     0.016 A 
ATOM     30  C   UNL A   1      37.467  29.413  29.741  1.00  0.00     0.010 A 
ATOM     31  C   UNL A   1      37.961  29.719  27.396  1.00  0.00     0.010 A 
ATOM     32  C   UNL A   1      38.397  29.387  28.693  1.00  0.00    -0.014 A 
BRANCH  32  33
ATOM     33  C   UNL A   1      39.811  29.034  29.000  1.00  0.00     0.031 A 
ATOM     34  C   UNL A   1      40.699  29.992  29.752  1.00  0.00     0.074 A 
ATOM     35  C   UNL A   1      40.276  27.811  28.676  1.00  0.00     0.049 A 
ATOM     36  N   UNL A   1      41.944  29.836  30.130  1.00  0.00    -0.248 NA
ATOM     37  C   UNL A   1      40.118  31.290  30.123  1.00  0.00     0.031 C 
ATOM     38  C   UNL A   1      39.512  26.777  27.976  1.00  0.00     0.029 A 
ATOM     39  N   UNL A   1      41.492  27.219  28.916  1.00  0.00    -0.354 N 
ATOM     40  C   UNL A   1      42.303  31.023  30.761  1.00  0.00     0.074 A 
ATOM     41  C   UNL A   1      41.150  31.896  30.696  1.00  0.00     0.031 C 
ATOM     42  C   UNL A   1      40.259  25.666  27.881  1.00  0.00     0.029 A 
ATOM     43  C   UNL A   1      41.574  25.924  28.461  1.00  0.00     0.049 A 
ATOM     44  H   UNL A   1      42.234  27.678  29.370  1.00  0.00     0.167 HD
ATOM     45  C   UNL A   1      43.483  31.355  31.341  1.00  0.00     0.031 A 
ATOM     46  C   UNL A   1      42.594  25.043  28.487  1.00  0.00     0.031 A 
ATOM     47  C   UNL A   1      44.627  30.482  31.421  1.00  0.00     0.049 A 
ATOM     48  C   UNL A   1      43.901  25.447  29.110  1.00  0.00     0.074 A 
ATOM     49  C   UNL A   1      45.857  30.728  32.009  1.00  0.00     0.029 A 
ATOM     50  N   UNL A   1      44.685  29.198  30.901  1.00  0.00    -0.354 N 
ATOM     51  N   UNL A   1      44.219  26.576  29.697  1.00  0.00    -0.248 NA
ATOM     52  C   UNL A   1      44.986  24.458  29.071  1.00  0.00     0.031 C 
ATOM     53  C   UNL A   1      46.676  29.613  31.797  1.00  0.00     0.029 A 
ATOM     54  C   UNL A   1      45.937  28.650  31.130  1.00  0.00     0.049 A 
ATOM     55  H   UNL A   1      43.945  28.742  30.438  1.00  0.00     0.167 HD
ATOM     56  C   UNL A   1      45.541  26.430  30.102  1.00  0.00     0.074 A 
ATOM     57  C   UNL A   1      45.952  25.094  29.721  1.00  0.00     0.031 C 
ATOM     58  C   UNL A   1      46.345  27.327  30.729  1.00  0.00     0.031 A 
BRANCH  45  59
ATOM     59  C   UNL A   1      43.615  32.749  31.903  1.00  0.00    -0.014 A 
ATOM     60  C   UNL A   1      44.016  33.832  31.100  1.00  0.00     0.010 A 
ATOM     61  C   UNL A   1      43.291  32.983  33.252  1.00  0.00     0.010 A 
ATOM     62  C   UNL A   1      44.132  35.114  31.648  1.00  0.00     0.020 A 
ATOM     63  C   UNL A   1      43.380  34.267  33.797  1.00  0.00     0.020 A 
ATOM     64  C   UNL A   1      43.820  35.322  32.995  1.00  0.00     0.054 A 
BRANCH  64  65
ATOM     65  S   UNL A   1      43.973  36.995  33.680  1.00  0.00     0.124 S 
ATOM     66  O   UNL A   1      42.635  37.220  34.222  1.00  0.00    -0.237 OA
ATOM     67  O   UNL A   1      45.034  36.842  34.671  1.00  0.00    -0.237 OA
ATOM     68  O   UNL A   1      44.320  37.815  32.521  1.00  0.00    -0.744 OA
ENDBRANCH  64  65
ENDBRANCH  45  59
BRANCH  46  69
ATOM     69  C   UNL A   1      42.422  23.697  27.874  1.00  0.00    -0.014 A 
ATOM     70  C   UNL A   1      42.723  23.476  26.519  1.00  0.00     0.010 A 
ATOM     71  C   UNL A   1      41.972  22.619  28.658  1.00  0.00     0.010 A 
ATOM     72  C   UNL A   1      42.571  22.203  25.959  1.00  0.00     0.020 A 
ATOM     73  C   UNL A   1      41.847  21.340  28.111  1.00  0.00     0.020 A 
ATOM     74  C   UNL A   1      42.140  21.142  26.762  1.00  0.00     0.054 A 
BRANCH  74  75
ATOM     75  S   UNL A   1      42.018  19.483  26.035  1.00  0.00     0.124 S 
ATOM     76  O   UNL A   1      42.563  18.645  27.097  1.00  0.00    -0.237 OA
ATOM     77  O   UNL A   1      40.584  19.347  25.792  1.00  0.00    -0.237 OA
ATOM     78  O   UNL A   1      42.839  19.580  24.829  1.00  0.00    -0.744 OA
ENDBRANCH  74  75
ENDBRANCH  46  69
BRANCH  58  79
ATOM     79  C   UNL A   1      47.749  26.884  31.047  1.00  0.00    -0.014 A 
ATOM     80  C   UNL A   1      48.048  26.228  32.255  1.00  0.00     0.010 A 
ATOM     81  C   UNL A   1      48.780  27.109  30.117  1.00  0.00     0.010 A 
ATOM     82  C   UNL A   1      49.360  25.844  32.545  1.00  0.00     0.020 A 
ATOM     83  C   UNL A   1      50.088  26.702  30.393  1.00  0.00     0.020 A 
ATOM     84  C   UNL A   1      50.373  26.089  31.614  1.00  0.00     0.054 A 
BRANCH  84  85
ATOM     85  S   UNL A   1      52.066  25.568  32.007  1.00  0.00     0.124 S 
ATOM     86  O   UNL A   1      52.785  25.926  30.788  1.00  0.00    -0.237 OA
ATOM     87  O   UNL A   1      52.386  26.372  33.185  1.00  0.00    -0.237 OA
ATOM     88  O   UNL A   1      51.938  24.133  32.256  1.00  0.00    -0.744 OA
ENDBRANCH  84  85
ENDBRANCH  58  79
ENDBRANCH  32  33
ENDBRANCH  25  27
ENDBRANCH  24  25
ENDBRANCH   1  24
TORSDOF 17
ENDMDL
