MODEL 1
REMARK VINA RESULT:     -15.6      0.000      0.000
REMARK SMILES Cc1cccc(C(=O)Nc2ccc(C(=O)NNC(=O)c3ccccc3C(=O)OCCOC(=O)c3ccc(-c4c5nc(c(-c6ccc(S(=O)(=O)[O-])cc6)c6ccc([nH]6)c(-c6ccc(S(=O)(=O)[O-])cc6)c6nc(c(-c7ccc(S(=O)(=O)[O-])cc7)c7ccc4[nH]7)C=C6)C=C5)cc3)cc2)c1
REMARK SMILES IDX 29 1 28 2 26 3 27 4 25 5 20 6 21 7 22 8 24 9 23 10 18 11
REMARK SMILES IDX 17 12 19 14 16 15 14 16 15 17 13 19 10 20 11 21 95 22 12 23
REMARK SMILES IDX 94 24 9 25 7 26 8 27 6 29 1 30 2 31 3 32 96 33 4 34 5 35
REMARK SMILES IDX 30 36 31 37 32 38 33 39 34 40 35 41 93 42 36 43 92 44 37 45
REMARK SMILES IDX 38 46 39 47 86 48 40 49 91 50 85 51 87 52 41 53 90 54 84 55
REMARK SMILES IDX 83 56 42 58 72 59 53 60 71 61 54 62 57 63 70 64 88 65 55 66
REMARK SMILES IDX 56 67 69 69 89 70 58 71 43 72 44 73 52 74 45 75 51 76 46 77
REMARK SMILES IDX 47 78 48 79 49 80 50 81 73 82 74 83 82 84 75 85 81 86 76 87
REMARK SMILES IDX 77 88 78 89 79 90 80 91 59 92 60 93 68 94 61 95 67 96 62 97
REMARK SMILES IDX 63 98 64 99 65 100 66 101
REMARK H PARENT 17 13 16 18 9 28 87 57 57 68
REMARK Flexibility Score: inf
ROOT
ATOM      1  C   UNL A   1      38.329  33.167  31.674  1.00  0.00     0.275 C 
ENDROOT
BRANCH   1   2
ATOM      2  O   UNL A   1      37.441  31.782  31.951  1.00  0.00    -0.458 OA
BRANCH   2   3
ATOM      3  C   UNL A   1      36.707  30.886  31.213  1.00  0.00     0.339 C 
ATOM      4  O   UNL A   1      35.549  31.125  30.892  1.00  0.00    -0.246 OA
BRANCH   3   5
ATOM      5  C   UNL A   1      37.352  29.498  30.735  1.00  0.00     0.072 A 
ATOM      6  C   UNL A   1      37.450  29.065  29.377  1.00  0.00     0.056 A 
ATOM      7  C   UNL A   1      38.372  28.050  28.960  1.00  0.00     0.015 A 
ATOM      8  C   UNL A   1      39.275  27.486  29.839  1.00  0.00     0.001 A 
ATOM      9  C   UNL A   1      38.165  28.752  31.606  1.00  0.00     0.016 A 
ATOM     10  C   UNL A   1      39.163  27.837  31.169  1.00  0.00     0.001 A 
BRANCH   6  11
ATOM     11  C   UNL A   1      36.730  29.634  28.220  1.00  0.00     0.270 C 
ATOM     12  N   UNL A   1      35.368  29.693  28.293  1.00  0.00    -0.263 N 
ATOM     13  H   UNL A   1      34.826  29.000  28.734  1.00  0.00     0.191 HD
ATOM     14  O   UNL A   1      37.344  30.079  27.251  1.00  0.00    -0.267 OA
BRANCH  12  15
ATOM     15  N   UNL A   1      34.809  30.830  27.682  1.00  0.00    -0.263 N 
ATOM     16  C   UNL A   1      33.491  30.812  27.289  1.00  0.00     0.269 C 
ATOM     17  O   UNL A   1      32.745  31.765  27.481  1.00  0.00    -0.267 OA
ATOM     18  H   UNL A   1      35.358  31.635  27.537  1.00  0.00     0.191 HD
BRANCH  16  19
ATOM     19  C   UNL A   1      32.998  29.598  26.590  1.00  0.00     0.041 A 
ATOM     20  C   UNL A   1      32.064  27.360  25.216  1.00  0.00     0.041 A 
ATOM     21  C   UNL A   1      31.620  27.606  26.515  1.00  0.00     0.027 A 
ATOM     22  C   UNL A   1      33.046  28.173  24.643  1.00  0.00     0.027 A 
ATOM     23  C   UNL A   1      32.094  28.718  27.206  1.00  0.00     0.016 A 
ATOM     24  C   UNL A   1      33.488  29.312  25.315  1.00  0.00     0.016 A 
BRANCH  20  25
ATOM     25  N   UNL A   1      31.561  26.308  24.447  1.00  0.00    -0.322 N 
ATOM     26  C   UNL A   1      30.321  26.111  23.880  1.00  0.00     0.255 C 
ATOM     27  O   UNL A   1      30.011  24.958  23.570  1.00  0.00    -0.269 OA
ATOM     28  H   UNL A   1      32.205  25.582  24.282  1.00  0.00     0.170 HD
BRANCH  26  29
ATOM     29  C   UNL A   1      29.398  27.236  23.501  1.00  0.00     0.040 A 
ATOM     30  C   UNL A   1      29.272  30.601  21.710  1.00  0.00     0.044 C 
ATOM     31  C   UNL A   1      28.837  29.361  22.432  1.00  0.00    -0.050 A 
ATOM     32  C   UNL A   1      27.500  29.198  22.791  1.00  0.00     0.003 A 
ATOM     33  C   UNL A   1      29.758  28.341  22.719  1.00  0.00     0.017 A 
ATOM     34  C   UNL A   1      27.104  28.068  23.501  1.00  0.00     0.001 A 
ATOM     35  C   UNL A   1      28.051  27.111  23.877  1.00  0.00     0.014 A 
ENDBRANCH  26  29
ENDBRANCH  20  25
ENDBRANCH  16  19
ENDBRANCH  12  15
ENDBRANCH   6  11
ENDBRANCH   3   5
ENDBRANCH   2   3
ENDBRANCH   1   2
BRANCH   1  36
ATOM     36  C   UNL A   1      39.654  33.367  30.301  1.00  0.00     0.275 C 
BRANCH  36  37
ATOM     37  O   UNL A   1      41.152  32.256  30.059  1.00  0.00    -0.458 OA
BRANCH  37  38
ATOM     38  C   UNL A   1      42.869  32.237  30.014  1.00  0.00     0.338 C 
ATOM     39  O   UNL A   1      43.341  32.959  30.911  1.00  0.00    -0.246 OA
BRANCH  38  40
ATOM     40  C   UNL A   1      44.195  31.610  28.836  1.00  0.00     0.060 A 
ATOM     41  C   UNL A   1      43.948  31.719  27.454  1.00  0.00     0.016 A 
ATOM     42  C   UNL A   1      45.187  30.502  28.911  1.00  0.00     0.016 A 
ATOM     43  C   UNL A   1      44.179  30.541  26.501  1.00  0.00     0.010 A 
ATOM     44  C   UNL A   1      45.515  29.424  27.977  1.00  0.00     0.010 A 
ATOM     45  C   UNL A   1      44.723  29.264  26.878  1.00  0.00    -0.014 A 
BRANCH  45  46
ATOM     46  C   UNL A   1      44.153  27.795  26.589  1.00  0.00     0.031 A 
ATOM     47  C   UNL A   1      42.746  27.376  26.861  1.00  0.00     0.074 A 
ATOM     48  C   UNL A   1      44.652  26.779  25.780  1.00  0.00     0.049 A 
ATOM     49  N   UNL A   1      42.426  26.386  27.635  1.00  0.00    -0.248 NA
ATOM     50  C   UNL A   1      41.648  27.787  25.986  1.00  0.00     0.031 C 
ATOM     51  C   UNL A   1      44.339  25.334  25.717  1.00  0.00     0.029 A 
ATOM     52  N   UNL A   1      45.749  26.728  24.953  1.00  0.00    -0.354 N 
ATOM     53  C   UNL A   1      41.271  25.806  27.098  1.00  0.00     0.074 A 
ATOM     54  C   UNL A   1      40.745  26.816  26.198  1.00  0.00     0.031 C 
ATOM     55  C   UNL A   1      45.467  24.632  25.452  1.00  0.00     0.029 A 
ATOM     56  C   UNL A   1      46.525  25.586  25.221  1.00  0.00     0.049 A 
ATOM     57  H   UNL A   1      45.963  27.399  24.266  1.00  0.00     0.167 HD
ATOM     58  C   UNL A   1      41.001  24.460  27.252  1.00  0.00     0.031 A 
ATOM     59  C   UNL A   1      47.695  25.808  25.908  1.00  0.00     0.031 A 
ATOM     60  C   UNL A   1      42.171  23.697  27.757  1.00  0.00     0.049 A 
ATOM     61  C   UNL A   1      47.397  25.507  27.422  1.00  0.00     0.074 A 
ATOM     62  C   UNL A   1      42.886  22.576  27.345  1.00  0.00     0.029 A 
ATOM     63  N   UNL A   1      42.947  24.258  28.746  1.00  0.00    -0.354 N 
ATOM     64  N   UNL A   1      46.589  24.562  27.850  1.00  0.00    -0.248 NA
ATOM     65  C   UNL A   1      47.858  26.348  28.544  1.00  0.00     0.031 C 
ATOM     66  C   UNL A   1      44.134  22.547  28.053  1.00  0.00     0.029 A 
ATOM     67  C   UNL A   1      44.164  23.634  28.902  1.00  0.00     0.049 A 
ATOM     68  H   UNL A   1      42.660  25.030  29.287  1.00  0.00     0.167 HD
ATOM     69  C   UNL A   1      46.215  24.838  29.161  1.00  0.00     0.074 A 
ATOM     70  C   UNL A   1      47.109  25.905  29.573  1.00  0.00     0.031 C 
ATOM     71  C   UNL A   1      45.115  24.297  29.786  1.00  0.00     0.031 A 
BRANCH  58  72
ATOM     72  C   UNL A   1      39.735  23.717  26.816  1.00  0.00    -0.014 A 
ATOM     73  C   UNL A   1      38.535  24.448  26.625  1.00  0.00     0.010 A 
ATOM     74  C   UNL A   1      39.661  22.354  26.472  1.00  0.00     0.010 A 
ATOM     75  C   UNL A   1      37.343  23.863  26.161  1.00  0.00     0.020 A 
ATOM     76  C   UNL A   1      38.472  21.748  26.008  1.00  0.00     0.020 A 
ATOM     77  C   UNL A   1      37.318  22.509  25.856  1.00  0.00     0.054 A 
BRANCH  77  78
ATOM     78  S   UNL A   1      35.782  21.774  25.225  1.00  0.00     0.124 S 
ATOM     79  O   UNL A   1      36.206  20.427  24.853  1.00  0.00    -0.237 OA
ATOM     80  O   UNL A   1      34.891  21.856  26.379  1.00  0.00    -0.237 OA
ATOM     81  O   UNL A   1      35.417  22.638  24.102  1.00  0.00    -0.744 OA
ENDBRANCH  77  78
ENDBRANCH  58  72
BRANCH  59  82
ATOM     82  C   UNL A   1      48.291  27.123  25.313  1.00  0.00    -0.014 A 
ATOM     83  C   UNL A   1      49.494  27.673  25.700  1.00  0.00     0.010 A 
ATOM     84  C   UNL A   1      48.209  27.188  23.952  1.00  0.00     0.010 A 
ATOM     85  C   UNL A   1      50.511  28.080  24.683  1.00  0.00     0.020 A 
ATOM     86  C   UNL A   1      49.432  27.141  23.064  1.00  0.00     0.020 A 
ATOM     87  C   UNL A   1      50.581  27.828  23.139  1.00  0.00     0.054 A 
BRANCH  87  88
ATOM     88  S   UNL A   1      51.519  29.031  21.322  1.00  0.00     0.124 S 
ATOM     89  O   UNL A   1      51.299  28.370  20.028  1.00  0.00    -0.237 OA
ATOM     90  O   UNL A   1      50.905  30.346  21.242  1.00  0.00    -0.237 OA
ATOM     91  O   UNL A   1      52.971  29.147  21.429  1.00  0.00    -0.744 OA
ENDBRANCH  87  88
ENDBRANCH  59  82
BRANCH  71  92
ATOM     92  C   UNL A   1      44.720  24.459  31.263  1.00  0.00    -0.014 A 
ATOM     93  C   UNL A   1      44.288  23.389  32.063  1.00  0.00     0.010 A 
ATOM     94  C   UNL A   1      44.587  25.750  31.849  1.00  0.00     0.010 A 
ATOM     95  C   UNL A   1      43.782  23.596  33.364  1.00  0.00     0.020 A 
ATOM     96  C   UNL A   1      44.086  25.972  33.138  1.00  0.00     0.020 A 
ATOM     97  C   UNL A   1      43.679  24.886  33.891  1.00  0.00     0.054 A 
BRANCH  97  98
ATOM     98  S   UNL A   1      42.901  25.142  35.508  1.00  0.00     0.124 S 
ATOM     99  O   UNL A   1      41.789  24.193  35.478  1.00  0.00    -0.237 OA
ATOM    100  O   UNL A   1      43.985  24.807  36.427  1.00  0.00    -0.237 OA
ATOM    101  O   UNL A   1      42.508  26.549  35.494  1.00  0.00    -0.744 OA
ENDBRANCH  97  98
ENDBRANCH  71  92
ENDBRANCH  45  46
ENDBRANCH  38  40
ENDBRANCH  37  38
ENDBRANCH  36  37
ENDBRANCH   1  36
TORSDOF 19
ENDMDL
MODEL 2
REMARK VINA RESULT:     -14.7      3.796      7.702
REMARK SMILES Cc1cccc(C(=O)Nc2ccc(C(=O)NNC(=O)c3ccccc3C(=O)OCCOC(=O)c3ccc(-c4c5nc(c(-c6ccc(S(=O)(=O)[O-])cc6)c6ccc([nH]6)c(-c6ccc(S(=O)(=O)[O-])cc6)c6nc(c(-c7ccc(S(=O)(=O)[O-])cc7)c7ccc4[nH]7)C=C6)C=C5)cc3)cc2)c1
REMARK SMILES IDX 29 1 28 2 26 3 27 4 25 5 20 6 21 7 22 8 24 9 23 10 18 11
REMARK SMILES IDX 17 12 19 14 16 15 14 16 15 17 13 19 10 20 11 21 95 22 12 23
REMARK SMILES IDX 94 24 9 25 7 26 8 27 6 29 1 30 2 31 3 32 96 33 4 34 5 35
REMARK SMILES IDX 30 36 31 37 32 38 33 39 34 40 35 41 93 42 36 43 92 44 37 45
REMARK SMILES IDX 38 46 39 47 86 48 40 49 91 50 85 51 87 52 41 53 90 54 84 55
REMARK SMILES IDX 83 56 42 58 72 59 53 60 71 61 54 62 57 63 70 64 88 65 55 66
REMARK SMILES IDX 56 67 69 69 89 70 58 71 43 72 44 73 52 74 45 75 51 76 46 77
REMARK SMILES IDX 47 78 48 79 49 80 50 81 73 82 74 83 82 84 75 85 81 86 76 87
REMARK SMILES IDX 77 88 78 89 79 90 80 91 59 92 60 93 68 94 61 95 67 96 62 97
REMARK SMILES IDX 63 98 64 99 65 100 66 101
REMARK H PARENT 17 13 16 18 9 28 87 57 57 68
REMARK Flexibility Score: inf
ROOT
ATOM      1  C   UNL A   1      33.464  28.612  27.419  1.00  0.00     0.275 C 
ENDROOT
BRANCH   1   2
ATOM      2  O   UNL A   1      33.036  27.386  26.371  1.00  0.00    -0.458 OA
BRANCH   2   3
ATOM      3  C   UNL A   1      33.296  27.029  25.071  1.00  0.00     0.339 C 
ATOM      4  O   UNL A   1      34.307  26.405  24.773  1.00  0.00    -0.246 OA
BRANCH   3   5
ATOM      5  C   UNL A   1      32.271  27.410  23.898  1.00  0.00     0.072 A 
ATOM      6  C   UNL A   1      31.062  26.706  23.606  1.00  0.00     0.056 A 
ATOM      7  C   UNL A   1      29.994  27.294  22.852  1.00  0.00     0.015 A 
ATOM      8  C   UNL A   1      30.045  28.607  22.428  1.00  0.00     0.001 A 
ATOM      9  C   UNL A   1      32.331  28.670  23.278  1.00  0.00     0.016 A 
ATOM     10  C   UNL A   1      31.224  29.292  22.638  1.00  0.00     0.001 A 
BRANCH   6  11
ATOM     11  C   UNL A   1      30.687  25.364  24.098  1.00  0.00     0.270 C 
ATOM     12  N   UNL A   1      30.818  25.124  25.435  1.00  0.00    -0.263 N 
ATOM     13  H   UNL A   1      31.548  25.502  25.977  1.00  0.00     0.191 HD
ATOM     14  O   UNL A   1      30.230  24.517  23.331  1.00  0.00    -0.267 OA
BRANCH  12  15
ATOM     15  N   UNL A   1      29.821  24.289  25.969  1.00  0.00    -0.263 N 
ATOM     16  C   UNL A   1      30.169  23.289  26.848  1.00  0.00     0.269 C 
ATOM     17  O   UNL A   1      29.516  23.059  27.859  1.00  0.00    -0.267 OA
ATOM     18  H   UNL A   1      28.877  24.419  25.717  1.00  0.00     0.191 HD
BRANCH  16  19
ATOM     19  C   UNL A   1      31.360  22.466  26.516  1.00  0.00     0.041 A 
ATOM     20  C   UNL A   1      33.549  20.866  25.871  1.00  0.00     0.041 A 
ATOM     21  C   UNL A   1      33.555  21.595  27.060  1.00  0.00     0.027 A 
ATOM     22  C   UNL A   1      32.498  21.013  24.960  1.00  0.00     0.027 A 
ATOM     23  C   UNL A   1      32.466  22.403  27.377  1.00  0.00     0.016 A 
ATOM     24  C   UNL A   1      31.388  21.785  25.297  1.00  0.00     0.016 A 
BRANCH  20  25
ATOM     25  N   UNL A   1      34.575  19.978  25.540  1.00  0.00    -0.322 N 
ATOM     26  C   UNL A   1      35.858  20.202  25.092  1.00  0.00     0.255 C 
ATOM     27  O   UNL A   1      36.437  19.271  24.524  1.00  0.00    -0.269 OA
ATOM     28  H   UNL A   1      34.340  19.028  25.645  1.00  0.00     0.170 HD
BRANCH  26  29
ATOM     29  C   UNL A   1      36.625  21.463  25.378  1.00  0.00     0.040 A 
ATOM     30  C   UNL A   1      39.927  22.770  26.773  1.00  0.00     0.044 C 
ATOM     31  C   UNL A   1      38.574  22.735  26.127  1.00  0.00    -0.050 A 
ATOM     32  C   UNL A   1      37.951  23.924  25.750  1.00  0.00     0.003 A 
ATOM     33  C   UNL A   1      37.939  21.510  25.863  1.00  0.00     0.017 A 
ATOM     34  C   UNL A   1      36.677  23.896  25.193  1.00  0.00     0.001 A 
ATOM     35  C   UNL A   1      36.010  22.677  25.036  1.00  0.00     0.014 A 
ENDBRANCH  26  29
ENDBRANCH  20  25
ENDBRANCH  16  19
ENDBRANCH  12  15
ENDBRANCH   6  11
ENDBRANCH   3   5
ENDBRANCH   2   3
ENDBRANCH   1   2
BRANCH   1  36
ATOM     36  C   UNL A   1      35.163  29.502  27.435  1.00  0.00     0.275 C 
BRANCH  36  37
ATOM     37  O   UNL A   1      36.631  29.034  28.514  1.00  0.00    -0.458 OA
BRANCH  37  38
ATOM     38  C   UNL A   1      37.334  29.254  30.066  1.00  0.00     0.338 C 
ATOM     39  O   UNL A   1      36.453  29.392  30.933  1.00  0.00    -0.246 OA
BRANCH  38  40
ATOM     40  C   UNL A   1      39.058  29.573  30.747  1.00  0.00     0.060 A 
ATOM     41  C   UNL A   1      39.814  30.605  30.160  1.00  0.00     0.016 A 
ATOM     42  C   UNL A   1      40.102  28.691  31.341  1.00  0.00     0.016 A 
ATOM     43  C   UNL A   1      41.275  30.395  29.745  1.00  0.00     0.010 A 
ATOM     44  C   UNL A   1      41.528  28.539  31.049  1.00  0.00     0.010 A 
ATOM     45  C   UNL A   1      42.035  29.194  29.965  1.00  0.00    -0.014 A 
BRANCH  45  46
ATOM     46  C   UNL A   1      42.899  28.336  28.924  1.00  0.00     0.031 A 
ATOM     47  C   UNL A   1      42.823  26.850  28.800  1.00  0.00     0.074 A 
ATOM     48  C   UNL A   1      43.577  28.733  27.775  1.00  0.00     0.049 A 
ATOM     49  N   UNL A   1      43.844  26.063  28.939  1.00  0.00    -0.248 NA
ATOM     50  C   UNL A   1      41.695  26.200  28.134  1.00  0.00     0.031 C 
ATOM     51  C   UNL A   1      44.616  28.055  26.969  1.00  0.00     0.029 A 
ATOM     52  N   UNL A   1      43.683  29.955  27.155  1.00  0.00    -0.354 N 
ATOM     53  C   UNL A   1      43.651  24.987  28.065  1.00  0.00     0.074 A 
ATOM     54  C   UNL A   1      42.239  25.037  27.737  1.00  0.00     0.031 C 
ATOM     55  C   UNL A   1      45.508  28.967  26.512  1.00  0.00     0.029 A 
ATOM     56  C   UNL A   1      45.030  30.271  26.900  1.00  0.00     0.049 A 
ATOM     57  H   UNL A   1      42.920  30.531  26.921  1.00  0.00     0.167 HD
ATOM     58  C   UNL A   1      44.718  24.317  27.499  1.00  0.00     0.031 A 
ATOM     59  C   UNL A   1      45.585  31.218  27.728  1.00  0.00     0.031 A 
ATOM     60  C   UNL A   1      46.006  25.037  27.679  1.00  0.00     0.049 A 
ATOM     61  C   UNL A   1      46.366  30.440  28.849  1.00  0.00     0.074 A 
ATOM     62  C   UNL A   1      47.021  25.492  26.843  1.00  0.00     0.029 A 
ATOM     63  N   UNL A   1      46.262  25.634  28.892  1.00  0.00    -0.354 N 
ATOM     64  N   UNL A   1      47.016  29.314  28.661  1.00  0.00    -0.248 NA
ATOM     65  C   UNL A   1      46.331  30.791  30.283  1.00  0.00     0.031 C 
ATOM     66  C   UNL A   1      47.822  26.433  27.571  1.00  0.00     0.029 A 
ATOM     67  C   UNL A   1      47.304  26.533  28.846  1.00  0.00     0.049 A 
ATOM     68  H   UNL A   1      45.752  25.438  29.712  1.00  0.00     0.167 HD
ATOM     69  C   UNL A   1      47.208  28.685  29.886  1.00  0.00     0.074 A 
ATOM     70  C   UNL A   1      46.848  29.692  30.868  1.00  0.00     0.031 C 
ATOM     71  C   UNL A   1      47.499  27.349  30.038  1.00  0.00     0.031 A 
BRANCH  58  72
ATOM     72  C   UNL A   1      44.660  23.065  26.619  1.00  0.00    -0.014 A 
ATOM     73  C   UNL A   1      45.858  22.560  26.054  1.00  0.00     0.010 A 
ATOM     74  C   UNL A   1      43.516  22.278  26.387  1.00  0.00     0.010 A 
ATOM     75  C   UNL A   1      45.911  21.380  25.290  1.00  0.00     0.020 A 
ATOM     76  C   UNL A   1      43.549  21.093  25.620  1.00  0.00     0.020 A 
ATOM     77  C   UNL A   1      44.749  20.651  25.074  1.00  0.00     0.054 A 
BRANCH  77  78
ATOM     78  S   UNL A   1      44.839  19.113  24.114  1.00  0.00     0.124 S 
ATOM     79  O   UNL A   1      44.343  19.528  22.805  1.00  0.00    -0.237 OA
ATOM     80  O   UNL A   1      46.259  18.782  24.172  1.00  0.00    -0.237 OA
ATOM     81  O   UNL A   1      43.962  18.196  24.842  1.00  0.00    -0.744 OA
ENDBRANCH  77  78
ENDBRANCH  58  72
BRANCH  59  82
ATOM     82  C   UNL A   1      44.480  32.301  27.934  1.00  0.00    -0.014 A 
ATOM     83  C   UNL A   1      44.128  32.827  29.158  1.00  0.00     0.010 A 
ATOM     84  C   UNL A   1      44.550  33.324  27.032  1.00  0.00     0.010 A 
ATOM     85  C   UNL A   1      44.034  34.306  29.356  1.00  0.00     0.020 A 
ATOM     86  C   UNL A   1      44.923  34.734  27.435  1.00  0.00     0.020 A 
ATOM     87  C   UNL A   1      44.463  35.498  28.435  1.00  0.00     0.054 A 
BRANCH  87  88
ATOM     88  S   UNL A   1      43.664  37.712  28.142  1.00  0.00     0.124 S 
ATOM     89  O   UNL A   1      43.776  38.178  26.752  1.00  0.00    -0.237 OA
ATOM     90  O   UNL A   1      42.257  37.773  28.503  1.00  0.00    -0.237 OA
ATOM     91  O   UNL A   1      44.435  38.683  28.915  1.00  0.00    -0.744 OA
ENDBRANCH  87  88
ENDBRANCH  59  82
BRANCH  71  92
ATOM     92  C   UNL A   1      47.847  26.622  31.348  1.00  0.00    -0.014 A 
ATOM     93  C   UNL A   1      49.111  26.068  31.606  1.00  0.00     0.010 A 
ATOM     94  C   UNL A   1      46.837  26.303  32.300  1.00  0.00     0.010 A 
ATOM     95  C   UNL A   1      49.350  25.271  32.745  1.00  0.00     0.020 A 
ATOM     96  C   UNL A   1      47.059  25.514  33.435  1.00  0.00     0.020 A 
ATOM     97  C   UNL A   1      48.322  24.994  33.650  1.00  0.00     0.054 A 
BRANCH  97  98
ATOM     98  S   UNL A   1      48.616  23.860  35.032  1.00  0.00     0.124 S 
ATOM     99  O   UNL A   1      49.995  23.432  34.803  1.00  0.00    -0.237 OA
ATOM    100  O   UNL A   1      48.413  24.726  36.190  1.00  0.00    -0.237 OA
ATOM    101  O   UNL A   1      47.611  22.814  34.853  1.00  0.00    -0.744 OA
ENDBRANCH  97  98
ENDBRANCH  71  92
ENDBRANCH  45  46
ENDBRANCH  38  40
ENDBRANCH  37  38
ENDBRANCH  36  37
ENDBRANCH   1  36
TORSDOF 19
ENDMDL
MODEL 3
REMARK VINA RESULT:     -14.6      3.752      7.745
REMARK SMILES Cc1cccc(C(=O)Nc2ccc(C(=O)NNC(=O)c3ccccc3C(=O)OCCOC(=O)c3ccc(-c4c5nc(c(-c6ccc(S(=O)(=O)[O-])cc6)c6ccc([nH]6)c(-c6ccc(S(=O)(=O)[O-])cc6)c6nc(c(-c7ccc(S(=O)(=O)[O-])cc7)c7ccc4[nH]7)C=C6)C=C5)cc3)cc2)c1
REMARK SMILES IDX 29 1 28 2 26 3 27 4 25 5 20 6 21 7 22 8 24 9 23 10 18 11
REMARK SMILES IDX 17 12 19 14 16 15 14 16 15 17 13 19 10 20 11 21 95 22 12 23
REMARK SMILES IDX 94 24 9 25 7 26 8 27 6 29 1 30 2 31 3 32 96 33 4 34 5 35
REMARK SMILES IDX 30 36 31 37 32 38 33 39 34 40 35 41 93 42 36 43 92 44 37 45
REMARK SMILES IDX 38 46 39 47 86 48 40 49 91 50 85 51 87 52 41 53 90 54 84 55
REMARK SMILES IDX 83 56 42 58 72 59 53 60 71 61 54 62 57 63 70 64 88 65 55 66
REMARK SMILES IDX 56 67 69 69 89 70 58 71 43 72 44 73 52 74 45 75 51 76 46 77
REMARK SMILES IDX 47 78 48 79 49 80 50 81 73 82 74 83 82 84 75 85 81 86 76 87
REMARK SMILES IDX 77 88 78 89 79 90 80 91 59 92 60 93 68 94 61 95 67 96 62 97
REMARK SMILES IDX 63 98 64 99 65 100 66 101
REMARK H PARENT 17 13 16 18 9 28 87 57 57 68
REMARK Flexibility Score: inf
ROOT
ATOM      1  C   UNL A   1      32.137  29.404  27.159  1.00  0.00     0.275 C 
ENDROOT
BRANCH   1   2
ATOM      2  O   UNL A   1      31.930  28.507  25.767  1.00  0.00    -0.458 OA
BRANCH   2   3
ATOM      3  C   UNL A   1      31.861  28.737  24.416  1.00  0.00     0.339 C 
ATOM      4  O   UNL A   1      32.872  28.916  23.748  1.00  0.00    -0.246 OA
BRANCH   3   5
ATOM      5  C   UNL A   1      30.445  28.764  23.663  1.00  0.00     0.072 A 
ATOM      6  C   UNL A   1      29.492  27.700  23.670  1.00  0.00     0.056 A 
ATOM      7  C   UNL A   1      28.110  27.903  23.350  1.00  0.00     0.015 A 
ATOM      8  C   UNL A   1      27.606  29.162  23.091  1.00  0.00     0.001 A 
ATOM      9  C   UNL A   1      29.902  29.979  23.208  1.00  0.00     0.016 A 
ATOM     10  C   UNL A   1      28.511  30.201  23.013  1.00  0.00     0.001 A 
BRANCH   6  11
ATOM     11  C   UNL A   1      29.739  26.304  24.089  1.00  0.00     0.270 C 
ATOM     12  N   UNL A   1      29.950  26.073  25.417  1.00  0.00    -0.263 N 
ATOM     13  H   UNL A   1      30.436  26.702  25.998  1.00  0.00     0.191 HD
ATOM     14  O   UNL A   1      29.706  25.386  23.271  1.00  0.00    -0.267 OA
BRANCH  12  15
ATOM     15  N   UNL A   1      29.414  24.859  25.881  1.00  0.00    -0.263 N 
ATOM     16  C   UNL A   1      30.201  24.009  26.625  1.00  0.00     0.269 C 
ATOM     17  O   UNL A   1      29.775  23.439  27.622  1.00  0.00    -0.267 OA
ATOM     18  H   UNL A   1      28.482  24.618  25.677  1.00  0.00     0.191 HD
BRANCH  16  19
ATOM     19  C   UNL A   1      31.592  23.776  26.160  1.00  0.00     0.041 A 
ATOM     20  C   UNL A   1      34.227  23.391  25.336  1.00  0.00     0.041 A 
ATOM     21  C   UNL A   1      33.212  23.471  24.383  1.00  0.00     0.027 A 
ATOM     22  C   UNL A   1      33.915  23.403  26.699  1.00  0.00     0.027 A 
ATOM     23  C   UNL A   1      31.894  23.652  24.795  1.00  0.00     0.016 A 
ATOM     24  C   UNL A   1      32.603  23.630  27.112  1.00  0.00     0.016 A 
BRANCH  20  25
ATOM     25  N   UNL A   1      35.574  23.291  24.979  1.00  0.00    -0.322 N 
ATOM     26  C   UNL A   1      36.443  22.223  25.012  1.00  0.00     0.255 C 
ATOM     27  O   UNL A   1      37.652  22.470  25.000  1.00  0.00    -0.269 OA
ATOM     28  H   UNL A   1      35.969  24.129  24.648  1.00  0.00     0.170 HD
BRANCH  26  29
ATOM     29  C   UNL A   1      35.996  20.791  24.923  1.00  0.00     0.040 A 
ATOM     30  C   UNL A   1      32.906  18.579  24.584  1.00  0.00     0.044 C 
ATOM     31  C   UNL A   1      34.340  19.010  24.670  1.00  0.00    -0.050 A 
ATOM     32  C   UNL A   1      35.356  18.056  24.667  1.00  0.00     0.003 A 
ATOM     33  C   UNL A   1      34.674  20.374  24.716  1.00  0.00     0.017 A 
ATOM     34  C   UNL A   1      36.683  18.453  24.791  1.00  0.00     0.001 A 
ATOM     35  C   UNL A   1      36.997  19.807  24.946  1.00  0.00     0.014 A 
ENDBRANCH  26  29
ENDBRANCH  20  25
ENDBRANCH  16  19
ENDBRANCH  12  15
ENDBRANCH   6  11
ENDBRANCH   3   5
ENDBRANCH   2   3
ENDBRANCH   1   2
BRANCH   1  36
ATOM     36  C   UNL A   1      33.167  31.017  27.284  1.00  0.00     0.275 C 
BRANCH  36  37
ATOM     37  O   UNL A   1      34.979  31.120  27.780  1.00  0.00    -0.458 OA
BRANCH  37  38
ATOM     38  C   UNL A   1      36.408  30.194  28.002  1.00  0.00     0.338 C 
ATOM     39  O   UNL A   1      36.549  29.373  27.078  1.00  0.00    -0.246 OA
BRANCH  38  40
ATOM     40  C   UNL A   1      37.668  29.941  29.376  1.00  0.00     0.060 A 
ATOM     41  C   UNL A   1      38.763  30.824  29.433  1.00  0.00     0.016 A 
ATOM     42  C   UNL A   1      38.175  28.735  30.088  1.00  0.00     0.016 A 
ATOM     43  C   UNL A   1      40.198  30.315  29.600  1.00  0.00     0.010 A 
ATOM     44  C   UNL A   1      39.535  28.269  30.365  1.00  0.00     0.010 A 
ATOM     45  C   UNL A   1      40.573  28.938  29.787  1.00  0.00    -0.014 A 
BRANCH  45  46
ATOM     46  C   UNL A   1      41.663  28.069  28.998  1.00  0.00     0.031 A 
ATOM     47  C   UNL A   1      41.544  26.599  28.759  1.00  0.00     0.074 A 
ATOM     48  C   UNL A   1      42.678  28.466  28.134  1.00  0.00     0.049 A 
ATOM     49  N   UNL A   1      42.428  25.733  29.145  1.00  0.00    -0.248 NA
ATOM     50  C   UNL A   1      40.636  26.065  27.745  1.00  0.00     0.031 C 
ATOM     51  C   UNL A   1      43.872  27.751  27.632  1.00  0.00     0.029 A 
ATOM     52  N   UNL A   1      43.035  29.704  27.656  1.00  0.00    -0.354 N 
ATOM     53  C   UNL A   1      42.449  24.716  28.185  1.00  0.00     0.074 A 
ATOM     54  C   UNL A   1      41.208  24.885  27.453  1.00  0.00     0.031 C 
ATOM     55  C   UNL A   1      44.910  28.615  27.524  1.00  0.00     0.029 A 
ATOM     56  C   UNL A   1      44.411  29.932  27.837  1.00  0.00     0.049 A 
ATOM     57  H   UNL A   1      42.413  30.345  27.243  1.00  0.00     0.167 HD
ATOM     58  C   UNL A   1      43.598  23.996  27.921  1.00  0.00     0.031 A 
ATOM     59  C   UNL A   1      44.743  30.797  28.853  1.00  0.00     0.031 A 
ATOM     60  C   UNL A   1      44.809  24.610  28.524  1.00  0.00     0.049 A 
ATOM     61  C   UNL A   1      45.102  29.913  30.103  1.00  0.00     0.074 A 
ATOM     62  C   UNL A   1      46.054  25.027  28.062  1.00  0.00     0.029 A 
ATOM     63  N   UNL A   1      44.719  25.130  29.795  1.00  0.00    -0.354 N 
ATOM     64  N   UNL A   1      45.714  28.751  30.044  1.00  0.00    -0.248 NA
ATOM     65  C   UNL A   1      44.654  30.198  31.480  1.00  0.00     0.031 C 
ATOM     66  C   UNL A   1      46.648  25.873  29.057  1.00  0.00     0.029 A 
ATOM     67  C   UNL A   1      45.776  25.951  30.122  1.00  0.00     0.049 A 
ATOM     68  H   UNL A   1      43.974  24.935  30.410  1.00  0.00     0.167 HD
ATOM     69  C   UNL A   1      45.490  28.054  31.226  1.00  0.00     0.074 A 
ATOM     70  C   UNL A   1      44.907  29.039  32.119  1.00  0.00     0.031 C 
ATOM     71  C   UNL A   1      45.646  26.694  31.369  1.00  0.00     0.031 A 
BRANCH  58  72
ATOM     72  C   UNL A   1      43.739  22.794  26.982  1.00  0.00    -0.014 A 
ATOM     73  C   UNL A   1      44.916  22.657  26.204  1.00  0.00     0.010 A 
ATOM     74  C   UNL A   1      42.834  21.719  26.885  1.00  0.00     0.010 A 
ATOM     75  C   UNL A   1      45.162  21.554  25.368  1.00  0.00     0.020 A 
ATOM     76  C   UNL A   1      43.062  20.605  26.047  1.00  0.00     0.020 A 
ATOM     77  C   UNL A   1      44.227  20.530  25.291  1.00  0.00     0.054 A 
BRANCH  77  78
ATOM     78  S   UNL A   1      44.574  19.096  24.233  1.00  0.00     0.124 S 
ATOM     79  O   UNL A   1      44.404  19.646  22.891  1.00  0.00    -0.237 OA
ATOM     80  O   UNL A   1      45.944  18.750  24.601  1.00  0.00    -0.237 OA
ATOM     81  O   UNL A   1      43.562  18.117  24.630  1.00  0.00    -0.744 OA
ENDBRANCH  77  78
ENDBRANCH  58  72
BRANCH  59  82
ATOM     82  C   UNL A   1      43.690  31.948  28.790  1.00  0.00    -0.014 A 
ATOM     83  C   UNL A   1      43.150  32.566  29.897  1.00  0.00     0.010 A 
ATOM     84  C   UNL A   1      43.991  32.908  27.868  1.00  0.00     0.010 A 
ATOM     85  C   UNL A   1      43.116  34.057  29.998  1.00  0.00     0.020 A 
ATOM     86  C   UNL A   1      44.372  34.317  28.261  1.00  0.00     0.020 A 
ATOM     87  C   UNL A   1      43.783  35.165  29.116  1.00  0.00     0.054 A 
BRANCH  87  88
ATOM     88  S   UNL A   1      43.196  37.397  28.564  1.00  0.00     0.124 S 
ATOM     89  O   UNL A   1      44.026  37.953  27.486  1.00  0.00    -0.237 OA
ATOM     90  O   UNL A   1      41.816  37.437  28.108  1.00  0.00    -0.237 OA
ATOM     91  O   UNL A   1      43.394  38.312  29.685  1.00  0.00    -0.744 OA
ENDBRANCH  87  88
ENDBRANCH  59  82
BRANCH  71  92
ATOM     92  C   UNL A   1      45.539  25.885  32.672  1.00  0.00    -0.014 A 
ATOM     93  C   UNL A   1      44.335  25.712  33.372  1.00  0.00     0.010 A 
ATOM     94  C   UNL A   1      46.706  25.423  33.346  1.00  0.00     0.010 A 
ATOM     95  C   UNL A   1      44.299  25.102  34.644  1.00  0.00     0.020 A 
ATOM     96  C   UNL A   1      46.688  24.816  34.608  1.00  0.00     0.020 A 
ATOM     97  C   UNL A   1      45.476  24.662  35.256  1.00  0.00     0.054 A 
BRANCH  97  98
ATOM     98  S   UNL A   1      45.425  24.005  36.944  1.00  0.00     0.124 S 
ATOM     99  O   UNL A   1      45.345  22.562  36.720  1.00  0.00    -0.237 OA
ATOM    100  O   UNL A   1      46.688  24.483  37.499  1.00  0.00    -0.237 OA
ATOM    101  O   UNL A   1      44.224  24.604  37.522  1.00  0.00    -0.744 OA
ENDBRANCH  97  98
ENDBRANCH  71  92
ENDBRANCH  45  46
ENDBRANCH  38  40
ENDBRANCH  37  38
ENDBRANCH  36  37
ENDBRANCH   1  36
TORSDOF 19
ENDMDL
