MODEL 1
REMARK VINA RESULT:     -10.7      0.000      0.000
REMARK SMILES Cc1occc1-c1nnnn1C[C@@H](CC(C)C)C(=O)OCCOC(=O)c1ccc(-c2c3nc(c(-c4ccc(S(=O)(=O)[O-])cc4)c4ccc([nH]4)c(-c4ccc(S(=O)(=O)[O-])cc4)c4nc(c(-c5ccc(S(=O)(=O)[O-])cc5)c5ccc2[nH]5)C=C4)C=C3)cc1
REMARK SMILES IDX 21 1 20 2 18 3 19 4 13 5 12 6 11 7 7 8 8 9 9 10 10 11 6 12
REMARK SMILES IDX 1 13 2 14 3 15 4 16 5 17 14 18 15 19 16 20 17 21 22 22 23 23
REMARK SMILES IDX 24 24 25 25 26 26 27 27 85 28 28 29 84 30 29 31 30 32 31 33
REMARK SMILES IDX 78 34 32 35 83 36 77 37 79 38 33 39 82 40 76 41 75 42 34 44
REMARK SMILES IDX 64 45 45 46 63 47 46 48 49 49 62 50 80 51 47 52 48 53 61 55
REMARK SMILES IDX 81 56 50 57 35 58 36 59 44 60 37 61 43 62 38 63 39 64 40 65
REMARK SMILES IDX 41 66 42 67 65 68 66 69 74 70 67 71 73 72 68 73 69 74 70 75
REMARK SMILES IDX 71 76 72 77 51 78 52 79 60 80 53 81 59 82 54 83 55 84 56 85
REMARK SMILES IDX 57 86 58 87
REMARK H PARENT 79 43 49 54
REMARK Flexibility Score: inf
ROOT
ATOM      1  C   UNL A   1      37.163  23.446  25.945  1.00  0.00     0.274 C 
ENDROOT
BRANCH   1   2
ATOM      2  O   UNL A   1      36.323  23.564  24.776  1.00  0.00    -0.462 OA
BRANCH   2   3
ATOM      3  C   UNL A   1      35.146  22.882  24.773  1.00  0.00     0.310 C 
ATOM      4  O   UNL A   1      35.039  21.678  24.622  1.00  0.00    -0.252 OA
BRANCH   3   5
ATOM      5  C   UNL A   1      33.948  23.812  24.860  1.00  0.00     0.121 C 
BRANCH   5   6
ATOM      6  C   UNL A   1      33.370  23.961  26.282  1.00  0.00     0.164 C 
BRANCH   6   7
ATOM      7  N   UNL A   1      31.921  23.913  26.354  1.00  0.00    -0.224 N 
ATOM      8  C   UNL A   1      30.995  24.930  26.276  1.00  0.00     0.185 A 
ATOM      9  N   UNL A   1      29.898  24.503  26.874  1.00  0.00    -0.108 NA
ATOM     10  N   UNL A   1      30.093  23.174  27.141  1.00  0.00    -0.023 NA
ATOM     11  N   UNL A   1      31.312  22.795  26.792  1.00  0.00    -0.045 NA
BRANCH   8  12
ATOM     12  C   UNL A   1      31.113  26.284  25.681  1.00  0.00     0.062 A 
ATOM     13  C   UNL A   1      29.133  26.427  23.925  1.00  0.00     0.088 C 
ATOM     14  C   UNL A   1      30.336  26.834  24.680  1.00  0.00     0.111 A 
ATOM     15  O   UNL A   1      30.759  28.107  24.421  1.00  0.00    -0.469 OA
ATOM     16  C   UNL A   1      31.745  28.399  25.307  1.00  0.00     0.196 A 
ATOM     17  C   UNL A   1      31.978  27.319  26.126  1.00  0.00     0.054 A 
ENDBRANCH   8  12
ENDBRANCH   6   7
ENDBRANCH   5   6
BRANCH   5  18
ATOM     18  C   UNL A   1      34.301  25.098  24.085  1.00  0.00     0.020 C 
BRANCH  18  19
ATOM     19  C   UNL A   1      33.643  25.338  22.706  1.00  0.00    -0.017 C 
ATOM     20  C   UNL A   1      32.253  24.719  22.540  1.00  0.00     0.007 C 
ATOM     21  C   UNL A   1      33.516  26.847  22.482  1.00  0.00     0.007 C 
ENDBRANCH  18  19
ENDBRANCH   5  18
ENDBRANCH   3   5
ENDBRANCH   2   3
ENDBRANCH   1   2
BRANCH   1  22
ATOM     22  C   UNL A   1      38.208  22.359  25.764  1.00  0.00     0.275 C 
BRANCH  22  23
ATOM     23  O   UNL A   1      39.202  22.519  26.766  1.00  0.00    -0.458 OA
BRANCH  23  24
ATOM     24  C   UNL A   1      40.353  21.866  26.501  1.00  0.00     0.338 C 
ATOM     25  O   UNL A   1      40.477  20.683  26.213  1.00  0.00    -0.246 OA
BRANCH  24  26
ATOM     26  C   UNL A   1      41.490  22.756  26.723  1.00  0.00     0.060 A 
ATOM     27  C   UNL A   1      42.008  22.761  28.021  1.00  0.00     0.016 A 
ATOM     28  C   UNL A   1      41.599  23.846  25.861  1.00  0.00     0.016 A 
ATOM     29  C   UNL A   1      42.322  23.974  28.578  1.00  0.00     0.010 A 
ATOM     30  C   UNL A   1      41.847  25.059  26.433  1.00  0.00     0.010 A 
ATOM     31  C   UNL A   1      42.112  25.110  27.803  1.00  0.00    -0.014 A 
BRANCH  31  32
ATOM     32  C   UNL A   1      42.179  26.403  28.435  1.00  0.00     0.031 A 
ATOM     33  C   UNL A   1      43.362  27.172  28.021  1.00  0.00     0.074 A 
ATOM     34  C   UNL A   1      41.149  26.894  29.143  1.00  0.00     0.049 A 
ATOM     35  N   UNL A   1      44.456  27.360  28.682  1.00  0.00    -0.248 NA
ATOM     36  C   UNL A   1      43.431  27.564  26.603  1.00  0.00     0.031 C 
ATOM     37  C   UNL A   1      39.805  26.325  29.294  1.00  0.00     0.029 A 
ATOM     38  N   UNL A   1      41.054  28.094  29.766  1.00  0.00    -0.354 N 
ATOM     39  C   UNL A   1      45.255  28.099  27.820  1.00  0.00     0.074 A 
ATOM     40  C   UNL A   1      44.716  27.892  26.503  1.00  0.00     0.031 C 
ATOM     41  C   UNL A   1      38.975  27.285  29.765  1.00  0.00     0.029 A 
ATOM     42  C   UNL A   1      39.754  28.477  30.059  1.00  0.00     0.049 A 
ATOM     43  H   UNL A   1      41.838  28.644  29.992  1.00  0.00     0.167 HD
ATOM     44  C   UNL A   1      46.047  29.111  28.266  1.00  0.00     0.031 A 
ATOM     45  C   UNL A   1      39.356  29.718  30.430  1.00  0.00     0.031 A 
ATOM     46  C   UNL A   1      46.145  29.106  29.705  1.00  0.00     0.049 A 
ATOM     47  C   UNL A   1      40.564  30.461  30.872  1.00  0.00     0.074 A 
ATOM     48  C   UNL A   1      46.661  28.249  30.652  1.00  0.00     0.029 A 
ATOM     49  N   UNL A   1      45.285  29.959  30.358  1.00  0.00    -0.354 N 
ATOM     50  N   UNL A   1      41.249  30.150  31.938  1.00  0.00    -0.248 NA
ATOM     51  C   UNL A   1      41.270  31.302  29.913  1.00  0.00     0.031 C 
ATOM     52  C   UNL A   1      45.833  28.408  31.801  1.00  0.00     0.029 A 
ATOM     53  C   UNL A   1      44.862  29.373  31.522  1.00  0.00     0.049 A 
ATOM     54  H   UNL A   1      45.017  30.851  30.040  1.00  0.00     0.167 HD
ATOM     55  C   UNL A   1      42.573  30.387  31.597  1.00  0.00     0.074 A 
ATOM     56  C   UNL A   1      42.511  31.228  30.408  1.00  0.00     0.031 C 
ATOM     57  C   UNL A   1      43.577  29.640  32.143  1.00  0.00     0.031 A 
BRANCH  44  58
ATOM     58  C   UNL A   1      46.326  30.362  27.461  1.00  0.00    -0.014 A 
ATOM     59  C   UNL A   1      47.665  30.769  27.305  1.00  0.00     0.010 A 
ATOM     60  C   UNL A   1      45.334  31.291  27.082  1.00  0.00     0.010 A 
ATOM     61  C   UNL A   1      47.984  32.066  26.878  1.00  0.00     0.020 A 
ATOM     62  C   UNL A   1      45.639  32.566  26.610  1.00  0.00     0.020 A 
ATOM     63  C   UNL A   1      46.964  32.961  26.555  1.00  0.00     0.054 A 
BRANCH  63  64
ATOM     64  S   UNL A   1      47.369  34.672  26.146  1.00  0.00     0.124 S 
ATOM     65  O   UNL A   1      48.361  34.498  25.090  1.00  0.00    -0.237 OA
ATOM     66  O   UNL A   1      46.076  35.205  25.726  1.00  0.00    -0.237 OA
ATOM     67  O   UNL A   1      47.881  35.212  27.404  1.00  0.00    -0.744 OA
ENDBRANCH  63  64
ENDBRANCH  44  58
BRANCH  45  68
ATOM     68  C   UNL A   1      38.062  30.381  30.157  1.00  0.00    -0.014 A 
ATOM     69  C   UNL A   1      37.181  30.714  31.201  1.00  0.00     0.010 A 
ATOM     70  C   UNL A   1      37.802  30.919  28.879  1.00  0.00     0.010 A 
ATOM     71  C   UNL A   1      36.109  31.594  30.986  1.00  0.00     0.020 A 
ATOM     72  C   UNL A   1      36.733  31.792  28.656  1.00  0.00     0.020 A 
ATOM     73  C   UNL A   1      35.902  32.143  29.717  1.00  0.00     0.054 A 
BRANCH  73  74
ATOM     74  S   UNL A   1      34.615  33.405  29.487  1.00  0.00     0.124 S 
ATOM     75  O   UNL A   1      34.071  33.543  30.835  1.00  0.00    -0.237 OA
ATOM     76  O   UNL A   1      35.377  34.548  28.992  1.00  0.00    -0.237 OA
ATOM     77  O   UNL A   1      33.709  32.800  28.512  1.00  0.00    -0.744 OA
ENDBRANCH  73  74
ENDBRANCH  45  68
BRANCH  57  78
ATOM     78  C   UNL A   1      43.252  28.847  33.387  1.00  0.00    -0.014 A 
ATOM     79  C   UNL A   1      43.301  29.384  34.689  1.00  0.00     0.010 A 
ATOM     80  C   UNL A   1      42.763  27.541  33.215  1.00  0.00     0.010 A 
ATOM     81  C   UNL A   1      42.894  28.619  35.792  1.00  0.00     0.020 A 
ATOM     82  C   UNL A   1      42.339  26.782  34.307  1.00  0.00     0.020 A 
ATOM     83  C   UNL A   1      42.417  27.320  35.592  1.00  0.00     0.054 A 
BRANCH  83  84
ATOM     84  S   UNL A   1      41.848  26.351  37.016  1.00  0.00     0.124 S 
ATOM     85  O   UNL A   1      42.935  26.525  37.974  1.00  0.00    -0.237 OA
ATOM     86  O   UNL A   1      40.586  26.999  37.369  1.00  0.00    -0.237 OA
ATOM     87  O   UNL A   1      41.707  24.997  36.480  1.00  0.00    -0.744 OA
ENDBRANCH  83  84
ENDBRANCH  57  78
ENDBRANCH  31  32
ENDBRANCH  24  26
ENDBRANCH  23  24
ENDBRANCH  22  23
ENDBRANCH   1  22
TORSDOF 19
ENDMDL
MODEL 2
REMARK VINA RESULT:     -10.6      2.466      8.754
REMARK SMILES Cc1occc1-c1nnnn1C[C@@H](CC(C)C)C(=O)OCCOC(=O)c1ccc(-c2c3nc(c(-c4ccc(S(=O)(=O)[O-])cc4)c4ccc([nH]4)c(-c4ccc(S(=O)(=O)[O-])cc4)c4nc(c(-c5ccc(S(=O)(=O)[O-])cc5)c5ccc2[nH]5)C=C4)C=C3)cc1
REMARK SMILES IDX 21 1 20 2 18 3 19 4 13 5 12 6 11 7 7 8 8 9 9 10 10 11 6 12
REMARK SMILES IDX 1 13 2 14 3 15 4 16 5 17 14 18 15 19 16 20 17 21 22 22 23 23
REMARK SMILES IDX 24 24 25 25 26 26 27 27 85 28 28 29 84 30 29 31 30 32 31 33
REMARK SMILES IDX 78 34 32 35 83 36 77 37 79 38 33 39 82 40 76 41 75 42 34 44
REMARK SMILES IDX 64 45 45 46 63 47 46 48 49 49 62 50 80 51 47 52 48 53 61 55
REMARK SMILES IDX 81 56 50 57 35 58 36 59 44 60 37 61 43 62 38 63 39 64 40 65
REMARK SMILES IDX 41 66 42 67 65 68 66 69 74 70 67 71 73 72 68 73 69 74 70 75
REMARK SMILES IDX 71 76 72 77 51 78 52 79 60 80 53 81 59 82 54 83 55 84 56 85
REMARK SMILES IDX 57 86 58 87
REMARK H PARENT 79 43 49 54
REMARK Flexibility Score: inf
ROOT
ATOM      1  C   UNL A   1      33.161  29.210  25.877  1.00  0.00     0.274 C 
ENDROOT
BRANCH   1   2
ATOM      2  O   UNL A   1      33.008  27.843  26.320  1.00  0.00    -0.462 OA
BRANCH   2   3
ATOM      3  C   UNL A   1      31.742  27.377  26.500  1.00  0.00     0.310 C 
ATOM      4  O   UNL A   1      31.069  27.557  27.498  1.00  0.00    -0.252 OA
BRANCH   3   5
ATOM      5  C   UNL A   1      31.294  26.488  25.352  1.00  0.00     0.121 C 
BRANCH   5   6
ATOM      6  C   UNL A   1      30.716  25.130  25.799  1.00  0.00     0.164 C 
BRANCH   6   7
ATOM      7  N   UNL A   1      31.703  24.189  26.302  1.00  0.00    -0.224 N 
ATOM      8  C   UNL A   1      32.565  23.360  25.621  1.00  0.00     0.185 A 
ATOM      9  N   UNL A   1      32.886  22.375  26.441  1.00  0.00    -0.108 NA
ATOM     10  N   UNL A   1      32.376  22.709  27.667  1.00  0.00    -0.023 NA
ATOM     11  N   UNL A   1      31.683  23.836  27.601  1.00  0.00    -0.045 NA
BRANCH   8  12
ATOM     12  C   UNL A   1      33.077  23.449  24.231  1.00  0.00     0.062 A 
ATOM     13  C   UNL A   1      35.674  23.910  24.495  1.00  0.00     0.088 C 
ATOM     14  C   UNL A   1      34.370  23.720  23.826  1.00  0.00     0.111 A 
ATOM     15  O   UNL A   1      34.433  23.705  22.462  1.00  0.00    -0.469 OA
ATOM     16  C   UNL A   1      33.210  23.345  21.999  1.00  0.00     0.196 A 
ATOM     17  C   UNL A   1      32.347  23.145  23.051  1.00  0.00     0.054 A 
ENDBRANCH   8  12
ENDBRANCH   6   7
ENDBRANCH   5   6
BRANCH   5  18
ATOM     18  C   UNL A   1      30.448  27.354  24.396  1.00  0.00     0.020 C 
BRANCH  18  19
ATOM     19  C   UNL A   1      30.979  27.620  22.968  1.00  0.00    -0.017 C 
ATOM     20  C   UNL A   1      31.148  29.098  22.611  1.00  0.00     0.007 C 
ATOM     21  C   UNL A   1      32.343  26.940  22.821  1.00  0.00     0.007 C 
ENDBRANCH  18  19
ENDBRANCH   5  18
ENDBRANCH   3   5
ENDBRANCH   2   3
ENDBRANCH   1   2
BRANCH   1  22
ATOM     22  C   UNL A   1      33.322  30.155  27.054  1.00  0.00     0.275 C 
BRANCH  22  23
ATOM     23  O   UNL A   1      34.612  29.959  27.615  1.00  0.00    -0.458 OA
BRANCH  23  24
ATOM     24  C   UNL A   1      35.240  31.106  27.950  1.00  0.00     0.338 C 
ATOM     25  O   UNL A   1      35.203  32.168  27.344  1.00  0.00    -0.246 OA
BRANCH  24  26
ATOM     26  C   UNL A   1      36.100  30.878  29.108  1.00  0.00     0.060 A 
ATOM     27  C   UNL A   1      37.059  31.867  29.351  1.00  0.00     0.016 A 
ATOM     28  C   UNL A   1      36.264  29.553  29.506  1.00  0.00     0.016 A 
ATOM     29  C   UNL A   1      38.327  31.460  29.676  1.00  0.00     0.010 A 
ATOM     30  C   UNL A   1      37.539  29.141  29.764  1.00  0.00     0.010 A 
ATOM     31  C   UNL A   1      38.562  30.090  29.751  1.00  0.00    -0.014 A 
BRANCH  31  32
ATOM     32  C   UNL A   1      39.923  29.624  29.830  1.00  0.00     0.031 A 
ATOM     33  C   UNL A   1      40.378  29.439  31.216  1.00  0.00     0.074 A 
ATOM     34  C   UNL A   1      40.589  29.211  28.739  1.00  0.00     0.049 A 
ATOM     35  N   UNL A   1      41.143  30.215  31.909  1.00  0.00    -0.248 NA
ATOM     36  C   UNL A   1      39.691  28.398  32.001  1.00  0.00     0.031 C 
ATOM     37  C   UNL A   1      40.071  29.035  27.378  1.00  0.00     0.029 A 
ATOM     38  N   UNL A   1      41.851  28.723  28.659  1.00  0.00    -0.354 N 
ATOM     39  C   UNL A   1      41.205  29.611  33.157  1.00  0.00     0.074 A 
ATOM     40  C   UNL A   1      40.065  28.737  33.233  1.00  0.00     0.031 C 
ATOM     41  C   UNL A   1      40.938  28.269  26.675  1.00  0.00     0.029 A 
ATOM     42  C   UNL A   1      42.111  28.015  27.496  1.00  0.00     0.049 A 
ATOM     43  H   UNL A   1      42.525  28.861  29.364  1.00  0.00     0.167 HD
ATOM     44  C   UNL A   1      42.357  29.570  33.878  1.00  0.00     0.031 A 
ATOM     45  C   UNL A   1      43.180  27.212  27.278  1.00  0.00     0.031 A 
ATOM     46  C   UNL A   1      43.358  30.446  33.319  1.00  0.00     0.049 A 
ATOM     47  C   UNL A   1      44.208  27.547  28.297  1.00  0.00     0.074 A 
ATOM     48  C   UNL A   1      43.486  31.805  33.140  1.00  0.00     0.029 A 
ATOM     49  N   UNL A   1      44.270  29.841  32.485  1.00  0.00    -0.354 N 
ATOM     50  N   UNL A   1      44.831  28.691  28.338  1.00  0.00    -0.248 NA
ATOM     51  C   UNL A   1      44.260  26.774  29.532  1.00  0.00     0.031 C 
ATOM     52  C   UNL A   1      44.252  31.963  31.949  1.00  0.00     0.029 A 
ATOM     53  C   UNL A   1      44.585  30.696  31.461  1.00  0.00     0.049 A 
ATOM     54  H   UNL A   1      44.640  28.937  32.604  1.00  0.00     0.167 HD
ATOM     55  C   UNL A   1      44.982  28.971  29.690  1.00  0.00     0.074 A 
ATOM     56  C   UNL A   1      44.750  27.699  30.365  1.00  0.00     0.031 C 
ATOM     57  C   UNL A   1      44.992  30.261  30.137  1.00  0.00     0.031 A 
BRANCH  44  58
ATOM     58  C   UNL A   1      42.736  28.409  34.773  1.00  0.00    -0.014 A 
ATOM     59  C   UNL A   1      43.331  28.693  36.018  1.00  0.00     0.010 A 
ATOM     60  C   UNL A   1      42.780  27.067  34.342  1.00  0.00     0.010 A 
ATOM     61  C   UNL A   1      44.007  27.701  36.741  1.00  0.00     0.020 A 
ATOM     62  C   UNL A   1      43.408  26.062  35.075  1.00  0.00     0.020 A 
ATOM     63  C   UNL A   1      44.058  26.396  36.250  1.00  0.00     0.054 A 
BRANCH  63  64
ATOM     64  S   UNL A   1      45.051  25.154  37.105  1.00  0.00     0.124 S 
ATOM     65  O   UNL A   1      46.387  25.735  37.023  1.00  0.00    -0.237 OA
ATOM     66  O   UNL A   1      44.444  25.132  38.433  1.00  0.00    -0.237 OA
ATOM     67  O   UNL A   1      44.844  23.945  36.311  1.00  0.00    -0.744 OA
ENDBRANCH  63  64
ENDBRANCH  44  58
BRANCH  45  68
ATOM     68  C   UNL A   1      43.250  25.995  26.437  1.00  0.00    -0.014 A 
ATOM     69  C   UNL A   1      44.189  25.884  25.396  1.00  0.00     0.010 A 
ATOM     70  C   UNL A   1      42.556  24.831  26.826  1.00  0.00     0.010 A 
ATOM     71  C   UNL A   1      44.459  24.643  24.800  1.00  0.00     0.020 A 
ATOM     72  C   UNL A   1      42.817  23.591  26.233  1.00  0.00     0.020 A 
ATOM     73  C   UNL A   1      43.784  23.499  25.235  1.00  0.00     0.054 A 
BRANCH  73  74
ATOM     74  S   UNL A   1      44.257  21.875  24.573  1.00  0.00     0.124 S 
ATOM     75  O   UNL A   1      43.164  21.022  25.034  1.00  0.00    -0.237 OA
ATOM     76  O   UNL A   1      44.304  22.120  23.134  1.00  0.00    -0.237 OA
ATOM     77  O   UNL A   1      45.552  21.611  25.196  1.00  0.00    -0.744 OA
ENDBRANCH  73  74
ENDBRANCH  45  68
BRANCH  57  78
ATOM     78  C   UNL A   1      45.231  31.347  29.115  1.00  0.00    -0.014 A 
ATOM     79  C   UNL A   1      46.511  31.812  28.758  1.00  0.00     0.010 A 
ATOM     80  C   UNL A   1      44.117  31.826  28.405  1.00  0.00     0.010 A 
ATOM     81  C   UNL A   1      46.668  32.755  27.732  1.00  0.00     0.020 A 
ATOM     82  C   UNL A   1      44.269  32.751  27.370  1.00  0.00     0.020 A 
ATOM     83  C   UNL A   1      45.542  33.220  27.045  1.00  0.00     0.054 A 
BRANCH  83  84
ATOM     84  S   UNL A   1      45.751  34.405  25.687  1.00  0.00     0.124 S 
ATOM     85  O   UNL A   1      45.281  35.653  26.280  1.00  0.00    -0.237 OA
ATOM     86  O   UNL A   1      47.186  34.338  25.415  1.00  0.00    -0.237 OA
ATOM     87  O   UNL A   1      44.904  33.868  24.623  1.00  0.00    -0.744 OA
ENDBRANCH  83  84
ENDBRANCH  57  78
ENDBRANCH  31  32
ENDBRANCH  24  26
ENDBRANCH  23  24
ENDBRANCH  22  23
ENDBRANCH   1  22
TORSDOF 19
ENDMDL
MODEL 3
REMARK VINA RESULT:     -10.4      2.722      8.941
REMARK SMILES Cc1occc1-c1nnnn1C[C@@H](CC(C)C)C(=O)OCCOC(=O)c1ccc(-c2c3nc(c(-c4ccc(S(=O)(=O)[O-])cc4)c4ccc([nH]4)c(-c4ccc(S(=O)(=O)[O-])cc4)c4nc(c(-c5ccc(S(=O)(=O)[O-])cc5)c5ccc2[nH]5)C=C4)C=C3)cc1
REMARK SMILES IDX 21 1 20 2 18 3 19 4 13 5 12 6 11 7 7 8 8 9 9 10 10 11 6 12
REMARK SMILES IDX 1 13 2 14 3 15 4 16 5 17 14 18 15 19 16 20 17 21 22 22 23 23
REMARK SMILES IDX 24 24 25 25 26 26 27 27 85 28 28 29 84 30 29 31 30 32 31 33
REMARK SMILES IDX 78 34 32 35 83 36 77 37 79 38 33 39 82 40 76 41 75 42 34 44
REMARK SMILES IDX 64 45 45 46 63 47 46 48 49 49 62 50 80 51 47 52 48 53 61 55
REMARK SMILES IDX 81 56 50 57 35 58 36 59 44 60 37 61 43 62 38 63 39 64 40 65
REMARK SMILES IDX 41 66 42 67 65 68 66 69 74 70 67 71 73 72 68 73 69 74 70 75
REMARK SMILES IDX 71 76 72 77 51 78 52 79 60 80 53 81 59 82 54 83 55 84 56 85
REMARK SMILES IDX 57 86 58 87
REMARK H PARENT 79 43 49 54
REMARK Flexibility Score: inf
ROOT
ATOM      1  C   UNL A   1      32.687  30.110  26.287  1.00  0.00     0.274 C 
ENDROOT
BRANCH   1   2
ATOM      2  O   UNL A   1      32.291  28.790  25.852  1.00  0.00    -0.462 OA
BRANCH   2   3
ATOM      3  C   UNL A   1      32.626  28.416  24.588  1.00  0.00     0.310 C 
ATOM      4  O   UNL A   1      32.889  29.185  23.681  1.00  0.00    -0.252 OA
BRANCH   3   5
ATOM      5  C   UNL A   1      32.517  26.914  24.390  1.00  0.00     0.121 C 
BRANCH   5   6
ATOM      6  C   UNL A   1      33.668  26.305  23.564  1.00  0.00     0.164 C 
BRANCH   6   7
ATOM      7  N   UNL A   1      33.246  25.600  22.366  1.00  0.00    -0.224 N 
ATOM      8  C   UNL A   1      33.192  24.249  22.104  1.00  0.00     0.185 A 
ATOM      9  N   UNL A   1      33.236  24.106  20.792  1.00  0.00    -0.108 NA
ATOM     10  N   UNL A   1      33.124  25.363  20.260  1.00  0.00    -0.023 NA
ATOM     11  N   UNL A   1      33.091  26.280  21.214  1.00  0.00    -0.045 NA
BRANCH   8  12
ATOM     12  C   UNL A   1      33.120  23.098  23.039  1.00  0.00     0.062 A 
ATOM     13  C   UNL A   1      35.462  23.087  24.279  1.00  0.00     0.088 C 
ATOM     14  C   UNL A   1      34.109  22.640  23.887  1.00  0.00     0.111 A 
ATOM     15  O   UNL A   1      33.646  21.563  24.588  1.00  0.00    -0.469 OA
ATOM     16  C   UNL A   1      32.344  21.386  24.252  1.00  0.00     0.196 A 
ATOM     17  C   UNL A   1      31.963  22.326  23.324  1.00  0.00     0.054 A 
ENDBRANCH   8  12
ENDBRANCH   6   7
ENDBRANCH   5   6
BRANCH   5  18
ATOM     18  C   UNL A   1      32.202  26.286  25.763  1.00  0.00     0.020 C 
BRANCH  18  19
ATOM     19  C   UNL A   1      31.396  24.966  25.808  1.00  0.00    -0.017 C 
ATOM     20  C   UNL A   1      31.872  23.958  26.856  1.00  0.00     0.007 C 
ATOM     21  C   UNL A   1      29.932  25.299  26.105  1.00  0.00     0.007 C 
ENDBRANCH  18  19
ENDBRANCH   5  18
ENDBRANCH   3   5
ENDBRANCH   2   3
ENDBRANCH   1   2
BRANCH   1  22
ATOM     22  C   UNL A   1      34.070  30.090  26.914  1.00  0.00     0.275 C 
BRANCH  22  23
ATOM     23  O   UNL A   1      34.079  30.989  28.014  1.00  0.00    -0.458 OA
BRANCH  23  24
ATOM     24  C   UNL A   1      35.247  31.646  28.172  1.00  0.00     0.338 C 
ATOM     25  O   UNL A   1      35.691  32.537  27.461  1.00  0.00    -0.246 OA
BRANCH  24  26
ATOM     26  C   UNL A   1      36.002  31.055  29.274  1.00  0.00     0.060 A 
ATOM     27  C   UNL A   1      36.880  31.918  29.936  1.00  0.00     0.016 A 
ATOM     28  C   UNL A   1      36.193  29.675  29.223  1.00  0.00     0.016 A 
ATOM     29  C   UNL A   1      38.130  31.445  30.242  1.00  0.00     0.010 A 
ATOM     30  C   UNL A   1      37.456  29.221  29.465  1.00  0.00     0.010 A 
ATOM     31  C   UNL A   1      38.426  30.134  29.881  1.00  0.00    -0.014 A 
BRANCH  31  32
ATOM     32  C   UNL A   1      39.795  29.690  29.947  1.00  0.00     0.031 A 
ATOM     33  C   UNL A   1      40.279  29.552  31.329  1.00  0.00     0.074 A 
ATOM     34  C   UNL A   1      40.447  29.254  28.855  1.00  0.00     0.049 A 
ATOM     35  N   UNL A   1      41.045  30.359  31.983  1.00  0.00    -0.248 NA
ATOM     36  C   UNL A   1      39.623  28.525  32.157  1.00  0.00     0.031 C 
ATOM     37  C   UNL A   1      39.905  29.030  27.510  1.00  0.00     0.029 A 
ATOM     38  N   UNL A   1      41.714  28.782  28.765  1.00  0.00    -0.354 N 
ATOM     39  C   UNL A   1      41.139  29.792  33.247  1.00  0.00     0.074 A 
ATOM     40  C   UNL A   1      40.015  28.904  33.370  1.00  0.00     0.031 C 
ATOM     41  C   UNL A   1      40.770  28.257  26.813  1.00  0.00     0.029 A 
ATOM     42  C   UNL A   1      41.962  28.044  27.619  1.00  0.00     0.049 A 
ATOM     43  H   UNL A   1      42.398  28.950  29.453  1.00  0.00     0.167 HD
ATOM     44  C   UNL A   1      42.306  29.789  33.947  1.00  0.00     0.031 A 
ATOM     45  C   UNL A   1      43.038  27.250  27.403  1.00  0.00     0.031 A 
ATOM     46  C   UNL A   1      43.283  30.662  33.343  1.00  0.00     0.049 A 
ATOM     47  C   UNL A   1      44.080  27.629  28.392  1.00  0.00     0.074 A 
ATOM     48  C   UNL A   1      43.388  32.017  33.122  1.00  0.00     0.029 A 
ATOM     49  N   UNL A   1      44.188  30.046  32.509  1.00  0.00    -0.354 N 
ATOM     50  N   UNL A   1      44.687  28.783  28.388  1.00  0.00    -0.248 NA
ATOM     51  C   UNL A   1      44.167  26.894  29.647  1.00  0.00     0.031 C 
ATOM     52  C   UNL A   1      44.129  32.150  31.912  1.00  0.00     0.029 A 
ATOM     53  C   UNL A   1      44.471  30.875  31.455  1.00  0.00     0.049 A 
ATOM     54  H   UNL A   1      44.573  29.151  32.648  1.00  0.00     0.167 HD
ATOM     55  C   UNL A   1      44.859  29.104  29.728  1.00  0.00     0.074 A 
ATOM     56  C   UNL A   1      44.659  27.850  30.443  1.00  0.00     0.031 C 
ATOM     57  C   UNL A   1      44.859  30.407  30.137  1.00  0.00     0.031 A 
BRANCH  44  58
ATOM     58  C   UNL A   1      42.719  28.660  34.868  1.00  0.00    -0.014 A 
ATOM     59  C   UNL A   1      43.330  28.989  36.093  1.00  0.00     0.010 A 
ATOM     60  C   UNL A   1      42.777  27.307  34.474  1.00  0.00     0.010 A 
ATOM     61  C   UNL A   1      44.035  28.029  36.832  1.00  0.00     0.020 A 
ATOM     62  C   UNL A   1      43.433  26.334  35.224  1.00  0.00     0.020 A 
ATOM     63  C   UNL A   1      44.098  26.711  36.378  1.00  0.00     0.054 A 
BRANCH  63  64
ATOM     64  S   UNL A   1      45.125  25.509  37.250  1.00  0.00     0.124 S 
ATOM     65  O   UNL A   1      46.326  26.291  37.526  1.00  0.00    -0.237 OA
ATOM     66  O   UNL A   1      44.299  25.178  38.408  1.00  0.00    -0.237 OA
ATOM     67  O   UNL A   1      45.289  24.431  36.278  1.00  0.00    -0.744 OA
ENDBRANCH  63  64
ENDBRANCH  44  58
BRANCH  45  68
ATOM     68  C   UNL A   1      43.110  26.010  26.597  1.00  0.00    -0.014 A 
ATOM     69  C   UNL A   1      43.948  25.923  25.471  1.00  0.00     0.010 A 
ATOM     70  C   UNL A   1      42.541  24.817  27.089  1.00  0.00     0.010 A 
ATOM     71  C   UNL A   1      44.245  24.681  24.889  1.00  0.00     0.020 A 
ATOM     72  C   UNL A   1      42.827  23.577  26.510  1.00  0.00     0.020 A 
ATOM     73  C   UNL A   1      43.697  23.512  25.424  1.00  0.00     0.054 A 
BRANCH  73  74
ATOM     74  S   UNL A   1      44.214  21.899  24.767  1.00  0.00     0.124 S 
ATOM     75  O   UNL A   1      43.102  21.036  25.154  1.00  0.00    -0.237 OA
ATOM     76  O   UNL A   1      44.341  22.165  23.337  1.00  0.00    -0.237 OA
ATOM     77  O   UNL A   1      45.474  21.632  25.459  1.00  0.00    -0.744 OA
ENDBRANCH  73  74
ENDBRANCH  45  68
BRANCH  57  78
ATOM     78  C   UNL A   1      45.063  31.466  29.079  1.00  0.00    -0.014 A 
ATOM     79  C   UNL A   1      46.329  31.864  28.609  1.00  0.00     0.010 A 
ATOM     80  C   UNL A   1      43.917  31.988  28.455  1.00  0.00     0.010 A 
ATOM     81  C   UNL A   1      46.443  32.784  27.557  1.00  0.00     0.020 A 
ATOM     82  C   UNL A   1      44.025  32.890  27.395  1.00  0.00     0.020 A 
ATOM     83  C   UNL A   1      45.287  33.293  26.957  1.00  0.00     0.054 A 
BRANCH  83  84
ATOM     84  S   UNL A   1      45.438  34.447  25.566  1.00  0.00     0.124 S 
ATOM     85  O   UNL A   1      44.887  35.682  26.116  1.00  0.00    -0.237 OA
ATOM     86  O   UNL A   1      46.877  34.460  25.307  1.00  0.00    -0.237 OA
ATOM     87  O   UNL A   1      44.636  33.828  24.512  1.00  0.00    -0.744 OA
ENDBRANCH  83  84
ENDBRANCH  57  78
ENDBRANCH  31  32
ENDBRANCH  24  26
ENDBRANCH  23  24
ENDBRANCH  22  23
ENDBRANCH   1  22
TORSDOF 19
ENDMDL
