MODEL 1
REMARK VINA RESULT:     -13.0      0.000      0.000
REMARK SMILES Cc1n[nH]c2c1[C@@]1(C(=O)N([C@@H](C)C(=O)OCCOC(=O)c3ccc(-c4c5nc(c(-c6ccc(S(=O)(=O)[O-])cc6)c6ccc([nH]6)c(-c6ccc(S(=O)(=O)[O-])cc6)c6nc(c(-c7ccc(S(=O)(=O)[O-])cc7)c7ccc4[nH]7)C=C6)C=C5)cc3)c3ccccc31)C(C#N)=C(N)O2
REMARK SMILES IDX 17 1 16 2 15 3 13 4 14 5 11 6 12 7 10 8 1 9 2 10 3 11 6 12
REMARK SMILES IDX 4 13 5 14 7 15 92 17 8 18 86 19 87 20 90 21 9 22 81 23 85 24
REMARK SMILES IDX 82 25 84 26 83 27 88 28 89 29 91 30 18 33 19 34 20 35 21 36
REMARK SMILES IDX 22 37 80 38 23 39 79 40 24 41 25 42 26 43 73 44 27 45 78 46
REMARK SMILES IDX 72 47 74 48 28 49 77 50 71 51 70 52 29 54 59 55 40 56 58 57
REMARK SMILES IDX 41 58 44 59 57 60 75 61 42 62 43 63 56 65 76 66 45 67 30 68
REMARK SMILES IDX 31 69 39 70 32 71 38 72 33 73 34 74 35 75 36 76 37 77 60 78
REMARK SMILES IDX 61 79 69 80 62 81 68 82 63 83 64 84 65 85 66 86 67 87 46 88
REMARK SMILES IDX 47 89 55 90 48 91 54 92 49 93 50 94 51 95 52 96 53 97
REMARK H PARENT 4 16 91 31 91 32 74 53 44 64
REMARK Flexibility Score: inf
ROOT
ATOM      1  C   UNL A   1      38.011  21.389  25.133  1.00  0.00     0.275 C 
ENDROOT
BRANCH   1   2
ATOM      2  C   UNL A   1      36.531  21.587  24.790  1.00  0.00     0.274 C 
BRANCH   2   3
ATOM      3  O   UNL A   1      35.691  21.079  25.855  1.00  0.00    -0.461 OA
BRANCH   3   4
ATOM      4  C   UNL A   1      34.434  21.604  25.944  1.00  0.00     0.329 C 
ATOM      5  O   UNL A   1      33.441  21.054  25.479  1.00  0.00    -0.250 OA
BRANCH   4   6
ATOM      6  C   UNL A   1      34.368  22.970  26.685  1.00  0.00     0.197 C 
ATOM      7  C   UNL A   1      33.832  22.761  28.100  1.00  0.00     0.044 C 
BRANCH   6   8
ATOM      8  N   UNL A   1      33.633  24.009  25.993  1.00  0.00    -0.297 N 
ATOM      9  C   UNL A   1      32.759  22.685  22.853  1.00  0.00     0.069 C 
ATOM     10  C   UNL A   1      32.898  24.065  22.322  1.00  0.00     0.068 A 
ATOM     11  N   UNL A   1      32.896  24.262  20.993  1.00  0.00    -0.177 NA
ATOM     12  C   UNL A   1      33.093  25.289  23.017  1.00  0.00     0.063 A 
ATOM     13  N   UNL A   1      33.125  25.580  20.848  1.00  0.00    -0.246 N 
ATOM     14  C   UNL A   1      33.241  26.227  22.034  1.00  0.00     0.222 A 
ATOM     15  C   UNL A   1      33.255  25.705  24.441  1.00  0.00     0.149 C 
ATOM     16  H   UNL A   1      33.201  26.027  19.974  1.00  0.00     0.193 HD
ATOM     17  O   UNL A   1      33.506  27.516  22.184  1.00  0.00    -0.422 OA
ATOM     18  C   UNL A   1      34.312  24.839  25.093  1.00  0.00     0.248 C 
ATOM     19  C   UNL A   1      31.983  25.342  25.128  1.00  0.00     0.002 A 
ATOM     20  C   UNL A   1      33.612  27.145  24.595  1.00  0.00     0.114 C 
ATOM     21  C   UNL A   1      33.720  27.966  23.503  1.00  0.00     0.208 C 
ATOM     22  O   UNL A   1      35.509  24.850  24.845  1.00  0.00    -0.273 OA
ATOM     23  C   UNL A   1      32.243  24.290  26.003  1.00  0.00     0.050 A 
ATOM     24  C   UNL A   1      30.721  25.913  24.971  1.00  0.00     0.008 A 
ATOM     25  C   UNL A   1      31.179  23.716  26.662  1.00  0.00     0.027 A 
ATOM     26  C   UNL A   1      29.675  25.397  25.720  1.00  0.00     0.001 A 
ATOM     27  C   UNL A   1      29.901  24.296  26.552  1.00  0.00     0.002 A 
BRANCH  20  28
ATOM     28  C   UNL A   1      33.951  27.768  25.939  1.00  0.00     0.102 C 
ATOM     29  N   UNL A   1      34.233  28.285  27.054  1.00  0.00    -0.193 NA
ENDBRANCH  20  28
BRANCH  21  30
ATOM     30  N   UNL A   1      34.051  29.290  23.536  1.00  0.00    -0.369 N 
ATOM     31  H   UNL A   1      34.976  29.571  23.348  1.00  0.00     0.159 HD
ATOM     32  H   UNL A   1      33.364  29.964  23.746  1.00  0.00     0.159 HD
ENDBRANCH  21  30
ENDBRANCH   6   8
ENDBRANCH   4   6
ENDBRANCH   3   4
ENDBRANCH   2   3
ENDBRANCH   1   2
BRANCH   1  33
ATOM     33  O   UNL A   1      38.389  22.349  26.132  1.00  0.00    -0.458 OA
BRANCH  33  34
ATOM     34  C   UNL A   1      39.625  22.178  26.657  1.00  0.00     0.338 C 
ATOM     35  O   UNL A   1      40.302  21.160  26.642  1.00  0.00    -0.246 OA
BRANCH  34  36
ATOM     36  C   UNL A   1      40.170  23.530  26.896  1.00  0.00     0.060 A 
ATOM     37  C   UNL A   1      41.254  23.772  27.748  1.00  0.00     0.016 A 
ATOM     38  C   UNL A   1      39.389  24.585  26.448  1.00  0.00     0.016 A 
ATOM     39  C   UNL A   1      41.424  25.040  28.316  1.00  0.00     0.010 A 
ATOM     40  C   UNL A   1      39.578  25.834  27.018  1.00  0.00     0.010 A 
ATOM     41  C   UNL A   1      40.504  26.050  28.038  1.00  0.00    -0.014 A 
BRANCH  41  42
ATOM     42  C   UNL A   1      40.636  27.427  28.535  1.00  0.00     0.031 A 
ATOM     43  C   UNL A   1      41.835  28.056  27.949  1.00  0.00     0.074 A 
ATOM     44  C   UNL A   1      39.802  28.175  29.295  1.00  0.00     0.049 A 
ATOM     45  N   UNL A   1      43.018  27.967  28.458  1.00  0.00    -0.248 NA
ATOM     46  C   UNL A   1      41.806  28.583  26.575  1.00  0.00     0.031 C 
ATOM     47  C   UNL A   1      38.482  27.844  29.819  1.00  0.00     0.029 A 
ATOM     48  N   UNL A   1      39.960  29.468  29.729  1.00  0.00    -0.354 N 
ATOM     49  C   UNL A   1      43.828  28.679  27.595  1.00  0.00     0.074 A 
ATOM     50  C   UNL A   1      43.112  28.747  26.350  1.00  0.00     0.031 C 
ATOM     51  C   UNL A   1      37.862  28.958  30.290  1.00  0.00     0.029 A 
ATOM     52  C   UNL A   1      38.818  30.052  30.284  1.00  0.00     0.049 A 
ATOM     53  H   UNL A   1      40.816  29.949  29.655  1.00  0.00     0.167 HD
ATOM     54  C   UNL A   1      44.830  29.456  28.086  1.00  0.00     0.031 A 
ATOM     55  C   UNL A   1      38.701  31.283  30.852  1.00  0.00     0.031 A 
ATOM     56  C   UNL A   1      44.973  29.265  29.509  1.00  0.00     0.049 A 
ATOM     57  C   UNL A   1      40.046  31.649  31.338  1.00  0.00     0.074 A 
ATOM     58  C   UNL A   1      45.441  28.277  30.346  1.00  0.00     0.029 A 
ATOM     59  N   UNL A   1      44.171  30.094  30.256  1.00  0.00    -0.354 N 
ATOM     60  N   UNL A   1      40.636  31.033  32.323  1.00  0.00    -0.248 NA
ATOM     61  C   UNL A   1      40.904  32.482  30.509  1.00  0.00     0.031 C 
ATOM     62  C   UNL A   1      44.741  28.440  31.576  1.00  0.00     0.029 A 
ATOM     63  C   UNL A   1      43.902  29.550  31.482  1.00  0.00     0.049 A 
ATOM     64  H   UNL A   1      43.835  30.967  29.948  1.00  0.00     0.167 HD
ATOM     65  C   UNL A   1      41.968  31.034  31.966  1.00  0.00     0.074 A 
ATOM     66  C   UNL A   1      42.095  32.072  30.950  1.00  0.00     0.031 C 
ATOM     67  C   UNL A   1      42.777  29.987  32.289  1.00  0.00     0.031 A 
BRANCH  54  68
ATOM     68  C   UNL A   1      45.334  30.716  27.428  1.00  0.00    -0.014 A 
ATOM     69  C   UNL A   1      44.534  31.839  27.139  1.00  0.00     0.010 A 
ATOM     70  C   UNL A   1      46.730  30.880  27.300  1.00  0.00     0.010 A 
ATOM     71  C   UNL A   1      45.082  33.054  26.732  1.00  0.00     0.020 A 
ATOM     72  C   UNL A   1      47.293  32.106  26.928  1.00  0.00     0.020 A 
ATOM     73  C   UNL A   1      46.461  33.183  26.636  1.00  0.00     0.054 A 
BRANCH  73  74
ATOM     74  S   UNL A   1      47.130  34.791  26.165  1.00  0.00     0.124 S 
ATOM     75  O   UNL A   1      47.937  35.131  27.335  1.00  0.00    -0.237 OA
ATOM     76  O   UNL A   1      47.880  34.472  24.954  1.00  0.00    -0.237 OA
ATOM     77  O   UNL A   1      45.939  35.613  25.966  1.00  0.00    -0.744 OA
ENDBRANCH  73  74
ENDBRANCH  54  68
BRANCH  55  78
ATOM     78  C   UNL A   1      37.649  32.331  30.701  1.00  0.00    -0.014 A 
ATOM     79  C   UNL A   1      36.372  32.125  31.256  1.00  0.00     0.010 A 
ATOM     80  C   UNL A   1      37.776  33.332  29.710  1.00  0.00     0.010 A 
ATOM     81  C   UNL A   1      35.247  32.802  30.755  1.00  0.00     0.020 A 
ATOM     82  C   UNL A   1      36.652  34.014  29.204  1.00  0.00     0.020 A 
ATOM     83  C   UNL A   1      35.388  33.707  29.700  1.00  0.00     0.054 A 
BRANCH  83  84
ATOM     84  S   UNL A   1      33.882  34.382  28.929  1.00  0.00     0.124 S 
ATOM     85  O   UNL A   1      33.446  33.270  28.090  1.00  0.00    -0.237 OA
ATOM     86  O   UNL A   1      33.034  34.663  30.086  1.00  0.00    -0.237 OA
ATOM     87  O   UNL A   1      34.357  35.561  28.209  1.00  0.00    -0.744 OA
ENDBRANCH  83  84
ENDBRANCH  55  78
BRANCH  67  88
ATOM     88  C   UNL A   1      42.404  29.124  33.466  1.00  0.00    -0.014 A 
ATOM     89  C   UNL A   1      43.043  29.428  34.683  1.00  0.00     0.010 A 
ATOM     90  C   UNL A   1      41.594  27.977  33.396  1.00  0.00     0.010 A 
ATOM     91  C   UNL A   1      42.934  28.583  35.782  1.00  0.00     0.020 A 
ATOM     92  C   UNL A   1      41.456  27.134  34.514  1.00  0.00     0.020 A 
ATOM     93  C   UNL A   1      42.154  27.430  35.688  1.00  0.00     0.054 A 
BRANCH  93  94
ATOM     94  S   UNL A   1      42.107  26.327  37.125  1.00  0.00     0.124 S 
ATOM     95  O   UNL A   1      42.365  25.021  36.520  1.00  0.00    -0.237 OA
ATOM     96  O   UNL A   1      43.184  26.846  37.966  1.00  0.00    -0.237 OA
ATOM     97  O   UNL A   1      40.761  26.505  37.666  1.00  0.00    -0.744 OA
ENDBRANCH  93  94
ENDBRANCH  67  88
ENDBRANCH  41  42
ENDBRANCH  34  36
ENDBRANCH  33  34
ENDBRANCH   1  33
TORSDOF 17
ENDMDL
MODEL 2
REMARK VINA RESULT:     -12.6      2.626      9.055
REMARK SMILES Cc1n[nH]c2c1[C@@]1(C(=O)N([C@@H](C)C(=O)OCCOC(=O)c3ccc(-c4c5nc(c(-c6ccc(S(=O)(=O)[O-])cc6)c6ccc([nH]6)c(-c6ccc(S(=O)(=O)[O-])cc6)c6nc(c(-c7ccc(S(=O)(=O)[O-])cc7)c7ccc4[nH]7)C=C6)C=C5)cc3)c3ccccc31)C(C#N)=C(N)O2
REMARK SMILES IDX 17 1 16 2 15 3 13 4 14 5 11 6 12 7 10 8 1 9 2 10 3 11 6 12
REMARK SMILES IDX 4 13 5 14 7 15 92 17 8 18 86 19 87 20 90 21 9 22 81 23 85 24
REMARK SMILES IDX 82 25 84 26 83 27 88 28 89 29 91 30 18 33 19 34 20 35 21 36
REMARK SMILES IDX 22 37 80 38 23 39 79 40 24 41 25 42 26 43 73 44 27 45 78 46
REMARK SMILES IDX 72 47 74 48 28 49 77 50 71 51 70 52 29 54 59 55 40 56 58 57
REMARK SMILES IDX 41 58 44 59 57 60 75 61 42 62 43 63 56 65 76 66 45 67 30 68
REMARK SMILES IDX 31 69 39 70 32 71 38 72 33 73 34 74 35 75 36 76 37 77 60 78
REMARK SMILES IDX 61 79 69 80 62 81 68 82 63 83 64 84 65 85 66 86 67 87 46 88
REMARK SMILES IDX 47 89 55 90 48 91 54 92 49 93 50 94 51 95 52 96 53 97
REMARK H PARENT 4 16 91 31 91 32 74 53 44 64
REMARK Flexibility Score: inf
ROOT
ATOM      1  C   UNL A   1      32.771  31.686  27.125  1.00  0.00     0.275 C 
ENDROOT
BRANCH   1   2
ATOM      2  C   UNL A   1      32.093  30.649  26.224  1.00  0.00     0.274 C 
BRANCH   2   3
ATOM      3  O   UNL A   1      33.055  29.670  25.762  1.00  0.00    -0.461 OA
BRANCH   3   4
ATOM      4  C   UNL A   1      32.817  29.110  24.540  1.00  0.00     0.329 C 
ATOM      5  O   UNL A   1      31.790  29.303  23.900  1.00  0.00    -0.250 OA
BRANCH   4   6
ATOM      6  C   UNL A   1      33.967  28.195  24.029  1.00  0.00     0.197 C 
ATOM      7  C   UNL A   1      34.309  28.559  22.584  1.00  0.00     0.044 C 
BRANCH   6   8
ATOM      8  N   UNL A   1      33.727  26.773  24.168  1.00  0.00    -0.297 N 
ATOM      9  C   UNL A   1      30.304  26.407  24.892  1.00  0.00     0.069 C 
ATOM     10  C   UNL A   1      30.686  25.229  25.712  1.00  0.00     0.068 A 
ATOM     11  N   UNL A   1      29.774  24.670  26.525  1.00  0.00    -0.177 NA
ATOM     12  C   UNL A   1      31.942  24.574  25.830  1.00  0.00     0.063 A 
ATOM     13  N   UNL A   1      30.450  23.705  27.176  1.00  0.00    -0.246 N 
ATOM     14  C   UNL A   1      31.744  23.614  26.782  1.00  0.00     0.222 A 
ATOM     15  C   UNL A   1      33.310  24.762  25.267  1.00  0.00     0.149 C 
ATOM     16  H   UNL A   1      30.048  23.128  27.865  1.00  0.00     0.193 HD
ATOM     17  O   UNL A   1      32.643  22.780  27.283  1.00  0.00    -0.422 OA
ATOM     18  C   UNL A   1      33.728  26.205  25.448  1.00  0.00     0.248 C 
ATOM     19  C   UNL A   1      33.184  24.579  23.793  1.00  0.00     0.002 A 
ATOM     20  C   UNL A   1      34.326  23.858  25.882  1.00  0.00     0.114 C 
ATOM     21  C   UNL A   1      33.969  22.936  26.830  1.00  0.00     0.208 C 
ATOM     22  O   UNL A   1      33.976  26.758  26.510  1.00  0.00    -0.273 OA
ATOM     23  C   UNL A   1      33.384  25.815  23.181  1.00  0.00     0.050 A 
ATOM     24  C   UNL A   1      32.913  23.410  23.085  1.00  0.00     0.008 A 
ATOM     25  C   UNL A   1      33.198  25.901  21.819  1.00  0.00     0.027 A 
ATOM     26  C   UNL A   1      32.833  23.488  21.704  1.00  0.00     0.001 A 
ATOM     27  C   UNL A   1      32.963  24.731  21.076  1.00  0.00     0.002 A 
BRANCH  20  28
ATOM     28  C   UNL A   1      35.809  23.952  25.562  1.00  0.00     0.102 C 
ATOM     29  N   UNL A   1      37.039  24.029  25.297  1.00  0.00    -0.193 NA
ENDBRANCH  20  28
BRANCH  21  30
ATOM     30  N   UNL A   1      34.821  22.074  27.459  1.00  0.00    -0.369 N 
ATOM     31  H   UNL A   1      34.468  21.267  27.900  1.00  0.00     0.159 HD
ATOM     32  H   UNL A   1      35.788  22.259  27.472  1.00  0.00     0.159 HD
ENDBRANCH  21  30
ENDBRANCH   6   8
ENDBRANCH   4   6
ENDBRANCH   3   4
ENDBRANCH   2   3
ENDBRANCH   1   2
BRANCH   1  33
ATOM     33  O   UNL A   1      33.731  31.019  27.960  1.00  0.00    -0.458 OA
BRANCH  33  34
ATOM     34  C   UNL A   1      34.703  31.811  28.468  1.00  0.00     0.338 C 
ATOM     35  O   UNL A   1      34.566  32.756  29.231  1.00  0.00    -0.246 OA
BRANCH  34  36
ATOM     36  C   UNL A   1      35.979  31.097  28.259  1.00  0.00     0.060 A 
ATOM     37  C   UNL A   1      36.044  29.742  27.914  1.00  0.00     0.016 A 
ATOM     38  C   UNL A   1      37.121  31.760  28.686  1.00  0.00     0.016 A 
ATOM     39  C   UNL A   1      37.199  29.005  28.197  1.00  0.00     0.010 A 
ATOM     40  C   UNL A   1      38.256  31.013  28.954  1.00  0.00     0.010 A 
ATOM     41  C   UNL A   1      38.274  29.623  28.833  1.00  0.00    -0.014 A 
BRANCH  41  42
ATOM     42  C   UNL A   1      39.550  28.949  29.112  1.00  0.00     0.031 A 
ATOM     43  C   UNL A   1      39.794  28.925  30.567  1.00  0.00     0.074 A 
ATOM     44  C   UNL A   1      40.398  28.288  28.290  1.00  0.00     0.049 A 
ATOM     45  N   UNL A   1      40.377  29.876  31.216  1.00  0.00    -0.248 NA
ATOM     46  C   UNL A   1      39.114  27.938  31.422  1.00  0.00     0.031 C 
ATOM     47  C   UNL A   1      40.273  28.007  26.865  1.00  0.00     0.029 A 
ATOM     48  N   UNL A   1      41.580  27.659  28.597  1.00  0.00    -0.354 N 
ATOM     49  C   UNL A   1      40.383  29.455  32.532  1.00  0.00     0.074 A 
ATOM     50  C   UNL A   1      39.350  28.459  32.629  1.00  0.00     0.031 C 
ATOM     51  C   UNL A   1      41.191  27.083  26.477  1.00  0.00     0.029 A 
ATOM     52  C   UNL A   1      42.103  26.851  27.584  1.00  0.00     0.049 A 
ATOM     53  H   UNL A   1      42.027  27.771  29.467  1.00  0.00     0.167 HD
ATOM     54  C   UNL A   1      41.467  29.688  33.318  1.00  0.00     0.031 A 
ATOM     55  C   UNL A   1      43.281  26.170  27.583  1.00  0.00     0.031 A 
ATOM     56  C   UNL A   1      42.422  30.525  32.634  1.00  0.00     0.049 A 
ATOM     57  C   UNL A   1      44.177  26.883  28.516  1.00  0.00     0.074 A 
ATOM     58  C   UNL A   1      42.511  31.848  32.262  1.00  0.00     0.029 A 
ATOM     59  N   UNL A   1      43.320  29.820  31.869  1.00  0.00    -0.354 N 
ATOM     60  N   UNL A   1      44.639  28.078  28.280  1.00  0.00    -0.248 NA
ATOM     61  C   UNL A   1      44.295  26.418  29.890  1.00  0.00     0.031 C 
ATOM     62  C   UNL A   1      43.360  31.878  31.118  1.00  0.00     0.029 A 
ATOM     63  C   UNL A   1      43.812  30.587  30.848  1.00  0.00     0.049 A 
ATOM     64  H   UNL A   1      43.577  28.884  32.035  1.00  0.00     0.167 HD
ATOM     65  C   UNL A   1      44.679  28.670  29.526  1.00  0.00     0.074 A 
ATOM     66  C   UNL A   1      44.626  27.568  30.480  1.00  0.00     0.031 C 
ATOM     67  C   UNL A   1      44.430  30.001  29.673  1.00  0.00     0.031 A 
BRANCH  54  68
ATOM     68  C   UNL A   1      41.905  28.799  34.455  1.00  0.00    -0.014 A 
ATOM     69  C   UNL A   1      41.860  27.392  34.430  1.00  0.00     0.010 A 
ATOM     70  C   UNL A   1      42.615  29.394  35.521  1.00  0.00     0.010 A 
ATOM     71  C   UNL A   1      42.470  26.614  35.412  1.00  0.00     0.020 A 
ATOM     72  C   UNL A   1      43.264  28.622  36.491  1.00  0.00     0.020 A 
ATOM     73  C   UNL A   1      43.177  27.234  36.434  1.00  0.00     0.054 A 
BRANCH  73  74
ATOM     74  S   UNL A   1      44.004  26.186  37.648  1.00  0.00     0.124 S 
ATOM     75  O   UNL A   1      43.842  24.861  37.054  1.00  0.00    -0.237 OA
ATOM     76  O   UNL A   1      45.363  26.717  37.641  1.00  0.00    -0.237 OA
ATOM     77  O   UNL A   1      43.247  26.419  38.875  1.00  0.00    -0.744 OA
ENDBRANCH  73  74
ENDBRANCH  54  68
BRANCH  55  78
ATOM     78  C   UNL A   1      43.603  24.777  27.154  1.00  0.00    -0.014 A 
ATOM     79  C   UNL A   1      44.945  24.384  27.003  1.00  0.00     0.010 A 
ATOM     80  C   UNL A   1      42.614  23.975  26.536  1.00  0.00     0.010 A 
ATOM     81  C   UNL A   1      45.295  23.309  26.168  1.00  0.00     0.020 A 
ATOM     82  C   UNL A   1      42.959  22.896  25.699  1.00  0.00     0.020 A 
ATOM     83  C   UNL A   1      44.304  22.602  25.485  1.00  0.00     0.054 A 
BRANCH  83  84
ATOM     84  S   UNL A   1      44.814  21.375  24.239  1.00  0.00     0.124 S 
ATOM     85  O   UNL A   1      46.256  21.303  24.456  1.00  0.00    -0.237 OA
ATOM     86  O   UNL A   1      44.062  20.187  24.640  1.00  0.00    -0.237 OA
ATOM     87  O   UNL A   1      44.400  21.970  22.972  1.00  0.00    -0.744 OA
ENDBRANCH  83  84
ENDBRANCH  55  78
BRANCH  67  88
ATOM     88  C   UNL A   1      44.658  30.911  28.495  1.00  0.00    -0.014 A 
ATOM     89  C   UNL A   1      45.807  31.721  28.552  1.00  0.00     0.010 A 
ATOM     90  C   UNL A   1      43.747  31.106  27.441  1.00  0.00     0.010 A 
ATOM     91  C   UNL A   1      46.017  32.739  27.628  1.00  0.00     0.020 A 
ATOM     92  C   UNL A   1      43.968  32.114  26.486  1.00  0.00     0.020 A 
ATOM     93  C   UNL A   1      45.087  32.942  26.607  1.00  0.00     0.054 A 
BRANCH  93  94
ATOM     94  S   UNL A   1      45.370  34.329  25.475  1.00  0.00     0.124 S 
ATOM     95  O   UNL A   1      44.809  35.454  26.220  1.00  0.00    -0.237 OA
ATOM     96  O   UNL A   1      46.825  34.340  25.336  1.00  0.00    -0.237 OA
ATOM     97  O   UNL A   1      44.637  33.957  24.267  1.00  0.00    -0.744 OA
ENDBRANCH  93  94
ENDBRANCH  67  88
ENDBRANCH  41  42
ENDBRANCH  34  36
ENDBRANCH  33  34
ENDBRANCH   1  33
TORSDOF 17
ENDMDL
MODEL 3
REMARK VINA RESULT:     -12.3      2.598      9.059
REMARK SMILES Cc1n[nH]c2c1[C@@]1(C(=O)N([C@@H](C)C(=O)OCCOC(=O)c3ccc(-c4c5nc(c(-c6ccc(S(=O)(=O)[O-])cc6)c6ccc([nH]6)c(-c6ccc(S(=O)(=O)[O-])cc6)c6nc(c(-c7ccc(S(=O)(=O)[O-])cc7)c7ccc4[nH]7)C=C6)C=C5)cc3)c3ccccc31)C(C#N)=C(N)O2
REMARK SMILES IDX 17 1 16 2 15 3 13 4 14 5 11 6 12 7 10 8 1 9 2 10 3 11 6 12
REMARK SMILES IDX 4 13 5 14 7 15 92 17 8 18 86 19 87 20 90 21 9 22 81 23 85 24
REMARK SMILES IDX 82 25 84 26 83 27 88 28 89 29 91 30 18 33 19 34 20 35 21 36
REMARK SMILES IDX 22 37 80 38 23 39 79 40 24 41 25 42 26 43 73 44 27 45 78 46
REMARK SMILES IDX 72 47 74 48 28 49 77 50 71 51 70 52 29 54 59 55 40 56 58 57
REMARK SMILES IDX 41 58 44 59 57 60 75 61 42 62 43 63 56 65 76 66 45 67 30 68
REMARK SMILES IDX 31 69 39 70 32 71 38 72 33 73 34 74 35 75 36 76 37 77 60 78
REMARK SMILES IDX 61 79 69 80 62 81 68 82 63 83 64 84 65 85 66 86 67 87 46 88
REMARK SMILES IDX 47 89 55 90 48 91 54 92 49 93 50 94 51 95 52 96 53 97
REMARK H PARENT 4 16 91 31 91 32 74 53 44 64
REMARK Flexibility Score: inf
ROOT
ATOM      1  C   UNL A   1      33.480  31.877  27.369  1.00  0.00     0.275 C 
ENDROOT
BRANCH   1   2
ATOM      2  C   UNL A   1      32.960  30.442  27.238  1.00  0.00     0.274 C 
BRANCH   2   3
ATOM      3  O   UNL A   1      33.240  29.919  25.917  1.00  0.00    -0.461 OA
BRANCH   3   4
ATOM      4  C   UNL A   1      33.951  28.755  25.860  1.00  0.00     0.329 C 
ATOM      5  O   UNL A   1      34.488  28.246  26.837  1.00  0.00    -0.250 OA
BRANCH   4   6
ATOM      6  C   UNL A   1      34.027  28.129  24.438  1.00  0.00     0.197 C 
ATOM      7  C   UNL A   1      34.006  29.238  23.387  1.00  0.00     0.044 C 
BRANCH   6   8
ATOM      8  N   UNL A   1      33.025  27.121  24.157  1.00  0.00    -0.297 N 
ATOM      9  C   UNL A   1      31.899  25.943  27.274  1.00  0.00     0.069 C 
ATOM     10  C   UNL A   1      31.715  24.623  26.619  1.00  0.00     0.068 A 
ATOM     11  N   UNL A   1      31.467  23.541  27.376  1.00  0.00    -0.177 NA
ATOM     12  C   UNL A   1      31.808  24.272  25.244  1.00  0.00     0.063 A 
ATOM     13  N   UNL A   1      31.443  22.517  26.503  1.00  0.00    -0.246 N 
ATOM     14  C   UNL A   1      31.636  22.916  25.221  1.00  0.00     0.222 A 
ATOM     15  C   UNL A   1      32.122  24.982  23.971  1.00  0.00     0.149 C 
ATOM     16  H   UNL A   1      31.301  21.580  26.766  1.00  0.00     0.193 HD
ATOM     17  O   UNL A   1      31.698  22.115  24.167  1.00  0.00    -0.422 OA
ATOM     18  C   UNL A   1      33.401  25.773  24.146  1.00  0.00     0.248 C 
ATOM     19  C   UNL A   1      31.056  26.009  23.792  1.00  0.00     0.002 A 
ATOM     20  C   UNL A   1      32.249  24.063  22.802  1.00  0.00     0.114 C 
ATOM     21  C   UNL A   1      32.040  22.715  22.938  1.00  0.00     0.208 C 
ATOM     22  O   UNL A   1      34.524  25.310  24.286  1.00  0.00    -0.273 OA
ATOM     23  C   UNL A   1      31.628  27.267  23.967  1.00  0.00     0.050 A 
ATOM     24  C   UNL A   1      29.707  25.815  23.501  1.00  0.00     0.008 A 
ATOM     25  C   UNL A   1      30.795  28.364  23.959  1.00  0.00     0.027 A 
ATOM     26  C   UNL A   1      28.897  26.933  23.389  1.00  0.00     0.001 A 
ATOM     27  C   UNL A   1      29.437  28.201  23.630  1.00  0.00     0.002 A 
BRANCH  20  28
ATOM     28  C   UNL A   1      32.688  24.538  21.427  1.00  0.00     0.102 C 
ATOM     29  N   UNL A   1      33.052  24.933  20.286  1.00  0.00    -0.193 NA
ENDBRANCH  20  28
BRANCH  21  30
ATOM     30  N   UNL A   1      32.143  21.792  21.938  1.00  0.00    -0.369 N 
ATOM     31  H   UNL A   1      31.894  20.854  22.107  1.00  0.00     0.159 HD
ATOM     32  H   UNL A   1      32.464  22.064  21.048  1.00  0.00     0.159 HD
ENDBRANCH  21  30
ENDBRANCH   6   8
ENDBRANCH   4   6
ENDBRANCH   3   4
ENDBRANCH   2   3
ENDBRANCH   1   2
BRANCH   1  33
ATOM     33  O   UNL A   1      34.861  31.837  27.764  1.00  0.00    -0.458 OA
BRANCH  33  34
ATOM     34  C   UNL A   1      35.106  32.211  29.041  1.00  0.00     0.338 C 
ATOM     35  O   UNL A   1      34.336  32.765  29.812  1.00  0.00    -0.246 OA
BRANCH  34  36
ATOM     36  C   UNL A   1      36.319  31.483  29.467  1.00  0.00     0.060 A 
ATOM     37  C   UNL A   1      37.528  32.125  29.758  1.00  0.00     0.016 A 
ATOM     38  C   UNL A   1      36.286  30.105  29.304  1.00  0.00     0.016 A 
ATOM     39  C   UNL A   1      38.731  31.415  29.677  1.00  0.00     0.010 A 
ATOM     40  C   UNL A   1      37.488  29.420  29.234  1.00  0.00     0.010 A 
ATOM     41  C   UNL A   1      38.718  30.074  29.295  1.00  0.00    -0.014 A 
BRANCH  41  42
ATOM     42  C   UNL A   1      39.921  29.232  29.245  1.00  0.00     0.031 A 
ATOM     43  C   UNL A   1      40.367  28.917  30.616  1.00  0.00     0.074 A 
ATOM     44  C   UNL A   1      40.549  28.649  28.196  1.00  0.00     0.049 A 
ATOM     45  N   UNL A   1      41.157  29.668  31.307  1.00  0.00    -0.248 NA
ATOM     46  C   UNL A   1      39.695  27.866  31.396  1.00  0.00     0.031 C 
ATOM     47  C   UNL A   1      40.184  28.649  26.785  1.00  0.00     0.029 A 
ATOM     48  N   UNL A   1      41.670  27.856  28.197  1.00  0.00    -0.354 N 
ATOM     49  C   UNL A   1      41.297  29.014  32.516  1.00  0.00     0.074 A 
ATOM     50  C   UNL A   1      40.168  28.129  32.617  1.00  0.00     0.031 C 
ATOM     51  C   UNL A   1      40.908  27.721  26.104  1.00  0.00     0.029 A 
ATOM     52  C   UNL A   1      41.931  27.197  26.992  1.00  0.00     0.049 A 
ATOM     53  H   UNL A   1      42.249  27.760  28.988  1.00  0.00     0.167 HD
ATOM     54  C   UNL A   1      42.504  28.986  33.141  1.00  0.00     0.031 A 
ATOM     55  C   UNL A   1      42.998  26.409  26.685  1.00  0.00     0.031 A 
ATOM     56  C   UNL A   1      43.452  29.831  32.456  1.00  0.00     0.049 A 
ATOM     57  C   UNL A   1      44.104  26.844  27.562  1.00  0.00     0.074 A 
ATOM     58  C   UNL A   1      43.659  31.183  32.298  1.00  0.00     0.029 A 
ATOM     59  N   UNL A   1      44.131  29.189  31.449  1.00  0.00    -0.354 N 
ATOM     60  N   UNL A   1      44.680  28.007  27.454  1.00  0.00    -0.248 NA
ATOM     61  C   UNL A   1      44.357  26.125  28.802  1.00  0.00     0.031 C 
ATOM     62  C   UNL A   1      44.331  31.335  31.051  1.00  0.00     0.029 A 
ATOM     63  C   UNL A   1      44.566  30.075  30.501  1.00  0.00     0.049 A 
ATOM     64  H   UNL A   1      44.284  28.216  31.413  1.00  0.00     0.167 HD
ATOM     65  C   UNL A   1      44.976  28.353  28.756  1.00  0.00     0.074 A 
ATOM     66  C   UNL A   1      44.917  27.107  29.511  1.00  0.00     0.031 C 
ATOM     67  C   UNL A   1      44.926  29.653  29.160  1.00  0.00     0.031 A 
BRANCH  54  68
ATOM     68  C   UNL A   1      42.981  27.863  34.028  1.00  0.00    -0.014 A 
ATOM     69  C   UNL A   1      43.887  26.862  33.629  1.00  0.00     0.010 A 
ATOM     70  C   UNL A   1      42.688  27.943  35.407  1.00  0.00     0.010 A 
ATOM     71  C   UNL A   1      44.462  25.977  34.540  1.00  0.00     0.020 A 
ATOM     72  C   UNL A   1      43.287  27.084  36.335  1.00  0.00     0.020 A 
ATOM     73  C   UNL A   1      44.164  26.099  35.891  1.00  0.00     0.054 A 
BRANCH  73  74
ATOM     74  S   UNL A   1      44.978  24.972  37.041  1.00  0.00     0.124 S 
ATOM     75  O   UNL A   1      46.385  25.324  36.855  1.00  0.00    -0.237 OA
ATOM     76  O   UNL A   1      44.396  25.362  38.321  1.00  0.00    -0.237 OA
ATOM     77  O   UNL A   1      44.595  23.649  36.555  1.00  0.00    -0.744 OA
ENDBRANCH  73  74
ENDBRANCH  54  68
BRANCH  55  78
ATOM     78  C   UNL A   1      43.069  25.094  25.985  1.00  0.00    -0.014 A 
ATOM     79  C   UNL A   1      42.493  23.955  26.576  1.00  0.00     0.010 A 
ATOM     80  C   UNL A   1      44.013  24.886  24.951  1.00  0.00     0.010 A 
ATOM     81  C   UNL A   1      42.931  22.663  26.238  1.00  0.00     0.020 A 
ATOM     82  C   UNL A   1      44.455  23.594  24.607  1.00  0.00     0.020 A 
ATOM     83  C   UNL A   1      43.942  22.493  25.290  1.00  0.00     0.054 A 
BRANCH  83  84
ATOM     84  S   UNL A   1      44.640  20.827  25.052  1.00  0.00     0.124 S 
ATOM     85  O   UNL A   1      43.705  19.997  25.806  1.00  0.00    -0.237 OA
ATOM     86  O   UNL A   1      44.588  20.668  23.601  1.00  0.00    -0.237 OA
ATOM     87  O   UNL A   1      45.983  20.927  25.616  1.00  0.00    -0.744 OA
ENDBRANCH  83  84
ENDBRANCH  55  78
BRANCH  67  88
ATOM     88  C   UNL A   1      45.099  30.736  28.126  1.00  0.00    -0.014 A 
ATOM     89  C   UNL A   1      46.376  31.322  28.053  1.00  0.00     0.010 A 
ATOM     90  C   UNL A   1      44.059  31.283  27.354  1.00  0.00     0.010 A 
ATOM     91  C   UNL A   1      46.602  32.460  27.285  1.00  0.00     0.020 A 
ATOM     92  C   UNL A   1      44.288  32.416  26.552  1.00  0.00     0.020 A 
ATOM     93  C   UNL A   1      45.552  33.012  26.550  1.00  0.00     0.054 A 
BRANCH  93  94
ATOM     94  S   UNL A   1      45.882  34.537  25.627  1.00  0.00     0.124 S 
ATOM     95  O   UNL A   1      45.477  35.568  26.580  1.00  0.00    -0.237 OA
ATOM     96  O   UNL A   1      47.319  34.455  25.373  1.00  0.00    -0.237 OA
ATOM     97  O   UNL A   1      45.038  34.423  24.440  1.00  0.00    -0.744 OA
ENDBRANCH  93  94
ENDBRANCH  67  88
ENDBRANCH  41  42
ENDBRANCH  34  36
ENDBRANCH  33  34
ENDBRANCH   1  33
TORSDOF 17
ENDMDL
