MODEL 1
REMARK VINA RESULT:     -10.3      0.000      0.000
REMARK SMILES C[C@@H](Cc1cnn(-c2ccccc2)n1)C(=O)OCCOC(=O)c1ccc(-c2c3nc(c(-c4ccc(S(=O)(=O)[O-])cc4)c4ccc([nH]4)c(-c4ccc(S(=O)(=O)[O-])cc4)c4nc(c(-c5ccc(S(=O)(=O)[O-])cc5)c5ccc2[nH]5)C=C4)C=C3)cc1
REMARK SMILES IDX 18 1 17 2 15 3 16 4 2 5 1 6 3 7 4 8 5 9 14 10 6 11 7 12 8 13
REMARK SMILES IDX 9 14 13 15 10 16 12 17 11 18 19 19 20 20 21 21 22 22 23 23
REMARK SMILES IDX 24 24 82 25 25 26 81 27 26 28 27 29 28 30 75 31 29 32 80 33
REMARK SMILES IDX 74 34 76 35 30 36 79 37 73 38 72 39 31 41 61 42 42 43 60 44
REMARK SMILES IDX 43 45 46 46 59 47 77 48 44 49 45 50 58 52 78 53 47 54 32 55
REMARK SMILES IDX 33 56 41 57 34 58 40 59 35 60 36 61 37 62 38 63 39 64 62 65
REMARK SMILES IDX 63 66 71 67 64 68 70 69 65 70 66 71 67 72 68 73 69 74 48 75
REMARK SMILES IDX 49 76 57 77 50 78 56 79 51 80 52 81 53 82 54 83 55 84
REMARK H PARENT 76 40 46 51
REMARK Flexibility Score: inf
ROOT
ATOM      1  C   UNL A   1      34.064  34.771  29.366  1.00  0.00     0.274 C 
ENDROOT
BRANCH   1   2
ATOM      2  O   UNL A   1      33.086  34.644  30.414  1.00  0.00    -0.462 OA
BRANCH   2   3
ATOM      3  C   UNL A   1      32.864  35.736  31.193  1.00  0.00     0.309 C 
ATOM      4  O   UNL A   1      31.836  36.406  31.180  1.00  0.00    -0.252 OA
BRANCH   3   5
ATOM      5  C   UNL A   1      34.089  36.142  31.990  1.00  0.00     0.102 C 
ATOM      6  C   UNL A   1      33.967  37.458  32.757  1.00  0.00     0.020 C 
BRANCH   5   7
ATOM      7  C   UNL A   1      34.491  34.962  32.878  1.00  0.00     0.075 C 
BRANCH   7   8
ATOM      8  C   UNL A   1      35.956  34.711  32.936  1.00  0.00     0.084 A 
ATOM      9  C   UNL A   1      36.759  34.418  34.050  1.00  0.00     0.161 A 
ATOM     10  N   UNL A   1      36.724  34.775  31.844  1.00  0.00    -0.153 NA
ATOM     11  N   UNL A   1      38.021  34.221  33.670  1.00  0.00    -0.157 NA
ATOM     12  N   UNL A   1      37.957  34.480  32.331  1.00  0.00    -0.151 N 
BRANCH  12  13
ATOM     13  C   UNL A   1      39.087  34.371  31.488  1.00  0.00     0.086 A 
ATOM     14  C   UNL A   1      39.040  34.898  30.191  1.00  0.00     0.030 A 
ATOM     15  C   UNL A   1      40.260  33.763  31.958  1.00  0.00     0.030 A 
ATOM     16  C   UNL A   1      40.177  34.855  29.384  1.00  0.00     0.002 A 
ATOM     17  C   UNL A   1      41.381  33.690  31.131  1.00  0.00     0.002 A 
ATOM     18  C   UNL A   1      41.345  34.249  29.852  1.00  0.00     0.000 A 
ENDBRANCH  12  13
ENDBRANCH   7   8
ENDBRANCH   5   7
ENDBRANCH   3   5
ENDBRANCH   2   3
ENDBRANCH   1   2
BRANCH   1  19
ATOM     19  C   UNL A   1      33.950  33.633  28.362  1.00  0.00     0.275 C 
BRANCH  19  20
ATOM     20  O   UNL A   1      35.223  33.029  28.136  1.00  0.00    -0.458 OA
BRANCH  20  21
ATOM     21  C   UNL A   1      35.178  31.684  27.998  1.00  0.00     0.338 C 
ATOM     22  O   UNL A   1      34.352  31.041  27.376  1.00  0.00    -0.246 OA
BRANCH  21  23
ATOM     23  C   UNL A   1      36.190  31.054  28.847  1.00  0.00     0.060 A 
ATOM     24  C   UNL A   1      37.157  31.896  29.407  1.00  0.00     0.016 A 
ATOM     25  C   UNL A   1      36.342  29.663  28.815  1.00  0.00     0.016 A 
ATOM     26  C   UNL A   1      38.376  31.355  29.751  1.00  0.00     0.010 A 
ATOM     27  C   UNL A   1      37.562  29.127  29.151  1.00  0.00     0.010 A 
ATOM     28  C   UNL A   1      38.588  29.993  29.526  1.00  0.00    -0.014 A 
BRANCH  28  29
ATOM     29  C   UNL A   1      39.943  29.495  29.644  1.00  0.00     0.031 A 
ATOM     30  C   UNL A   1      40.425  29.293  31.025  1.00  0.00     0.074 A 
ATOM     31  C   UNL A   1      40.650  29.124  28.562  1.00  0.00     0.049 A 
ATOM     32  N   UNL A   1      41.431  29.849  31.613  1.00  0.00    -0.248 NA
ATOM     33  C   UNL A   1      39.616  28.423  31.891  1.00  0.00     0.031 C 
ATOM     34  C   UNL A   1      40.173  28.958  27.183  1.00  0.00     0.029 A 
ATOM     35  N   UNL A   1      41.931  28.678  28.506  1.00  0.00    -0.354 N 
ATOM     36  C   UNL A   1      41.485  29.282  32.881  1.00  0.00     0.074 A 
ATOM     37  C   UNL A   1      40.272  28.518  33.044  1.00  0.00     0.031 C 
ATOM     38  C   UNL A   1      41.074  28.221  26.495  1.00  0.00     0.029 A 
ATOM     39  C   UNL A   1      42.234  27.993  27.340  1.00  0.00     0.049 A 
ATOM     40  H   UNL A   1      42.584  28.827  29.227  1.00  0.00     0.167 HD
ATOM     41  C   UNL A   1      42.605  29.312  33.651  1.00  0.00     0.031 A 
ATOM     42  C   UNL A   1      43.322  27.212  27.136  1.00  0.00     0.031 A 
ATOM     43  C   UNL A   1      43.564  30.277  33.190  1.00  0.00     0.049 A 
ATOM     44  C   UNL A   1      44.335  27.577  28.157  1.00  0.00     0.074 A 
ATOM     45  C   UNL A   1      43.567  31.651  33.060  1.00  0.00     0.029 A 
ATOM     46  N   UNL A   1      44.610  29.817  32.426  1.00  0.00    -0.354 N 
ATOM     47  N   UNL A   1      44.932  28.735  28.207  1.00  0.00    -0.248 NA
ATOM     48  C   UNL A   1      44.393  26.799  29.386  1.00  0.00     0.031 C 
ATOM     49  C   UNL A   1      44.320  31.911  31.879  1.00  0.00     0.029 A 
ATOM     50  C   UNL A   1      44.759  30.686  31.373  1.00  0.00     0.049 A 
ATOM     51  H   UNL A   1      45.153  29.015  32.601  1.00  0.00     0.167 HD
ATOM     52  C   UNL A   1      45.086  29.007  29.560  1.00  0.00     0.074 A 
ATOM     53  C   UNL A   1      44.840  27.734  30.229  1.00  0.00     0.031 C 
ATOM     54  C   UNL A   1      45.131  30.291  30.027  1.00  0.00     0.031 A 
BRANCH  41  55
ATOM     55  C   UNL A   1      42.949  28.228  34.634  1.00  0.00    -0.014 A 
ATOM     56  C   UNL A   1      43.222  28.562  35.972  1.00  0.00     0.010 A 
ATOM     57  C   UNL A   1      43.254  26.913  34.220  1.00  0.00     0.010 A 
ATOM     58  C   UNL A   1      43.810  27.634  36.843  1.00  0.00     0.020 A 
ATOM     59  C   UNL A   1      43.794  25.967  35.090  1.00  0.00     0.020 A 
ATOM     60  C   UNL A   1      44.103  26.346  36.389  1.00  0.00     0.054 A 
BRANCH  60  61
ATOM     61  S   UNL A   1      44.966  25.190  37.480  1.00  0.00     0.124 S 
ATOM     62  O   UNL A   1      46.364  25.529  37.231  1.00  0.00    -0.237 OA
ATOM     63  O   UNL A   1      44.449  25.556  38.796  1.00  0.00    -0.237 OA
ATOM     64  O   UNL A   1      44.543  23.878  36.995  1.00  0.00    -0.744 OA
ENDBRANCH  60  61
ENDBRANCH  41  55
BRANCH  42  65
ATOM     65  C   UNL A   1      43.370  25.949  26.360  1.00  0.00    -0.014 A 
ATOM     66  C   UNL A   1      44.353  25.740  25.377  1.00  0.00     0.010 A 
ATOM     67  C   UNL A   1      42.604  24.837  26.771  1.00  0.00     0.010 A 
ATOM     68  C   UNL A   1      44.594  24.455  24.863  1.00  0.00     0.020 A 
ATOM     69  C   UNL A   1      42.832  23.557  26.258  1.00  0.00     0.020 A 
ATOM     70  C   UNL A   1      43.844  23.368  25.322  1.00  0.00     0.054 A 
BRANCH  70  71
ATOM     71  S   UNL A   1      44.281  21.688  24.785  1.00  0.00     0.124 S 
ATOM     72  O   UNL A   1      44.444  21.857  23.344  1.00  0.00    -0.237 OA
ATOM     73  O   UNL A   1      45.507  21.425  25.533  1.00  0.00    -0.237 OA
ATOM     74  O   UNL A   1      43.128  20.887  25.190  1.00  0.00    -0.744 OA
ENDBRANCH  70  71
ENDBRANCH  42  65
BRANCH  54  75
ATOM     75  C   UNL A   1      45.299  31.414  29.027  1.00  0.00    -0.014 A 
ATOM     76  C   UNL A   1      46.525  31.708  28.398  1.00  0.00     0.010 A 
ATOM     77  C   UNL A   1      44.142  32.074  28.577  1.00  0.00     0.010 A 
ATOM     78  C   UNL A   1      46.591  32.643  27.354  1.00  0.00     0.020 A 
ATOM     79  C   UNL A   1      44.198  32.995  27.526  1.00  0.00     0.020 A 
ATOM     80  C   UNL A   1      45.423  33.277  26.921  1.00  0.00     0.054 A 
BRANCH  80  81
ATOM     81  S   UNL A   1      45.501  34.419  25.510  1.00  0.00     0.124 S 
ATOM     82  O   UNL A   1      46.937  34.547  25.283  1.00  0.00    -0.237 OA
ATOM     83  O   UNL A   1      44.761  33.704  24.472  1.00  0.00    -0.237 OA
ATOM     84  O   UNL A   1      44.843  35.627  26.005  1.00  0.00    -0.744 OA
ENDBRANCH  80  81
ENDBRANCH  54  75
ENDBRANCH  28  29
ENDBRANCH  21  23
ENDBRANCH  20  21
ENDBRANCH  19  20
ENDBRANCH   1  19
TORSDOF 17
ENDMDL
MODEL 2
REMARK VINA RESULT:     -10.1      3.236     12.215
REMARK SMILES C[C@@H](Cc1cnn(-c2ccccc2)n1)C(=O)OCCOC(=O)c1ccc(-c2c3nc(c(-c4ccc(S(=O)(=O)[O-])cc4)c4ccc([nH]4)c(-c4ccc(S(=O)(=O)[O-])cc4)c4nc(c(-c5ccc(S(=O)(=O)[O-])cc5)c5ccc2[nH]5)C=C4)C=C3)cc1
REMARK SMILES IDX 18 1 17 2 15 3 16 4 2 5 1 6 3 7 4 8 5 9 14 10 6 11 7 12 8 13
REMARK SMILES IDX 9 14 13 15 10 16 12 17 11 18 19 19 20 20 21 21 22 22 23 23
REMARK SMILES IDX 24 24 82 25 25 26 81 27 26 28 27 29 28 30 75 31 29 32 80 33
REMARK SMILES IDX 74 34 76 35 30 36 79 37 73 38 72 39 31 41 61 42 42 43 60 44
REMARK SMILES IDX 43 45 46 46 59 47 77 48 44 49 45 50 58 52 78 53 47 54 32 55
REMARK SMILES IDX 33 56 41 57 34 58 40 59 35 60 36 61 37 62 38 63 39 64 62 65
REMARK SMILES IDX 63 66 71 67 64 68 70 69 65 70 66 71 67 72 68 73 69 74 48 75
REMARK SMILES IDX 49 76 57 77 50 78 56 79 51 80 52 81 53 82 54 83 55 84
REMARK H PARENT 76 40 46 51
REMARK Flexibility Score: inf
ROOT
ATOM      1  C   UNL A   1      45.648  22.342  24.438  1.00  0.00     0.274 C 
ENDROOT
BRANCH   1   2
ATOM      2  O   UNL A   1      46.434  21.435  25.231  1.00  0.00    -0.462 OA
BRANCH   2   3
ATOM      3  C   UNL A   1      46.290  20.106  24.983  1.00  0.00     0.309 C 
ATOM      4  O   UNL A   1      47.180  19.272  25.112  1.00  0.00    -0.252 OA
BRANCH   3   5
ATOM      5  C   UNL A   1      44.940  19.768  24.379  1.00  0.00     0.102 C 
ATOM      6  C   UNL A   1      44.984  19.081  23.015  1.00  0.00     0.020 C 
BRANCH   5   7
ATOM      7  C   UNL A   1      44.134  18.990  25.421  1.00  0.00     0.075 C 
BRANCH   7   8
ATOM      8  C   UNL A   1      42.834  19.615  25.784  1.00  0.00     0.084 A 
ATOM      9  C   UNL A   1      41.626  18.996  26.142  1.00  0.00     0.161 A 
ATOM     10  N   UNL A   1      42.664  20.941  25.772  1.00  0.00    -0.153 NA
ATOM     11  N   UNL A   1      40.705  19.916  26.432  1.00  0.00    -0.157 NA
ATOM     12  N   UNL A   1      41.370  21.077  26.162  1.00  0.00    -0.151 N 
BRANCH  12  13
ATOM     13  C   UNL A   1      40.777  22.347  26.352  1.00  0.00     0.086 A 
ATOM     14  C   UNL A   1      41.584  23.489  26.410  1.00  0.00     0.030 A 
ATOM     15  C   UNL A   1      39.383  22.463  26.452  1.00  0.00     0.030 A 
ATOM     16  C   UNL A   1      40.995  24.748  26.525  1.00  0.00     0.002 A 
ATOM     17  C   UNL A   1      38.804  23.724  26.604  1.00  0.00     0.002 A 
ATOM     18  C   UNL A   1      39.608  24.865  26.625  1.00  0.00     0.000 A 
ENDBRANCH  12  13
ENDBRANCH   7   8
ENDBRANCH   5   7
ENDBRANCH   3   5
ENDBRANCH   2   3
ENDBRANCH   1   2
BRANCH   1  19
ATOM     19  C   UNL A   1      45.993  23.791  24.749  1.00  0.00     0.275 C 
BRANCH  19  20
ATOM     20  O   UNL A   1      44.850  24.629  24.586  1.00  0.00    -0.458 OA
BRANCH  20  21
ATOM     21  C   UNL A   1      45.082  25.935  24.853  1.00  0.00     0.338 C 
ATOM     22  O   UNL A   1      46.042  26.594  24.497  1.00  0.00    -0.246 OA
BRANCH  21  23
ATOM     23  C   UNL A   1      44.080  26.446  25.789  1.00  0.00     0.060 A 
ATOM     24  C   UNL A   1      43.195  27.415  25.302  1.00  0.00     0.016 A 
ATOM     25  C   UNL A   1      44.234  26.200  27.159  1.00  0.00     0.016 A 
ATOM     26  C   UNL A   1      42.615  28.282  26.199  1.00  0.00     0.010 A 
ATOM     27  C   UNL A   1      43.661  27.074  28.052  1.00  0.00     0.010 A 
ATOM     28  C   UNL A   1      42.935  28.154  27.553  1.00  0.00    -0.014 A 
BRANCH  28  29
ATOM     29  C   UNL A   1      42.532  29.222  28.443  1.00  0.00     0.031 A 
ATOM     30  C   UNL A   1      43.503  30.325  28.590  1.00  0.00     0.074 A 
ATOM     31  C   UNL A   1      41.301  29.257  28.985  1.00  0.00     0.049 A 
ATOM     32  N   UNL A   1      44.094  30.736  29.662  1.00  0.00    -0.248 NA
ATOM     33  C   UNL A   1      43.941  30.994  27.356  1.00  0.00     0.031 C 
ATOM     34  C   UNL A   1      40.145  28.415  28.657  1.00  0.00     0.029 A 
ATOM     35  N   UNL A   1      40.791  30.162  29.859  1.00  0.00    -0.354 N 
ATOM     36  C   UNL A   1      44.864  31.826  29.270  1.00  0.00     0.074 A 
ATOM     37  C   UNL A   1      44.839  31.854  27.829  1.00  0.00     0.031 C 
ATOM     38  C   UNL A   1      39.026  29.005  29.132  1.00  0.00     0.029 A 
ATOM     39  C   UNL A   1      39.407  30.173  29.908  1.00  0.00     0.049 A 
ATOM     40  H   UNL A   1      41.354  30.755  30.408  1.00  0.00     0.167 HD
ATOM     41  C   UNL A   1      45.321  32.755  30.152  1.00  0.00     0.031 A 
ATOM     42  C   UNL A   1      38.637  31.140  30.464  1.00  0.00     0.031 A 
ATOM     43  C   UNL A   1      45.244  32.307  31.514  1.00  0.00     0.049 A 
ATOM     44  C   UNL A   1      39.495  31.916  31.394  1.00  0.00     0.074 A 
ATOM     45  C   UNL A   1      45.830  31.282  32.229  1.00  0.00     0.029 A 
ATOM     46  N   UNL A   1      44.174  32.734  32.264  1.00  0.00    -0.354 N 
ATOM     47  N   UNL A   1      40.013  31.426  32.485  1.00  0.00    -0.248 NA
ATOM     48  C   UNL A   1      40.126  33.134  30.905  1.00  0.00     0.031 C 
ATOM     49  C   UNL A   1      44.828  30.846  33.143  1.00  0.00     0.029 A 
ATOM     50  C   UNL A   1      43.699  31.647  32.956  1.00  0.00     0.049 A 
ATOM     51  H   UNL A   1      43.815  33.650  32.299  1.00  0.00     0.167 HD
ATOM     52  C   UNL A   1      41.262  32.023  32.596  1.00  0.00     0.074 A 
ATOM     53  C   UNL A   1      41.226  33.142  31.661  1.00  0.00     0.031 C 
ATOM     54  C   UNL A   1      42.297  31.395  33.231  1.00  0.00     0.031 A 
BRANCH  41  55
ATOM     55  C   UNL A   1      45.536  34.195  29.780  1.00  0.00    -0.014 A 
ATOM     56  C   UNL A   1      44.426  35.041  29.603  1.00  0.00     0.010 A 
ATOM     57  C   UNL A   1      46.792  34.680  29.355  1.00  0.00     0.010 A 
ATOM     58  C   UNL A   1      44.565  36.297  28.994  1.00  0.00     0.020 A 
ATOM     59  C   UNL A   1      46.949  35.946  28.793  1.00  0.00     0.020 A 
ATOM     60  C   UNL A   1      45.826  36.733  28.583  1.00  0.00     0.054 A 
BRANCH  60  61
ATOM     61  S   UNL A   1      45.982  38.301  27.695  1.00  0.00     0.124 S 
ATOM     62  O   UNL A   1      44.593  38.585  27.341  1.00  0.00    -0.237 OA
ATOM     63  O   UNL A   1      46.570  39.176  28.705  1.00  0.00    -0.237 OA
ATOM     64  O   UNL A   1      46.860  37.975  26.574  1.00  0.00    -0.744 OA
ENDBRANCH  60  61
ENDBRANCH  41  55
BRANCH  42  65
ATOM     65  C   UNL A   1      37.336  31.635  29.956  1.00  0.00    -0.014 A 
ATOM     66  C   UNL A   1      36.272  31.908  30.833  1.00  0.00     0.010 A 
ATOM     67  C   UNL A   1      37.224  32.091  28.624  1.00  0.00     0.010 A 
ATOM     68  C   UNL A   1      35.162  32.656  30.406  1.00  0.00     0.020 A 
ATOM     69  C   UNL A   1      36.118  32.828  28.190  1.00  0.00     0.020 A 
ATOM     70  C   UNL A   1      35.102  33.127  29.092  1.00  0.00     0.054 A 
BRANCH  70  71
ATOM     71  S   UNL A   1      33.751  34.238  28.600  1.00  0.00     0.124 S 
ATOM     72  O   UNL A   1      32.986  33.406  27.677  1.00  0.00    -0.237 OA
ATOM     73  O   UNL A   1      33.102  34.531  29.875  1.00  0.00    -0.237 OA
ATOM     74  O   UNL A   1      34.443  35.371  27.986  1.00  0.00    -0.744 OA
ENDBRANCH  70  71
ENDBRANCH  42  65
BRANCH  54  75
ATOM     75  C   UNL A   1      41.993  30.168  34.061  1.00  0.00    -0.014 A 
ATOM     76  C   UNL A   1      41.923  28.869  33.518  1.00  0.00     0.010 A 
ATOM     77  C   UNL A   1      41.958  30.310  35.460  1.00  0.00     0.010 A 
ATOM     78  C   UNL A   1      41.812  27.746  34.353  1.00  0.00     0.020 A 
ATOM     79  C   UNL A   1      41.864  29.194  36.297  1.00  0.00     0.020 A 
ATOM     80  C   UNL A   1      41.789  27.917  35.739  1.00  0.00     0.054 A 
BRANCH  80  81
ATOM     81  S   UNL A   1      41.734  26.455  36.816  1.00  0.00     0.124 S 
ATOM     82  O   UNL A   1      43.007  26.535  37.526  1.00  0.00    -0.237 OA
ATOM     83  O   UNL A   1      40.543  26.694  37.630  1.00  0.00    -0.237 OA
ATOM     84  O   UNL A   1      41.618  25.338  35.880  1.00  0.00    -0.744 OA
ENDBRANCH  80  81
ENDBRANCH  54  75
ENDBRANCH  28  29
ENDBRANCH  21  23
ENDBRANCH  20  21
ENDBRANCH  19  20
ENDBRANCH   1  19
TORSDOF 17
ENDMDL
MODEL 3
REMARK VINA RESULT:      -9.9      4.107      6.307
REMARK SMILES C[C@@H](Cc1cnn(-c2ccccc2)n1)C(=O)OCCOC(=O)c1ccc(-c2c3nc(c(-c4ccc(S(=O)(=O)[O-])cc4)c4ccc([nH]4)c(-c4ccc(S(=O)(=O)[O-])cc4)c4nc(c(-c5ccc(S(=O)(=O)[O-])cc5)c5ccc2[nH]5)C=C4)C=C3)cc1
REMARK SMILES IDX 18 1 17 2 15 3 16 4 2 5 1 6 3 7 4 8 5 9 14 10 6 11 7 12 8 13
REMARK SMILES IDX 9 14 13 15 10 16 12 17 11 18 19 19 20 20 21 21 22 22 23 23
REMARK SMILES IDX 24 24 82 25 25 26 81 27 26 28 27 29 28 30 75 31 29 32 80 33
REMARK SMILES IDX 74 34 76 35 30 36 79 37 73 38 72 39 31 41 61 42 42 43 60 44
REMARK SMILES IDX 43 45 46 46 59 47 77 48 44 49 45 50 58 52 78 53 47 54 32 55
REMARK SMILES IDX 33 56 41 57 34 58 40 59 35 60 36 61 37 62 38 63 39 64 62 65
REMARK SMILES IDX 63 66 71 67 64 68 70 69 65 70 66 71 67 72 68 73 69 74 48 75
REMARK SMILES IDX 49 76 57 77 50 78 56 79 51 80 52 81 53 82 54 83 55 84
REMARK H PARENT 76 40 46 51
REMARK Flexibility Score: inf
ROOT
ATOM      1  C   UNL A   1      32.869  29.194  25.768  1.00  0.00     0.274 C 
ENDROOT
BRANCH   1   2
ATOM      2  O   UNL A   1      31.661  28.538  26.194  1.00  0.00    -0.462 OA
BRANCH   2   3
ATOM      3  C   UNL A   1      31.606  27.187  26.059  1.00  0.00     0.309 C 
ATOM      4  O   UNL A   1      31.148  26.420  26.900  1.00  0.00    -0.252 OA
BRANCH   3   5
ATOM      5  C   UNL A   1      32.311  26.696  24.809  1.00  0.00     0.102 C 
ATOM      6  C   UNL A   1      33.495  25.760  25.048  1.00  0.00     0.020 C 
BRANCH   5   7
ATOM      7  C   UNL A   1      31.258  26.107  23.869  1.00  0.00     0.075 C 
BRANCH   7   8
ATOM      8  C   UNL A   1      30.115  27.016  23.582  1.00  0.00     0.084 A 
ATOM      9  C   UNL A   1      28.738  26.765  23.691  1.00  0.00     0.161 A 
ATOM     10  N   UNL A   1      30.303  28.257  23.122  1.00  0.00    -0.153 NA
ATOM     11  N   UNL A   1      28.044  27.859  23.376  1.00  0.00    -0.157 NA
ATOM     12  N   UNL A   1      29.033  28.725  23.008  1.00  0.00    -0.151 N 
BRANCH  12  13
ATOM     13  C   UNL A   1      28.759  30.053  22.607  1.00  0.00     0.086 A 
ATOM     14  C   UNL A   1      28.437  30.323  21.270  1.00  0.00     0.030 A 
ATOM     15  C   UNL A   1      28.783  31.091  23.549  1.00  0.00     0.030 A 
ATOM     16  C   UNL A   1      28.098  31.621  20.889  1.00  0.00     0.002 A 
ATOM     17  C   UNL A   1      28.478  32.394  23.151  1.00  0.00     0.002 A 
ATOM     18  C   UNL A   1      28.121  32.655  21.827  1.00  0.00     0.000 A 
ENDBRANCH  12  13
ENDBRANCH   7   8
ENDBRANCH   5   7
ENDBRANCH   3   5
ENDBRANCH   2   3
ENDBRANCH   1   2
BRANCH   1  19
ATOM     19  C   UNL A   1      33.249  30.323  26.714  1.00  0.00     0.275 C 
BRANCH  19  20
ATOM     20  O   UNL A   1      34.574  30.142  27.211  1.00  0.00    -0.458 OA
BRANCH  20  21
ATOM     21  C   UNL A   1      35.094  31.240  27.806  1.00  0.00     0.338 C 
ATOM     22  O   UNL A   1      34.823  32.402  27.561  1.00  0.00    -0.246 OA
BRANCH  21  23
ATOM     23  C   UNL A   1      36.183  30.860  28.707  1.00  0.00     0.060 A 
ATOM     24  C   UNL A   1      37.201  31.800  28.901  1.00  0.00     0.016 A 
ATOM     25  C   UNL A   1      36.329  29.517  29.076  1.00  0.00     0.016 A 
ATOM     26  C   UNL A   1      38.446  31.349  29.276  1.00  0.00     0.010 A 
ATOM     27  C   UNL A   1      37.576  29.068  29.441  1.00  0.00     0.010 A 
ATOM     28  C   UNL A   1      38.634  29.975  29.447  1.00  0.00    -0.014 A 
BRANCH  28  29
ATOM     29  C   UNL A   1      39.993  29.495  29.582  1.00  0.00     0.031 A 
ATOM     30  C   UNL A   1      40.459  29.293  30.969  1.00  0.00     0.074 A 
ATOM     31  C   UNL A   1      40.720  29.136  28.508  1.00  0.00     0.049 A 
ATOM     32  N   UNL A   1      41.449  29.860  31.573  1.00  0.00    -0.248 NA
ATOM     33  C   UNL A   1      39.649  28.409  31.819  1.00  0.00     0.031 C 
ATOM     34  C   UNL A   1      40.265  28.971  27.123  1.00  0.00     0.029 A 
ATOM     35  N   UNL A   1      42.008  28.707  28.469  1.00  0.00    -0.354 N 
ATOM     36  C   UNL A   1      41.492  29.288  32.839  1.00  0.00     0.074 A 
ATOM     37  C   UNL A   1      40.288  28.508  32.982  1.00  0.00     0.031 C 
ATOM     38  C   UNL A   1      41.185  28.248  26.445  1.00  0.00     0.029 A 
ATOM     39  C   UNL A   1      42.336  28.032  27.305  1.00  0.00     0.049 A 
ATOM     40  H   UNL A   1      42.648  28.862  29.200  1.00  0.00     0.167 HD
ATOM     41  C   UNL A   1      42.601  29.330  33.626  1.00  0.00     0.031 A 
ATOM     42  C   UNL A   1      43.437  27.265  27.113  1.00  0.00     0.031 A 
ATOM     43  C   UNL A   1      43.554  30.308  33.182  1.00  0.00     0.049 A 
ATOM     44  C   UNL A   1      44.431  27.639  28.150  1.00  0.00     0.074 A 
ATOM     45  C   UNL A   1      43.541  31.683  33.057  1.00  0.00     0.029 A 
ATOM     46  N   UNL A   1      44.616  29.865  32.431  1.00  0.00    -0.354 N 
ATOM     47  N   UNL A   1      45.012  28.804  28.213  1.00  0.00    -0.248 NA
ATOM     48  C   UNL A   1      44.482  26.857  29.377  1.00  0.00     0.031 C 
ATOM     49  C   UNL A   1      44.307  31.957  31.888  1.00  0.00     0.029 A 
ATOM     50  C   UNL A   1      44.769  30.740  31.383  1.00  0.00     0.049 A 
ATOM     51  H   UNL A   1      45.167  29.070  32.610  1.00  0.00     0.167 HD
ATOM     52  C   UNL A   1      45.143  29.073  29.568  1.00  0.00     0.074 A 
ATOM     53  C   UNL A   1      44.904  27.794  30.229  1.00  0.00     0.031 C 
ATOM     54  C   UNL A   1      45.165  30.355  30.041  1.00  0.00     0.031 A 
BRANCH  41  55
ATOM     55  C   UNL A   1      42.945  28.246  34.609  1.00  0.00    -0.014 A 
ATOM     56  C   UNL A   1      43.186  28.577  35.954  1.00  0.00     0.010 A 
ATOM     57  C   UNL A   1      43.282  26.939  34.194  1.00  0.00     0.010 A 
ATOM     58  C   UNL A   1      43.773  27.654  36.831  1.00  0.00     0.020 A 
ATOM     59  C   UNL A   1      43.822  25.998  35.069  1.00  0.00     0.020 A 
ATOM     60  C   UNL A   1      44.098  26.374  36.376  1.00  0.00     0.054 A 
BRANCH  60  61
ATOM     61  S   UNL A   1      44.960  25.227  37.478  1.00  0.00     0.124 S 
ATOM     62  O   UNL A   1      44.591  23.933  36.911  1.00  0.00    -0.237 OA
ATOM     63  O   UNL A   1      46.356  25.620  37.307  1.00  0.00    -0.237 OA
ATOM     64  O   UNL A   1      44.392  25.521  38.792  1.00  0.00    -0.744 OA
ENDBRANCH  60  61
ENDBRANCH  41  55
BRANCH  42  65
ATOM     65  C   UNL A   1      43.512  26.006  26.333  1.00  0.00    -0.014 A 
ATOM     66  C   UNL A   1      44.582  25.761  25.455  1.00  0.00     0.010 A 
ATOM     67  C   UNL A   1      42.661  24.925  26.650  1.00  0.00     0.010 A 
ATOM     68  C   UNL A   1      44.821  24.469  24.956  1.00  0.00     0.020 A 
ATOM     69  C   UNL A   1      42.887  23.640  26.150  1.00  0.00     0.020 A 
ATOM     70  C   UNL A   1      43.982  23.413  25.323  1.00  0.00     0.054 A 
BRANCH  70  71
ATOM     71  S   UNL A   1      44.402  21.720  24.816  1.00  0.00     0.124 S 
ATOM     72  O   UNL A   1      43.261  20.957  25.312  1.00  0.00    -0.237 OA
ATOM     73  O   UNL A   1      44.499  21.839  23.364  1.00  0.00    -0.237 OA
ATOM     74  O   UNL A   1      45.667  21.459  25.499  1.00  0.00    -0.744 OA
ENDBRANCH  70  71
ENDBRANCH  42  65
BRANCH  54  75
ATOM     75  C   UNL A   1      45.332  31.485  29.049  1.00  0.00    -0.014 A 
ATOM     76  C   UNL A   1      46.587  31.900  28.560  1.00  0.00     0.010 A 
ATOM     77  C   UNL A   1      44.174  32.020  28.457  1.00  0.00     0.010 A 
ATOM     78  C   UNL A   1      46.678  32.831  27.514  1.00  0.00     0.020 A 
ATOM     79  C   UNL A   1      44.258  32.935  27.404  1.00  0.00     0.020 A 
ATOM     80  C   UNL A   1      45.510  33.339  26.938  1.00  0.00     0.054 A 
BRANCH  80  81
ATOM     81  S   UNL A   1      45.634  34.476  25.527  1.00  0.00     0.124 S 
ATOM     82  O   UNL A   1      44.776  33.841  24.531  1.00  0.00    -0.237 OA
ATOM     83  O   UNL A   1      45.134  35.734  26.077  1.00  0.00    -0.237 OA
ATOM     84  O   UNL A   1      47.060  34.475  25.205  1.00  0.00    -0.744 OA
ENDBRANCH  80  81
ENDBRANCH  54  75
ENDBRANCH  28  29
ENDBRANCH  21  23
ENDBRANCH  20  21
ENDBRANCH  19  20
ENDBRANCH   1  19
TORSDOF 17
ENDMDL
