MODEL 1
REMARK VINA RESULT:     -10.4      0.000      0.000
REMARK SMILES C[C@H]1OCC[C@@H]1C(=O)Nc1sc2c(c1C(=O)OCCOC(=O)c1ccc(-c3c4nc(c(-c5ccc(S(=O)(=O)[O-])cc5)c5ccc([nH]5)c(-c5ccc(S(=O)(=O)[O-])cc5)c5nc(c(-c6ccc(S(=O)(=O)[O-])cc6)c6ccc3[nH]6)C=C5)C=C4)cc1)CCC2
REMARK SMILES IDX 19 1 18 2 17 3 15 4 16 5 14 6 10 7 11 8 12 9 13 10 85 11
REMARK SMILES IDX 83 12 84 13 9 14 7 15 8 16 6 18 1 19 2 20 3 21 4 22 5 23
REMARK SMILES IDX 20 24 21 25 22 26 23 27 24 28 82 29 25 30 81 31 26 32 27 33
REMARK SMILES IDX 28 34 75 35 29 36 80 37 74 38 76 39 30 40 79 41 73 42 72 43
REMARK SMILES IDX 31 45 61 46 42 47 60 48 43 49 46 50 59 51 77 52 44 53 45 54
REMARK SMILES IDX 58 56 78 57 47 58 32 59 33 60 41 61 34 62 40 63 35 64 36 65
REMARK SMILES IDX 37 66 38 67 39 68 62 69 63 70 71 71 64 72 70 73 65 74 66 75
REMARK SMILES IDX 67 76 68 77 69 78 48 79 49 80 57 81 50 82 56 83 51 84 52 85
REMARK SMILES IDX 53 86 54 87 55 88
REMARK H PARENT 9 17 76 44 46 55
REMARK Flexibility Score: inf
ROOT
ATOM      1  C   UNL A   1      32.932  35.554  29.037  1.00  0.00     0.275 C 
ENDROOT
BRANCH   1   2
ATOM      2  C   UNL A   1      33.378  34.546  27.988  1.00  0.00     0.275 C 
BRANCH   2   3
ATOM      3  O   UNL A   1      33.744  33.296  28.603  1.00  0.00    -0.458 OA
BRANCH   3   4
ATOM      4  C   UNL A   1      35.086  33.067  28.720  1.00  0.00     0.341 C 
ATOM      5  O   UNL A   1      35.899  33.913  29.049  1.00  0.00    -0.246 OA
BRANCH   4   6
ATOM      6  C   UNL A   1      35.448  31.685  28.414  1.00  0.00     0.098 A 
ATOM      7  C   UNL A   1      34.712  30.890  27.544  1.00  0.00     0.110 A 
ATOM      8  S   UNL A   1      35.158  29.235  27.553  1.00  0.00    -0.122 S 
ATOM      9  C   UNL A   1      36.580  29.651  28.315  1.00  0.00     0.011 A 
ATOM     10  C   UNL A   1      36.643  30.963  28.714  1.00  0.00    -0.017 A 
ATOM     11  C   UNL A   1      37.840  28.896  28.485  1.00  0.00     0.047 C 
ATOM     12  C   UNL A   1      38.008  31.281  29.211  1.00  0.00     0.038 C 
ATOM     13  C   UNL A   1      38.839  30.080  28.640  1.00  0.00     0.010 C 
BRANCH   7  14
ATOM     14  N   UNL A   1      33.748  31.205  26.620  1.00  0.00    -0.317 N 
ATOM     15  C   UNL A   1      32.573  30.494  26.555  1.00  0.00     0.230 C 
ATOM     16  O   UNL A   1      31.548  31.156  26.349  1.00  0.00    -0.274 OA
ATOM     17  H   UNL A   1      33.898  31.951  25.995  1.00  0.00     0.170 HD
BRANCH  15  18
ATOM     18  C   UNL A   1      32.472  28.962  26.598  1.00  0.00     0.110 C 
ATOM     19  C   UNL A   1      33.460  27.904  24.510  1.00  0.00     0.039 C 
ATOM     20  C   UNL A   1      32.187  28.321  25.236  1.00  0.00     0.127 C 
ATOM     21  O   UNL A   1      31.427  27.112  25.500  1.00  0.00    -0.378 OA
ATOM     22  C   UNL A   1      31.548  26.831  26.898  1.00  0.00     0.161 C 
ATOM     23  C   UNL A   1      31.546  28.204  27.512  1.00  0.00     0.044 C 
ENDBRANCH  15  18
ENDBRANCH   7  14
ENDBRANCH   4   6
ENDBRANCH   3   4
ENDBRANCH   2   3
ENDBRANCH   1   2
BRANCH   1  24
ATOM     24  O   UNL A   1      32.550  34.919  30.267  1.00  0.00    -0.458 OA
BRANCH  24  25
ATOM     25  C   UNL A   1      32.901  35.703  31.311  1.00  0.00     0.338 C 
ATOM     26  O   UNL A   1      32.581  36.878  31.450  1.00  0.00    -0.246 OA
BRANCH  25  27
ATOM     27  C   UNL A   1      33.665  35.024  32.366  1.00  0.00     0.060 A 
ATOM     28  C   UNL A   1      34.420  35.770  33.273  1.00  0.00     0.016 A 
ATOM     29  C   UNL A   1      33.992  33.699  32.081  1.00  0.00     0.016 A 
ATOM     30  C   UNL A   1      35.680  35.296  33.637  1.00  0.00     0.010 A 
ATOM     31  C   UNL A   1      35.215  33.210  32.491  1.00  0.00     0.010 A 
ATOM     32  C   UNL A   1      36.119  34.063  33.142  1.00  0.00    -0.014 A 
BRANCH  32  33
ATOM     33  C   UNL A   1      37.504  33.600  33.357  1.00  0.00     0.031 A 
ATOM     34  C   UNL A   1      38.435  33.764  32.201  1.00  0.00     0.074 A 
ATOM     35  C   UNL A   1      37.929  33.346  34.620  1.00  0.00     0.049 A 
ATOM     36  N   UNL A   1      39.499  33.087  31.897  1.00  0.00    -0.248 NA
ATOM     37  C   UNL A   1      38.105  34.825  31.225  1.00  0.00     0.031 C 
ATOM     38  C   UNL A   1      37.084  33.361  35.826  1.00  0.00     0.029 A 
ATOM     39  N   UNL A   1      39.198  33.249  35.138  1.00  0.00    -0.354 N 
ATOM     40  C   UNL A   1      40.072  33.764  30.822  1.00  0.00     0.074 A 
ATOM     41  C   UNL A   1      39.110  34.728  30.362  1.00  0.00     0.031 C 
ATOM     42  C   UNL A   1      37.858  33.590  36.904  1.00  0.00     0.029 A 
ATOM     43  C   UNL A   1      39.245  33.656  36.476  1.00  0.00     0.049 A 
ATOM     44  H   UNL A   1      39.980  32.934  34.629  1.00  0.00     0.167 HD
ATOM     45  C   UNL A   1      41.402  33.723  30.543  1.00  0.00     0.031 A 
ATOM     46  C   UNL A   1      40.299  34.160  37.168  1.00  0.00     0.031 A 
ATOM     47  C   UNL A   1      42.058  32.548  31.028  1.00  0.00     0.049 A 
ATOM     48  C   UNL A   1      41.542  33.851  36.429  1.00  0.00     0.074 A 
ATOM     49  C   UNL A   1      41.930  31.194  30.798  1.00  0.00     0.029 A 
ATOM     50  N   UNL A   1      42.876  32.684  32.120  1.00  0.00    -0.354 N 
ATOM     51  N   UNL A   1      42.055  32.662  36.312  1.00  0.00    -0.248 NA
ATOM     52  C   UNL A   1      42.108  34.865  35.550  1.00  0.00     0.031 C 
ATOM     53  C   UNL A   1      42.387  30.557  31.984  1.00  0.00     0.029 A 
ATOM     54  C   UNL A   1      42.761  31.554  32.886  1.00  0.00     0.049 A 
ATOM     55  H   UNL A   1      43.448  33.461  32.319  1.00  0.00     0.167 HD
ATOM     56  C   UNL A   1      42.708  32.679  35.091  1.00  0.00     0.074 A 
ATOM     57  C   UNL A   1      42.840  34.088  34.750  1.00  0.00     0.031 C 
ATOM     58  C   UNL A   1      42.809  31.548  34.335  1.00  0.00     0.031 A 
BRANCH  45  59
ATOM     59  C   UNL A   1      42.152  34.986  30.190  1.00  0.00    -0.014 A 
ATOM     60  C   UNL A   1      42.282  35.378  28.846  1.00  0.00     0.010 A 
ATOM     61  C   UNL A   1      42.979  35.639  31.136  1.00  0.00     0.010 A 
ATOM     62  C   UNL A   1      43.227  36.342  28.465  1.00  0.00     0.020 A 
ATOM     63  C   UNL A   1      43.885  36.633  30.774  1.00  0.00     0.020 A 
ATOM     64  C   UNL A   1      44.032  36.950  29.432  1.00  0.00     0.054 A 
BRANCH  64  65
ATOM     65  S   UNL A   1      45.338  38.094  28.926  1.00  0.00     0.124 S 
ATOM     66  O   UNL A   1      46.069  37.293  27.948  1.00  0.00    -0.237 OA
ATOM     67  O   UNL A   1      44.580  39.220  28.388  1.00  0.00    -0.237 OA
ATOM     68  O   UNL A   1      46.050  38.370  30.171  1.00  0.00    -0.744 OA
ENDBRANCH  64  65
ENDBRANCH  45  59
BRANCH  46  69
ATOM     69  C   UNL A   1      40.276  35.136  38.294  1.00  0.00    -0.014 A 
ATOM     70  C   UNL A   1      41.119  34.977  39.411  1.00  0.00     0.010 A 
ATOM     71  C   UNL A   1      39.590  36.363  38.174  1.00  0.00     0.010 A 
ATOM     72  C   UNL A   1      41.296  36.015  40.344  1.00  0.00     0.020 A 
ATOM     73  C   UNL A   1      39.740  37.392  39.111  1.00  0.00     0.020 A 
ATOM     74  C   UNL A   1      40.611  37.221  40.182  1.00  0.00     0.054 A 
BRANCH  74  75
ATOM     75  S   UNL A   1      40.947  38.608  41.307  1.00  0.00     0.124 S 
ATOM     76  O   UNL A   1      40.819  39.763  40.425  1.00  0.00    -0.237 OA
ATOM     77  O   UNL A   1      39.900  38.461  42.314  1.00  0.00    -0.237 OA
ATOM     78  O   UNL A   1      42.302  38.341  41.786  1.00  0.00    -0.744 OA
ENDBRANCH  74  75
ENDBRANCH  46  69
BRANCH  58  79
ATOM     79  C   UNL A   1      42.635  30.212  35.014  1.00  0.00    -0.014 A 
ATOM     80  C   UNL A   1      41.380  29.678  35.361  1.00  0.00     0.010 A 
ATOM     81  C   UNL A   1      43.777  29.407  35.183  1.00  0.00     0.010 A 
ATOM     82  C   UNL A   1      41.271  28.385  35.887  1.00  0.00     0.020 A 
ATOM     83  C   UNL A   1      43.673  28.108  35.687  1.00  0.00     0.020 A 
ATOM     84  C   UNL A   1      42.421  27.605  36.045  1.00  0.00     0.054 A 
BRANCH  84  85
ATOM     85  S   UNL A   1      42.261  25.905  36.656  1.00  0.00     0.124 S 
ATOM     86  O   UNL A   1      40.942  25.515  36.168  1.00  0.00    -0.237 OA
ATOM     87  O   UNL A   1      43.391  25.223  36.028  1.00  0.00    -0.237 OA
ATOM     88  O   UNL A   1      42.367  26.047  38.108  1.00  0.00    -0.744 OA
ENDBRANCH  84  85
ENDBRANCH  58  79
ENDBRANCH  32  33
ENDBRANCH  25  27
ENDBRANCH  24  25
ENDBRANCH   1  24
TORSDOF 16
ENDMDL
MODEL 2
REMARK VINA RESULT:     -10.4      6.472     11.371
REMARK SMILES C[C@H]1OCC[C@@H]1C(=O)Nc1sc2c(c1C(=O)OCCOC(=O)c1ccc(-c3c4nc(c(-c5ccc(S(=O)(=O)[O-])cc5)c5ccc([nH]5)c(-c5ccc(S(=O)(=O)[O-])cc5)c5nc(c(-c6ccc(S(=O)(=O)[O-])cc6)c6ccc3[nH]6)C=C5)C=C4)cc1)CCC2
REMARK SMILES IDX 19 1 18 2 17 3 15 4 16 5 14 6 10 7 11 8 12 9 13 10 85 11
REMARK SMILES IDX 83 12 84 13 9 14 7 15 8 16 6 18 1 19 2 20 3 21 4 22 5 23
REMARK SMILES IDX 20 24 21 25 22 26 23 27 24 28 82 29 25 30 81 31 26 32 27 33
REMARK SMILES IDX 28 34 75 35 29 36 80 37 74 38 76 39 30 40 79 41 73 42 72 43
REMARK SMILES IDX 31 45 61 46 42 47 60 48 43 49 46 50 59 51 77 52 44 53 45 54
REMARK SMILES IDX 58 56 78 57 47 58 32 59 33 60 41 61 34 62 40 63 35 64 36 65
REMARK SMILES IDX 37 66 38 67 39 68 62 69 63 70 71 71 64 72 70 73 65 74 66 75
REMARK SMILES IDX 67 76 68 77 69 78 48 79 49 80 57 81 50 82 56 83 51 84 52 85
REMARK SMILES IDX 53 86 54 87 55 88
REMARK H PARENT 9 17 76 44 46 55
REMARK Flexibility Score: inf
ROOT
ATOM      1  C   UNL A   1      38.391  21.901  25.482  1.00  0.00     0.275 C 
ENDROOT
BRANCH   1   2
ATOM      2  C   UNL A   1      37.127  22.692  25.786  1.00  0.00     0.275 C 
BRANCH   2   3
ATOM      3  O   UNL A   1      36.790  23.561  24.688  1.00  0.00    -0.458 OA
BRANCH   3   4
ATOM      4  C   UNL A   1      36.189  22.957  23.621  1.00  0.00     0.341 C 
ATOM      5  O   UNL A   1      36.700  22.843  22.521  1.00  0.00    -0.246 OA
BRANCH   4   6
ATOM      6  C   UNL A   1      34.856  22.452  23.942  1.00  0.00     0.098 A 
ATOM      7  C   UNL A   1      33.691  23.079  23.520  1.00  0.00     0.110 A 
ATOM      8  S   UNL A   1      32.261  22.472  24.242  1.00  0.00    -0.122 S 
ATOM      9  C   UNL A   1      33.109  21.121  24.721  1.00  0.00     0.011 A 
ATOM     10  C   UNL A   1      34.463  21.200  24.505  1.00  0.00    -0.017 A 
ATOM     11  C   UNL A   1      32.636  19.797  25.180  1.00  0.00     0.047 C 
ATOM     12  C   UNL A   1      35.103  19.887  24.789  1.00  0.00     0.038 C 
ATOM     13  C   UNL A   1      33.865  18.926  24.785  1.00  0.00     0.010 C 
BRANCH   7  14
ATOM     14  N   UNL A   1      33.472  24.044  22.567  1.00  0.00    -0.317 N 
ATOM     15  C   UNL A   1      33.563  25.379  22.882  1.00  0.00     0.230 C 
ATOM     16  O   UNL A   1      34.100  26.101  22.032  1.00  0.00    -0.274 OA
ATOM     17  H   UNL A   1      33.248  23.776  21.646  1.00  0.00     0.170 HD
BRANCH  15  18
ATOM     18  C   UNL A   1      32.948  26.030  24.129  1.00  0.00     0.110 C 
ATOM     19  C   UNL A   1      30.438  26.335  23.879  1.00  0.00     0.039 C 
ATOM     20  C   UNL A   1      31.806  27.004  23.821  1.00  0.00     0.127 C 
ATOM     21  O   UNL A   1      31.835  28.015  24.863  1.00  0.00    -0.378 OA
ATOM     22  C   UNL A   1      32.666  27.518  25.916  1.00  0.00     0.161 C 
ATOM     23  C   UNL A   1      33.742  26.780  25.166  1.00  0.00     0.044 C 
ENDBRANCH  15  18
ENDBRANCH   7  14
ENDBRANCH   4   6
ENDBRANCH   3   4
ENDBRANCH   2   3
ENDBRANCH   1   2
BRANCH   1  24
ATOM     24  O   UNL A   1      38.475  20.698  26.262  1.00  0.00    -0.458 OA
BRANCH  24  25
ATOM     25  C   UNL A   1      39.617  20.040  25.959  1.00  0.00     0.338 C 
ATOM     26  O   UNL A   1      39.694  19.062  25.224  1.00  0.00    -0.246 OA
BRANCH  25  27
ATOM     27  C   UNL A   1      40.839  20.628  26.525  1.00  0.00     0.060 A 
ATOM     28  C   UNL A   1      40.932  20.859  27.898  1.00  0.00     0.016 A 
ATOM     29  C   UNL A   1      41.595  21.371  25.620  1.00  0.00     0.016 A 
ATOM     30  C   UNL A   1      41.526  22.043  28.333  1.00  0.00     0.010 A 
ATOM     31  C   UNL A   1      42.233  22.512  26.062  1.00  0.00     0.010 A 
ATOM     32  C   UNL A   1      42.071  22.925  27.393  1.00  0.00    -0.014 A 
BRANCH  32  33
ATOM     33  C   UNL A   1      42.554  24.262  27.786  1.00  0.00     0.031 A 
ATOM     34  C   UNL A   1      41.614  25.396  27.539  1.00  0.00     0.074 A 
ATOM     35  C   UNL A   1      43.642  24.363  28.592  1.00  0.00     0.049 A 
ATOM     36  N   UNL A   1      41.872  26.650  27.332  1.00  0.00    -0.248 NA
ATOM     37  C   UNL A   1      40.174  25.067  27.486  1.00  0.00     0.031 C 
ATOM     38  C   UNL A   1      44.494  23.242  29.023  1.00  0.00     0.029 A 
ATOM     39  N   UNL A   1      44.088  25.403  29.372  1.00  0.00    -0.354 N 
ATOM     40  C   UNL A   1      40.632  27.286  27.330  1.00  0.00     0.074 A 
ATOM     41  C   UNL A   1      39.626  26.260  27.283  1.00  0.00     0.031 C 
ATOM     42  C   UNL A   1      45.113  23.576  30.172  1.00  0.00     0.029 A 
ATOM     43  C   UNL A   1      44.767  24.947  30.507  1.00  0.00     0.049 A 
ATOM     44  H   UNL A   1      43.946  26.354  29.158  1.00  0.00     0.167 HD
ATOM     45  C   UNL A   1      40.467  28.593  27.665  1.00  0.00     0.031 A 
ATOM     46  C   UNL A   1      44.920  25.568  31.704  1.00  0.00     0.031 A 
ATOM     47  C   UNL A   1      41.636  29.392  27.465  1.00  0.00     0.049 A 
ATOM     48  C   UNL A   1      44.610  27.003  31.537  1.00  0.00     0.074 A 
ATOM     49  C   UNL A   1      42.411  29.732  26.376  1.00  0.00     0.029 A 
ATOM     50  N   UNL A   1      42.330  29.790  28.579  1.00  0.00    -0.354 N 
ATOM     51  N   UNL A   1      45.355  27.849  30.888  1.00  0.00    -0.248 NA
ATOM     52  C   UNL A   1      43.277  27.479  31.877  1.00  0.00     0.031 C 
ATOM     53  C   UNL A   1      43.709  29.994  26.893  1.00  0.00     0.029 A 
ATOM     54  C   UNL A   1      43.667  29.792  28.273  1.00  0.00     0.049 A 
ATOM     55  H   UNL A   1      41.937  30.031  29.448  1.00  0.00     0.167 HD
ATOM     56  C   UNL A   1      44.469  28.789  30.390  1.00  0.00     0.074 A 
ATOM     57  C   UNL A   1      43.245  28.601  31.155  1.00  0.00     0.031 C 
ATOM     58  C   UNL A   1      44.712  29.424  29.207  1.00  0.00     0.031 A 
BRANCH  45  59
ATOM     59  C   UNL A   1      39.339  29.015  28.578  1.00  0.00    -0.014 A 
ATOM     60  C   UNL A   1      38.424  29.998  28.161  1.00  0.00     0.010 A 
ATOM     61  C   UNL A   1      39.335  28.671  29.951  1.00  0.00     0.010 A 
ATOM     62  C   UNL A   1      37.582  30.635  29.083  1.00  0.00     0.020 A 
ATOM     63  C   UNL A   1      38.469  29.262  30.867  1.00  0.00     0.020 A 
ATOM     64  C   UNL A   1      37.624  30.273  30.433  1.00  0.00     0.054 A 
BRANCH  64  65
ATOM     65  S   UNL A   1      36.634  31.185  31.641  1.00  0.00     0.124 S 
ATOM     66  O   UNL A   1      36.337  30.148  32.624  1.00  0.00    -0.237 OA
ATOM     67  O   UNL A   1      37.555  32.231  32.077  1.00  0.00    -0.237 OA
ATOM     68  O   UNL A   1      35.493  31.657  30.859  1.00  0.00    -0.744 OA
ENDBRANCH  64  65
ENDBRANCH  45  59
BRANCH  46  69
ATOM     69  C   UNL A   1      45.050  24.944  33.052  1.00  0.00    -0.014 A 
ATOM     70  C   UNL A   1      44.265  23.833  33.417  1.00  0.00     0.010 A 
ATOM     71  C   UNL A   1      46.115  25.291  33.910  1.00  0.00     0.010 A 
ATOM     72  C   UNL A   1      44.558  23.082  34.570  1.00  0.00     0.020 A 
ATOM     73  C   UNL A   1      46.398  24.564  35.072  1.00  0.00     0.020 A 
ATOM     74  C   UNL A   1      45.631  23.448  35.387  1.00  0.00     0.054 A 
BRANCH  74  75
ATOM     75  S   UNL A   1      46.093  22.396  36.794  1.00  0.00     0.124 S 
ATOM     76  O   UNL A   1      45.425  23.058  37.910  1.00  0.00    -0.237 OA
ATOM     77  O   UNL A   1      45.550  21.096  36.411  1.00  0.00    -0.237 OA
ATOM     78  O   UNL A   1      47.553  22.471  36.814  1.00  0.00    -0.744 OA
ENDBRANCH  74  75
ENDBRANCH  46  69
BRANCH  58  79
ATOM     79  C   UNL A   1      46.128  29.455  28.687  1.00  0.00    -0.014 A 
ATOM     80  C   UNL A   1      47.129  30.292  29.216  1.00  0.00     0.010 A 
ATOM     81  C   UNL A   1      46.493  28.502  27.718  1.00  0.00     0.010 A 
ATOM     82  C   UNL A   1      48.452  30.198  28.769  1.00  0.00     0.020 A 
ATOM     83  C   UNL A   1      47.816  28.388  27.283  1.00  0.00     0.020 A 
ATOM     84  C   UNL A   1      48.789  29.243  27.804  1.00  0.00     0.054 A 
BRANCH  84  85
ATOM     85  S   UNL A   1      50.519  29.077  27.287  1.00  0.00     0.124 S 
ATOM     86  O   UNL A   1      51.224  29.897  28.269  1.00  0.00    -0.237 OA
ATOM     87  O   UNL A   1      50.755  27.638  27.383  1.00  0.00    -0.237 OA
ATOM     88  O   UNL A   1      50.525  29.605  25.922  1.00  0.00    -0.744 OA
ENDBRANCH  84  85
ENDBRANCH  58  79
ENDBRANCH  32  33
ENDBRANCH  25  27
ENDBRANCH  24  25
ENDBRANCH   1  24
TORSDOF 16
ENDMDL
MODEL 3
REMARK VINA RESULT:     -10.3      3.681      7.556
REMARK SMILES C[C@H]1OCC[C@@H]1C(=O)Nc1sc2c(c1C(=O)OCCOC(=O)c1ccc(-c3c4nc(c(-c5ccc(S(=O)(=O)[O-])cc5)c5ccc([nH]5)c(-c5ccc(S(=O)(=O)[O-])cc5)c5nc(c(-c6ccc(S(=O)(=O)[O-])cc6)c6ccc3[nH]6)C=C5)C=C4)cc1)CCC2
REMARK SMILES IDX 19 1 18 2 17 3 15 4 16 5 14 6 10 7 11 8 12 9 13 10 85 11
REMARK SMILES IDX 83 12 84 13 9 14 7 15 8 16 6 18 1 19 2 20 3 21 4 22 5 23
REMARK SMILES IDX 20 24 21 25 22 26 23 27 24 28 82 29 25 30 81 31 26 32 27 33
REMARK SMILES IDX 28 34 75 35 29 36 80 37 74 38 76 39 30 40 79 41 73 42 72 43
REMARK SMILES IDX 31 45 61 46 42 47 60 48 43 49 46 50 59 51 77 52 44 53 45 54
REMARK SMILES IDX 58 56 78 57 47 58 32 59 33 60 41 61 34 62 40 63 35 64 36 65
REMARK SMILES IDX 37 66 38 67 39 68 62 69 63 70 71 71 64 72 70 73 65 74 66 75
REMARK SMILES IDX 67 76 68 77 69 78 48 79 49 80 57 81 50 82 56 83 51 84 52 85
REMARK SMILES IDX 53 86 54 87 55 88
REMARK H PARENT 9 17 76 44 46 55
REMARK Flexibility Score: inf
ROOT
ATOM      1  C   UNL A   1      33.860  30.175  26.803  1.00  0.00     0.275 C 
ENDROOT
BRANCH   1   2
ATOM      2  C   UNL A   1      33.978  28.669  26.986  1.00  0.00     0.275 C 
BRANCH   2   3
ATOM      3  O   UNL A   1      33.062  27.975  26.119  1.00  0.00    -0.458 OA
BRANCH   3   4
ATOM      4  C   UNL A   1      32.119  27.211  26.747  1.00  0.00     0.341 C 
ATOM      5  O   UNL A   1      31.419  27.603  27.664  1.00  0.00    -0.246 OA
BRANCH   4   6
ATOM      6  C   UNL A   1      32.032  25.861  26.194  1.00  0.00     0.098 A 
ATOM      7  C   UNL A   1      30.832  25.286  25.798  1.00  0.00     0.110 A 
ATOM      8  S   UNL A   1      30.934  23.612  25.446  1.00  0.00    -0.122 S 
ATOM      9  C   UNL A   1      32.590  23.760  25.356  1.00  0.00     0.011 A 
ATOM     10  C   UNL A   1      33.069  24.983  25.754  1.00  0.00    -0.017 A 
ATOM     11  C   UNL A   1      33.609  22.863  24.770  1.00  0.00     0.047 C 
ATOM     12  C   UNL A   1      34.525  25.081  25.465  1.00  0.00     0.038 C 
ATOM     13  C   UNL A   1      34.725  23.901  24.453  1.00  0.00     0.010 C 
BRANCH   7  14
ATOM     14  N   UNL A   1      29.596  25.835  25.559  1.00  0.00    -0.317 N 
ATOM     15  C   UNL A   1      29.337  26.503  24.385  1.00  0.00     0.230 C 
ATOM     16  O   UNL A   1      28.222  26.304  23.884  1.00  0.00    -0.274 OA
ATOM     17  H   UNL A   1      28.886  25.749  26.235  1.00  0.00     0.170 HD
BRANCH  15  18
ATOM     18  C   UNL A   1      30.266  27.542  23.743  1.00  0.00     0.110 C 
ATOM     19  C   UNL A   1      29.108  29.786  23.471  1.00  0.00     0.039 C 
ATOM     20  C   UNL A   1      29.556  28.502  22.784  1.00  0.00     0.127 C 
ATOM     21  O   UNL A   1      30.530  28.871  21.773  1.00  0.00    -0.378 OA
ATOM     22  C   UNL A   1      31.818  28.480  22.260  1.00  0.00     0.161 C 
ATOM     23  C   UNL A   1      31.520  27.195  22.984  1.00  0.00     0.044 C 
ENDBRANCH  15  18
ENDBRANCH   7  14
ENDBRANCH   4   6
ENDBRANCH   3   4
ENDBRANCH   2   3
ENDBRANCH   1   2
BRANCH   1  24
ATOM     24  O   UNL A   1      33.096  30.788  27.854  1.00  0.00    -0.458 OA
BRANCH  24  25
ATOM     25  C   UNL A   1      33.128  32.132  27.714  1.00  0.00     0.338 C 
ATOM     26  O   UNL A   1      32.299  32.798  27.104  1.00  0.00    -0.246 OA
BRANCH  25  27
ATOM     27  C   UNL A   1      34.224  32.802  28.428  1.00  0.00     0.060 A 
ATOM     28  C   UNL A   1      35.341  33.258  27.725  1.00  0.00     0.016 A 
ATOM     29  C   UNL A   1      34.310  32.485  29.782  1.00  0.00     0.016 A 
ATOM     30  C   UNL A   1      36.601  33.080  28.294  1.00  0.00     0.010 A 
ATOM     31  C   UNL A   1      35.557  32.367  30.362  1.00  0.00     0.010 A 
ATOM     32  C   UNL A   1      36.706  32.521  29.572  1.00  0.00    -0.014 A 
BRANCH  32  33
ATOM     33  C   UNL A   1      38.015  32.155  30.144  1.00  0.00     0.031 A 
ATOM     34  C   UNL A   1      38.452  30.743  29.931  1.00  0.00     0.074 A 
ATOM     35  C   UNL A   1      38.860  33.138  30.547  1.00  0.00     0.049 A 
ATOM     36  N   UNL A   1      39.249  30.010  30.645  1.00  0.00    -0.248 NA
ATOM     37  C   UNL A   1      37.883  30.040  28.762  1.00  0.00     0.031 C 
ATOM     38  C   UNL A   1      38.540  34.575  30.593  1.00  0.00     0.029 A 
ATOM     39  N   UNL A   1      40.215  33.121  30.777  1.00  0.00    -0.354 N 
ATOM     40  C   UNL A   1      39.437  28.843  29.906  1.00  0.00     0.074 A 
ATOM     41  C   UNL A   1      38.473  28.852  28.841  1.00  0.00     0.031 C 
ATOM     42  C   UNL A   1      39.683  35.284  30.521  1.00  0.00     0.029 A 
ATOM     43  C   UNL A   1      40.804  34.360  30.506  1.00  0.00     0.049 A 
ATOM     44  H   UNL A   1      40.711  32.331  31.094  1.00  0.00     0.167 HD
ATOM     45  C   UNL A   1      40.552  28.071  30.009  1.00  0.00     0.031 A 
ATOM     46  C   UNL A   1      42.085  34.623  30.143  1.00  0.00     0.031 A 
ATOM     47  C   UNL A   1      41.223  28.191  31.266  1.00  0.00     0.049 A 
ATOM     48  C   UNL A   1      42.920  33.445  30.460  1.00  0.00     0.074 A 
ATOM     49  C   UNL A   1      40.886  27.941  32.580  1.00  0.00     0.029 A 
ATOM     50  N   UNL A   1      42.403  28.889  31.291  1.00  0.00    -0.354 N 
ATOM     51  N   UNL A   1      43.231  33.063  31.664  1.00  0.00    -0.248 NA
ATOM     52  C   UNL A   1      43.208  32.483  29.406  1.00  0.00     0.031 C 
ATOM     53  C   UNL A   1      41.692  28.817  33.358  1.00  0.00     0.029 A 
ATOM     54  C   UNL A   1      42.476  29.566  32.480  1.00  0.00     0.049 A 
ATOM     55  H   UNL A   1      43.081  28.902  30.577  1.00  0.00     0.167 HD
ATOM     56  C   UNL A   1      43.371  31.689  31.572  1.00  0.00     0.074 A 
ATOM     57  C   UNL A   1      43.503  31.414  30.149  1.00  0.00     0.031 C 
ATOM     58  C   UNL A   1      43.068  30.882  32.629  1.00  0.00     0.031 A 
BRANCH  45  59
ATOM     59  C   UNL A   1      41.233  27.538  28.771  1.00  0.00    -0.014 A 
ATOM     60  C   UNL A   1      41.693  26.210  28.735  1.00  0.00     0.010 A 
ATOM     61  C   UNL A   1      41.686  28.406  27.748  1.00  0.00     0.010 A 
ATOM     62  C   UNL A   1      42.600  25.789  27.750  1.00  0.00     0.020 A 
ATOM     63  C   UNL A   1      42.547  27.985  26.738  1.00  0.00     0.020 A 
ATOM     64  C   UNL A   1      43.031  26.686  26.770  1.00  0.00     0.054 A 
BRANCH  64  65
ATOM     65  S   UNL A   1      44.299  26.180  25.582  1.00  0.00     0.124 S 
ATOM     66  O   UNL A   1      45.339  25.661  26.465  1.00  0.00    -0.237 OA
ATOM     67  O   UNL A   1      43.596  25.187  24.775  1.00  0.00    -0.237 OA
ATOM     68  O   UNL A   1      44.627  27.421  24.885  1.00  0.00    -0.744 OA
ENDBRANCH  64  65
ENDBRANCH  45  59
BRANCH  46  69
ATOM     69  C   UNL A   1      42.586  35.731  29.280  1.00  0.00    -0.014 A 
ATOM     70  C   UNL A   1      42.008  35.991  28.022  1.00  0.00     0.010 A 
ATOM     71  C   UNL A   1      43.487  36.692  29.786  1.00  0.00     0.010 A 
ATOM     72  C   UNL A   1      42.291  37.178  27.322  1.00  0.00     0.020 A 
ATOM     73  C   UNL A   1      43.793  37.864  29.085  1.00  0.00     0.020 A 
ATOM     74  C   UNL A   1      43.176  38.113  27.864  1.00  0.00     0.054 A 
BRANCH  74  75
ATOM     75  S   UNL A   1      43.430  39.705  27.027  1.00  0.00     0.124 S 
ATOM     76  O   UNL A   1      43.535  40.633  28.149  1.00  0.00    -0.237 OA
ATOM     77  O   UNL A   1      44.661  39.477  26.276  1.00  0.00    -0.237 OA
ATOM     78  O   UNL A   1      42.229  39.858  26.207  1.00  0.00    -0.744 OA
ENDBRANCH  74  75
ENDBRANCH  46  69
BRANCH  58  79
ATOM     79  C   UNL A   1      43.032  31.489  34.010  1.00  0.00    -0.014 A 
ATOM     80  C   UNL A   1      41.934  32.213  34.509  1.00  0.00     0.010 A 
ATOM     81  C   UNL A   1      44.097  31.196  34.883  1.00  0.00     0.010 A 
ATOM     82  C   UNL A   1      41.911  32.657  35.837  1.00  0.00     0.020 A 
ATOM     83  C   UNL A   1      44.070  31.617  36.215  1.00  0.00     0.020 A 
ATOM     84  C   UNL A   1      42.981  32.354  36.684  1.00  0.00     0.054 A 
BRANCH  84  85
ATOM     85  S   UNL A   1      42.909  32.867  38.422  1.00  0.00     0.124 S 
ATOM     86  O   UNL A   1      44.288  33.259  38.695  1.00  0.00    -0.237 OA
ATOM     87  O   UNL A   1      41.936  33.958  38.402  1.00  0.00    -0.237 OA
ATOM     88  O   UNL A   1      42.458  31.663  39.121  1.00  0.00    -0.744 OA
ENDBRANCH  84  85
ENDBRANCH  58  79
ENDBRANCH  32  33
ENDBRANCH  25  27
ENDBRANCH  24  25
ENDBRANCH   1  24
TORSDOF 16
ENDMDL
