MODEL 1
REMARK VINA RESULT:     -10.3      0.000      0.000
REMARK SMILES Cc1nc(C[NH2+][C@@H](C(=O)OCCOC(=O)c2ccc(-c3c4nc(c(-c5ccc(S(=O)(=O)[O-])cc5)c5ccc([nH]5)c(-c5ccc(S(=O)(=O)[O-])cc5)c5nc(c(-c6ccc(S(=O)(=O)[O-])cc6)c6ccc3[nH]6)C=C5)C=C4)cc2)c2ccccc2)sc1C
REMARK SMILES IDX 11 1 10 2 8 3 9 4 7 5 6 6 5 9 4 10 1 11 2 12 3 13 83 14
REMARK SMILES IDX 82 15 84 16 76 17 77 18 81 19 78 20 80 21 79 22 12 23 13 24
REMARK SMILES IDX 14 25 15 26 16 27 17 28 75 29 18 30 74 31 19 32 20 33 21 34
REMARK SMILES IDX 68 35 22 36 73 37 67 38 69 39 23 40 72 41 66 42 65 43 24 45
REMARK SMILES IDX 54 46 35 47 53 48 36 49 39 50 52 51 70 52 37 53 38 54 51 56
REMARK SMILES IDX 71 57 40 58 25 59 26 60 34 61 27 62 33 63 28 64 29 65 30 66
REMARK SMILES IDX 31 67 32 68 55 69 56 70 64 71 57 72 63 73 58 74 59 75 60 76
REMARK SMILES IDX 61 77 62 78 41 79 42 80 50 81 43 82 49 83 44 84 45 85 46 86
REMARK SMILES IDX 47 87 48 88
REMARK H PARENT 6 7 6 8 69 44 39 55
REMARK Flexibility Score: inf
ROOT
ATOM      1  C   UNL A   1      31.877  29.130  26.677  1.00  0.00     0.274 C 
ENDROOT
BRANCH   1   2
ATOM      2  O   UNL A   1      31.311  29.001  25.356  1.00  0.00    -0.457 OA
BRANCH   2   3
ATOM      3  C   UNL A   1      32.109  28.457  24.388  1.00  0.00     0.369 C 
ATOM      4  O   UNL A   1      33.330  28.572  24.375  1.00  0.00    -0.245 OA
BRANCH   3   5
ATOM      5  C   UNL A   1      31.294  27.730  23.282  1.00  0.00     0.325 C 
BRANCH   5   6
ATOM      6  N   UNL A   1      32.130  27.319  22.133  1.00  0.00    -0.325 N 
ATOM      7  H   UNL A   1      31.963  27.969  21.364  1.00  0.00     0.347 HD
ATOM      8  H   UNL A   1      33.101  27.333  22.446  1.00  0.00     0.347 HD
BRANCH   6   9
ATOM      9  C   UNL A   1      31.848  25.963  21.664  1.00  0.00     0.330 C 
BRANCH   9  10
ATOM     10  C   UNL A   1      32.561  24.947  22.516  1.00  0.00     0.148 A 
ATOM     11  C   UNL A   1      32.701  21.590  23.783  1.00  0.00     0.068 C 
ATOM     12  C   UNL A   1      33.018  23.014  23.501  1.00  0.00     0.052 A 
ATOM     13  N   UNL A   1      32.101  23.737  22.760  1.00  0.00    -0.240 NA
ATOM     14  C   UNL A   1      34.144  23.724  23.882  1.00  0.00     0.025 A 
ATOM     15  S   UNL A   1      34.070  25.315  23.245  1.00  0.00    -0.118 S 
ATOM     16  C   UNL A   1      35.309  23.277  24.690  1.00  0.00     0.058 C 
ENDBRANCH   9  10
ENDBRANCH   6   9
ENDBRANCH   5   6
BRANCH   5  17
ATOM     17  C   UNL A   1      30.077  28.541  22.830  1.00  0.00     0.021 A 
ATOM     18  C   UNL A   1      28.758  28.193  23.179  1.00  0.00     0.010 A 
ATOM     19  C   UNL A   1      30.264  29.696  22.047  1.00  0.00     0.010 A 
ATOM     20  C   UNL A   1      27.673  28.969  22.763  1.00  0.00     0.001 A 
ATOM     21  C   UNL A   1      29.177  30.468  21.626  1.00  0.00     0.001 A 
ATOM     22  C   UNL A   1      27.882  30.106  21.986  1.00  0.00     0.000 A 
ENDBRANCH   5  17
ENDBRANCH   3   5
ENDBRANCH   2   3
ENDBRANCH   1   2
BRANCH   1  23
ATOM     23  C   UNL A   1      32.239  30.587  26.951  1.00  0.00     0.275 C 
BRANCH  23  24
ATOM     24  O   UNL A   1      33.659  30.764  26.807  1.00  0.00    -0.458 OA
BRANCH  24  25
ATOM     25  C   UNL A   1      34.220  31.624  27.687  1.00  0.00     0.338 C 
ATOM     26  O   UNL A   1      33.686  32.563  28.251  1.00  0.00    -0.246 OA
BRANCH  25  27
ATOM     27  C   UNL A   1      35.599  31.198  27.961  1.00  0.00     0.060 A 
ATOM     28  C   UNL A   1      35.857  29.834  28.049  1.00  0.00     0.016 A 
ATOM     29  C   UNL A   1      36.584  32.128  28.289  1.00  0.00     0.016 A 
ATOM     30  C   UNL A   1      37.067  29.398  28.583  1.00  0.00     0.010 A 
ATOM     31  C   UNL A   1      37.829  31.679  28.749  1.00  0.00     0.010 A 
ATOM     32  C   UNL A   1      38.063  30.309  28.965  1.00  0.00    -0.014 A 
BRANCH  32  33
ATOM     33  C   UNL A   1      39.271  29.823  29.701  1.00  0.00     0.031 A 
ATOM     34  C   UNL A   1      39.566  30.331  31.094  1.00  0.00     0.074 A 
ATOM     35  C   UNL A   1      40.061  28.858  29.188  1.00  0.00     0.049 A 
ATOM     36  N   UNL A   1      40.620  30.123  31.844  1.00  0.00    -0.248 NA
ATOM     37  C   UNL A   1      38.552  31.195  31.721  1.00  0.00     0.031 C 
ATOM     38  C   UNL A   1      39.879  28.205  27.890  1.00  0.00     0.029 A 
ATOM     39  N   UNL A   1      41.150  28.216  29.728  1.00  0.00    -0.354 N 
ATOM     40  C   UNL A   1      40.438  30.901  32.982  1.00  0.00     0.074 A 
ATOM     41  C   UNL A   1      39.161  31.566  32.838  1.00  0.00     0.031 C 
ATOM     42  C   UNL A   1      40.750  27.189  27.783  1.00  0.00     0.029 A 
ATOM     43  C   UNL A   1      41.609  27.171  28.962  1.00  0.00     0.049 A 
ATOM     44  H   UNL A   1      41.562  28.480  30.581  1.00  0.00     0.167 HD
ATOM     45  C   UNL A   1      41.263  31.062  34.047  1.00  0.00     0.031 A 
ATOM     46  C   UNL A   1      42.608  26.293  29.179  1.00  0.00     0.031 A 
ATOM     47  C   UNL A   1      42.492  30.343  34.243  1.00  0.00     0.049 A 
ATOM     48  C   UNL A   1      43.469  26.431  30.401  1.00  0.00     0.074 A 
ATOM     49  C   UNL A   1      43.424  30.478  35.257  1.00  0.00     0.029 A 
ATOM     50  N   UNL A   1      42.933  29.308  33.433  1.00  0.00    -0.354 N 
ATOM     51  N   UNL A   1      43.371  27.293  31.383  1.00  0.00    -0.248 NA
ATOM     52  C   UNL A   1      44.593  25.493  30.526  1.00  0.00     0.031 C 
ATOM     53  C   UNL A   1      44.430  29.520  35.062  1.00  0.00     0.029 A 
ATOM     54  C   UNL A   1      44.107  28.778  33.938  1.00  0.00     0.049 A 
ATOM     55  H   UNL A   1      42.477  28.997  32.617  1.00  0.00     0.167 HD
ATOM     56  C   UNL A   1      44.434  27.014  32.234  1.00  0.00     0.074 A 
ATOM     57  C   UNL A   1      45.138  25.879  31.673  1.00  0.00     0.031 C 
ATOM     58  C   UNL A   1      44.805  27.656  33.369  1.00  0.00     0.031 A 
BRANCH  45  59
ATOM     59  C   UNL A   1      40.877  32.109  35.053  1.00  0.00    -0.014 A 
ATOM     60  C   UNL A   1      41.325  33.437  34.945  1.00  0.00     0.010 A 
ATOM     61  C   UNL A   1      40.054  31.747  36.135  1.00  0.00     0.010 A 
ATOM     62  C   UNL A   1      40.996  34.373  35.930  1.00  0.00     0.020 A 
ATOM     63  C   UNL A   1      39.706  32.684  37.110  1.00  0.00     0.020 A 
ATOM     64  C   UNL A   1      40.201  33.986  37.015  1.00  0.00     0.054 A 
BRANCH  64  65
ATOM     65  S   UNL A   1      39.788  35.203  38.297  1.00  0.00     0.124 S 
ATOM     66  O   UNL A   1      38.551  34.652  38.843  1.00  0.00    -0.237 OA
ATOM     67  O   UNL A   1      40.944  35.150  39.188  1.00  0.00    -0.237 OA
ATOM     68  O   UNL A   1      39.641  36.449  37.549  1.00  0.00    -0.744 OA
ENDBRANCH  64  65
ENDBRANCH  45  59
BRANCH  46  69
ATOM     69  C   UNL A   1      42.847  25.193  28.209  1.00  0.00    -0.014 A 
ATOM     70  C   UNL A   1      43.704  25.400  27.114  1.00  0.00     0.010 A 
ATOM     71  C   UNL A   1      42.250  23.934  28.388  1.00  0.00     0.010 A 
ATOM     72  C   UNL A   1      43.961  24.365  26.211  1.00  0.00     0.020 A 
ATOM     73  C   UNL A   1      42.520  22.891  27.499  1.00  0.00     0.020 A 
ATOM     74  C   UNL A   1      43.369  23.115  26.412  1.00  0.00     0.054 A 
BRANCH  74  75
ATOM     75  S   UNL A   1      43.774  21.747  25.290  1.00  0.00     0.124 S 
ATOM     76  O   UNL A   1      43.754  22.407  23.989  1.00  0.00    -0.237 OA
ATOM     77  O   UNL A   1      45.089  21.316  25.760  1.00  0.00    -0.237 OA
ATOM     78  O   UNL A   1      42.694  20.792  25.528  1.00  0.00    -0.744 OA
ENDBRANCH  74  75
ENDBRANCH  46  69
BRANCH  58  79
ATOM     79  C   UNL A   1      46.027  27.142  34.072  1.00  0.00    -0.014 A 
ATOM     80  C   UNL A   1      47.283  27.733  33.844  1.00  0.00     0.010 A 
ATOM     81  C   UNL A   1      45.922  26.069  34.973  1.00  0.00     0.010 A 
ATOM     82  C   UNL A   1      48.423  27.234  34.480  1.00  0.00     0.020 A 
ATOM     83  C   UNL A   1      47.059  25.575  35.620  1.00  0.00     0.020 A 
ATOM     84  C   UNL A   1      48.305  26.150  35.355  1.00  0.00     0.054 A 
BRANCH  84  85
ATOM     85  S   UNL A   1      49.790  25.519  36.184  1.00  0.00     0.124 S 
ATOM     86  O   UNL A   1      50.812  26.460  35.732  1.00  0.00    -0.237 OA
ATOM     87  O   UNL A   1      49.439  25.607  37.599  1.00  0.00    -0.237 OA
ATOM     88  O   UNL A   1      49.920  24.159  35.666  1.00  0.00    -0.744 OA
ENDBRANCH  84  85
ENDBRANCH  58  79
ENDBRANCH  32  33
ENDBRANCH  25  27
ENDBRANCH  24  25
ENDBRANCH  23  24
ENDBRANCH   1  23
TORSDOF 18
ENDMDL
MODEL 2
REMARK VINA RESULT:     -10.1      3.755      9.965
REMARK SMILES Cc1nc(C[NH2+][C@@H](C(=O)OCCOC(=O)c2ccc(-c3c4nc(c(-c5ccc(S(=O)(=O)[O-])cc5)c5ccc([nH]5)c(-c5ccc(S(=O)(=O)[O-])cc5)c5nc(c(-c6ccc(S(=O)(=O)[O-])cc6)c6ccc3[nH]6)C=C5)C=C4)cc2)c2ccccc2)sc1C
REMARK SMILES IDX 11 1 10 2 8 3 9 4 7 5 6 6 5 9 4 10 1 11 2 12 3 13 83 14
REMARK SMILES IDX 82 15 84 16 76 17 77 18 81 19 78 20 80 21 79 22 12 23 13 24
REMARK SMILES IDX 14 25 15 26 16 27 17 28 75 29 18 30 74 31 19 32 20 33 21 34
REMARK SMILES IDX 68 35 22 36 73 37 67 38 69 39 23 40 72 41 66 42 65 43 24 45
REMARK SMILES IDX 54 46 35 47 53 48 36 49 39 50 52 51 70 52 37 53 38 54 51 56
REMARK SMILES IDX 71 57 40 58 25 59 26 60 34 61 27 62 33 63 28 64 29 65 30 66
REMARK SMILES IDX 31 67 32 68 55 69 56 70 64 71 57 72 63 73 58 74 59 75 60 76
REMARK SMILES IDX 61 77 62 78 41 79 42 80 50 81 43 82 49 83 44 84 45 85 46 86
REMARK SMILES IDX 47 87 48 88
REMARK H PARENT 6 7 6 8 69 44 39 55
REMARK Flexibility Score: inf
ROOT
ATOM      1  C   UNL A   1      36.425  21.415  24.645  1.00  0.00     0.274 C 
ENDROOT
BRANCH   1   2
ATOM      2  O   UNL A   1      35.629  21.806  25.783  1.00  0.00    -0.457 OA
BRANCH   2   3
ATOM      3  C   UNL A   1      34.452  21.139  25.977  1.00  0.00     0.369 C 
ATOM      4  O   UNL A   1      33.907  21.031  27.071  1.00  0.00    -0.245 OA
BRANCH   3   5
ATOM      5  C   UNL A   1      33.913  20.489  24.672  1.00  0.00     0.325 C 
BRANCH   5   6
ATOM      6  N   UNL A   1      32.658  21.114  24.198  1.00  0.00    -0.325 N 
ATOM      7  H   UNL A   1      32.011  20.372  23.926  1.00  0.00     0.347 HD
ATOM      8  H   UNL A   1      32.296  21.681  24.965  1.00  0.00     0.347 HD
BRANCH   6   9
ATOM      9  C   UNL A   1      32.848  22.005  23.055  1.00  0.00     0.330 C 
BRANCH   9  10
ATOM     10  C   UNL A   1      32.497  23.423  23.422  1.00  0.00     0.148 A 
ATOM     11  C   UNL A   1      33.592  26.809  23.904  1.00  0.00     0.068 C 
ATOM     12  C   UNL A   1      32.746  25.590  23.816  1.00  0.00     0.052 A 
ATOM     13  N   UNL A   1      33.382  24.389  23.561  1.00  0.00    -0.240 NA
ATOM     14  C   UNL A   1      31.370  25.501  23.947  1.00  0.00     0.025 A 
ATOM     15  S   UNL A   1      30.866  23.883  23.687  1.00  0.00    -0.118 S 
ATOM     16  C   UNL A   1      30.383  26.574  24.239  1.00  0.00     0.058 C 
ENDBRANCH   9  10
ENDBRANCH   6   9
ENDBRANCH   5   6
BRANCH   5  17
ATOM     17  C   UNL A   1      33.773  18.969  24.795  1.00  0.00     0.021 A 
ATOM     18  C   UNL A   1      34.759  18.075  24.339  1.00  0.00     0.010 A 
ATOM     19  C   UNL A   1      32.625  18.426  25.403  1.00  0.00     0.010 A 
ATOM     20  C   UNL A   1      34.603  16.693  24.486  1.00  0.00     0.001 A 
ATOM     21  C   UNL A   1      32.468  17.043  25.544  1.00  0.00     0.001 A 
ATOM     22  C   UNL A   1      33.459  16.177  25.088  1.00  0.00     0.000 A 
ENDBRANCH   5  17
ENDBRANCH   3   5
ENDBRANCH   2   3
ENDBRANCH   1   2
BRANCH   1  23
ATOM     23  C   UNL A   1      37.909  21.511  24.986  1.00  0.00     0.275 C 
BRANCH  23  24
ATOM     24  O   UNL A   1      38.096  22.445  26.064  1.00  0.00    -0.458 OA
BRANCH  24  25
ATOM     25  C   UNL A   1      39.381  22.785  26.310  1.00  0.00     0.338 C 
ATOM     26  O   UNL A   1      40.383  22.145  26.043  1.00  0.00    -0.246 OA
BRANCH  25  27
ATOM     27  C   UNL A   1      39.418  24.137  26.882  1.00  0.00     0.060 A 
ATOM     28  C   UNL A   1      40.074  25.133  26.165  1.00  0.00     0.016 A 
ATOM     29  C   UNL A   1      38.962  24.381  28.177  1.00  0.00     0.016 A 
ATOM     30  C   UNL A   1      40.380  26.339  26.789  1.00  0.00     0.010 A 
ATOM     31  C   UNL A   1      39.204  25.628  28.769  1.00  0.00     0.010 A 
ATOM     32  C   UNL A   1      39.974  26.600  28.106  1.00  0.00    -0.014 A 
BRANCH  32  33
ATOM     33  C   UNL A   1      40.472  27.822  28.809  1.00  0.00     0.031 A 
ATOM     34  C   UNL A   1      41.948  27.984  29.096  1.00  0.00     0.074 A 
ATOM     35  C   UNL A   1      39.644  28.843  29.109  1.00  0.00     0.049 A 
ATOM     36  N   UNL A   1      42.558  28.908  29.796  1.00  0.00    -0.248 NA
ATOM     37  C   UNL A   1      42.855  26.968  28.537  1.00  0.00     0.031 C 
ATOM     38  C   UNL A   1      38.206  28.885  28.836  1.00  0.00     0.029 A 
ATOM     39  N   UNL A   1      39.908  30.073  29.664  1.00  0.00    -0.354 N 
ATOM     40  C   UNL A   1      43.896  28.534  29.839  1.00  0.00     0.074 A 
ATOM     41  C   UNL A   1      44.017  27.313  29.073  1.00  0.00     0.031 C 
ATOM     42  C   UNL A   1      37.739  30.111  29.121  1.00  0.00     0.029 A 
ATOM     43  C   UNL A   1      38.822  30.916  29.677  1.00  0.00     0.049 A 
ATOM     44  H   UNL A   1      40.790  30.326  30.018  1.00  0.00     0.167 HD
ATOM     45  C   UNL A   1      44.933  29.142  30.469  1.00  0.00     0.031 A 
ATOM     46  C   UNL A   1      38.704  32.193  30.090  1.00  0.00     0.031 A 
ATOM     47  C   UNL A   1      44.844  30.399  31.160  1.00  0.00     0.049 A 
ATOM     48  C   UNL A   1      39.880  32.884  30.718  1.00  0.00     0.074 A 
ATOM     49  C   UNL A   1      45.822  31.065  31.879  1.00  0.00     0.029 A 
ATOM     50  N   UNL A   1      43.721  31.210  31.170  1.00  0.00    -0.354 N 
ATOM     51  N   UNL A   1      41.098  32.437  30.897  1.00  0.00    -0.248 NA
ATOM     52  C   UNL A   1      39.652  34.245  31.224  1.00  0.00     0.031 C 
ATOM     53  C   UNL A   1      45.289  32.285  32.321  1.00  0.00     0.029 A 
ATOM     54  C   UNL A   1      43.987  32.381  31.857  1.00  0.00     0.049 A 
ATOM     55  H   UNL A   1      42.858  30.986  30.750  1.00  0.00     0.167 HD
ATOM     56  C   UNL A   1      41.778  33.455  31.555  1.00  0.00     0.074 A 
ATOM     57  C   UNL A   1      40.849  34.555  31.707  1.00  0.00     0.031 C 
ATOM     58  C   UNL A   1      43.055  33.466  32.011  1.00  0.00     0.031 A 
BRANCH  45  59
ATOM     59  C   UNL A   1      46.244  28.407  30.483  1.00  0.00    -0.014 A 
ATOM     60  C   UNL A   1      46.567  27.494  31.502  1.00  0.00     0.010 A 
ATOM     61  C   UNL A   1      47.173  28.648  29.455  1.00  0.00     0.010 A 
ATOM     62  C   UNL A   1      47.819  26.871  31.517  1.00  0.00     0.020 A 
ATOM     63  C   UNL A   1      48.417  28.013  29.457  1.00  0.00     0.020 A 
ATOM     64  C   UNL A   1      48.741  27.147  30.503  1.00  0.00     0.054 A 
BRANCH  64  65
ATOM     65  S   UNL A   1      50.370  26.345  30.536  1.00  0.00     0.124 S 
ATOM     66  O   UNL A   1      50.584  26.164  31.969  1.00  0.00    -0.237 OA
ATOM     67  O   UNL A   1      50.150  25.118  29.776  1.00  0.00    -0.237 OA
ATOM     68  O   UNL A   1      51.244  27.323  29.892  1.00  0.00    -0.744 OA
ENDBRANCH  64  65
ENDBRANCH  45  59
BRANCH  46  69
ATOM     69  C   UNL A   1      37.413  32.907  29.919  1.00  0.00    -0.014 A 
ATOM     70  C   UNL A   1      37.140  33.582  28.717  1.00  0.00     0.010 A 
ATOM     71  C   UNL A   1      36.443  32.893  30.936  1.00  0.00     0.010 A 
ATOM     72  C   UNL A   1      35.917  34.232  28.531  1.00  0.00     0.020 A 
ATOM     73  C   UNL A   1      35.212  33.525  30.747  1.00  0.00     0.020 A 
ATOM     74  C   UNL A   1      34.959  34.197  29.549  1.00  0.00     0.054 A 
BRANCH  74  75
ATOM     75  S   UNL A   1      33.338  34.965  29.272  1.00  0.00     0.124 S 
ATOM     76  O   UNL A   1      33.710  36.282  28.767  1.00  0.00    -0.237 OA
ATOM     77  O   UNL A   1      32.712  34.070  28.302  1.00  0.00    -0.237 OA
ATOM     78  O   UNL A   1      32.732  34.948  30.602  1.00  0.00    -0.744 OA
ENDBRANCH  74  75
ENDBRANCH  46  69
BRANCH  58  79
ATOM     79  C   UNL A   1      43.513  34.708  32.718  1.00  0.00    -0.014 A 
ATOM     80  C   UNL A   1      43.443  34.800  34.119  1.00  0.00     0.010 A 
ATOM     81  C   UNL A   1      44.025  35.789  31.981  1.00  0.00     0.010 A 
ATOM     82  C   UNL A   1      43.844  35.968  34.771  1.00  0.00     0.020 A 
ATOM     83  C   UNL A   1      44.439  36.955  32.631  1.00  0.00     0.020 A 
ATOM     84  C   UNL A   1      44.329  37.044  34.022  1.00  0.00     0.054 A 
BRANCH  84  85
ATOM     85  S   UNL A   1      44.860  38.551  34.880  1.00  0.00     0.124 S 
ATOM     86  O   UNL A   1      44.002  38.544  36.062  1.00  0.00    -0.237 OA
ATOM     87  O   UNL A   1      46.277  38.304  35.133  1.00  0.00    -0.237 OA
ATOM     88  O   UNL A   1      44.583  39.611  33.913  1.00  0.00    -0.744 OA
ENDBRANCH  84  85
ENDBRANCH  58  79
ENDBRANCH  32  33
ENDBRANCH  25  27
ENDBRANCH  24  25
ENDBRANCH  23  24
ENDBRANCH   1  23
TORSDOF 18
ENDMDL
MODEL 3
REMARK VINA RESULT:     -10.1      4.960      7.971
REMARK SMILES Cc1nc(C[NH2+][C@@H](C(=O)OCCOC(=O)c2ccc(-c3c4nc(c(-c5ccc(S(=O)(=O)[O-])cc5)c5ccc([nH]5)c(-c5ccc(S(=O)(=O)[O-])cc5)c5nc(c(-c6ccc(S(=O)(=O)[O-])cc6)c6ccc3[nH]6)C=C5)C=C4)cc2)c2ccccc2)sc1C
REMARK SMILES IDX 11 1 10 2 8 3 9 4 7 5 6 6 5 9 4 10 1 11 2 12 3 13 83 14
REMARK SMILES IDX 82 15 84 16 76 17 77 18 81 19 78 20 80 21 79 22 12 23 13 24
REMARK SMILES IDX 14 25 15 26 16 27 17 28 75 29 18 30 74 31 19 32 20 33 21 34
REMARK SMILES IDX 68 35 22 36 73 37 67 38 69 39 23 40 72 41 66 42 65 43 24 45
REMARK SMILES IDX 54 46 35 47 53 48 36 49 39 50 52 51 70 52 37 53 38 54 51 56
REMARK SMILES IDX 71 57 40 58 25 59 26 60 34 61 27 62 33 63 28 64 29 65 30 66
REMARK SMILES IDX 31 67 32 68 55 69 56 70 64 71 57 72 63 73 58 74 59 75 60 76
REMARK SMILES IDX 61 77 62 78 41 79 42 80 50 81 43 82 49 83 44 84 45 85 46 86
REMARK SMILES IDX 47 87 48 88
REMARK H PARENT 6 7 6 8 69 44 39 55
REMARK Flexibility Score: inf
ROOT
ATOM      1  C   UNL A   1      36.874  22.463  24.108  1.00  0.00     0.274 C 
ENDROOT
BRANCH   1   2
ATOM      2  O   UNL A   1      35.479  22.096  24.124  1.00  0.00    -0.457 OA
BRANCH   2   3
ATOM      3  C   UNL A   1      34.674  22.750  25.014  1.00  0.00     0.369 C 
ATOM      4  O   UNL A   1      35.101  23.475  25.907  1.00  0.00    -0.245 OA
BRANCH   3   5
ATOM      5  C   UNL A   1      33.167  22.429  24.803  1.00  0.00     0.325 C 
BRANCH   5   6
ATOM      6  N   UNL A   1      32.307  23.008  25.858  1.00  0.00    -0.325 N 
ATOM      7  H   UNL A   1      32.062  22.267  26.516  1.00  0.00     0.347 HD
ATOM      8  H   UNL A   1      32.837  23.759  26.301  1.00  0.00     0.347 HD
BRANCH   6   9
ATOM      9  C   UNL A   1      31.072  23.597  25.343  1.00  0.00     0.330 C 
BRANCH   9  10
ATOM     10  C   UNL A   1      31.103  25.097  25.474  1.00  0.00     0.148 A 
ATOM     11  C   UNL A   1      31.611  27.966  27.573  1.00  0.00     0.068 C 
ATOM     12  C   UNL A   1      31.333  27.099  26.399  1.00  0.00     0.052 A 
ATOM     13  N   UNL A   1      31.264  25.735  26.615  1.00  0.00    -0.240 NA
ATOM     14  C   UNL A   1      31.143  27.487  25.083  1.00  0.00     0.025 A 
ATOM     15  S   UNL A   1      30.929  26.103  24.094  1.00  0.00    -0.118 S 
ATOM     16  C   UNL A   1      31.131  28.855  24.499  1.00  0.00     0.058 C 
ENDBRANCH   9  10
ENDBRANCH   6   9
ENDBRANCH   5   6
BRANCH   5  17
ATOM     17  C   UNL A   1      32.913  20.930  24.629  1.00  0.00     0.021 A 
ATOM     18  C   UNL A   1      33.114  19.998  25.665  1.00  0.00     0.010 A 
ATOM     19  C   UNL A   1      32.442  20.445  23.394  1.00  0.00     0.010 A 
ATOM     20  C   UNL A   1      32.853  18.638  25.473  1.00  0.00     0.001 A 
ATOM     21  C   UNL A   1      32.188  19.083  23.201  1.00  0.00     0.001 A 
ATOM     22  C   UNL A   1      32.391  18.181  24.242  1.00  0.00     0.000 A 
ENDBRANCH   5  17
ENDBRANCH   3   5
ENDBRANCH   2   3
ENDBRANCH   1   2
BRANCH   1  23
ATOM     23  C   UNL A   1      37.679  21.498  24.975  1.00  0.00     0.275 C 
BRANCH  23  24
ATOM     24  O   UNL A   1      38.119  22.173  26.165  1.00  0.00    -0.458 OA
BRANCH  24  25
ATOM     25  C   UNL A   1      39.452  22.133  26.386  1.00  0.00     0.338 C 
ATOM     26  O   UNL A   1      40.236  21.265  26.044  1.00  0.00    -0.246 OA
BRANCH  25  27
ATOM     27  C   UNL A   1      39.869  23.381  27.039  1.00  0.00     0.060 A 
ATOM     28  C   UNL A   1      39.405  24.582  26.511  1.00  0.00     0.016 A 
ATOM     29  C   UNL A   1      40.830  23.375  28.049  1.00  0.00     0.016 A 
ATOM     30  C   UNL A   1      39.993  25.779  26.911  1.00  0.00     0.010 A 
ATOM     31  C   UNL A   1      41.358  24.591  28.503  1.00  0.00     0.010 A 
ATOM     32  C   UNL A   1      40.995  25.805  27.893  1.00  0.00    -0.014 A 
BRANCH  32  33
ATOM     33  C   UNL A   1      41.732  27.076  28.168  1.00  0.00     0.031 A 
ATOM     34  C   UNL A   1      41.023  28.235  28.833  1.00  0.00     0.074 A 
ATOM     35  C   UNL A   1      43.054  27.185  27.927  1.00  0.00     0.049 A 
ATOM     36  N   UNL A   1      41.453  29.455  29.046  1.00  0.00    -0.248 NA
ATOM     37  C   UNL A   1      39.650  27.999  29.307  1.00  0.00     0.031 C 
ATOM     38  C   UNL A   1      43.907  26.139  27.358  1.00  0.00     0.029 A 
ATOM     39  N   UNL A   1      43.926  28.215  28.185  1.00  0.00    -0.354 N 
ATOM     40  C   UNL A   1      40.377  30.149  29.588  1.00  0.00     0.074 A 
ATOM     41  C   UNL A   1      39.282  29.210  29.697  1.00  0.00     0.031 C 
ATOM     42  C   UNL A   1      45.187  26.539  27.411  1.00  0.00     0.029 A 
ATOM     43  C   UNL A   1      45.241  27.899  27.936  1.00  0.00     0.049 A 
ATOM     44  H   UNL A   1      43.637  29.096  28.516  1.00  0.00     0.167 HD
ATOM     45  C   UNL A   1      40.299  31.454  29.952  1.00  0.00     0.031 A 
ATOM     46  C   UNL A   1      46.367  28.619  28.109  1.00  0.00     0.031 A 
ATOM     47  C   UNL A   1      41.403  32.374  29.930  1.00  0.00     0.049 A 
ATOM     48  C   UNL A   1      46.277  30.040  28.586  1.00  0.00     0.074 A 
ATOM     49  C   UNL A   1      41.410  33.728  30.221  1.00  0.00     0.029 A 
ATOM     50  N   UNL A   1      42.713  32.021  29.650  1.00  0.00    -0.354 N 
ATOM     51  N   UNL A   1      45.216  30.726  28.933  1.00  0.00    -0.248 NA
ATOM     52  C   UNL A   1      47.538  30.790  28.666  1.00  0.00     0.031 C 
ATOM     53  C   UNL A   1      42.729  34.192  30.122  1.00  0.00     0.029 A 
ATOM     54  C   UNL A   1      43.541  33.120  29.789  1.00  0.00     0.049 A 
ATOM     55  H   UNL A   1      43.011  31.118  29.390  1.00  0.00     0.167 HD
ATOM     56  C   UNL A   1      45.680  31.996  29.253  1.00  0.00     0.074 A 
ATOM     57  C   UNL A   1      47.119  31.973  29.098  1.00  0.00     0.031 C 
ATOM     58  C   UNL A   1      44.970  33.090  29.624  1.00  0.00     0.031 A 
BRANCH  45  59
ATOM     59  C   UNL A   1      38.944  31.969  30.348  1.00  0.00    -0.014 A 
ATOM     60  C   UNL A   1      38.446  31.807  31.653  1.00  0.00     0.010 A 
ATOM     61  C   UNL A   1      38.152  32.619  29.385  1.00  0.00     0.010 A 
ATOM     62  C   UNL A   1      37.157  32.246  31.973  1.00  0.00     0.020 A 
ATOM     63  C   UNL A   1      36.872  33.076  29.706  1.00  0.00     0.020 A 
ATOM     64  C   UNL A   1      36.373  32.863  30.992  1.00  0.00     0.054 A 
BRANCH  64  65
ATOM     65  S   UNL A   1      34.696  33.418  31.411  1.00  0.00     0.124 S 
ATOM     66  O   UNL A   1      34.951  34.742  31.972  1.00  0.00    -0.237 OA
ATOM     67  O   UNL A   1      34.012  33.406  30.120  1.00  0.00    -0.237 OA
ATOM     68  O   UNL A   1      34.233  32.413  32.365  1.00  0.00    -0.744 OA
ENDBRANCH  64  65
ENDBRANCH  45  59
BRANCH  46  69
ATOM     69  C   UNL A   1      47.688  28.000  27.829  1.00  0.00    -0.014 A 
ATOM     70  C   UNL A   1      48.314  28.217  26.589  1.00  0.00     0.010 A 
ATOM     71  C   UNL A   1      48.338  27.222  28.801  1.00  0.00     0.010 A 
ATOM     72  C   UNL A   1      49.570  27.666  26.324  1.00  0.00     0.020 A 
ATOM     73  C   UNL A   1      49.603  26.686  28.548  1.00  0.00     0.020 A 
ATOM     74  C   UNL A   1      50.208  26.905  27.308  1.00  0.00     0.054 A 
BRANCH  74  75
ATOM     75  S   UNL A   1      51.878  26.265  26.996  1.00  0.00     0.124 S 
ATOM     76  O   UNL A   1      51.616  24.852  26.741  1.00  0.00    -0.237 OA
ATOM     77  O   UNL A   1      52.317  27.044  25.841  1.00  0.00    -0.237 OA
ATOM     78  O   UNL A   1      52.584  26.561  28.240  1.00  0.00    -0.744 OA
ENDBRANCH  74  75
ENDBRANCH  46  69
BRANCH  58  79
ATOM     79  C   UNL A   1      45.747  34.349  29.883  1.00  0.00    -0.014 A 
ATOM     80  C   UNL A   1      46.237  34.634  31.170  1.00  0.00     0.010 A 
ATOM     81  C   UNL A   1      45.996  35.250  28.834  1.00  0.00     0.010 A 
ATOM     82  C   UNL A   1      46.934  35.819  31.412  1.00  0.00     0.020 A 
ATOM     83  C   UNL A   1      46.705  36.431  29.070  1.00  0.00     0.020 A 
ATOM     84  C   UNL A   1      47.154  36.717  30.363  1.00  0.00     0.054 A 
BRANCH  84  85
ATOM     85  S   UNL A   1      48.073  38.247  30.687  1.00  0.00     0.124 S 
ATOM     86  O   UNL A   1      49.083  38.222  29.633  1.00  0.00    -0.237 OA
ATOM     87  O   UNL A   1      47.049  39.280  30.551  1.00  0.00    -0.237 OA
ATOM     88  O   UNL A   1      48.581  38.060  32.044  1.00  0.00    -0.744 OA
ENDBRANCH  84  85
ENDBRANCH  58  79
ENDBRANCH  32  33
ENDBRANCH  25  27
ENDBRANCH  24  25
ENDBRANCH  23  24
ENDBRANCH   1  23
TORSDOF 18
ENDMDL
