MODEL 1
REMARK VINA RESULT:     -10.0      0.000      0.000
REMARK SMILES Cc1cc(C)c2c(c1)C=C(C(=O)OCCOC(=O)c1ccc(-c3c4nc(c(-c5ccc(S(=O)(=O)[O-])cc5)c5ccc([nH]5)c(-c5ccc(S(=O)(=O)[O-])cc5)c5nc(c(-c6ccc(S(=O)(=O)[O-])cc6)c6ccc3[nH]6)C=C5)C=C4)cc1)[C@@H](C(F)(F)F)O2
REMARK SMILES IDX 15 1 14 2 13 3 11 4 12 5 10 6 1 7 2 8 3 9 8 10 4 11 7 12
REMARK SMILES IDX 5 13 6 14 9 15 84 16 79 17 80 18 81 19 82 20 83 21 16 22
REMARK SMILES IDX 17 23 18 24 19 25 20 26 78 27 21 28 77 29 22 30 23 31 24 32
REMARK SMILES IDX 71 33 25 34 76 35 70 36 72 37 26 38 75 39 69 40 68 41 27 43
REMARK SMILES IDX 57 44 38 45 56 46 39 47 42 48 55 49 73 50 40 51 41 52 54 54
REMARK SMILES IDX 74 55 43 56 28 57 29 58 37 59 30 60 36 61 31 62 32 63 33 64
REMARK SMILES IDX 34 65 35 66 58 67 59 68 67 69 60 70 66 71 61 72 62 73 63 74
REMARK SMILES IDX 64 75 65 76 44 77 45 78 53 79 46 80 52 81 47 82 48 83 49 84
REMARK SMILES IDX 50 85 51 86
REMARK H PARENT 72 42 42 53
REMARK Flexibility Score: inf
ROOT
ATOM      1  C   UNL A   1      33.595  33.528  28.030  1.00  0.00     0.275 C 
ENDROOT
BRANCH   1   2
ATOM      2  C   UNL A   1      34.338  34.714  28.645  1.00  0.00     0.275 C 
BRANCH   2   3
ATOM      3  O   UNL A   1      34.189  34.744  30.082  1.00  0.00    -0.459 OA
BRANCH   3   4
ATOM      4  C   UNL A   1      34.743  33.700  30.741  1.00  0.00     0.338 C 
ATOM      5  O   UNL A   1      34.345  32.546  30.736  1.00  0.00    -0.246 OA
BRANCH   4   6
ATOM      6  C   UNL A   1      35.945  34.126  31.480  1.00  0.00     0.087 C 
ATOM      7  C   UNL A   1      42.073  33.809  31.135  1.00  0.00     0.044 C 
ATOM      8  C   UNL A   1      40.755  34.122  31.778  1.00  0.00    -0.050 A 
ATOM      9  C   UNL A   1      40.668  34.565  33.102  1.00  0.00     0.010 A 
ATOM     10  C   UNL A   1      39.578  33.968  31.043  1.00  0.00     0.015 A 
ATOM     11  C   UNL A   1      39.422  34.846  33.696  1.00  0.00    -0.008 A 
ATOM     12  C   UNL A   1      38.334  34.224  31.631  1.00  0.00     0.018 A 
ATOM     13  C   UNL A   1      39.360  35.303  35.123  1.00  0.00     0.048 C 
ATOM     14  C   UNL A   1      38.249  34.669  32.949  1.00  0.00     0.130 A 
ATOM     15  C   UNL A   1      37.127  33.974  30.875  1.00  0.00     0.027 C 
ATOM     16  O   UNL A   1      37.055  34.962  33.556  1.00  0.00    -0.475 OA
ATOM     17  C   UNL A   1      35.815  34.553  32.911  1.00  0.00     0.316 C 
BRANCH  17  18
ATOM     18  C   UNL A   1      35.149  33.460  33.761  1.00  0.00     0.430 C 
ATOM     19  F   UNL A   1      35.592  32.227  33.413  1.00  0.00    -0.167 F 
ATOM     20  F   UNL A   1      35.435  33.609  35.077  1.00  0.00    -0.167 F 
ATOM     21  F   UNL A   1      33.803  33.456  33.637  1.00  0.00    -0.167 F 
ENDBRANCH  17  18
ENDBRANCH   4   6
ENDBRANCH   3   4
ENDBRANCH   2   3
ENDBRANCH   1   2
BRANCH   1  22
ATOM     22  O   UNL A   1      34.492  32.717  27.251  1.00  0.00    -0.458 OA
BRANCH  22  23
ATOM     23  C   UNL A   1      34.395  31.384  27.459  1.00  0.00     0.338 C 
ATOM     24  O   UNL A   1      33.466  30.653  27.161  1.00  0.00    -0.246 OA
BRANCH  23  25
ATOM     25  C   UNL A   1      35.645  30.881  28.047  1.00  0.00     0.060 A 
ATOM     26  C   UNL A   1      35.606  29.684  28.748  1.00  0.00     0.016 A 
ATOM     27  C   UNL A   1      36.805  31.653  28.052  1.00  0.00     0.016 A 
ATOM     28  C   UNL A   1      36.655  29.329  29.584  1.00  0.00     0.010 A 
ATOM     29  C   UNL A   1      37.927  31.201  28.762  1.00  0.00     0.010 A 
ATOM     30  C   UNL A   1      37.856  30.054  29.573  1.00  0.00    -0.014 A 
BRANCH  30  31
ATOM     31  C   UNL A   1      39.009  29.581  30.397  1.00  0.00     0.031 A 
ATOM     32  C   UNL A   1      40.034  28.630  29.828  1.00  0.00     0.074 A 
ATOM     33  C   UNL A   1      39.160  30.045  31.658  1.00  0.00     0.049 A 
ATOM     34  N   UNL A   1      41.048  28.058  30.428  1.00  0.00    -0.248 NA
ATOM     35  C   UNL A   1      39.902  28.261  28.408  1.00  0.00     0.031 C 
ATOM     36  C   UNL A   1      38.261  30.993  32.327  1.00  0.00     0.029 A 
ATOM     37  N   UNL A   1      40.139  29.817  32.596  1.00  0.00    -0.354 N 
ATOM     38  C   UNL A   1      41.641  27.231  29.480  1.00  0.00     0.074 A 
ATOM     39  C   UNL A   1      40.864  27.360  28.267  1.00  0.00     0.031 C 
ATOM     40  C   UNL A   1      38.776  31.334  33.515  1.00  0.00     0.029 A 
ATOM     41  C   UNL A   1      39.977  30.546  33.753  1.00  0.00     0.049 A 
ATOM     42  H   UNL A   1      40.884  29.190  32.454  1.00  0.00     0.167 HD
ATOM     43  C   UNL A   1      42.736  26.443  29.605  1.00  0.00     0.031 A 
ATOM     44  C   UNL A   1      40.687  30.563  34.899  1.00  0.00     0.031 A 
ATOM     45  C   UNL A   1      43.526  26.348  30.806  1.00  0.00     0.049 A 
ATOM     46  C   UNL A   1      41.867  29.645  35.030  1.00  0.00     0.074 A 
ATOM     47  C   UNL A   1      44.652  25.577  31.033  1.00  0.00     0.029 A 
ATOM     48  N   UNL A   1      43.284  27.058  31.973  1.00  0.00    -0.354 N 
ATOM     49  N   UNL A   1      42.378  28.836  34.134  1.00  0.00    -0.248 NA
ATOM     50  C   UNL A   1      42.552  29.622  36.329  1.00  0.00     0.031 C 
ATOM     51  C   UNL A   1      45.064  25.784  32.353  1.00  0.00     0.029 A 
ATOM     52  C   UNL A   1      44.232  26.731  32.927  1.00  0.00     0.049 A 
ATOM     53  H   UNL A   1      42.548  27.698  32.103  1.00  0.00     0.167 HD
ATOM     54  C   UNL A   1      43.456  28.219  34.755  1.00  0.00     0.074 A 
ATOM     55  C   UNL A   1      43.533  28.758  36.098  1.00  0.00     0.031 C 
ATOM     56  C   UNL A   1      44.303  27.287  34.255  1.00  0.00     0.031 A 
BRANCH  43  57
ATOM     57  C   UNL A   1      43.141  25.597  28.425  1.00  0.00    -0.014 A 
ATOM     58  C   UNL A   1      44.078  26.057  27.482  1.00  0.00     0.010 A 
ATOM     59  C   UNL A   1      42.630  24.291  28.297  1.00  0.00     0.010 A 
ATOM     60  C   UNL A   1      44.471  25.241  26.418  1.00  0.00     0.020 A 
ATOM     61  C   UNL A   1      43.042  23.461  27.249  1.00  0.00     0.020 A 
ATOM     62  C   UNL A   1      43.951  23.947  26.308  1.00  0.00     0.054 A 
BRANCH  62  63
ATOM     63  S   UNL A   1      44.506  22.901  24.933  1.00  0.00     0.124 S 
ATOM     64  O   UNL A   1      45.112  21.774  25.638  1.00  0.00    -0.237 OA
ATOM     65  O   UNL A   1      43.260  22.607  24.232  1.00  0.00    -0.237 OA
ATOM     66  O   UNL A   1      45.444  23.753  24.204  1.00  0.00    -0.744 OA
ENDBRANCH  62  63
ENDBRANCH  43  57
BRANCH  44  67
ATOM     67  C   UNL A   1      40.277  31.463  36.014  1.00  0.00    -0.014 A 
ATOM     68  C   UNL A   1      38.973  31.408  36.534  1.00  0.00     0.010 A 
ATOM     69  C   UNL A   1      41.206  32.350  36.593  1.00  0.00     0.010 A 
ATOM     70  C   UNL A   1      38.604  32.224  37.610  1.00  0.00     0.020 A 
ATOM     71  C   UNL A   1      40.850  33.141  37.689  1.00  0.00     0.020 A 
ATOM     72  C   UNL A   1      39.548  33.079  38.185  1.00  0.00     0.054 A 
BRANCH  72  73
ATOM     73  S   UNL A   1      39.062  34.081  39.618  1.00  0.00     0.124 S 
ATOM     74  O   UNL A   1      38.927  35.409  39.029  1.00  0.00    -0.237 OA
ATOM     75  O   UNL A   1      37.817  33.443  40.039  1.00  0.00    -0.237 OA
ATOM     76  O   UNL A   1      40.181  33.919  40.544  1.00  0.00    -0.744 OA
ENDBRANCH  72  73
ENDBRANCH  44  67
BRANCH  56  77
ATOM     77  C   UNL A   1      45.416  26.805  35.142  1.00  0.00    -0.014 A 
ATOM     78  C   UNL A   1      46.628  27.510  35.231  1.00  0.00     0.010 A 
ATOM     79  C   UNL A   1      45.197  25.698  35.983  1.00  0.00     0.010 A 
ATOM     80  C   UNL A   1      47.603  27.116  36.151  1.00  0.00     0.020 A 
ATOM     81  C   UNL A   1      46.160  25.317  36.919  1.00  0.00     0.020 A 
ATOM     82  C   UNL A   1      47.358  26.029  36.997  1.00  0.00     0.054 A 
BRANCH  82  83
ATOM     83  S   UNL A   1      48.601  25.603  38.246  1.00  0.00     0.124 S 
ATOM     84  O   UNL A   1      49.815  25.487  37.443  1.00  0.00    -0.237 OA
ATOM     85  O   UNL A   1      48.552  26.753  39.148  1.00  0.00    -0.237 OA
ATOM     86  O   UNL A   1      48.109  24.351  38.815  1.00  0.00    -0.744 OA
ENDBRANCH  82  83
ENDBRANCH  56  77
ENDBRANCH  30  31
ENDBRANCH  23  25
ENDBRANCH  22  23
ENDBRANCH   1  22
TORSDOF 15
ENDMDL
MODEL 2
REMARK VINA RESULT:     -10.0      0.383      8.321
REMARK SMILES Cc1cc(C)c2c(c1)C=C(C(=O)OCCOC(=O)c1ccc(-c3c4nc(c(-c5ccc(S(=O)(=O)[O-])cc5)c5ccc([nH]5)c(-c5ccc(S(=O)(=O)[O-])cc5)c5nc(c(-c6ccc(S(=O)(=O)[O-])cc6)c6ccc3[nH]6)C=C5)C=C4)cc1)[C@@H](C(F)(F)F)O2
REMARK SMILES IDX 15 1 14 2 13 3 11 4 12 5 10 6 1 7 2 8 3 9 8 10 4 11 7 12
REMARK SMILES IDX 5 13 6 14 9 15 84 16 79 17 80 18 81 19 82 20 83 21 16 22
REMARK SMILES IDX 17 23 18 24 19 25 20 26 78 27 21 28 77 29 22 30 23 31 24 32
REMARK SMILES IDX 71 33 25 34 76 35 70 36 72 37 26 38 75 39 69 40 68 41 27 43
REMARK SMILES IDX 57 44 38 45 56 46 39 47 42 48 55 49 73 50 40 51 41 52 54 54
REMARK SMILES IDX 74 55 43 56 28 57 29 58 37 59 30 60 36 61 31 62 32 63 33 64
REMARK SMILES IDX 34 65 35 66 58 67 59 68 67 69 60 70 66 71 61 72 62 73 63 74
REMARK SMILES IDX 64 75 65 76 44 77 45 78 53 79 46 80 52 81 47 82 48 83 49 84
REMARK SMILES IDX 50 85 51 86
REMARK H PARENT 72 42 42 53
REMARK Flexibility Score: inf
ROOT
ATOM      1  C   UNL A   1      33.583  33.585  28.022  1.00  0.00     0.275 C 
ENDROOT
BRANCH   1   2
ATOM      2  C   UNL A   1      34.340  34.730  28.694  1.00  0.00     0.275 C 
BRANCH   2   3
ATOM      3  O   UNL A   1      34.139  34.730  30.125  1.00  0.00    -0.459 OA
BRANCH   3   4
ATOM      4  C   UNL A   1      34.682  33.679  30.783  1.00  0.00     0.338 C 
ATOM      5  O   UNL A   1      34.265  32.532  30.785  1.00  0.00    -0.246 OA
BRANCH   4   6
ATOM      6  C   UNL A   1      35.897  34.088  31.509  1.00  0.00     0.087 C 
ATOM      7  C   UNL A   1      42.011  33.559  31.184  1.00  0.00     0.044 C 
ATOM      8  C   UNL A   1      40.704  33.935  31.815  1.00  0.00    -0.050 A 
ATOM      9  C   UNL A   1      40.631  34.422  33.125  1.00  0.00     0.010 A 
ATOM     10  C   UNL A   1      39.523  33.797  31.084  1.00  0.00     0.015 A 
ATOM     11  C   UNL A   1      39.395  34.761  33.707  1.00  0.00    -0.008 A 
ATOM     12  C   UNL A   1      38.288  34.112  31.661  1.00  0.00     0.018 A 
ATOM     13  C   UNL A   1      39.347  35.265  35.120  1.00  0.00     0.048 C 
ATOM     14  C   UNL A   1      38.217  34.600  32.965  1.00  0.00     0.130 A 
ATOM     15  C   UNL A   1      37.074  33.879  30.911  1.00  0.00     0.027 C 
ATOM     16  O   UNL A   1      37.033  34.951  33.561  1.00  0.00    -0.475 OA
ATOM     17  C   UNL A   1      35.781  34.564  32.926  1.00  0.00     0.316 C 
BRANCH  17  18
ATOM     18  C   UNL A   1      35.079  33.520  33.809  1.00  0.00     0.430 C 
ATOM     19  F   UNL A   1      33.741  33.506  33.587  1.00  0.00    -0.167 F 
ATOM     20  F   UNL A   1      35.520  32.266  33.544  1.00  0.00    -0.167 F 
ATOM     21  F   UNL A   1      35.268  33.745  35.128  1.00  0.00    -0.167 F 
ENDBRANCH  17  18
ENDBRANCH   4   6
ENDBRANCH   3   4
ENDBRANCH   2   3
ENDBRANCH   1   2
BRANCH   1  22
ATOM     22  O   UNL A   1      34.483  32.754  27.268  1.00  0.00    -0.458 OA
BRANCH  22  23
ATOM     23  C   UNL A   1      34.378  31.427  27.502  1.00  0.00     0.338 C 
ATOM     24  O   UNL A   1      33.431  30.703  27.247  1.00  0.00    -0.246 OA
BRANCH  23  25
ATOM     25  C   UNL A   1      35.641  30.919  28.057  1.00  0.00     0.060 A 
ATOM     26  C   UNL A   1      35.622  29.701  28.723  1.00  0.00     0.016 A 
ATOM     27  C   UNL A   1      36.793  31.700  28.069  1.00  0.00     0.016 A 
ATOM     28  C   UNL A   1      36.686  29.331  29.534  1.00  0.00     0.010 A 
ATOM     29  C   UNL A   1      37.929  31.239  28.751  1.00  0.00     0.010 A 
ATOM     30  C   UNL A   1      37.880  30.067  29.527  1.00  0.00    -0.014 A 
BRANCH  30  31
ATOM     31  C   UNL A   1      39.049  29.581  30.321  1.00  0.00     0.031 A 
ATOM     32  C   UNL A   1      39.248  30.011  31.755  1.00  0.00     0.074 A 
ATOM     33  C   UNL A   1      39.918  28.710  29.762  1.00  0.00     0.049 A 
ATOM     34  N   UNL A   1      40.247  29.751  32.560  1.00  0.00    -0.248 NA
ATOM     35  C   UNL A   1      38.201  30.850  32.363  1.00  0.00     0.031 C 
ATOM     36  C   UNL A   1      39.830  28.185  28.394  1.00  0.00     0.029 A 
ATOM     37  N   UNL A   1      41.026  28.080  30.275  1.00  0.00    -0.354 N 
ATOM     38  C   UNL A   1      39.975  30.429  33.744  1.00  0.00     0.074 A 
ATOM     39  C   UNL A   1      38.725  31.129  33.549  1.00  0.00     0.031 C 
ATOM     40  C   UNL A   1      40.774  27.253  28.212  1.00  0.00     0.029 A 
ATOM     41  C   UNL A   1      41.613  27.192  29.401  1.00  0.00     0.049 A 
ATOM     42  H   UNL A   1      41.369  28.249  31.182  1.00  0.00     0.167 HD
ATOM     43  C   UNL A   1      40.697  30.459  34.890  1.00  0.00     0.031 A 
ATOM     44  C   UNL A   1      42.720  26.432  29.516  1.00  0.00     0.031 A 
ATOM     45  C   UNL A   1      41.922  29.729  35.090  1.00  0.00     0.049 A 
ATOM     46  C   UNL A   1      43.528  26.521  30.778  1.00  0.00     0.074 A 
ATOM     47  C   UNL A   1      42.727  29.696  36.215  1.00  0.00     0.029 A 
ATOM     48  N   UNL A   1      42.510  28.893  34.152  1.00  0.00    -0.354 N 
ATOM     49  N   UNL A   1      43.274  27.208  31.865  1.00  0.00    -0.248 NA
ATOM     50  C   UNL A   1      44.779  25.754  30.823  1.00  0.00     0.031 C 
ATOM     51  C   UNL A   1      43.827  28.877  35.940  1.00  0.00     0.029 A 
ATOM     52  C   UNL A   1      43.674  28.351  34.668  1.00  0.00     0.049 A 
ATOM     53  H   UNL A   1      42.152  28.713  33.253  1.00  0.00     0.167 HD
ATOM     54  C   UNL A   1      44.326  26.944  32.732  1.00  0.00     0.074 A 
ATOM     55  C   UNL A   1      45.212  26.023  32.049  1.00  0.00     0.031 C 
ATOM     56  C   UNL A   1      44.538  27.425  33.980  1.00  0.00     0.031 A 
BRANCH  43  57
ATOM     57  C   UNL A   1      40.199  31.325  36.020  1.00  0.00    -0.014 A 
ATOM     58  C   UNL A   1      38.885  31.210  36.506  1.00  0.00     0.010 A 
ATOM     59  C   UNL A   1      41.084  32.219  36.654  1.00  0.00     0.010 A 
ATOM     60  C   UNL A   1      38.456  31.994  37.581  1.00  0.00     0.020 A 
ATOM     61  C   UNL A   1      40.667  32.983  37.748  1.00  0.00     0.020 A 
ATOM     62  C   UNL A   1      39.350  32.875  38.196  1.00  0.00     0.054 A 
BRANCH  62  63
ATOM     63  S   UNL A   1      38.772  33.854  39.610  1.00  0.00     0.124 S 
ATOM     64  O   UNL A   1      37.399  33.379  39.764  1.00  0.00    -0.237 OA
ATOM     65  O   UNL A   1      39.695  33.461  40.670  1.00  0.00    -0.237 OA
ATOM     66  O   UNL A   1      38.902  35.236  39.154  1.00  0.00    -0.744 OA
ENDBRANCH  62  63
ENDBRANCH  43  57
BRANCH  44  67
ATOM     67  C   UNL A   1      43.135  25.548  28.391  1.00  0.00    -0.014 A 
ATOM     68  C   UNL A   1      43.850  26.069  27.299  1.00  0.00     0.010 A 
ATOM     69  C   UNL A   1      42.856  24.168  28.427  1.00  0.00     0.010 A 
ATOM     70  C   UNL A   1      44.276  25.228  26.264  1.00  0.00     0.020 A 
ATOM     71  C   UNL A   1      43.309  23.319  27.413  1.00  0.00     0.020 A 
ATOM     72  C   UNL A   1      44.009  23.857  26.333  1.00  0.00     0.054 A 
BRANCH  72  73
ATOM     73  S   UNL A   1      44.626  22.779  25.010  1.00  0.00     0.124 S 
ATOM     74  O   UNL A   1      43.387  22.295  24.410  1.00  0.00    -0.237 OA
ATOM     75  O   UNL A   1      45.409  23.702  24.192  1.00  0.00    -0.237 OA
ATOM     76  O   UNL A   1      45.409  21.774  25.725  1.00  0.00    -0.744 OA
ENDBRANCH  72  73
ENDBRANCH  44  67
BRANCH  56  77
ATOM     77  C   UNL A   1      45.757  26.946  34.718  1.00  0.00    -0.014 A 
ATOM     78  C   UNL A   1      46.953  27.681  34.696  1.00  0.00     0.010 A 
ATOM     79  C   UNL A   1      45.661  25.804  35.536  1.00  0.00     0.010 A 
ATOM     80  C   UNL A   1      48.036  27.285  35.486  1.00  0.00     0.020 A 
ATOM     81  C   UNL A   1      46.733  25.420  36.344  1.00  0.00     0.020 A 
ATOM     82  C   UNL A   1      47.915  26.163  36.313  1.00  0.00     0.054 A 
BRANCH  82  83
ATOM     83  S   UNL A   1      49.301  25.731  37.398  1.00  0.00     0.124 S 
ATOM     84  O   UNL A   1      49.073  24.309  37.635  1.00  0.00    -0.237 OA
ATOM     85  O   UNL A   1      50.463  26.052  36.572  1.00  0.00    -0.237 OA
ATOM     86  O   UNL A   1      49.113  26.594  38.563  1.00  0.00    -0.744 OA
ENDBRANCH  82  83
ENDBRANCH  56  77
ENDBRANCH  30  31
ENDBRANCH  23  25
ENDBRANCH  22  23
ENDBRANCH   1  22
TORSDOF 15
ENDMDL
MODEL 3
REMARK VINA RESULT:      -9.6      5.170     10.777
REMARK SMILES Cc1cc(C)c2c(c1)C=C(C(=O)OCCOC(=O)c1ccc(-c3c4nc(c(-c5ccc(S(=O)(=O)[O-])cc5)c5ccc([nH]5)c(-c5ccc(S(=O)(=O)[O-])cc5)c5nc(c(-c6ccc(S(=O)(=O)[O-])cc6)c6ccc3[nH]6)C=C5)C=C4)cc1)[C@@H](C(F)(F)F)O2
REMARK SMILES IDX 15 1 14 2 13 3 11 4 12 5 10 6 1 7 2 8 3 9 8 10 4 11 7 12
REMARK SMILES IDX 5 13 6 14 9 15 84 16 79 17 80 18 81 19 82 20 83 21 16 22
REMARK SMILES IDX 17 23 18 24 19 25 20 26 78 27 21 28 77 29 22 30 23 31 24 32
REMARK SMILES IDX 71 33 25 34 76 35 70 36 72 37 26 38 75 39 69 40 68 41 27 43
REMARK SMILES IDX 57 44 38 45 56 46 39 47 42 48 55 49 73 50 40 51 41 52 54 54
REMARK SMILES IDX 74 55 43 56 28 57 29 58 37 59 30 60 36 61 31 62 32 63 33 64
REMARK SMILES IDX 34 65 35 66 58 67 59 68 67 69 60 70 66 71 61 72 62 73 63 74
REMARK SMILES IDX 64 75 65 76 44 77 45 78 53 79 46 80 52 81 47 82 48 83 49 84
REMARK SMILES IDX 50 85 51 86
REMARK H PARENT 72 42 42 53
REMARK Flexibility Score: inf
ROOT
ATOM      1  C   UNL A   1      32.744  28.102  27.123  1.00  0.00     0.275 C 
ENDROOT
BRANCH   1   2
ATOM      2  C   UNL A   1      31.777  28.073  25.940  1.00  0.00     0.275 C 
BRANCH   2   3
ATOM      3  O   UNL A   1      31.802  26.795  25.266  1.00  0.00    -0.459 OA
BRANCH   3   4
ATOM      4  C   UNL A   1      32.894  26.568  24.500  1.00  0.00     0.338 C 
ATOM      5  O   UNL A   1      33.375  27.334  23.680  1.00  0.00    -0.246 OA
BRANCH   4   6
ATOM      6  C   UNL A   1      33.475  25.246  24.795  1.00  0.00     0.087 C 
ATOM      7  C   UNL A   1      38.865  22.652  26.204  1.00  0.00     0.044 C 
ATOM      8  C   UNL A   1      37.413  22.669  25.830  1.00  0.00    -0.050 A 
ATOM      9  C   UNL A   1      36.713  21.493  25.537  1.00  0.00     0.010 A 
ATOM     10  C   UNL A   1      36.733  23.887  25.768  1.00  0.00     0.015 A 
ATOM     11  C   UNL A   1      35.352  21.525  25.179  1.00  0.00    -0.008 A 
ATOM     12  C   UNL A   1      35.386  23.931  25.391  1.00  0.00     0.018 A 
ATOM     13  C   UNL A   1      34.633  20.249  24.854  1.00  0.00     0.048 C 
ATOM     14  C   UNL A   1      34.690  22.759  25.104  1.00  0.00     0.130 A 
ATOM     15  C   UNL A   1      34.730  25.212  25.252  1.00  0.00     0.027 C 
ATOM     16  O   UNL A   1      33.363  22.750  24.761  1.00  0.00    -0.475 OA
ATOM     17  C   UNL A   1      32.712  24.010  24.427  1.00  0.00     0.316 C 
BRANCH  17  18
ATOM     18  C   UNL A   1      32.351  24.001  22.933  1.00  0.00     0.430 C 
ATOM     19  F   UNL A   1      33.305  24.616  22.192  1.00  0.00    -0.167 F 
ATOM     20  F   UNL A   1      32.252  22.738  22.452  1.00  0.00    -0.167 F 
ATOM     21  F   UNL A   1      31.177  24.623  22.680  1.00  0.00    -0.167 F 
ENDBRANCH  17  18
ENDBRANCH   4   6
ENDBRANCH   3   4
ENDBRANCH   2   3
ENDBRANCH   1   2
BRANCH   1  22
ATOM     22  O   UNL A   1      33.952  28.800  26.774  1.00  0.00    -0.458 OA
BRANCH  22  23
ATOM     23  C   UNL A   1      34.234  29.883  27.533  1.00  0.00     0.338 C 
ATOM     24  O   UNL A   1      33.469  30.771  27.869  1.00  0.00    -0.246 OA
BRANCH  23  25
ATOM     25  C   UNL A   1      35.628  29.817  27.995  1.00  0.00     0.060 A 
ATOM     26  C   UNL A   1      36.637  30.064  27.075  1.00  0.00     0.016 A 
ATOM     27  C   UNL A   1      35.947  29.358  29.271  1.00  0.00     0.016 A 
ATOM     28  C   UNL A   1      37.947  29.705  27.360  1.00  0.00     0.010 A 
ATOM     29  C   UNL A   1      37.293  29.159  29.612  1.00  0.00     0.010 A 
ATOM     30  C   UNL A   1      38.310  29.290  28.650  1.00  0.00    -0.014 A 
BRANCH  30  31
ATOM     31  C   UNL A   1      39.747  29.021  28.959  1.00  0.00     0.031 A 
ATOM     32  C   UNL A   1      40.588  30.038  29.692  1.00  0.00     0.074 A 
ATOM     33  C   UNL A   1      40.290  27.832  28.616  1.00  0.00     0.049 A 
ATOM     34  N   UNL A   1      41.868  30.000  29.967  1.00  0.00    -0.248 NA
ATOM     35  C   UNL A   1      39.917  31.260  30.166  1.00  0.00     0.031 C 
ATOM     36  C   UNL A   1      39.584  26.742  27.931  1.00  0.00     0.029 A 
ATOM     37  N   UNL A   1      41.547  27.316  28.823  1.00  0.00    -0.354 N 
ATOM     38  C   UNL A   1      42.162  31.204  30.600  1.00  0.00     0.074 A 
ATOM     39  C   UNL A   1      40.931  31.962  30.652  1.00  0.00     0.031 C 
ATOM     40  C   UNL A   1      40.380  25.668  27.861  1.00  0.00     0.029 A 
ATOM     41  C   UNL A   1      41.692  26.018  28.385  1.00  0.00     0.049 A 
ATOM     42  H   UNL A   1      42.276  27.827  29.243  1.00  0.00     0.167 HD
ATOM     43  C   UNL A   1      43.345  31.636  31.098  1.00  0.00     0.031 A 
ATOM     44  C   UNL A   1      42.763  25.201  28.370  1.00  0.00     0.031 A 
ATOM     45  C   UNL A   1      44.559  30.861  31.075  1.00  0.00     0.049 A 
ATOM     46  C   UNL A   1      44.075  25.720  28.883  1.00  0.00     0.074 A 
ATOM     47  C   UNL A   1      45.810  31.210  31.553  1.00  0.00     0.029 A 
ATOM     48  N   UNL A   1      44.670  29.575  30.564  1.00  0.00    -0.354 N 
ATOM     49  N   UNL A   1      44.337  26.882  29.432  1.00  0.00    -0.248 NA
ATOM     50  C   UNL A   1      45.238  24.833  28.756  1.00  0.00     0.031 C 
ATOM     51  C   UNL A   1      46.689  30.156  31.288  1.00  0.00     0.029 A 
ATOM     52  C   UNL A   1      45.972  29.125  30.702  1.00  0.00     0.049 A 
ATOM     53  H   UNL A   1      43.934  29.061  30.162  1.00  0.00     0.167 HD
ATOM     54  C   UNL A   1      45.692  26.859  29.731  1.00  0.00     0.074 A 
ATOM     55  C   UNL A   1      46.194  25.565  29.316  1.00  0.00     0.031 C 
ATOM     56  C   UNL A   1      46.452  27.828  30.296  1.00  0.00     0.031 A 
BRANCH  43  57
ATOM     57  C   UNL A   1      43.403  33.020  31.693  1.00  0.00    -0.014 A 
ATOM     58  C   UNL A   1      43.252  33.229  33.075  1.00  0.00     0.010 A 
ATOM     59  C   UNL A   1      43.686  34.123  30.864  1.00  0.00     0.010 A 
ATOM     60  C   UNL A   1      43.350  34.516  33.612  1.00  0.00     0.020 A 
ATOM     61  C   UNL A   1      43.813  35.408  31.401  1.00  0.00     0.020 A 
ATOM     62  C   UNL A   1      43.631  35.598  32.772  1.00  0.00     0.054 A 
BRANCH  62  63
ATOM     63  S   UNL A   1      43.784  37.250  33.504  1.00  0.00     0.124 S 
ATOM     64  O   UNL A   1      45.059  37.151  34.209  1.00  0.00    -0.237 OA
ATOM     65  O   UNL A   1      43.780  38.121  32.332  1.00  0.00    -0.237 OA
ATOM     66  O   UNL A   1      42.607  37.361  34.364  1.00  0.00    -0.744 OA
ENDBRANCH  62  63
ENDBRANCH  43  57
BRANCH  44  67
ATOM     67  C   UNL A   1      42.637  23.820  27.824  1.00  0.00    -0.014 A 
ATOM     68  C   UNL A   1      42.286  22.748  28.663  1.00  0.00     0.010 A 
ATOM     69  C   UNL A   1      42.826  23.576  26.450  1.00  0.00     0.010 A 
ATOM     70  C   UNL A   1      42.127  21.461  28.140  1.00  0.00     0.020 A 
ATOM     71  C   UNL A   1      42.634  22.297  25.918  1.00  0.00     0.020 A 
ATOM     72  C   UNL A   1      42.294  21.245  26.769  1.00  0.00     0.054 A 
BRANCH  72  73
ATOM     73  S   UNL A   1      42.021  19.579  26.105  1.00  0.00     0.124 S 
ATOM     74  O   UNL A   1      42.388  18.737  27.239  1.00  0.00    -0.237 OA
ATOM     75  O   UNL A   1      40.600  19.604  25.767  1.00  0.00    -0.237 OA
ATOM     76  O   UNL A   1      42.926  19.514  24.959  1.00  0.00    -0.744 OA
ENDBRANCH  72  73
ENDBRANCH  44  67
BRANCH  56  77
ATOM     77  C   UNL A   1      47.904  27.527  30.539  1.00  0.00    -0.014 A 
ATOM     78  C   UNL A   1      48.888  27.904  29.610  1.00  0.00     0.010 A 
ATOM     79  C   UNL A   1      48.294  26.963  31.769  1.00  0.00     0.010 A 
ATOM     80  C   UNL A   1      50.241  27.726  29.909  1.00  0.00     0.020 A 
ATOM     81  C   UNL A   1      49.646  26.806  32.080  1.00  0.00     0.020 A 
ATOM     82  C   UNL A   1      50.612  27.188  31.147  1.00  0.00     0.054 A 
BRANCH  82  83
ATOM     83  S   UNL A   1      52.376  27.061  31.545  1.00  0.00     0.124 S 
ATOM     84  O   UNL A   1      52.892  28.337  31.058  1.00  0.00    -0.237 OA
ATOM     85  O   UNL A   1      52.363  26.900  32.997  1.00  0.00    -0.237 OA
ATOM     86  O   UNL A   1      52.817  25.885  30.797  1.00  0.00    -0.744 OA
ENDBRANCH  82  83
ENDBRANCH  56  77
ENDBRANCH  30  31
ENDBRANCH  23  25
ENDBRANCH  22  23
ENDBRANCH   1  22
TORSDOF 15
ENDMDL
