MODEL 1
REMARK VINA RESULT:     -12.3      0.000      0.000
REMARK SMILES COc1ccc2[nH]cc([C@H](C(=O)OCCOC(=O)c3ccc(-c4c5nc(c(-c6ccc(S(=O)(=O)[O-])cc6)c6ccc([nH]6)c(-c6ccc(S(=O)(=O)[O-])cc6)c6nc(c(-c7ccc(S(=O)(=O)[O-])cc7)c7ccc4[nH]7)C=C6)C=C5)cc3)[NH+]3CC[NH+](Cc4cccc5ccccc45)CC3)c2c1
REMARK SMILES IDX 14 1 13 2 11 3 12 4 10 5 9 6 3 7 4 8 97 9 5 10 96 11 6 12
REMARK SMILES IDX 7 13 8 14 2 16 1 17 79 18 80 19 95 20 81 22 94 23 82 24
REMARK SMILES IDX 83 26 84 27 85 28 93 29 86 30 88 31 92 32 87 33 89 34 91 35
REMARK SMILES IDX 90 36 15 37 16 38 17 39 18 40 19 41 20 42 78 43 21 44 77 45
REMARK SMILES IDX 22 46 23 47 24 48 71 49 25 50 76 51 70 52 72 53 26 54 75 55
REMARK SMILES IDX 69 56 68 57 27 59 57 60 38 61 56 62 39 63 42 64 55 65 73 66
REMARK SMILES IDX 40 67 41 68 54 70 74 71 43 72 28 73 29 74 37 75 30 76 36 77
REMARK SMILES IDX 31 78 32 79 33 80 34 81 35 82 58 83 59 84 67 85 60 86 66 87
REMARK SMILES IDX 61 88 62 89 63 90 64 91 65 92 44 93 45 94 53 95 46 96 52 97
REMARK SMILES IDX 47 98 48 99 49 100 50 101 51 102
REMARK H PARENT 7 15 79 21 82 25 72 58 42 69
REMARK Flexibility Score: inf
ROOT
ATOM      1  C   UNL A   1      34.331  28.633  26.614  1.00  0.00     0.274 C 
ENDROOT
BRANCH   1   2
ATOM      2  O   UNL A   1      32.925  28.867  26.324  1.00  0.00    -0.457 OA
BRANCH   2   3
ATOM      3  C   UNL A   1      31.971  27.996  26.735  1.00  0.00     0.370 C 
ATOM      4  O   UNL A   1      31.590  27.972  27.906  1.00  0.00    -0.245 OA
BRANCH   3   5
ATOM      5  C   UNL A   1      31.454  26.982  25.663  1.00  0.00     0.328 C 
BRANCH   5   6
ATOM      6  C   UNL A   1      30.140  27.167  24.807  1.00  0.00     0.046 A 
ATOM      7  C   UNL A   1      29.008  30.424  23.019  1.00  0.00     0.119 A 
ATOM      8  C   UNL A   1      27.768  29.966  22.608  1.00  0.00     0.048 A 
ATOM      9  C   UNL A   1      29.970  29.532  23.519  1.00  0.00     0.057 A 
ATOM     10  C   UNL A   1      27.447  28.618  22.759  1.00  0.00     0.030 A 
ATOM     11  C   UNL A   1      29.583  28.237  23.955  1.00  0.00     0.013 A 
ATOM     12  C   UNL A   1      28.343  27.800  23.469  1.00  0.00     0.046 A 
ATOM     13  N   UNL A   1      28.240  26.472  23.788  1.00  0.00    -0.361 N 
ATOM     14  C   UNL A   1      29.270  26.096  24.600  1.00  0.00     0.094 A 
ATOM     15  H   UNL A   1      27.524  25.874  23.476  1.00  0.00     0.166 HD
BRANCH   7  16
ATOM     16  O   UNL A   1      29.332  31.760  22.982  1.00  0.00    -0.497 OA
ATOM     17  C   UNL A   1      28.606  32.440  21.948  1.00  0.00     0.278 C 
ENDBRANCH   7  16
ENDBRANCH   5   6
BRANCH   5  18
ATOM     18  N   UNL A   1      32.471  26.355  24.815  1.00  0.00    -0.310 N 
ATOM     19  C   UNL A   1      32.908  25.063  25.289  1.00  0.00     0.325 C 
ATOM     20  C   UNL A   1      32.280  26.333  23.365  1.00  0.00     0.325 C 
ATOM     21  H   UNL A   1      33.215  27.042  24.935  1.00  0.00     0.349 HD
ATOM     22  C   UNL A   1      32.013  23.892  24.884  1.00  0.00     0.324 C 
ATOM     23  C   UNL A   1      31.731  25.008  22.731  1.00  0.00     0.324 C 
ATOM     24  N   UNL A   1      31.918  23.719  23.434  1.00  0.00    -0.322 N 
ATOM     25  H   UNL A   1      31.052  23.227  23.211  1.00  0.00     0.348 HD
BRANCH  24  26
ATOM     26  C   UNL A   1      32.940  22.788  22.914  1.00  0.00     0.300 C 
BRANCH  26  27
ATOM     27  C   UNL A   1      33.447  21.702  23.862  1.00  0.00     0.014 A 
ATOM     28  C   UNL A   1      32.636  20.560  23.981  1.00  0.00     0.010 A 
ATOM     29  C   UNL A   1      34.775  21.694  24.413  1.00  0.00    -0.010 A 
ATOM     30  C   UNL A   1      33.147  19.382  24.505  1.00  0.00     0.001 A 
ATOM     31  C   UNL A   1      35.323  20.437  24.771  1.00  0.00    -0.018 A 
ATOM     32  C   UNL A   1      35.657  22.808  24.452  1.00  0.00     0.009 A 
ATOM     33  C   UNL A   1      34.496  19.308  24.842  1.00  0.00     0.009 A 
ATOM     34  C   UNL A   1      36.714  20.295  24.930  1.00  0.00     0.009 A 
ATOM     35  C   UNL A   1      37.041  22.650  24.600  1.00  0.00     0.001 A 
ATOM     36  C   UNL A   1      37.573  21.385  24.795  1.00  0.00     0.001 A 
ENDBRANCH  26  27
ENDBRANCH  24  26
ENDBRANCH   5  18
ENDBRANCH   3   5
ENDBRANCH   2   3
ENDBRANCH   1   2
BRANCH   1  37
ATOM     37  C   UNL A   1      34.921  29.735  27.519  1.00  0.00     0.275 C 
BRANCH  37  38
ATOM     38  O   UNL A   1      36.356  29.853  27.332  1.00  0.00    -0.458 OA
BRANCH  38  39
ATOM     39  C   UNL A   1      36.985  29.552  28.485  1.00  0.00     0.338 C 
ATOM     40  O   UNL A   1      36.395  29.418  29.531  1.00  0.00    -0.246 OA
BRANCH  39  41
ATOM     41  C   UNL A   1      38.395  29.202  28.449  1.00  0.00     0.060 A 
ATOM     42  C   UNL A   1      39.044  29.369  27.220  1.00  0.00     0.016 A 
ATOM     43  C   UNL A   1      39.018  28.533  29.489  1.00  0.00     0.016 A 
ATOM     44  C   UNL A   1      40.329  28.940  27.014  1.00  0.00     0.010 A 
ATOM     45  C   UNL A   1      40.347  28.153  29.317  1.00  0.00     0.010 A 
ATOM     46  C   UNL A   1      41.006  28.413  28.100  1.00  0.00    -0.014 A 
BRANCH  46  47
ATOM     47  C   UNL A   1      42.458  28.313  27.986  1.00  0.00     0.031 A 
ATOM     48  C   UNL A   1      43.306  29.475  28.334  1.00  0.00     0.074 A 
ATOM     49  C   UNL A   1      42.950  27.131  27.568  1.00  0.00     0.049 A 
ATOM     50  N   UNL A   1      44.577  29.641  28.113  1.00  0.00    -0.248 NA
ATOM     51  C   UNL A   1      42.644  30.602  29.012  1.00  0.00     0.031 C 
ATOM     52  C   UNL A   1      42.153  25.918  27.325  1.00  0.00     0.029 A 
ATOM     53  N   UNL A   1      44.224  26.752  27.266  1.00  0.00    -0.354 N 
ATOM     54  C   UNL A   1      44.869  30.910  28.583  1.00  0.00     0.074 A 
ATOM     55  C   UNL A   1      43.642  31.470  29.109  1.00  0.00     0.031 C 
ATOM     56  C   UNL A   1      42.958  24.938  26.898  1.00  0.00     0.029 A 
ATOM     57  C   UNL A   1      44.300  25.479  26.754  1.00  0.00     0.049 A 
ATOM     58  H   UNL A   1      45.009  27.330  27.401  1.00  0.00     0.167 HD
ATOM     59  C   UNL A   1      46.065  31.538  28.542  1.00  0.00     0.031 A 
ATOM     60  C   UNL A   1      45.330  24.849  26.167  1.00  0.00     0.031 A 
ATOM     61  C   UNL A   1      47.243  30.933  27.978  1.00  0.00     0.049 A 
ATOM     62  C   UNL A   1      46.615  25.612  26.044  1.00  0.00     0.074 A 
ATOM     63  C   UNL A   1      48.512  31.462  27.857  1.00  0.00     0.029 A 
ATOM     64  N   UNL A   1      47.286  29.654  27.429  1.00  0.00    -0.354 N 
ATOM     65  N   UNL A   1      46.889  26.828  26.459  1.00  0.00    -0.248 NA
ATOM     66  C   UNL A   1      47.723  24.931  25.372  1.00  0.00     0.031 C 
ATOM     67  C   UNL A   1      49.304  30.532  27.178  1.00  0.00     0.029 A 
ATOM     68  C   UNL A   1      48.551  29.390  26.939  1.00  0.00     0.049 A 
ATOM     69  H   UNL A   1      46.525  29.029  27.395  1.00  0.00     0.167 HD
ATOM     70  C   UNL A   1      48.212  27.055  26.115  1.00  0.00     0.074 A 
ATOM     71  C   UNL A   1      48.684  25.837  25.479  1.00  0.00     0.031 C 
ATOM     72  C   UNL A   1      48.971  28.164  26.302  1.00  0.00     0.031 A 
BRANCH  59  73
ATOM     73  C   UNL A   1      46.120  32.953  29.043  1.00  0.00    -0.014 A 
ATOM     74  C   UNL A   1      46.216  33.247  30.414  1.00  0.00     0.010 A 
ATOM     75  C   UNL A   1      46.076  34.011  28.117  1.00  0.00     0.010 A 
ATOM     76  C   UNL A   1      46.235  34.574  30.852  1.00  0.00     0.020 A 
ATOM     77  C   UNL A   1      46.123  35.339  28.548  1.00  0.00     0.020 A 
ATOM     78  C   UNL A   1      46.189  35.612  29.916  1.00  0.00     0.054 A 
BRANCH  78  79
ATOM     79  S   UNL A   1      46.241  37.323  30.512  1.00  0.00     0.124 S 
ATOM     80  O   UNL A   1      47.197  37.934  29.593  1.00  0.00    -0.237 OA
ATOM     81  O   UNL A   1      44.855  37.757  30.355  1.00  0.00    -0.237 OA
ATOM     82  O   UNL A   1      46.698  37.197  31.893  1.00  0.00    -0.744 OA
ENDBRANCH  78  79
ENDBRANCH  59  73
BRANCH  60  83
ATOM     83  C   UNL A   1      45.153  23.481  25.615  1.00  0.00    -0.014 A 
ATOM     84  C   UNL A   1      44.676  23.297  24.307  1.00  0.00     0.010 A 
ATOM     85  C   UNL A   1      45.500  22.350  26.380  1.00  0.00     0.010 A 
ATOM     86  C   UNL A   1      44.528  22.008  23.784  1.00  0.00     0.020 A 
ATOM     87  C   UNL A   1      45.385  21.063  25.849  1.00  0.00     0.020 A 
ATOM     88  C   UNL A   1      44.886  20.900  24.558  1.00  0.00     0.054 A 
BRANCH  88  89
ATOM     89  S   UNL A   1      44.718  19.243  23.839  1.00  0.00     0.124 S 
ATOM     90  O   UNL A   1      44.472  19.546  22.432  1.00  0.00    -0.237 OA
ATOM     91  O   UNL A   1      46.013  18.636  24.139  1.00  0.00    -0.237 OA
ATOM     92  O   UNL A   1      43.585  18.668  24.562  1.00  0.00    -0.744 OA
ENDBRANCH  88  89
ENDBRANCH  60  83
BRANCH  72  93
ATOM     93  C   UNL A   1      50.395  28.085  25.831  1.00  0.00    -0.014 A 
ATOM     94  C   UNL A   1      50.747  28.443  24.518  1.00  0.00     0.010 A 
ATOM     95  C   UNL A   1      51.397  27.690  26.735  1.00  0.00     0.010 A 
ATOM     96  C   UNL A   1      52.078  28.374  24.107  1.00  0.00     0.020 A 
ATOM     97  C   UNL A   1      52.733  27.656  26.337  1.00  0.00     0.020 A 
ATOM     98  C   UNL A   1      53.062  27.985  25.020  1.00  0.00     0.054 A 
BRANCH  98  99
ATOM     99  S   UNL A   1      54.789  27.956  24.475  1.00  0.00     0.124 S 
ATOM    100  O   UNL A   1      54.823  26.761  23.637  1.00  0.00    -0.237 OA
ATOM    101  O   UNL A   1      54.921  29.226  23.765  1.00  0.00    -0.237 OA
ATOM    102  O   UNL A   1      55.546  27.864  25.721  1.00  0.00    -0.744 OA
ENDBRANCH  98  99
ENDBRANCH  72  93
ENDBRANCH  46  47
ENDBRANCH  39  41
ENDBRANCH  38  39
ENDBRANCH  37  38
ENDBRANCH   1  37
TORSDOF 19
ENDMDL
MODEL 2
REMARK VINA RESULT:     -12.2      1.941      2.667
REMARK SMILES COc1ccc2[nH]cc([C@H](C(=O)OCCOC(=O)c3ccc(-c4c5nc(c(-c6ccc(S(=O)(=O)[O-])cc6)c6ccc([nH]6)c(-c6ccc(S(=O)(=O)[O-])cc6)c6nc(c(-c7ccc(S(=O)(=O)[O-])cc7)c7ccc4[nH]7)C=C6)C=C5)cc3)[NH+]3CC[NH+](Cc4cccc5ccccc45)CC3)c2c1
REMARK SMILES IDX 14 1 13 2 11 3 12 4 10 5 9 6 3 7 4 8 97 9 5 10 96 11 6 12
REMARK SMILES IDX 7 13 8 14 2 16 1 17 79 18 80 19 95 20 81 22 94 23 82 24
REMARK SMILES IDX 83 26 84 27 85 28 93 29 86 30 88 31 92 32 87 33 89 34 91 35
REMARK SMILES IDX 90 36 15 37 16 38 17 39 18 40 19 41 20 42 78 43 21 44 77 45
REMARK SMILES IDX 22 46 23 47 24 48 71 49 25 50 76 51 70 52 72 53 26 54 75 55
REMARK SMILES IDX 69 56 68 57 27 59 57 60 38 61 56 62 39 63 42 64 55 65 73 66
REMARK SMILES IDX 40 67 41 68 54 70 74 71 43 72 28 73 29 74 37 75 30 76 36 77
REMARK SMILES IDX 31 78 32 79 33 80 34 81 35 82 58 83 59 84 67 85 60 86 66 87
REMARK SMILES IDX 61 88 62 89 63 90 64 91 65 92 44 93 45 94 53 95 46 96 52 97
REMARK SMILES IDX 47 98 48 99 49 100 50 101 51 102
REMARK H PARENT 7 15 79 21 82 25 72 58 42 69
REMARK Flexibility Score: inf
ROOT
ATOM      1  C   UNL A   1      32.768  28.892  26.663  1.00  0.00     0.274 C 
ENDROOT
BRANCH   1   2
ATOM      2  O   UNL A   1      33.136  29.096  25.271  1.00  0.00    -0.457 OA
BRANCH   2   3
ATOM      3  C   UNL A   1      32.810  28.186  24.320  1.00  0.00     0.370 C 
ATOM      4  O   UNL A   1      33.401  28.151  23.240  1.00  0.00    -0.245 OA
BRANCH   3   5
ATOM      5  C   UNL A   1      31.599  27.252  24.645  1.00  0.00     0.328 C 
BRANCH   5   6
ATOM      6  C   UNL A   1      30.123  27.479  24.131  1.00  0.00     0.046 A 
ATOM      7  C   UNL A   1      28.814  30.597  22.221  1.00  0.00     0.119 A 
ATOM      8  C   UNL A   1      27.477  30.236  22.209  1.00  0.00     0.048 A 
ATOM      9  C   UNL A   1      29.802  29.669  22.590  1.00  0.00     0.057 A 
ATOM     10  C   UNL A   1      27.104  28.963  22.637  1.00  0.00     0.030 A 
ATOM     11  C   UNL A   1      29.445  28.491  23.297  1.00  0.00     0.013 A 
ATOM     12  C   UNL A   1      28.090  28.142  23.211  1.00  0.00     0.046 A 
ATOM     13  N   UNL A   1      27.972  26.885  23.741  1.00  0.00    -0.361 N 
ATOM     14  C   UNL A   1      29.149  26.497  24.313  1.00  0.00     0.094 A 
ATOM     15  H   UNL A   1      27.154  26.338  23.712  1.00  0.00     0.166 HD
BRANCH   7  16
ATOM     16  O   UNL A   1      29.220  31.872  21.905  1.00  0.00    -0.497 OA
ATOM     17  C   UNL A   1      28.093  32.741  21.714  1.00  0.00     0.278 C 
ENDBRANCH   7  16
ENDBRANCH   5   6
BRANCH   5  18
ATOM     18  N   UNL A   1      31.868  25.812  24.650  1.00  0.00    -0.310 N 
ATOM     19  C   UNL A   1      31.702  25.185  23.361  1.00  0.00     0.325 C 
ATOM     20  C   UNL A   1      33.070  25.311  25.315  1.00  0.00     0.325 C 
ATOM     21  H   UNL A   1      31.121  25.519  25.280  1.00  0.00     0.349 HD
ATOM     22  C   UNL A   1      32.913  25.292  22.433  1.00  0.00     0.324 C 
ATOM     23  C   UNL A   1      34.307  24.976  24.412  1.00  0.00     0.324 C 
ATOM     24  N   UNL A   1      34.111  24.656  22.980  1.00  0.00    -0.322 N 
ATOM     25  H   UNL A   1      34.938  25.074  22.553  1.00  0.00     0.348 HD
BRANCH  24  26
ATOM     26  C   UNL A   1      34.236  23.244  22.563  1.00  0.00     0.300 C 
BRANCH  26  27
ATOM     27  C   UNL A   1      34.031  22.175  23.636  1.00  0.00     0.014 A 
ATOM     28  C   UNL A   1      32.719  21.692  23.782  1.00  0.00     0.010 A 
ATOM     29  C   UNL A   1      35.117  21.499  24.293  1.00  0.00    -0.010 A 
ATOM     30  C   UNL A   1      32.476  20.496  24.442  1.00  0.00     0.001 A 
ATOM     31  C   UNL A   1      34.864  20.199  24.798  1.00  0.00    -0.018 A 
ATOM     32  C   UNL A   1      36.469  21.938  24.313  1.00  0.00     0.009 A 
ATOM     33  C   UNL A   1      33.547  19.730  24.893  1.00  0.00     0.009 A 
ATOM     34  C   UNL A   1      35.937  19.334  25.082  1.00  0.00     0.009 A 
ATOM     35  C   UNL A   1      37.527  21.062  24.586  1.00  0.00     0.001 A 
ATOM     36  C   UNL A   1      37.260  19.745  24.928  1.00  0.00     0.001 A 
ENDBRANCH  26  27
ENDBRANCH  24  26
ENDBRANCH   5  18
ENDBRANCH   3   5
ENDBRANCH   2   3
ENDBRANCH   1   2
BRANCH   1  37
ATOM     37  C   UNL A   1      33.964  29.125  27.611  1.00  0.00     0.275 C 
BRANCH  37  38
ATOM     38  O   UNL A   1      34.627  30.383  27.319  1.00  0.00    -0.458 OA
BRANCH  38  39
ATOM     39  C   UNL A   1      35.273  30.816  28.419  1.00  0.00     0.338 C 
ATOM     40  O   UNL A   1      34.739  31.498  29.260  1.00  0.00    -0.246 OA
BRANCH  39  41
ATOM     41  C   UNL A   1      36.605  30.305  28.701  1.00  0.00     0.060 A 
ATOM     42  C   UNL A   1      37.476  30.207  27.610  1.00  0.00     0.016 A 
ATOM     43  C   UNL A   1      36.937  29.737  29.920  1.00  0.00     0.016 A 
ATOM     44  C   UNL A   1      38.703  29.608  27.712  1.00  0.00     0.010 A 
ATOM     45  C   UNL A   1      38.208  29.186  30.058  1.00  0.00     0.010 A 
ATOM     46  C   UNL A   1      39.099  29.180  28.967  1.00  0.00    -0.014 A 
BRANCH  46  47
ATOM     47  C   UNL A   1      40.521  28.898  29.151  1.00  0.00     0.031 A 
ATOM     48  C   UNL A   1      41.432  29.973  29.606  1.00  0.00     0.074 A 
ATOM     49  C   UNL A   1      40.924  27.639  28.895  1.00  0.00     0.049 A 
ATOM     50  N   UNL A   1      42.732  29.969  29.635  1.00  0.00    -0.248 NA
ATOM     51  C   UNL A   1      40.806  31.216  30.085  1.00  0.00     0.031 C 
ATOM     52  C   UNL A   1      40.035  26.516  28.554  1.00  0.00     0.029 A 
ATOM     53  N   UNL A   1      42.171  27.090  28.870  1.00  0.00    -0.354 N 
ATOM     54  C   UNL A   1      43.092  31.225  30.094  1.00  0.00     0.074 A 
ATOM     55  C   UNL A   1      41.871  31.963  30.338  1.00  0.00     0.031 C 
ATOM     56  C   UNL A   1      40.772  25.419  28.343  1.00  0.00     0.029 A 
ATOM     57  C   UNL A   1      42.175  25.784  28.444  1.00  0.00     0.049 A 
ATOM     58  H   UNL A   1      42.985  27.578  29.132  1.00  0.00     0.167 HD
ATOM     59  C   UNL A   1      44.346  31.700  30.263  1.00  0.00     0.031 A 
ATOM     60  C   UNL A   1      43.207  24.995  28.103  1.00  0.00     0.031 A 
ATOM     61  C   UNL A   1      45.520  30.919  29.974  1.00  0.00     0.049 A 
ATOM     62  C   UNL A   1      44.580  25.587  28.204  1.00  0.00     0.074 A 
ATOM     63  C   UNL A   1      46.847  31.283  30.084  1.00  0.00     0.029 A 
ATOM     64  N   UNL A   1      45.499  29.609  29.505  1.00  0.00    -0.354 N 
ATOM     65  N   UNL A   1      44.927  26.788  28.608  1.00  0.00    -0.248 NA
ATOM     66  C   UNL A   1      45.697  24.733  27.799  1.00  0.00     0.031 C 
ATOM     67  C   UNL A   1      47.626  30.218  29.621  1.00  0.00     0.029 A 
ATOM     68  C   UNL A   1      46.789  29.161  29.289  1.00  0.00     0.049 A 
ATOM     69  H   UNL A   1      44.684  29.079  29.349  1.00  0.00     0.167 HD
ATOM     70  C   UNL A   1      46.310  26.830  28.524  1.00  0.00     0.074 A 
ATOM     71  C   UNL A   1      46.731  25.522  28.053  1.00  0.00     0.031 C 
ATOM     72  C   UNL A   1      47.158  27.850  28.807  1.00  0.00     0.031 A 
BRANCH  59  73
ATOM     73  C   UNL A   1      44.490  33.131  30.698  1.00  0.00    -0.014 A 
ATOM     74  C   UNL A   1      44.467  34.188  29.771  1.00  0.00     0.010 A 
ATOM     75  C   UNL A   1      44.649  33.420  32.065  1.00  0.00     0.010 A 
ATOM     76  C   UNL A   1      44.634  35.507  30.203  1.00  0.00     0.020 A 
ATOM     77  C   UNL A   1      44.788  34.740  32.503  1.00  0.00     0.020 A 
ATOM     78  C   UNL A   1      44.793  35.774  31.566  1.00  0.00     0.054 A 
BRANCH  78  79
ATOM     79  S   UNL A   1      44.982  37.498  32.098  1.00  0.00     0.124 S 
ATOM     80  O   UNL A   1      46.297  37.836  31.560  1.00  0.00    -0.237 OA
ATOM     81  O   UNL A   1      43.851  38.156  31.449  1.00  0.00    -0.237 OA
ATOM     82  O   UNL A   1      44.905  37.423  33.554  1.00  0.00    -0.744 OA
ENDBRANCH  78  79
ENDBRANCH  59  73
BRANCH  60  83
ATOM     83  C   UNL A   1      42.961  23.621  27.592  1.00  0.00    -0.014 A 
ATOM     84  C   UNL A   1      42.790  22.550  28.483  1.00  0.00     0.010 A 
ATOM     85  C   UNL A   1      42.857  23.381  26.207  1.00  0.00     0.010 A 
ATOM     86  C   UNL A   1      42.539  21.261  27.999  1.00  0.00     0.020 A 
ATOM     87  C   UNL A   1      42.574  22.102  25.722  1.00  0.00     0.020 A 
ATOM     88  C   UNL A   1      42.432  21.047  26.621  1.00  0.00     0.054 A 
BRANCH  88  89
ATOM     89  S   UNL A   1      42.071  19.372  26.025  1.00  0.00     0.124 S 
ATOM     90  O   UNL A   1      42.883  19.300  24.814  1.00  0.00    -0.237 OA
ATOM     91  O   UNL A   1      42.519  18.538  27.139  1.00  0.00    -0.237 OA
ATOM     92  O   UNL A   1      40.626  19.387  25.810  1.00  0.00    -0.744 OA
ENDBRANCH  88  89
ENDBRANCH  60  83
BRANCH  72  93
ATOM     93  C   UNL A   1      48.623  27.568  28.634  1.00  0.00    -0.014 A 
ATOM     94  C   UNL A   1      49.382  27.006  29.675  1.00  0.00     0.010 A 
ATOM     95  C   UNL A   1      49.233  27.831  27.394  1.00  0.00     0.010 A 
ATOM     96  C   UNL A   1      50.739  26.740  29.488  1.00  0.00     0.020 A 
ATOM     97  C   UNL A   1      50.580  27.532  27.193  1.00  0.00     0.020 A 
ATOM     98  C   UNL A   1      51.327  27.002  28.247  1.00  0.00     0.054 A 
BRANCH  98  99
ATOM     99  S   UNL A   1      53.078  26.598  28.015  1.00  0.00     0.124 S 
ATOM    100  O   UNL A   1      53.010  25.470  27.091  1.00  0.00    -0.237 OA
ATOM    101  O   UNL A   1      53.619  27.836  27.458  1.00  0.00    -0.237 OA
ATOM    102  O   UNL A   1      53.541  26.274  29.362  1.00  0.00    -0.744 OA
ENDBRANCH  98  99
ENDBRANCH  72  93
ENDBRANCH  46  47
ENDBRANCH  39  41
ENDBRANCH  38  39
ENDBRANCH  37  38
ENDBRANCH   1  37
TORSDOF 19
ENDMDL
MODEL 3
REMARK VINA RESULT:     -12.0      5.268     11.320
REMARK SMILES COc1ccc2[nH]cc([C@H](C(=O)OCCOC(=O)c3ccc(-c4c5nc(c(-c6ccc(S(=O)(=O)[O-])cc6)c6ccc([nH]6)c(-c6ccc(S(=O)(=O)[O-])cc6)c6nc(c(-c7ccc(S(=O)(=O)[O-])cc7)c7ccc4[nH]7)C=C6)C=C5)cc3)[NH+]3CC[NH+](Cc4cccc5ccccc45)CC3)c2c1
REMARK SMILES IDX 14 1 13 2 11 3 12 4 10 5 9 6 3 7 4 8 97 9 5 10 96 11 6 12
REMARK SMILES IDX 7 13 8 14 2 16 1 17 79 18 80 19 95 20 81 22 94 23 82 24
REMARK SMILES IDX 83 26 84 27 85 28 93 29 86 30 88 31 92 32 87 33 89 34 91 35
REMARK SMILES IDX 90 36 15 37 16 38 17 39 18 40 19 41 20 42 78 43 21 44 77 45
REMARK SMILES IDX 22 46 23 47 24 48 71 49 25 50 76 51 70 52 72 53 26 54 75 55
REMARK SMILES IDX 69 56 68 57 27 59 57 60 38 61 56 62 39 63 42 64 55 65 73 66
REMARK SMILES IDX 40 67 41 68 54 70 74 71 43 72 28 73 29 74 37 75 30 76 36 77
REMARK SMILES IDX 31 78 32 79 33 80 34 81 35 82 58 83 59 84 67 85 60 86 66 87
REMARK SMILES IDX 61 88 62 89 63 90 64 91 65 92 44 93 45 94 53 95 46 96 52 97
REMARK SMILES IDX 47 98 48 99 49 100 50 101 51 102
REMARK H PARENT 7 15 79 21 82 25 72 58 42 69
REMARK Flexibility Score: inf
ROOT
ATOM      1  C   UNL A   1      36.289  22.372  25.161  1.00  0.00     0.274 C 
ENDROOT
BRANCH   1   2
ATOM      2  O   UNL A   1      35.502  22.637  26.355  1.00  0.00    -0.457 OA
BRANCH   2   3
ATOM      3  C   UNL A   1      34.287  22.064  26.534  1.00  0.00     0.370 C 
ATOM      4  O   UNL A   1      34.050  21.362  27.519  1.00  0.00    -0.245 OA
BRANCH   3   5
ATOM      5  C   UNL A   1      33.247  22.278  25.385  1.00  0.00     0.328 C 
BRANCH   5   6
ATOM      6  C   UNL A   1      32.873  21.198  24.297  1.00  0.00     0.046 A 
ATOM      7  C   UNL A   1      32.994  17.343  24.754  1.00  0.00     0.119 A 
ATOM      8  C   UNL A   1      32.708  17.010  23.441  1.00  0.00     0.048 A 
ATOM      9  C   UNL A   1      32.827  18.660  25.211  1.00  0.00     0.057 A 
ATOM     10  C   UNL A   1      32.319  18.006  22.547  1.00  0.00     0.030 A 
ATOM     11  C   UNL A   1      32.723  19.729  24.282  1.00  0.00     0.013 A 
ATOM     12  C   UNL A   1      32.380  19.343  22.979  1.00  0.00     0.046 A 
ATOM     13  N   UNL A   1      32.098  20.492  22.289  1.00  0.00    -0.361 N 
ATOM     14  C   UNL A   1      32.413  21.587  23.038  1.00  0.00     0.094 A 
ATOM     15  H   UNL A   1      31.720  20.522  21.380  1.00  0.00     0.166 HD
BRANCH   7  16
ATOM     16  O   UNL A   1      33.478  16.413  25.645  1.00  0.00    -0.497 OA
ATOM     17  C   UNL A   1      32.767  15.171  25.533  1.00  0.00     0.278 C 
ENDBRANCH   7  16
ENDBRANCH   5   6
BRANCH   5  18
ATOM     18  N   UNL A   1      32.034  23.020  25.734  1.00  0.00    -0.310 N 
ATOM     19  C   UNL A   1      32.292  24.297  26.357  1.00  0.00     0.325 C 
ATOM     20  C   UNL A   1      30.958  23.136  24.751  1.00  0.00     0.325 C 
ATOM     21  H   UNL A   1      31.648  22.370  26.418  1.00  0.00     0.349 HD
ATOM     22  C   UNL A   1      32.575  25.442  25.385  1.00  0.00     0.324 C 
ATOM     23  C   UNL A   1      30.871  24.470  23.931  1.00  0.00     0.324 C 
ATOM     24  N   UNL A   1      31.458  25.714  24.479  1.00  0.00    -0.322 N 
ATOM     25  H   UNL A   1      31.811  26.171  23.639  1.00  0.00     0.348 HD
BRANCH  24  26
ATOM     26  C   UNL A   1      30.537  26.736  25.018  1.00  0.00     0.300 C 
BRANCH  26  27
ATOM     27  C   UNL A   1      30.355  28.015  24.202  1.00  0.00     0.014 A 
ATOM     28  C   UNL A   1      29.504  27.920  23.088  1.00  0.00     0.010 A 
ATOM     29  C   UNL A   1      30.798  29.307  24.652  1.00  0.00    -0.010 A 
ATOM     30  C   UNL A   1      28.979  29.062  22.500  1.00  0.00     0.001 A 
ATOM     31  C   UNL A   1      30.110  30.441  24.154  1.00  0.00    -0.018 A 
ATOM     32  C   UNL A   1      31.736  29.539  25.696  1.00  0.00     0.009 A 
ATOM     33  C   UNL A   1      29.236  30.306  23.067  1.00  0.00     0.009 A 
ATOM     34  C   UNL A   1      30.203  31.673  24.828  1.00  0.00     0.009 A 
ATOM     35  C   UNL A   1      31.809  30.767  26.365  1.00  0.00     0.001 A 
ATOM     36  C   UNL A   1      31.008  31.823  25.956  1.00  0.00     0.001 A 
ENDBRANCH  26  27
ENDBRANCH  24  26
ENDBRANCH   5  18
ENDBRANCH   3   5
ENDBRANCH   2   3
ENDBRANCH   1   2
BRANCH   1  37
ATOM     37  C   UNL A   1      37.692  23.011  25.245  1.00  0.00     0.275 C 
BRANCH  37  38
ATOM     38  O   UNL A   1      38.343  22.682  26.501  1.00  0.00    -0.458 OA
BRANCH  38  39
ATOM     39  C   UNL A   1      39.621  23.105  26.468  1.00  0.00     0.338 C 
ATOM     40  O   UNL A   1      40.469  22.559  25.803  1.00  0.00    -0.246 OA
BRANCH  39  41
ATOM     41  C   UNL A   1      39.965  24.363  27.110  1.00  0.00     0.060 A 
ATOM     42  C   UNL A   1      39.259  24.677  28.277  1.00  0.00     0.016 A 
ATOM     43  C   UNL A   1      40.775  25.308  26.502  1.00  0.00     0.016 A 
ATOM     44  C   UNL A   1      39.382  25.893  28.895  1.00  0.00     0.010 A 
ATOM     45  C   UNL A   1      40.963  26.523  27.155  1.00  0.00     0.010 A 
ATOM     46  C   UNL A   1      40.309  26.780  28.375  1.00  0.00    -0.014 A 
BRANCH  46  47
ATOM     47  C   UNL A   1      40.710  27.893  29.231  1.00  0.00     0.031 A 
ATOM     48  C   UNL A   1      41.960  27.802  30.020  1.00  0.00     0.074 A 
ATOM     49  C   UNL A   1      39.898  28.967  29.244  1.00  0.00     0.049 A 
ATOM     50  N   UNL A   1      42.372  28.589  30.970  1.00  0.00    -0.248 NA
ATOM     51  C   UNL A   1      42.862  26.682  29.708  1.00  0.00     0.031 C 
ATOM     52  C   UNL A   1      38.712  29.145  28.390  1.00  0.00     0.029 A 
ATOM     53  N   UNL A   1      39.933  30.102  29.997  1.00  0.00    -0.354 N 
ATOM     54  C   UNL A   1      43.565  28.039  31.409  1.00  0.00     0.074 A 
ATOM     55  C   UNL A   1      43.814  26.855  30.615  1.00  0.00     0.031 C 
ATOM     56  C   UNL A   1      38.130  30.314  28.681  1.00  0.00     0.029 A 
ATOM     57  C   UNL A   1      38.845  30.917  29.794  1.00  0.00     0.049 A 
ATOM     58  H   UNL A   1      40.663  30.318  30.622  1.00  0.00     0.167 HD
ATOM     59  C   UNL A   1      44.351  28.494  32.409  1.00  0.00     0.031 A 
ATOM     60  C   UNL A   1      38.437  31.994  30.485  1.00  0.00     0.031 A 
ATOM     61  C   UNL A   1      44.029  29.667  33.180  1.00  0.00     0.049 A 
ATOM     62  C   UNL A   1      39.277  32.412  31.654  1.00  0.00     0.074 A 
ATOM     63  C   UNL A   1      44.727  30.228  34.230  1.00  0.00     0.029 A 
ATOM     64  N   UNL A   1      42.899  30.455  32.981  1.00  0.00    -0.354 N 
ATOM     65  N   UNL A   1      40.393  31.876  32.095  1.00  0.00    -0.248 NA
ATOM     66  C   UNL A   1      38.808  33.565  32.423  1.00  0.00     0.031 C 
ATOM     67  C   UNL A   1      43.988  31.314  34.708  1.00  0.00     0.029 A 
ATOM     68  C   UNL A   1      42.864  31.479  33.910  1.00  0.00     0.049 A 
ATOM     69  H   UNL A   1      42.223  30.305  32.280  1.00  0.00     0.167 HD
ATOM     70  C   UNL A   1      40.772  32.640  33.187  1.00  0.00     0.074 A 
ATOM     71  C   UNL A   1      39.775  33.689  33.319  1.00  0.00     0.031 C 
ATOM     72  C   UNL A   1      41.842  32.494  34.009  1.00  0.00     0.031 A 
BRANCH  59  73
ATOM     73  C   UNL A   1      45.563  27.680  32.761  1.00  0.00    -0.014 A 
ATOM     74  C   UNL A   1      46.860  28.102  32.416  1.00  0.00     0.010 A 
ATOM     75  C   UNL A   1      45.399  26.467  33.453  1.00  0.00     0.010 A 
ATOM     76  C   UNL A   1      47.967  27.308  32.730  1.00  0.00     0.020 A 
ATOM     77  C   UNL A   1      46.505  25.685  33.794  1.00  0.00     0.020 A 
ATOM     78  C   UNL A   1      47.782  26.104  33.418  1.00  0.00     0.054 A 
BRANCH  78  79
ATOM     79  S   UNL A   1      49.239  25.109  33.833  1.00  0.00     0.124 S 
ATOM     80  O   UNL A   1      48.652  24.034  34.630  1.00  0.00    -0.237 OA
ATOM     81  O   UNL A   1      49.739  24.714  32.519  1.00  0.00    -0.237 OA
ATOM     82  O   UNL A   1      50.094  26.034  34.571  1.00  0.00    -0.744 OA
ENDBRANCH  78  79
ENDBRANCH  59  73
BRANCH  60  83
ATOM     83  C   UNL A   1      37.170  32.680  30.121  1.00  0.00    -0.014 A 
ATOM     84  C   UNL A   1      35.997  32.445  30.855  1.00  0.00     0.010 A 
ATOM     85  C   UNL A   1      37.137  33.605  29.059  1.00  0.00     0.010 A 
ATOM     86  C   UNL A   1      34.810  33.106  30.522  1.00  0.00     0.020 A 
ATOM     87  C   UNL A   1      35.962  34.292  28.744  1.00  0.00     0.020 A 
ATOM     88  C   UNL A   1      34.801  34.027  29.470  1.00  0.00     0.054 A 
BRANCH  88  89
ATOM     89  S   UNL A   1      33.256  34.895  29.085  1.00  0.00     0.124 S 
ATOM     90  O   UNL A   1      32.585  34.910  30.381  1.00  0.00    -0.237 OA
ATOM     91  O   UNL A   1      33.734  36.190  28.604  1.00  0.00    -0.237 OA
ATOM     92  O   UNL A   1      32.632  34.053  28.067  1.00  0.00    -0.744 OA
ENDBRANCH  88  89
ENDBRANCH  60  83
BRANCH  72  93
ATOM     93  C   UNL A   1      41.989  33.514  35.101  1.00  0.00    -0.014 A 
ATOM     94  C   UNL A   1      42.515  34.791  34.836  1.00  0.00     0.010 A 
ATOM     95  C   UNL A   1      41.551  33.200  36.400  1.00  0.00     0.010 A 
ATOM     96  C   UNL A   1      42.631  35.727  35.863  1.00  0.00     0.020 A 
ATOM     97  C   UNL A   1      41.632  34.147  37.420  1.00  0.00     0.020 A 
ATOM     98  C   UNL A   1      42.185  35.399  37.148  1.00  0.00     0.054 A 
BRANCH  98  99
ATOM     99  S   UNL A   1      42.298  36.652  38.451  1.00  0.00     0.124 S 
ATOM    100  O   UNL A   1      43.317  37.552  37.920  1.00  0.00    -0.237 OA
ATOM    101  O   UNL A   1      40.941  37.192  38.493  1.00  0.00    -0.237 OA
ATOM    102  O   UNL A   1      42.695  35.890  39.632  1.00  0.00    -0.744 OA
ENDBRANCH  98  99
ENDBRANCH  72  93
ENDBRANCH  46  47
ENDBRANCH  39  41
ENDBRANCH  38  39
ENDBRANCH  37  38
ENDBRANCH   1  37
TORSDOF 19
ENDMDL
