MODEL 1
REMARK VINA RESULT:     -12.2      0.000      0.000
REMARK SMILES Cc1c(CC(=O)OCCOC(=O)c2ccc(-c3c4nc(c(-c5ccc(S(=O)(=O)[O-])cc5)c5ccc([nH]5)c(-c5ccc(S(=O)(=O)[O-])cc5)c5nc(c(-c6ccc(S(=O)(=O)[O-])cc6)c6ccc3[nH]6)C=C5)C=C4)cc2)c2ccccc2n1C(=O)c1ccc(Cl)cc1
REMARK SMILES IDX 8 1 7 2 5 3 6 4 4 5 3 6 1 7 2 8 79 9 73 10 78 11 74 12 77 13
REMARK SMILES IDX 75 14 76 15 80 16 81 17 82 18 83 19 88 20 84 21 87 22 85 23
REMARK SMILES IDX 86 24 9 25 10 26 11 27 12 28 13 29 14 30 72 31 15 32 71 33
REMARK SMILES IDX 16 34 17 35 18 36 65 37 19 38 70 39 64 40 66 41 20 42 69 43
REMARK SMILES IDX 63 44 62 45 21 47 51 48 32 49 50 50 33 51 36 52 49 53 67 54
REMARK SMILES IDX 34 55 35 56 48 58 68 59 37 60 22 61 23 62 31 63 24 64 30 65
REMARK SMILES IDX 25 66 26 67 27 68 28 69 29 70 52 71 53 72 61 73 54 74 60 75
REMARK SMILES IDX 55 76 56 77 57 78 58 79 59 80 38 81 39 82 47 83 40 84 46 85
REMARK SMILES IDX 41 86 42 87 43 88 44 89 45 90
REMARK H PARENT 66 46 36 57
REMARK Flexibility Score: inf
ROOT
ATOM      1  C   UNL A   1      44.110  20.815  25.357  1.00  0.00     0.274 C 
ENDROOT
BRANCH   1   2
ATOM      2  O   UNL A   1      42.666  20.832  25.405  1.00  0.00    -0.462 OA
BRANCH   2   3
ATOM      3  C   UNL A   1      42.093  19.659  25.764  1.00  0.00     0.310 C 
ATOM      4  O   UNL A   1      42.624  18.562  25.605  1.00  0.00    -0.252 OA
BRANCH   3   5
ATOM      5  C   UNL A   1      40.690  19.758  26.278  1.00  0.00     0.160 C 
BRANCH   5   6
ATOM      6  C   UNL A   1      39.869  21.014  26.157  1.00  0.00    -0.008 A 
ATOM      7  C   UNL A   1      37.852  19.823  25.038  1.00  0.00     0.065 C 
ATOM      8  C   UNL A   1      38.602  20.999  25.583  1.00  0.00     0.028 A 
ATOM      9  N   UNL A   1      38.098  22.292  25.565  1.00  0.00    -0.280 N 
ATOM     10  C   UNL A   1      40.025  22.320  26.734  1.00  0.00     0.004 A 
ATOM     11  C   UNL A   1      38.855  23.047  26.470  1.00  0.00     0.056 A 
ATOM     12  C   UNL A   1      41.017  22.961  27.510  1.00  0.00     0.010 A 
ATOM     13  C   UNL A   1      38.639  24.316  27.059  1.00  0.00     0.027 A 
ATOM     14  C   UNL A   1      40.800  24.211  28.102  1.00  0.00     0.001 A 
ATOM     15  C   UNL A   1      39.613  24.882  27.880  1.00  0.00     0.002 A 
BRANCH   9  16
ATOM     16  C   UNL A   1      37.017  22.745  24.768  1.00  0.00     0.262 C 
ATOM     17  O   UNL A   1      37.102  22.697  23.542  1.00  0.00    -0.268 OA
BRANCH  16  18
ATOM     18  C   UNL A   1      35.782  23.316  25.308  1.00  0.00     0.040 A 
ATOM     19  C   UNL A   1      35.163  22.725  26.414  1.00  0.00     0.015 A 
ATOM     20  C   UNL A   1      35.206  24.398  24.638  1.00  0.00     0.015 A 
ATOM     21  C   UNL A   1      33.914  23.193  26.818  1.00  0.00     0.021 A 
ATOM     22  C   UNL A   1      33.959  24.861  25.050  1.00  0.00     0.021 A 
ATOM     23  C   UNL A   1      33.313  24.249  26.127  1.00  0.00     0.041 A 
ATOM     24  Cl  UNL A   1      31.747  24.785  26.593  1.00  0.00    -0.084 Cl
ENDBRANCH  16  18
ENDBRANCH   9  16
ENDBRANCH   5   6
ENDBRANCH   3   5
ENDBRANCH   2   3
ENDBRANCH   1   2
BRANCH   1  25
ATOM     25  C   UNL A   1      44.653  22.149  24.838  1.00  0.00     0.275 C 
BRANCH  25  26
ATOM     26  O   UNL A   1      43.980  23.224  25.511  1.00  0.00    -0.458 OA
BRANCH  26  27
ATOM     27  C   UNL A   1      44.542  24.455  25.435  1.00  0.00     0.338 C 
ATOM     28  O   UNL A   1      45.432  24.819  24.684  1.00  0.00    -0.246 OA
BRANCH  27  29
ATOM     29  C   UNL A   1      43.625  25.353  26.163  1.00  0.00     0.060 A 
ATOM     30  C   UNL A   1      42.642  26.073  25.486  1.00  0.00     0.016 A 
ATOM     31  C   UNL A   1      43.947  25.656  27.490  1.00  0.00     0.016 A 
ATOM     32  C   UNL A   1      42.094  27.193  26.100  1.00  0.00     0.010 A 
ATOM     33  C   UNL A   1      43.449  26.804  28.073  1.00  0.00     0.010 A 
ATOM     34  C   UNL A   1      42.568  27.600  27.355  1.00  0.00    -0.014 A 
BRANCH  34  35
ATOM     35  C   UNL A   1      41.957  28.736  28.016  1.00  0.00     0.031 A 
ATOM     36  C   UNL A   1      42.810  29.941  27.993  1.00  0.00     0.074 A 
ATOM     37  C   UNL A   1      40.711  28.840  28.509  1.00  0.00     0.049 A 
ATOM     38  N   UNL A   1      43.536  30.380  28.961  1.00  0.00    -0.248 NA
ATOM     39  C   UNL A   1      42.987  30.653  26.723  1.00  0.00     0.031 C 
ATOM     40  C   UNL A   1      39.556  27.958  28.370  1.00  0.00     0.029 A 
ATOM     41  N   UNL A   1      40.220  29.882  29.233  1.00  0.00    -0.354 N 
ATOM     42  C   UNL A   1      44.163  31.519  28.483  1.00  0.00     0.074 A 
ATOM     43  C   UNL A   1      43.907  31.555  27.063  1.00  0.00     0.031 C 
ATOM     44  C   UNL A   1      38.450  28.597  28.832  1.00  0.00     0.029 A 
ATOM     45  C   UNL A   1      38.854  29.851  29.451  1.00  0.00     0.049 A 
ATOM     46  H   UNL A   1      40.795  30.604  29.578  1.00  0.00     0.167 HD
ATOM     47  C   UNL A   1      44.714  32.435  29.323  1.00  0.00     0.031 A 
ATOM     48  C   UNL A   1      38.137  30.816  30.078  1.00  0.00     0.031 A 
ATOM     49  C   UNL A   1      44.796  31.943  30.676  1.00  0.00     0.049 A 
ATOM     50  C   UNL A   1      39.081  31.562  30.954  1.00  0.00     0.074 A 
ATOM     51  C   UNL A   1      45.427  30.864  31.266  1.00  0.00     0.029 A 
ATOM     52  N   UNL A   1      43.816  32.336  31.560  1.00  0.00    -0.354 N 
ATOM     53  N   UNL A   1      39.659  31.045  32.003  1.00  0.00    -0.248 NA
ATOM     54  C   UNL A   1      39.694  32.779  30.444  1.00  0.00     0.031 C 
ATOM     55  C   UNL A   1      44.491  30.368  32.219  1.00  0.00     0.029 A 
ATOM     56  C   UNL A   1      43.371  31.203  32.198  1.00  0.00     0.049 A 
ATOM     57  H   UNL A   1      43.494  33.254  31.706  1.00  0.00     0.167 HD
ATOM     58  C   UNL A   1      40.926  31.610  32.029  1.00  0.00     0.074 A 
ATOM     59  C   UNL A   1      40.850  32.742  31.109  1.00  0.00     0.031 C 
ATOM     60  C   UNL A   1      41.992  30.958  32.584  1.00  0.00     0.031 A 
BRANCH  47  61
ATOM     61  C   UNL A   1      44.925  33.877  28.969  1.00  0.00    -0.014 A 
ATOM     62  C   UNL A   1      46.085  34.346  28.318  1.00  0.00     0.010 A 
ATOM     63  C   UNL A   1      43.850  34.778  29.093  1.00  0.00     0.010 A 
ATOM     64  C   UNL A   1      46.188  35.653  27.844  1.00  0.00     0.020 A 
ATOM     65  C   UNL A   1      43.925  36.078  28.577  1.00  0.00     0.020 A 
ATOM     66  C   UNL A   1      45.100  36.508  27.963  1.00  0.00     0.054 A 
BRANCH  66  67
ATOM     67  S   UNL A   1      45.224  38.152  27.219  1.00  0.00     0.124 S 
ATOM     68  O   UNL A   1      46.250  37.943  26.200  1.00  0.00    -0.237 OA
ATOM     69  O   UNL A   1      43.870  38.369  26.715  1.00  0.00    -0.237 OA
ATOM     70  O   UNL A   1      45.616  39.005  28.337  1.00  0.00    -0.744 OA
ENDBRANCH  66  67
ENDBRANCH  47  61
BRANCH  48  71
ATOM     71  C   UNL A   1      36.839  31.401  29.657  1.00  0.00    -0.014 A 
ATOM     72  C   UNL A   1      36.732  32.073  28.423  1.00  0.00     0.010 A 
ATOM     73  C   UNL A   1      35.819  31.603  30.610  1.00  0.00     0.010 A 
ATOM     74  C   UNL A   1      35.709  33.000  28.192  1.00  0.00     0.020 A 
ATOM     75  C   UNL A   1      34.794  32.535  30.385  1.00  0.00     0.020 A 
ATOM     76  C   UNL A   1      34.776  33.260  29.195  1.00  0.00     0.054 A 
BRANCH  76  77
ATOM     77  S   UNL A   1      33.619  34.639  28.954  1.00  0.00     0.124 S 
ATOM     78  O   UNL A   1      33.161  34.892  30.317  1.00  0.00    -0.237 OA
ATOM     79  O   UNL A   1      34.475  35.674  28.379  1.00  0.00    -0.237 OA
ATOM     80  O   UNL A   1      32.611  34.094  28.047  1.00  0.00    -0.744 OA
ENDBRANCH  76  77
ENDBRANCH  48  71
BRANCH  60  81
ATOM     81  C   UNL A   1      41.747  29.719  33.426  1.00  0.00    -0.014 A 
ATOM     82  C   UNL A   1      41.772  29.866  34.826  1.00  0.00     0.010 A 
ATOM     83  C   UNL A   1      41.694  28.413  32.896  1.00  0.00     0.010 A 
ATOM     84  C   UNL A   1      41.787  28.752  35.671  1.00  0.00     0.020 A 
ATOM     85  C   UNL A   1      41.680  27.291  33.741  1.00  0.00     0.020 A 
ATOM     86  C   UNL A   1      41.756  27.469  35.124  1.00  0.00     0.054 A 
BRANCH  86  87
ATOM     87  S   UNL A   1      41.849  26.052  36.252  1.00  0.00     0.124 S 
ATOM     88  O   UNL A   1      42.197  26.688  37.521  1.00  0.00    -0.237 OA
ATOM     89  O   UNL A   1      40.499  25.495  36.186  1.00  0.00    -0.237 OA
ATOM     90  O   UNL A   1      42.892  25.206  35.677  1.00  0.00    -0.744 OA
ENDBRANCH  86  87
ENDBRANCH  60  81
ENDBRANCH  34  35
ENDBRANCH  27  29
ENDBRANCH  26  27
ENDBRANCH  25  26
ENDBRANCH   1  25
TORSDOF 17
ENDMDL
MODEL 2
REMARK VINA RESULT:     -11.7      3.257      5.251
REMARK SMILES Cc1c(CC(=O)OCCOC(=O)c2ccc(-c3c4nc(c(-c5ccc(S(=O)(=O)[O-])cc5)c5ccc([nH]5)c(-c5ccc(S(=O)(=O)[O-])cc5)c5nc(c(-c6ccc(S(=O)(=O)[O-])cc6)c6ccc3[nH]6)C=C5)C=C4)cc2)c2ccccc2n1C(=O)c1ccc(Cl)cc1
REMARK SMILES IDX 8 1 7 2 5 3 6 4 4 5 3 6 1 7 2 8 79 9 73 10 78 11 74 12 77 13
REMARK SMILES IDX 75 14 76 15 80 16 81 17 82 18 83 19 88 20 84 21 87 22 85 23
REMARK SMILES IDX 86 24 9 25 10 26 11 27 12 28 13 29 14 30 72 31 15 32 71 33
REMARK SMILES IDX 16 34 17 35 18 36 65 37 19 38 70 39 64 40 66 41 20 42 69 43
REMARK SMILES IDX 63 44 62 45 21 47 51 48 32 49 50 50 33 51 36 52 49 53 67 54
REMARK SMILES IDX 34 55 35 56 48 58 68 59 37 60 22 61 23 62 31 63 24 64 30 65
REMARK SMILES IDX 25 66 26 67 27 68 28 69 29 70 52 71 53 72 61 73 54 74 60 75
REMARK SMILES IDX 55 76 56 77 57 78 58 79 59 80 38 81 39 82 47 83 40 84 46 85
REMARK SMILES IDX 41 86 42 87 43 88 44 89 45 90
REMARK H PARENT 66 46 36 57
REMARK Flexibility Score: inf
ROOT
ATOM      1  C   UNL A   1      36.466  22.109  25.180  1.00  0.00     0.274 C 
ENDROOT
BRANCH   1   2
ATOM      2  O   UNL A   1      36.282  23.541  25.108  1.00  0.00    -0.462 OA
BRANCH   2   3
ATOM      3  C   UNL A   1      35.022  23.968  25.363  1.00  0.00     0.310 C 
ATOM      4  O   UNL A   1      34.351  23.585  26.318  1.00  0.00    -0.252 OA
BRANCH   3   5
ATOM      5  C   UNL A   1      34.428  24.873  24.328  1.00  0.00     0.160 C 
BRANCH   5   6
ATOM      6  C   UNL A   1      33.299  25.822  24.634  1.00  0.00    -0.008 A 
ATOM      7  C   UNL A   1      31.485  24.334  23.523  1.00  0.00     0.065 C 
ATOM      8  C   UNL A   1      31.993  25.543  24.244  1.00  0.00     0.028 A 
ATOM      9  N   UNL A   1      31.175  26.601  24.618  1.00  0.00    -0.280 N 
ATOM     10  C   UNL A   1      33.218  26.967  25.497  1.00  0.00     0.004 A 
ATOM     11  C   UNL A   1      31.870  27.346  25.579  1.00  0.00     0.056 A 
ATOM     12  C   UNL A   1      34.140  27.704  26.274  1.00  0.00     0.010 A 
ATOM     13  C   UNL A   1      31.450  28.344  26.491  1.00  0.00     0.027 A 
ATOM     14  C   UNL A   1      33.723  28.683  27.184  1.00  0.00     0.001 A 
ATOM     15  C   UNL A   1      32.383  28.996  27.295  1.00  0.00     0.002 A 
BRANCH   9  16
ATOM     16  C   UNL A   1      29.878  26.861  24.108  1.00  0.00     0.262 C 
ATOM     17  O   UNL A   1      28.956  26.092  24.367  1.00  0.00    -0.268 OA
BRANCH  16  18
ATOM     18  C   UNL A   1      29.551  27.992  23.237  1.00  0.00     0.040 A 
ATOM     19  C   UNL A   1      30.572  28.705  22.602  1.00  0.00     0.015 A 
ATOM     20  C   UNL A   1      28.214  28.383  23.137  1.00  0.00     0.015 A 
ATOM     21  C   UNL A   1      30.249  29.865  21.901  1.00  0.00     0.021 A 
ATOM     22  C   UNL A   1      27.899  29.542  22.433  1.00  0.00     0.021 A 
ATOM     23  C   UNL A   1      28.917  30.284  21.830  1.00  0.00     0.041 A 
ATOM     24  Cl  UNL A   1      28.531  31.747  21.013  1.00  0.00    -0.084 Cl
ENDBRANCH  16  18
ENDBRANCH   9  16
ENDBRANCH   5   6
ENDBRANCH   3   5
ENDBRANCH   2   3
ENDBRANCH   1   2
BRANCH   1  25
ATOM     25  C   UNL A   1      37.925  21.763  25.487  1.00  0.00     0.275 C 
BRANCH  25  26
ATOM     26  O   UNL A   1      38.427  22.677  26.475  1.00  0.00    -0.458 OA
BRANCH  26  27
ATOM     27  C   UNL A   1      39.715  22.520  26.870  1.00  0.00     0.338 C 
ATOM     28  O   UNL A   1      40.421  21.536  26.723  1.00  0.00    -0.246 OA
BRANCH  27  29
ATOM     29  C   UNL A   1      40.204  23.880  27.169  1.00  0.00     0.060 A 
ATOM     30  C   UNL A   1      41.352  24.075  27.935  1.00  0.00     0.016 A 
ATOM     31  C   UNL A   1      39.340  24.944  26.891  1.00  0.00     0.016 A 
ATOM     32  C   UNL A   1      41.547  25.308  28.543  1.00  0.00     0.010 A 
ATOM     33  C   UNL A   1      39.501  26.149  27.547  1.00  0.00     0.010 A 
ATOM     34  C   UNL A   1      40.572  26.308  28.416  1.00  0.00    -0.014 A 
BRANCH  34  35
ATOM     35  C   UNL A   1      40.802  27.611  29.006  1.00  0.00     0.031 A 
ATOM     36  C   UNL A   1      41.925  28.336  28.376  1.00  0.00     0.074 A 
ATOM     37  C   UNL A   1      40.063  28.250  29.929  1.00  0.00     0.049 A 
ATOM     38  N   UNL A   1      43.120  28.446  28.844  1.00  0.00    -0.248 NA
ATOM     39  C   UNL A   1      41.744  28.873  27.024  1.00  0.00     0.031 C 
ATOM     40  C   UNL A   1      38.741  27.942  30.468  1.00  0.00     0.029 A 
ATOM     41  N   UNL A   1      40.386  29.419  30.546  1.00  0.00    -0.354 N 
ATOM     42  C   UNL A   1      43.825  29.196  27.917  1.00  0.00     0.074 A 
ATOM     43  C   UNL A   1      42.976  29.304  26.754  1.00  0.00     0.031 C 
ATOM     44  C   UNL A   1      38.298  29.003  31.192  1.00  0.00     0.029 A 
ATOM     45  C   UNL A   1      39.373  29.979  31.304  1.00  0.00     0.049 A 
ATOM     46  H   UNL A   1      41.275  29.834  30.461  1.00  0.00     0.167 HD
ATOM     47  C   UNL A   1      44.995  29.810  28.238  1.00  0.00     0.031 A 
ATOM     48  C   UNL A   1      39.439  31.173  31.944  1.00  0.00     0.031 A 
ATOM     49  C   UNL A   1      45.504  29.362  29.511  1.00  0.00     0.049 A 
ATOM     50  C   UNL A   1      40.880  31.465  32.174  1.00  0.00     0.074 A 
ATOM     51  C   UNL A   1      45.887  28.132  30.011  1.00  0.00     0.029 A 
ATOM     52  N   UNL A   1      45.266  30.157  30.610  1.00  0.00    -0.354 N 
ATOM     53  N   UNL A   1      41.640  30.776  32.980  1.00  0.00    -0.248 NA
ATOM     54  C   UNL A   1      41.588  32.291  31.208  1.00  0.00     0.031 C 
ATOM     55  C   UNL A   1      45.389  28.105  31.345  1.00  0.00     0.029 A 
ATOM     56  C   UNL A   1      44.783  29.338  31.603  1.00  0.00     0.049 A 
ATOM     57  H   UNL A   1      45.412  31.128  30.672  1.00  0.00     0.167 HD
ATOM     58  C   UNL A   1      42.883  30.746  32.364  1.00  0.00     0.074 A 
ATOM     59  C   UNL A   1      42.815  31.780  31.334  1.00  0.00     0.031 C 
ATOM     60  C   UNL A   1      43.759  29.715  32.561  1.00  0.00     0.031 A 
BRANCH  47  61
ATOM     61  C   UNL A   1      45.533  31.015  27.526  1.00  0.00    -0.014 A 
ATOM     62  C   UNL A   1      44.743  32.141  27.219  1.00  0.00     0.010 A 
ATOM     63  C   UNL A   1      46.923  31.133  27.334  1.00  0.00     0.010 A 
ATOM     64  C   UNL A   1      45.298  33.316  26.714  1.00  0.00     0.020 A 
ATOM     65  C   UNL A   1      47.496  32.326  26.873  1.00  0.00     0.020 A 
ATOM     66  C   UNL A   1      46.674  33.407  26.559  1.00  0.00     0.054 A 
BRANCH  66  67
ATOM     67  S   UNL A   1      47.369  34.990  26.028  1.00  0.00     0.124 S 
ATOM     68  O   UNL A   1      46.165  35.751  25.701  1.00  0.00    -0.237 OA
ATOM     69  O   UNL A   1      48.090  35.431  27.219  1.00  0.00    -0.237 OA
ATOM     70  O   UNL A   1      48.210  34.631  24.890  1.00  0.00    -0.744 OA
ENDBRANCH  66  67
ENDBRANCH  47  61
BRANCH  48  71
ATOM     71  C   UNL A   1      38.414  32.246  31.974  1.00  0.00    -0.014 A 
ATOM     72  C   UNL A   1      37.799  32.604  33.190  1.00  0.00     0.010 A 
ATOM     73  C   UNL A   1      37.799  32.661  30.775  1.00  0.00     0.010 A 
ATOM     74  C   UNL A   1      36.558  33.251  33.208  1.00  0.00     0.020 A 
ATOM     75  C   UNL A   1      36.552  33.304  30.787  1.00  0.00     0.020 A 
ATOM     76  C   UNL A   1      35.920  33.553  32.005  1.00  0.00     0.054 A 
BRANCH  76  77
ATOM     77  S   UNL A   1      34.211  34.163  32.069  1.00  0.00     0.124 S 
ATOM     78  O   UNL A   1      33.807  34.078  30.668  1.00  0.00    -0.237 OA
ATOM     79  O   UNL A   1      33.566  33.206  32.965  1.00  0.00    -0.237 OA
ATOM     80  O   UNL A   1      34.345  35.517  32.600  1.00  0.00    -0.744 OA
ENDBRANCH  76  77
ENDBRANCH  48  71
BRANCH  60  81
ATOM     81  C   UNL A   1      43.492  28.720  33.676  1.00  0.00    -0.014 A 
ATOM     82  C   UNL A   1      42.534  27.716  33.439  1.00  0.00     0.010 A 
ATOM     83  C   UNL A   1      43.995  28.861  34.986  1.00  0.00     0.010 A 
ATOM     84  C   UNL A   1      42.061  26.906  34.476  1.00  0.00     0.020 A 
ATOM     85  C   UNL A   1      43.544  28.032  36.027  1.00  0.00     0.020 A 
ATOM     86  C   UNL A   1      42.557  27.078  35.769  1.00  0.00     0.054 A 
BRANCH  86  87
ATOM     87  S   UNL A   1      41.865  26.056  37.098  1.00  0.00     0.124 S 
ATOM     88  O   UNL A   1      41.867  24.723  36.497  1.00  0.00    -0.237 OA
ATOM     89  O   UNL A   1      42.820  26.249  38.187  1.00  0.00    -0.237 OA
ATOM     90  O   UNL A   1      40.540  26.626  37.332  1.00  0.00    -0.744 OA
ENDBRANCH  86  87
ENDBRANCH  60  81
ENDBRANCH  34  35
ENDBRANCH  27  29
ENDBRANCH  26  27
ENDBRANCH  25  26
ENDBRANCH   1  25
TORSDOF 17
ENDMDL
MODEL 3
REMARK VINA RESULT:     -11.6      2.488      4.401
REMARK SMILES Cc1c(CC(=O)OCCOC(=O)c2ccc(-c3c4nc(c(-c5ccc(S(=O)(=O)[O-])cc5)c5ccc([nH]5)c(-c5ccc(S(=O)(=O)[O-])cc5)c5nc(c(-c6ccc(S(=O)(=O)[O-])cc6)c6ccc3[nH]6)C=C5)C=C4)cc2)c2ccccc2n1C(=O)c1ccc(Cl)cc1
REMARK SMILES IDX 8 1 7 2 5 3 6 4 4 5 3 6 1 7 2 8 79 9 73 10 78 11 74 12 77 13
REMARK SMILES IDX 75 14 76 15 80 16 81 17 82 18 83 19 88 20 84 21 87 22 85 23
REMARK SMILES IDX 86 24 9 25 10 26 11 27 12 28 13 29 14 30 72 31 15 32 71 33
REMARK SMILES IDX 16 34 17 35 18 36 65 37 19 38 70 39 64 40 66 41 20 42 69 43
REMARK SMILES IDX 63 44 62 45 21 47 51 48 32 49 50 50 33 51 36 52 49 53 67 54
REMARK SMILES IDX 34 55 35 56 48 58 68 59 37 60 22 61 23 62 31 63 24 64 30 65
REMARK SMILES IDX 25 66 26 67 27 68 28 69 29 70 52 71 53 72 61 73 54 74 60 75
REMARK SMILES IDX 55 76 56 77 57 78 58 79 59 80 38 81 39 82 47 83 40 84 46 85
REMARK SMILES IDX 41 86 42 87 43 88 44 89 45 90
REMARK H PARENT 66 46 36 57
REMARK Flexibility Score: inf
ROOT
ATOM      1  C   UNL A   1      37.233  21.674  24.612  1.00  0.00     0.274 C 
ENDROOT
BRANCH   1   2
ATOM      2  O   UNL A   1      35.929  21.879  25.200  1.00  0.00    -0.462 OA
BRANCH   2   3
ATOM      3  C   UNL A   1      35.054  20.861  25.016  1.00  0.00     0.310 C 
ATOM      4  O   UNL A   1      35.390  19.713  24.736  1.00  0.00    -0.252 OA
BRANCH   3   5
ATOM      5  C   UNL A   1      33.606  21.240  25.064  1.00  0.00     0.160 C 
BRANCH   5   6
ATOM      6  C   UNL A   1      33.129  22.650  24.833  1.00  0.00    -0.008 A 
ATOM      7  C   UNL A   1      33.237  23.307  27.342  1.00  0.00     0.065 C 
ATOM      8  C   UNL A   1      32.968  23.542  25.888  1.00  0.00     0.028 A 
ATOM      9  N   UNL A   1      32.482  24.744  25.392  1.00  0.00    -0.280 N 
ATOM     10  C   UNL A   1      32.978  23.424  23.633  1.00  0.00     0.004 A 
ATOM     11  C   UNL A   1      32.713  24.749  24.011  1.00  0.00     0.056 A 
ATOM     12  C   UNL A   1      33.092  23.163  22.249  1.00  0.00     0.010 A 
ATOM     13  C   UNL A   1      32.682  25.787  23.049  1.00  0.00     0.027 A 
ATOM     14  C   UNL A   1      33.072  24.190  21.298  1.00  0.00     0.001 A 
ATOM     15  C   UNL A   1      32.873  25.497  21.699  1.00  0.00     0.002 A 
BRANCH   9  16
ATOM     16  C   UNL A   1      31.868  25.764  26.161  1.00  0.00     0.262 C 
ATOM     17  O   UNL A   1      30.798  25.542  26.724  1.00  0.00    -0.268 OA
BRANCH  16  18
ATOM     18  C   UNL A   1      32.409  27.117  26.312  1.00  0.00     0.040 A 
ATOM     19  C   UNL A   1      33.787  27.308  26.451  1.00  0.00     0.015 A 
ATOM     20  C   UNL A   1      31.510  28.182  26.399  1.00  0.00     0.015 A 
ATOM     21  C   UNL A   1      34.265  28.584  26.743  1.00  0.00     0.021 A 
ATOM     22  C   UNL A   1      31.996  29.454  26.688  1.00  0.00     0.021 A 
ATOM     23  C   UNL A   1      33.367  29.647  26.871  1.00  0.00     0.041 A 
ATOM     24  Cl  UNL A   1      33.956  31.208  27.288  1.00  0.00    -0.084 Cl
ENDBRANCH  16  18
ENDBRANCH   9  16
ENDBRANCH   5   6
ENDBRANCH   3   5
ENDBRANCH   2   3
ENDBRANCH   1   2
BRANCH   1  25
ATOM     25  C   UNL A   1      38.260  21.300  25.683  1.00  0.00     0.275 C 
BRANCH  25  26
ATOM     26  O   UNL A   1      38.801  22.502  26.255  1.00  0.00    -0.458 OA
BRANCH  26  27
ATOM     27  C   UNL A   1      40.054  22.436  26.769  1.00  0.00     0.338 C 
ATOM     28  O   UNL A   1      40.832  21.499  26.709  1.00  0.00    -0.246 OA
BRANCH  27  29
ATOM     29  C   UNL A   1      40.425  23.830  27.080  1.00  0.00     0.060 A 
ATOM     30  C   UNL A   1      41.439  24.113  27.995  1.00  0.00     0.016 A 
ATOM     31  C   UNL A   1      39.559  24.835  26.639  1.00  0.00     0.016 A 
ATOM     32  C   UNL A   1      41.480  25.375  28.575  1.00  0.00     0.010 A 
ATOM     33  C   UNL A   1      39.561  26.067  27.263  1.00  0.00     0.010 A 
ATOM     34  C   UNL A   1      40.485  26.314  28.269  1.00  0.00    -0.014 A 
BRANCH  34  35
ATOM     35  C   UNL A   1      40.561  27.647  28.833  1.00  0.00     0.031 A 
ATOM     36  C   UNL A   1      41.761  28.388  28.394  1.00  0.00     0.074 A 
ATOM     37  C   UNL A   1      39.642  28.292  29.572  1.00  0.00     0.049 A 
ATOM     38  N   UNL A   1      42.842  28.560  29.072  1.00  0.00    -0.248 NA
ATOM     39  C   UNL A   1      41.823  28.866  27.009  1.00  0.00     0.031 C 
ATOM     40  C   UNL A   1      38.252  27.956  29.866  1.00  0.00     0.029 A 
ATOM     41  N   UNL A   1      39.808  29.495  30.186  1.00  0.00    -0.354 N 
ATOM     42  C   UNL A   1      43.687  29.301  28.261  1.00  0.00     0.074 A 
ATOM     43  C   UNL A   1      43.071  29.332  26.957  1.00  0.00     0.031 C 
ATOM     44  C   UNL A   1      37.649  29.026  30.446  1.00  0.00     0.029 A 
ATOM     45  C   UNL A   1      38.654  30.045  30.714  1.00  0.00     0.049 A 
ATOM     46  H   UNL A   1      40.685  29.939  30.251  1.00  0.00     0.167 HD
ATOM     47  C   UNL A   1      44.757  29.969  28.769  1.00  0.00     0.031 A 
ATOM     48  C   UNL A   1      38.563  31.264  31.302  1.00  0.00     0.031 A 
ATOM     49  C   UNL A   1      45.028  29.589  30.134  1.00  0.00     0.049 A 
ATOM     50  C   UNL A   1      39.925  31.619  31.785  1.00  0.00     0.074 A 
ATOM     51  C   UNL A   1      45.346  28.395  30.751  1.00  0.00     0.029 A 
ATOM     52  N   UNL A   1      44.563  30.417  31.132  1.00  0.00    -0.354 N 
ATOM     53  N   UNL A   1      40.538  30.989  32.749  1.00  0.00    -0.248 NA
ATOM     54  C   UNL A   1      40.778  32.433  30.933  1.00  0.00     0.031 C 
ATOM     55  C   UNL A   1      44.606  28.401  31.968  1.00  0.00     0.029 A 
ATOM     56  C   UNL A   1      43.926  29.619  32.052  1.00  0.00     0.049 A 
ATOM     57  H   UNL A   1      44.667  31.394  31.177  1.00  0.00     0.167 HD
ATOM     58  C   UNL A   1      41.876  30.983  32.379  1.00  0.00     0.074 A 
ATOM     59  C   UNL A   1      41.973  31.974  31.310  1.00  0.00     0.031 C 
ATOM     60  C   UNL A   1      42.728  29.994  32.783  1.00  0.00     0.031 A 
BRANCH  47  61
ATOM     61  C   UNL A   1      45.384  31.165  28.118  1.00  0.00    -0.014 A 
ATOM     62  C   UNL A   1      46.506  31.076  27.268  1.00  0.00     0.010 A 
ATOM     63  C   UNL A   1      44.720  32.406  28.176  1.00  0.00     0.010 A 
ATOM     64  C   UNL A   1      46.968  32.170  26.538  1.00  0.00     0.020 A 
ATOM     65  C   UNL A   1      45.146  33.498  27.410  1.00  0.00     0.020 A 
ATOM     66  C   UNL A   1      46.275  33.372  26.601  1.00  0.00     0.054 A 
BRANCH  66  67
ATOM     67  S   UNL A   1      46.825  34.729  25.539  1.00  0.00     0.124 S 
ATOM     68  O   UNL A   1      48.215  34.361  25.279  1.00  0.00    -0.237 OA
ATOM     69  O   UNL A   1      45.920  34.619  24.398  1.00  0.00    -0.237 OA
ATOM     70  O   UNL A   1      46.636  35.913  26.371  1.00  0.00    -0.744 OA
ENDBRANCH  66  67
ENDBRANCH  47  61
BRANCH  48  71
ATOM     71  C   UNL A   1      37.519  32.299  31.091  1.00  0.00    -0.014 A 
ATOM     72  C   UNL A   1      37.633  33.557  31.714  1.00  0.00     0.010 A 
ATOM     73  C   UNL A   1      36.260  31.929  30.573  1.00  0.00     0.010 A 
ATOM     74  C   UNL A   1      36.509  34.366  31.917  1.00  0.00     0.020 A 
ATOM     75  C   UNL A   1      35.129  32.734  30.779  1.00  0.00     0.020 A 
ATOM     76  C   UNL A   1      35.256  33.926  31.491  1.00  0.00     0.054 A 
BRANCH  76  77
ATOM     77  S   UNL A   1      33.795  34.882  31.988  1.00  0.00     0.124 S 
ATOM     78  O   UNL A   1      33.155  33.982  32.943  1.00  0.00    -0.237 OA
ATOM     79  O   UNL A   1      34.387  36.088  32.564  1.00  0.00    -0.237 OA
ATOM     80  O   UNL A   1      33.069  35.085  30.737  1.00  0.00    -0.744 OA
ENDBRANCH  76  77
ENDBRANCH  48  71
BRANCH  60  81
ATOM     81  C   UNL A   1      42.285  29.032  33.872  1.00  0.00    -0.014 A 
ATOM     82  C   UNL A   1      42.749  29.269  35.180  1.00  0.00     0.010 A 
ATOM     83  C   UNL A   1      41.610  27.821  33.616  1.00  0.00     0.010 A 
ATOM     84  C   UNL A   1      42.583  28.318  36.191  1.00  0.00     0.020 A 
ATOM     85  C   UNL A   1      41.416  26.873  34.634  1.00  0.00     0.020 A 
ATOM     86  C   UNL A   1      41.930  27.117  35.909  1.00  0.00     0.054 A 
BRANCH  86  87
ATOM     87  S   UNL A   1      41.801  25.880  37.230  1.00  0.00     0.124 S 
ATOM     88  O   UNL A   1      40.411  26.028  37.658  1.00  0.00    -0.237 OA
ATOM     89  O   UNL A   1      42.108  24.631  36.536  1.00  0.00    -0.237 OA
ATOM     90  O   UNL A   1      42.798  26.300  38.211  1.00  0.00    -0.744 OA
ENDBRANCH  86  87
ENDBRANCH  60  81
ENDBRANCH  34  35
ENDBRANCH  27  29
ENDBRANCH  26  27
ENDBRANCH  25  26
ENDBRANCH   1  25
TORSDOF 17
ENDMDL
