MODEL 1
REMARK VINA RESULT:      -9.2      0.000      0.000
REMARK SMILES CCOc1cccc(-c2ccc([C@@H](C)C(=O)OCCOC(=O)c3ccc(-c4c5nc(c(-c6ccc(S(=O)(=O)[O-])cc6)c6ccc([nH]6)c(-c6ccc(S(=O)(=O)[O-])cc6)c6nc(c(-c7ccc(S(=O)(=O)[O-])cc7)c7ccc4[nH]7)C=C6)C=C5)cc3)cc2F)c1
REMARK SMILES IDX 18 1 17 2 15 3 16 4 13 5 14 6 12 7 9 8 10 9 84 10 11 11
REMARK SMILES IDX 83 12 85 13 8 14 4 15 5 16 86 17 6 18 7 19 3 20 2 21 1 22
REMARK SMILES IDX 19 23 20 24 21 25 22 26 23 27 24 28 82 29 25 30 81 31 26 32
REMARK SMILES IDX 27 33 28 34 75 35 29 36 80 37 74 38 76 39 30 40 79 41 73 42
REMARK SMILES IDX 72 43 31 45 61 46 42 47 60 48 43 49 46 50 59 51 77 52 44 53
REMARK SMILES IDX 45 54 58 56 78 57 47 58 32 59 33 60 41 61 34 62 40 63 35 64
REMARK SMILES IDX 36 65 37 66 38 67 39 68 62 69 63 70 71 71 64 72 70 73 65 74
REMARK SMILES IDX 66 75 67 76 68 77 69 78 48 79 49 80 57 81 50 82 56 83 51 84
REMARK SMILES IDX 52 85 53 86 54 87 55 88
REMARK H PARENT 76 44 46 55
REMARK Flexibility Score: inf
ROOT
ATOM      1  C   UNL A   1      33.675  33.960  28.104  1.00  0.00     0.274 C 
ENDROOT
BRANCH   1   2
ATOM      2  O   UNL A   1      33.246  34.000  29.478  1.00  0.00    -0.462 OA
BRANCH   2   3
ATOM      3  C   UNL A   1      33.342  35.196  30.115  1.00  0.00     0.313 C 
ATOM      4  O   UNL A   1      33.303  36.283  29.547  1.00  0.00    -0.252 OA
BRANCH   3   5
ATOM      5  C   UNL A   1      33.555  35.081  31.621  1.00  0.00     0.126 C 
ATOM      6  C   UNL A   1      33.456  36.460  32.268  1.00  0.00     0.025 C 
BRANCH   5   7
ATOM      7  C   UNL A   1      34.796  34.323  32.068  1.00  0.00    -0.031 A 
ATOM      8  C   UNL A   1      37.147  32.958  32.928  1.00  0.00     0.018 A 
ATOM      9  C   UNL A   1      35.982  32.256  32.573  1.00  0.00     0.012 A 
ATOM     10  C   UNL A   1      37.102  34.356  32.835  1.00  0.00     0.131 A 
ATOM     11  C   UNL A   1      34.830  32.925  32.143  1.00  0.00     0.005 A 
ATOM     12  C   UNL A   1      35.955  35.031  32.416  1.00  0.00     0.044 A 
ATOM     13  F   UNL A   1      38.184  35.091  33.136  1.00  0.00    -0.206 F 
BRANCH   8  14
ATOM     14  C   UNL A   1      38.347  32.241  33.399  1.00  0.00    -0.012 A 
ATOM     15  C   UNL A   1      39.535  30.155  33.822  1.00  0.00     0.119 A 
ATOM     16  C   UNL A   1      40.642  30.858  34.283  1.00  0.00     0.046 A 
ATOM     17  C   UNL A   1      38.390  30.837  33.409  1.00  0.00     0.055 A 
ATOM     18  C   UNL A   1      40.621  32.250  34.293  1.00  0.00     0.004 A 
ATOM     19  C   UNL A   1      39.484  32.935  33.850  1.00  0.00     0.009 A 
BRANCH  15  20
ATOM     20  O   UNL A   1      39.562  28.791  33.889  1.00  0.00    -0.494 OA
BRANCH  20  21
ATOM     21  C   UNL A   1      39.718  28.168  32.608  1.00  0.00     0.226 C 
ATOM     22  C   UNL A   1      38.509  27.323  32.240  1.00  0.00     0.049 C 
ENDBRANCH  20  21
ENDBRANCH  15  20
ENDBRANCH   8  14
ENDBRANCH   5   7
ENDBRANCH   3   5
ENDBRANCH   2   3
ENDBRANCH   1   2
BRANCH   1  23
ATOM     23  C   UNL A   1      33.446  32.576  27.493  1.00  0.00     0.275 C 
BRANCH  23  24
ATOM     24  O   UNL A   1      33.831  31.532  28.402  1.00  0.00    -0.458 OA
BRANCH  24  25
ATOM     25  C   UNL A   1      34.277  30.396  27.818  1.00  0.00     0.338 C 
ATOM     26  O   UNL A   1      33.681  29.682  27.034  1.00  0.00    -0.246 OA
BRANCH  25  27
ATOM     27  C   UNL A   1      35.679  30.179  28.198  1.00  0.00     0.060 A 
ATOM     28  C   UNL A   1      36.659  30.242  27.203  1.00  0.00     0.016 A 
ATOM     29  C   UNL A   1      36.013  29.840  29.508  1.00  0.00     0.016 A 
ATOM     30  C   UNL A   1      37.985  29.954  27.514  1.00  0.00     0.010 A 
ATOM     31  C   UNL A   1      37.344  29.562  29.820  1.00  0.00     0.010 A 
ATOM     32  C   UNL A   1      38.336  29.607  28.823  1.00  0.00    -0.014 A 
BRANCH  32  33
ATOM     33  C   UNL A   1      39.733  29.244  29.158  1.00  0.00     0.031 A 
ATOM     34  C   UNL A   1      40.644  30.277  29.753  1.00  0.00     0.074 A 
ATOM     35  C   UNL A   1      40.184  28.001  28.903  1.00  0.00     0.049 A 
ATOM     36  N   UNL A   1      41.933  30.219  29.962  1.00  0.00    -0.248 NA
ATOM     37  C   UNL A   1      40.021  31.547  30.162  1.00  0.00     0.031 C 
ATOM     38  C   UNL A   1      39.376  26.898  28.380  1.00  0.00     0.029 A 
ATOM     39  N   UNL A   1      41.440  27.465  29.034  1.00  0.00    -0.354 N 
ATOM     40  C   UNL A   1      42.284  31.452  30.498  1.00  0.00     0.074 A 
ATOM     41  C   UNL A   1      41.073  32.241  30.576  1.00  0.00     0.031 C 
ATOM     42  C   UNL A   1      40.160  25.818  28.226  1.00  0.00     0.029 A 
ATOM     43  C   UNL A   1      41.532  26.170  28.582  1.00  0.00     0.049 A 
ATOM     44  H   UNL A   1      42.202  27.960  29.415  1.00  0.00     0.167 HD
ATOM     45  C   UNL A   1      43.507  31.886  30.882  1.00  0.00     0.031 A 
ATOM     46  C   UNL A   1      42.607  25.371  28.432  1.00  0.00     0.031 A 
ATOM     47  C   UNL A   1      44.704  31.091  30.799  1.00  0.00     0.049 A 
ATOM     48  C   UNL A   1      43.967  25.899  28.798  1.00  0.00     0.074 A 
ATOM     49  C   UNL A   1      45.994  31.437  31.163  1.00  0.00     0.029 A 
ATOM     50  N   UNL A   1      44.757  29.791  30.320  1.00  0.00    -0.354 N 
ATOM     51  N   UNL A   1      44.289  27.073  29.285  1.00  0.00    -0.248 NA
ATOM     52  C   UNL A   1      45.110  24.999  28.588  1.00  0.00     0.031 C 
ATOM     53  C   UNL A   1      46.835  30.360  30.862  1.00  0.00     0.029 A 
ATOM     54  C   UNL A   1      46.060  29.326  30.361  1.00  0.00     0.049 A 
ATOM     55  H   UNL A   1      43.983  29.276  29.998  1.00  0.00     0.167 HD
ATOM     56  C   UNL A   1      45.667  27.045  29.465  1.00  0.00     0.074 A 
ATOM     57  C   UNL A   1      46.118  25.735  29.038  1.00  0.00     0.031 C 
ATOM     58  C   UNL A   1      46.485  28.014  29.942  1.00  0.00     0.031 A 
BRANCH  45  59
ATOM     59  C   UNL A   1      43.619  33.300  31.383  1.00  0.00    -0.014 A 
ATOM     60  C   UNL A   1      43.809  34.376  30.498  1.00  0.00     0.010 A 
ATOM     61  C   UNL A   1      43.501  33.559  32.761  1.00  0.00     0.010 A 
ATOM     62  C   UNL A   1      43.918  35.682  30.986  1.00  0.00     0.020 A 
ATOM     63  C   UNL A   1      43.586  34.865  33.251  1.00  0.00     0.020 A 
ATOM     64  C   UNL A   1      43.812  35.916  32.361  1.00  0.00     0.054 A 
BRANCH  64  65
ATOM     65  S   UNL A   1      43.942  37.621  32.970  1.00  0.00     0.124 S 
ATOM     66  O   UNL A   1      42.808  37.700  33.887  1.00  0.00    -0.237 OA
ATOM     67  O   UNL A   1      45.260  37.641  33.598  1.00  0.00    -0.237 OA
ATOM     68  O   UNL A   1      43.820  38.431  31.761  1.00  0.00    -0.744 OA
ENDBRANCH  64  65
ENDBRANCH  45  59
BRANCH  46  69
ATOM     69  C   UNL A   1      42.439  24.004  27.871  1.00  0.00    -0.014 A 
ATOM     70  C   UNL A   1      42.506  23.787  26.484  1.00  0.00     0.010 A 
ATOM     71  C   UNL A   1      42.233  22.905  28.726  1.00  0.00     0.010 A 
ATOM     72  C   UNL A   1      42.363  22.498  25.962  1.00  0.00     0.020 A 
ATOM     73  C   UNL A   1      42.114  21.613  28.210  1.00  0.00     0.020 A 
ATOM     74  C   UNL A   1      42.169  21.419  26.829  1.00  0.00     0.054 A 
BRANCH  74  75
ATOM     75  S   UNL A   1      42.045  19.746  26.135  1.00  0.00     0.124 S 
ATOM     76  O   UNL A   1      42.989  19.808  25.024  1.00  0.00    -0.237 OA
ATOM     77  O   UNL A   1      42.447  18.905  27.260  1.00  0.00    -0.237 OA
ATOM     78  O   UNL A   1      40.637  19.636  25.759  1.00  0.00    -0.744 OA
ENDBRANCH  74  75
ENDBRANCH  46  69
BRANCH  58  79
ATOM     79  C   UNL A   1      47.948  27.689  30.076  1.00  0.00    -0.014 A 
ATOM     80  C   UNL A   1      48.871  28.072  29.089  1.00  0.00     0.010 A 
ATOM     81  C   UNL A   1      48.411  27.075  31.254  1.00  0.00     0.010 A 
ATOM     82  C   UNL A   1      50.236  27.838  29.274  1.00  0.00     0.020 A 
ATOM     83  C   UNL A   1      49.777  26.860  31.452  1.00  0.00     0.020 A 
ATOM     84  C   UNL A   1      50.681  27.237  30.457  1.00  0.00     0.054 A 
BRANCH  84  85
ATOM     85  S   UNL A   1      52.464  27.020  30.710  1.00  0.00     0.124 S 
ATOM     86  O   UNL A   1      52.975  28.362  30.447  1.00  0.00    -0.237 OA
ATOM     87  O   UNL A   1      52.541  26.580  32.102  1.00  0.00    -0.237 OA
ATOM     88  O   UNL A   1      52.833  26.007  29.723  1.00  0.00    -0.744 OA
ENDBRANCH  84  85
ENDBRANCH  58  79
ENDBRANCH  32  33
ENDBRANCH  25  27
ENDBRANCH  24  25
ENDBRANCH  23  24
ENDBRANCH   1  23
TORSDOF 18
ENDMDL
MODEL 2
REMARK VINA RESULT:      -9.2      3.541      6.098
REMARK SMILES CCOc1cccc(-c2ccc([C@@H](C)C(=O)OCCOC(=O)c3ccc(-c4c5nc(c(-c6ccc(S(=O)(=O)[O-])cc6)c6ccc([nH]6)c(-c6ccc(S(=O)(=O)[O-])cc6)c6nc(c(-c7ccc(S(=O)(=O)[O-])cc7)c7ccc4[nH]7)C=C6)C=C5)cc3)cc2F)c1
REMARK SMILES IDX 18 1 17 2 15 3 16 4 13 5 14 6 12 7 9 8 10 9 84 10 11 11
REMARK SMILES IDX 83 12 85 13 8 14 4 15 5 16 86 17 6 18 7 19 3 20 2 21 1 22
REMARK SMILES IDX 19 23 20 24 21 25 22 26 23 27 24 28 82 29 25 30 81 31 26 32
REMARK SMILES IDX 27 33 28 34 75 35 29 36 80 37 74 38 76 39 30 40 79 41 73 42
REMARK SMILES IDX 72 43 31 45 61 46 42 47 60 48 43 49 46 50 59 51 77 52 44 53
REMARK SMILES IDX 45 54 58 56 78 57 47 58 32 59 33 60 41 61 34 62 40 63 35 64
REMARK SMILES IDX 36 65 37 66 38 67 39 68 62 69 63 70 71 71 64 72 70 73 65 74
REMARK SMILES IDX 66 75 67 76 68 77 69 78 48 79 49 80 57 81 50 82 56 83 51 84
REMARK SMILES IDX 52 85 53 86 54 87 55 88
REMARK H PARENT 76 44 46 55
REMARK Flexibility Score: inf
ROOT
ATOM      1  C   UNL A   1      32.593  30.021  25.640  1.00  0.00     0.274 C 
ENDROOT
BRANCH   1   2
ATOM      2  O   UNL A   1      31.399  29.225  25.518  1.00  0.00    -0.462 OA
BRANCH   2   3
ATOM      3  C   UNL A   1      30.685  29.363  24.370  1.00  0.00     0.313 C 
ATOM      4  O   UNL A   1      30.072  30.380  24.059  1.00  0.00    -0.252 OA
BRANCH   3   5
ATOM      5  C   UNL A   1      30.664  28.111  23.500  1.00  0.00     0.126 C 
ATOM      6  C   UNL A   1      29.237  27.579  23.388  1.00  0.00     0.025 C 
BRANCH   5   7
ATOM      7  C   UNL A   1      31.658  27.020  23.868  1.00  0.00    -0.031 A 
ATOM      8  C   UNL A   1      33.477  24.948  24.595  1.00  0.00     0.018 A 
ATOM      9  C   UNL A   1      33.734  25.796  23.505  1.00  0.00     0.012 A 
ATOM     10  C   UNL A   1      32.292  25.169  25.310  1.00  0.00     0.131 A 
ATOM     11  C   UNL A   1      32.845  26.819  23.152  1.00  0.00     0.005 A 
ATOM     12  C   UNL A   1      31.396  26.180  24.959  1.00  0.00     0.044 A 
ATOM     13  F   UNL A   1      31.992  24.412  26.377  1.00  0.00    -0.206 F 
BRANCH   8  14
ATOM     14  C   UNL A   1      34.412  23.861  24.942  1.00  0.00    -0.012 A 
ATOM     15  C   UNL A   1      34.916  21.484  25.128  1.00  0.00     0.119 A 
ATOM     16  C   UNL A   1      36.197  21.772  25.587  1.00  0.00     0.046 A 
ATOM     17  C   UNL A   1      34.025  22.515  24.834  1.00  0.00     0.055 A 
ATOM     18  C   UNL A   1      36.602  23.098  25.714  1.00  0.00     0.004 A 
ATOM     19  C   UNL A   1      35.717  24.133  25.389  1.00  0.00     0.009 A 
BRANCH  15  20
ATOM     20  O   UNL A   1      34.528  20.174  25.081  1.00  0.00    -0.494 OA
BRANCH  20  21
ATOM     21  C   UNL A   1      33.281  19.983  24.399  1.00  0.00     0.226 C 
ATOM     22  C   UNL A   1      33.006  18.512  24.131  1.00  0.00     0.049 C 
ENDBRANCH  20  21
ENDBRANCH  15  20
ENDBRANCH   8  14
ENDBRANCH   5   7
ENDBRANCH   3   5
ENDBRANCH   2   3
ENDBRANCH   1   2
BRANCH   1  23
ATOM     23  C   UNL A   1      33.749  29.200  26.213  1.00  0.00     0.275 C 
BRANCH  23  24
ATOM     24  O   UNL A   1      33.869  29.383  27.634  1.00  0.00    -0.458 OA
BRANCH  24  25
ATOM     25  C   UNL A   1      34.647  30.422  28.016  1.00  0.00     0.338 C 
ATOM     26  O   UNL A   1      34.301  31.570  28.225  1.00  0.00    -0.246 OA
BRANCH  25  27
ATOM     27  C   UNL A   1      36.013  29.938  28.251  1.00  0.00     0.060 A 
ATOM     28  C   UNL A   1      36.340  29.444  29.517  1.00  0.00     0.016 A 
ATOM     29  C   UNL A   1      36.982  30.044  27.254  1.00  0.00     0.016 A 
ATOM     30  C   UNL A   1      37.649  29.061  29.798  1.00  0.00     0.010 A 
ATOM     31  C   UNL A   1      38.291  29.649  27.534  1.00  0.00     0.010 A 
ATOM     32  C   UNL A   1      38.634  29.165  28.810  1.00  0.00    -0.014 A 
BRANCH  32  33
ATOM     33  C   UNL A   1      40.042  28.814  29.109  1.00  0.00     0.031 A 
ATOM     34  C   UNL A   1      40.960  29.855  29.678  1.00  0.00     0.074 A 
ATOM     35  C   UNL A   1      40.496  27.574  28.844  1.00  0.00     0.049 A 
ATOM     36  N   UNL A   1      42.255  29.807  29.854  1.00  0.00    -0.248 NA
ATOM     37  C   UNL A   1      40.338  31.121  30.102  1.00  0.00     0.031 C 
ATOM     38  C   UNL A   1      39.683  26.464  28.344  1.00  0.00     0.029 A 
ATOM     39  N   UNL A   1      41.759  27.048  28.943  1.00  0.00    -0.354 N 
ATOM     40  C   UNL A   1      42.610  31.044  30.379  1.00  0.00     0.074 A 
ATOM     41  C   UNL A   1      41.395  31.823  30.487  1.00  0.00     0.031 C 
ATOM     42  C   UNL A   1      40.472  25.390  28.171  1.00  0.00     0.029 A 
ATOM     43  C   UNL A   1      41.849  25.753  28.491  1.00  0.00     0.049 A 
ATOM     44  H   UNL A   1      42.526  27.550  29.303  1.00  0.00     0.167 HD
ATOM     45  C   UNL A   1      43.839  31.488  30.730  1.00  0.00     0.031 A 
ATOM     46  C   UNL A   1      42.926  24.963  28.314  1.00  0.00     0.031 A 
ATOM     47  C   UNL A   1      45.040  30.703  30.617  1.00  0.00     0.049 A 
ATOM     48  C   UNL A   1      44.291  25.502  28.644  1.00  0.00     0.074 A 
ATOM     49  C   UNL A   1      46.336  31.059  30.947  1.00  0.00     0.029 A 
ATOM     50  N   UNL A   1      45.090  29.402  30.138  1.00  0.00    -0.354 N 
ATOM     51  N   UNL A   1      44.617  26.679  29.120  1.00  0.00    -0.248 NA
ATOM     52  C   UNL A   1      45.435  24.610  28.406  1.00  0.00     0.031 C 
ATOM     53  C   UNL A   1      47.177  29.988  30.626  1.00  0.00     0.029 A 
ATOM     54  C   UNL A   1      46.397  28.947  30.146  1.00  0.00     0.049 A 
ATOM     55  H   UNL A   1      44.312  28.880  29.838  1.00  0.00     0.167 HD
ATOM     56  C   UNL A   1      45.999  26.661  29.264  1.00  0.00     0.074 A 
ATOM     57  C   UNL A   1      46.449  25.355  28.828  1.00  0.00     0.031 C 
ATOM     58  C   UNL A   1      46.822  27.638  29.719  1.00  0.00     0.031 A 
BRANCH  45  59
ATOM     59  C   UNL A   1      43.953  32.904  31.225  1.00  0.00    -0.014 A 
ATOM     60  C   UNL A   1      44.161  33.975  30.338  1.00  0.00     0.010 A 
ATOM     61  C   UNL A   1      43.819  33.170  32.601  1.00  0.00     0.010 A 
ATOM     62  C   UNL A   1      44.270  35.282  30.822  1.00  0.00     0.020 A 
ATOM     63  C   UNL A   1      43.905  34.477  33.086  1.00  0.00     0.020 A 
ATOM     64  C   UNL A   1      44.149  35.523  32.194  1.00  0.00     0.054 A 
BRANCH  64  65
ATOM     65  S   UNL A   1      44.281  37.230  32.797  1.00  0.00     0.124 S 
ATOM     66  O   UNL A   1      45.604  37.228  33.417  1.00  0.00    -0.237 OA
ATOM     67  O   UNL A   1      44.162  38.016  31.572  1.00  0.00    -0.237 OA
ATOM     68  O   UNL A   1      43.161  37.358  33.726  1.00  0.00    -0.744 OA
ENDBRANCH  64  65
ENDBRANCH  45  59
BRANCH  46  69
ATOM     69  C   UNL A   1      42.755  23.593  27.760  1.00  0.00    -0.014 A 
ATOM     70  C   UNL A   1      42.405  22.521  28.598  1.00  0.00     0.010 A 
ATOM     71  C   UNL A   1      42.919  23.358  26.382  1.00  0.00     0.010 A 
ATOM     72  C   UNL A   1      42.230  21.238  28.071  1.00  0.00     0.020 A 
ATOM     73  C   UNL A   1      42.720  22.083  25.847  1.00  0.00     0.020 A 
ATOM     74  C   UNL A   1      42.388  21.028  26.698  1.00  0.00     0.054 A 
BRANCH  74  75
ATOM     75  S   UNL A   1      42.098  19.367  26.024  1.00  0.00     0.124 S 
ATOM     76  O   UNL A   1      42.901  19.390  24.806  1.00  0.00    -0.237 OA
ATOM     77  O   UNL A   1      42.591  18.500  27.092  1.00  0.00    -0.237 OA
ATOM     78  O   UNL A   1      40.651  19.329  25.822  1.00  0.00    -0.744 OA
ENDBRANCH  74  75
ENDBRANCH  46  69
BRANCH  58  79
ATOM     79  C   UNL A   1      48.290  27.324  29.815  1.00  0.00    -0.014 A 
ATOM     80  C   UNL A   1      49.178  27.676  28.784  1.00  0.00     0.010 A 
ATOM     81  C   UNL A   1      48.796  26.755  30.998  1.00  0.00     0.010 A 
ATOM     82  C   UNL A   1      50.549  27.456  28.932  1.00  0.00     0.020 A 
ATOM     83  C   UNL A   1      50.169  26.553  31.157  1.00  0.00     0.020 A 
ATOM     84  C   UNL A   1      51.037  26.899  30.120  1.00  0.00     0.054 A 
BRANCH  84  85
ATOM     85  S   UNL A   1      52.829  26.698  30.321  1.00  0.00     0.124 S 
ATOM     86  O   UNL A   1      53.236  28.029  30.763  1.00  0.00    -0.237 OA
ATOM     87  O   UNL A   1      52.924  25.645  31.329  1.00  0.00    -0.237 OA
ATOM     88  O   UNL A   1      53.286  26.317  28.986  1.00  0.00    -0.744 OA
ENDBRANCH  84  85
ENDBRANCH  58  79
ENDBRANCH  32  33
ENDBRANCH  25  27
ENDBRANCH  24  25
ENDBRANCH  23  24
ENDBRANCH   1  23
TORSDOF 18
ENDMDL
MODEL 3
REMARK VINA RESULT:      -9.1      1.433      2.499
REMARK SMILES CCOc1cccc(-c2ccc([C@@H](C)C(=O)OCCOC(=O)c3ccc(-c4c5nc(c(-c6ccc(S(=O)(=O)[O-])cc6)c6ccc([nH]6)c(-c6ccc(S(=O)(=O)[O-])cc6)c6nc(c(-c7ccc(S(=O)(=O)[O-])cc7)c7ccc4[nH]7)C=C6)C=C5)cc3)cc2F)c1
REMARK SMILES IDX 18 1 17 2 15 3 16 4 13 5 14 6 12 7 9 8 10 9 84 10 11 11
REMARK SMILES IDX 83 12 85 13 8 14 4 15 5 16 86 17 6 18 7 19 3 20 2 21 1 22
REMARK SMILES IDX 19 23 20 24 21 25 22 26 23 27 24 28 82 29 25 30 81 31 26 32
REMARK SMILES IDX 27 33 28 34 75 35 29 36 80 37 74 38 76 39 30 40 79 41 73 42
REMARK SMILES IDX 72 43 31 45 61 46 42 47 60 48 43 49 46 50 59 51 77 52 44 53
REMARK SMILES IDX 45 54 58 56 78 57 47 58 32 59 33 60 41 61 34 62 40 63 35 64
REMARK SMILES IDX 36 65 37 66 38 67 39 68 62 69 63 70 71 71 64 72 70 73 65 74
REMARK SMILES IDX 66 75 67 76 68 77 69 78 48 79 49 80 57 81 50 82 56 83 51 84
REMARK SMILES IDX 52 85 53 86 54 87 55 88
REMARK H PARENT 76 44 46 55
REMARK Flexibility Score: inf
ROOT
ATOM      1  C   UNL A   1      34.347  33.835  29.053  1.00  0.00     0.274 C 
ENDROOT
BRANCH   1   2
ATOM      2  O   UNL A   1      34.320  33.280  30.381  1.00  0.00    -0.462 OA
BRANCH   2   3
ATOM      3  C   UNL A   1      35.522  33.003  30.954  1.00  0.00     0.313 C 
ATOM      4  O   UNL A   1      36.605  33.239  30.427  1.00  0.00    -0.252 OA
BRANCH   3   5
ATOM      5  C   UNL A   1      35.417  32.317  32.312  1.00  0.00     0.126 C 
ATOM      6  C   UNL A   1      34.672  33.218  33.293  1.00  0.00     0.025 C 
BRANCH   5   7
ATOM      7  C   UNL A   1      36.715  31.779  32.895  1.00  0.00    -0.031 A 
ATOM      8  C   UNL A   1      39.157  30.827  34.017  1.00  0.00     0.018 A 
ATOM      9  C   UNL A   1      38.225  29.947  33.441  1.00  0.00     0.012 A 
ATOM     10  C   UNL A   1      38.835  32.191  34.010  1.00  0.00     0.131 A 
ATOM     11  C   UNL A   1      37.029  30.415  32.883  1.00  0.00     0.005 A 
ATOM     12  C   UNL A   1      37.641  32.664  33.465  1.00  0.00     0.044 A 
ATOM     13  F   UNL A   1      39.687  33.092  34.523  1.00  0.00    -0.206 F 
BRANCH   8  14
ATOM     14  C   UNL A   1      40.403  30.318  34.621  1.00  0.00    -0.012 A 
ATOM     15  C   UNL A   1      42.014  30.301  36.450  1.00  0.00     0.119 A 
ATOM     16  C   UNL A   1      42.776  29.340  35.794  1.00  0.00     0.046 A 
ATOM     17  C   UNL A   1      40.855  30.804  35.859  1.00  0.00     0.055 A 
ATOM     18  C   UNL A   1      42.355  28.849  34.561  1.00  0.00     0.004 A 
ATOM     19  C   UNL A   1      41.176  29.331  33.983  1.00  0.00     0.009 A 
BRANCH  15  20
ATOM     20  O   UNL A   1      42.490  30.811  37.625  1.00  0.00    -0.494 OA
BRANCH  20  21
ATOM     21  C   UNL A   1      43.857  31.235  37.540  1.00  0.00     0.226 C 
ATOM     22  C   UNL A   1      43.993  32.738  37.713  1.00  0.00     0.049 C 
ENDBRANCH  20  21
ENDBRANCH  15  20
ENDBRANCH   8  14
ENDBRANCH   5   7
ENDBRANCH   3   5
ENDBRANCH   2   3
ENDBRANCH   1   2
BRANCH   1  23
ATOM     23  C   UNL A   1      33.843  32.825  28.021  1.00  0.00     0.275 C 
BRANCH  23  24
ATOM     24  O   UNL A   1      33.998  31.475  28.490  1.00  0.00    -0.458 OA
BRANCH  24  25
ATOM     25  C   UNL A   1      34.426  30.588  27.562  1.00  0.00     0.338 C 
ATOM     26  O   UNL A   1      33.885  30.294  26.513  1.00  0.00    -0.246 OA
BRANCH  25  27
ATOM     27  C   UNL A   1      35.743  30.074  27.960  1.00  0.00     0.060 A 
ATOM     28  C   UNL A   1      35.908  29.592  29.262  1.00  0.00     0.016 A 
ATOM     29  C   UNL A   1      36.823  30.141  27.081  1.00  0.00     0.016 A 
ATOM     30  C   UNL A   1      37.164  29.181  29.697  1.00  0.00     0.010 A 
ATOM     31  C   UNL A   1      38.080  29.718  27.517  1.00  0.00     0.010 A 
ATOM     32  C   UNL A   1      38.260  29.246  28.830  1.00  0.00    -0.014 A 
BRANCH  32  33
ATOM     33  C   UNL A   1      39.614  28.864  29.295  1.00  0.00     0.031 A 
ATOM     34  C   UNL A   1      40.444  29.859  30.052  1.00  0.00     0.074 A 
ATOM     35  C   UNL A   1      40.101  27.641  29.014  1.00  0.00     0.049 A 
ATOM     36  N   UNL A   1      41.703  29.789  30.400  1.00  0.00    -0.248 NA
ATOM     37  C   UNL A   1      39.769  31.099  30.469  1.00  0.00     0.031 C 
ATOM     38  C   UNL A   1      39.366  26.572  28.336  1.00  0.00     0.029 A 
ATOM     39  N   UNL A   1      41.339  27.099  29.250  1.00  0.00    -0.354 N 
ATOM     40  C   UNL A   1      41.981  30.986  31.049  1.00  0.00     0.074 A 
ATOM     41  C   UNL A   1      40.762  31.767  31.041  1.00  0.00     0.031 C 
ATOM     42  C   UNL A   1      40.171  25.506  28.202  1.00  0.00     0.029 A 
ATOM     43  C   UNL A   1      41.492  25.836  28.731  1.00  0.00     0.049 A 
ATOM     44  H   UNL A   1      42.049  27.570  29.744  1.00  0.00     0.167 HD
ATOM     45  C   UNL A   1      43.150  31.397  31.594  1.00  0.00     0.031 A 
ATOM     46  C   UNL A   1      42.584  25.050  28.652  1.00  0.00     0.031 A 
ATOM     47  C   UNL A   1      44.355  30.611  31.595  1.00  0.00     0.049 A 
ATOM     48  C   UNL A   1      43.890  25.556  29.200  1.00  0.00     0.074 A 
ATOM     49  C   UNL A   1      45.594  30.934  32.122  1.00  0.00     0.029 A 
ATOM     50  N   UNL A   1      44.473  29.343  31.043  1.00  0.00    -0.354 N 
ATOM     51  N   UNL A   1      44.146  26.697  29.793  1.00  0.00    -0.248 NA
ATOM     52  C   UNL A   1      45.056  24.672  29.062  1.00  0.00     0.031 C 
ATOM     53  C   UNL A   1      46.472  29.880  31.849  1.00  0.00     0.029 A 
ATOM     54  C   UNL A   1      45.766  28.878  31.200  1.00  0.00     0.049 A 
ATOM     55  H   UNL A   1      43.744  28.849  30.605  1.00  0.00     0.167 HD
ATOM     56  C   UNL A   1      45.495  26.658  30.123  1.00  0.00     0.074 A 
ATOM     57  C   UNL A   1      46.002  25.379  29.667  1.00  0.00     0.031 C 
ATOM     58  C   UNL A   1      46.247  27.596  30.749  1.00  0.00     0.031 A 
BRANCH  45  59
ATOM     59  C   UNL A   1      43.193  32.776  32.192  1.00  0.00    -0.014 A 
ATOM     60  C   UNL A   1      42.899  32.994  33.550  1.00  0.00     0.010 A 
ATOM     61  C   UNL A   1      43.564  33.869  31.386  1.00  0.00     0.010 A 
ATOM     62  C   UNL A   1      42.939  34.287  34.082  1.00  0.00     0.020 A 
ATOM     63  C   UNL A   1      43.627  35.159  31.920  1.00  0.00     0.020 A 
ATOM     64  C   UNL A   1      43.296  35.362  33.261  1.00  0.00     0.054 A 
BRANCH  64  65
ATOM     65  S   UNL A   1      43.354  37.028  33.978  1.00  0.00     0.124 S 
ATOM     66  O   UNL A   1      43.676  37.846  32.812  1.00  0.00    -0.237 OA
ATOM     67  O   UNL A   1      42.005  37.198  34.512  1.00  0.00    -0.237 OA
ATOM     68  O   UNL A   1      44.411  36.936  34.983  1.00  0.00    -0.744 OA
ENDBRANCH  64  65
ENDBRANCH  45  59
BRANCH  46  69
ATOM     69  C   UNL A   1      42.491  23.721  27.990  1.00  0.00    -0.014 A 
ATOM     70  C   UNL A   1      42.833  23.572  26.635  1.00  0.00     0.010 A 
ATOM     71  C   UNL A   1      42.081  22.591  28.721  1.00  0.00     0.010 A 
ATOM     72  C   UNL A   1      42.759  22.318  26.021  1.00  0.00     0.020 A 
ATOM     73  C   UNL A   1      42.029  21.332  28.118  1.00  0.00     0.020 A 
ATOM     74  C   UNL A   1      42.359  21.205  26.767  1.00  0.00     0.054 A 
BRANCH  74  75
ATOM     75  S   UNL A   1      42.326  19.576  25.966  1.00  0.00     0.124 S 
ATOM     76  O   UNL A   1      40.916  19.439  25.617  1.00  0.00    -0.237 OA
ATOM     77  O   UNL A   1      43.242  19.756  24.843  1.00  0.00    -0.237 OA
ATOM     78  O   UNL A   1      42.806  18.674  27.011  1.00  0.00    -0.744 OA
ENDBRANCH  74  75
ENDBRANCH  46  69
BRANCH  58  79
ATOM     79  C   UNL A   1      47.688  27.265  31.025  1.00  0.00    -0.014 A 
ATOM     80  C   UNL A   1      48.080  26.674  32.237  1.00  0.00     0.010 A 
ATOM     81  C   UNL A   1      48.645  27.464  30.013  1.00  0.00     0.010 A 
ATOM     82  C   UNL A   1      49.409  26.293  32.438  1.00  0.00     0.020 A 
ATOM     83  C   UNL A   1      49.971  27.065  30.201  1.00  0.00     0.020 A 
ATOM     84  C   UNL A   1      50.346  26.488  31.416  1.00  0.00     0.054 A 
BRANCH  84  85
ATOM     85  S   UNL A   1      52.047  25.911  31.668  1.00  0.00     0.124 S 
ATOM     86  O   UNL A   1      52.431  26.619  32.885  1.00  0.00    -0.237 OA
ATOM     87  O   UNL A   1      51.881  24.466  31.807  1.00  0.00    -0.237 OA
ATOM     88  O   UNL A   1      52.740  26.337  30.453  1.00  0.00    -0.744 OA
ENDBRANCH  84  85
ENDBRANCH  58  79
ENDBRANCH  32  33
ENDBRANCH  25  27
ENDBRANCH  24  25
ENDBRANCH  23  24
ENDBRANCH   1  23
TORSDOF 18
ENDMDL
