MODEL 1
REMARK VINA RESULT:     -11.0      0.000      0.000
REMARK SMILES N#Cc1cc(F)ccc1N1[C@@H]2CC[C@H]1C[C@H](CC(=O)OCCOC(=O)c1ccc(-c3c4nc(c(-c5ccc(S(=O)(=O)[O-])cc5)c5ccc([nH]5)c(-c5ccc(S(=O)(=O)[O-])cc5)c5nc(c(-c6ccc(S(=O)(=O)[O-])cc6)c6ccc3[nH]6)C=C5)C=C4)cc1)C2
REMARK SMILES IDX 21 1 20 2 18 3 19 4 17 5 16 6 10 7 11 8 14 9 12 10 86 11
REMARK SMILES IDX 13 12 15 13 9 14 3 15 4 16 5 17 8 18 6 19 7 20 2 21 1 22
REMARK SMILES IDX 22 23 23 24 24 25 25 26 26 27 27 28 85 29 28 30 84 31 29 32
REMARK SMILES IDX 30 33 31 34 78 35 32 36 83 37 77 38 79 39 33 40 82 41 76 42
REMARK SMILES IDX 75 43 34 45 64 46 45 47 63 48 46 49 49 50 62 51 80 52 47 53
REMARK SMILES IDX 48 54 61 56 81 57 50 58 35 59 36 60 44 61 37 62 43 63 38 64
REMARK SMILES IDX 39 65 40 66 41 67 42 68 65 69 66 70 74 71 67 72 73 73 68 74
REMARK SMILES IDX 69 75 70 76 71 77 72 78 51 79 52 80 60 81 53 82 59 83 54 84
REMARK SMILES IDX 55 85 56 86 57 87 58 88
REMARK H PARENT 79 44 49 55
REMARK Flexibility Score: inf
ROOT
ATOM      1  C   UNL A   1      38.978  21.707  26.167  1.00  0.00     0.274 C 
ENDROOT
BRANCH   1   2
ATOM      2  O   UNL A   1      38.065  22.306  25.232  1.00  0.00    -0.462 OA
BRANCH   2   3
ATOM      3  C   UNL A   1      36.841  22.642  25.708  1.00  0.00     0.306 C 
ATOM      4  O   UNL A   1      36.541  23.746  26.144  1.00  0.00    -0.252 OA
BRANCH   3   5
ATOM      5  C   UNL A   1      35.864  21.487  25.677  1.00  0.00     0.126 C 
BRANCH   5   6
ATOM      6  C   UNL A   1      34.614  21.661  24.791  1.00  0.00     0.004 C 
ATOM      7  N   UNL A   1      33.099  23.985  24.002  1.00  0.00    -0.364 N 
ATOM      8  C   UNL A   1      33.746  23.231  22.930  1.00  0.00     0.083 C 
ATOM      9  C   UNL A   1      32.396  23.012  24.824  1.00  0.00     0.083 C 
ATOM     10  C   UNL A   1      32.641  22.253  22.511  1.00  0.00     0.027 C 
ATOM     11  C   UNL A   1      34.964  22.547  23.566  1.00  0.00     0.029 C 
ATOM     12  C   UNL A   1      31.737  22.122  23.745  1.00  0.00     0.027 C 
ATOM     13  C   UNL A   1      33.398  22.165  25.613  1.00  0.00     0.029 C 
BRANCH   7  14
ATOM     14  C   UNL A   1      33.435  25.299  24.187  1.00  0.00     0.055 A 
ATOM     15  C   UNL A   1      33.355  26.333  23.234  1.00  0.00     0.078 A 
ATOM     16  C   UNL A   1      33.437  27.680  23.634  1.00  0.00     0.060 A 
ATOM     17  C   UNL A   1      33.666  28.005  24.960  1.00  0.00     0.124 A 
ATOM     18  C   UNL A   1      33.735  25.679  25.514  1.00  0.00     0.030 A 
ATOM     19  F   UNL A   1      33.705  29.291  25.329  1.00  0.00    -0.207 F 
ATOM     20  C   UNL A   1      33.854  27.013  25.903  1.00  0.00     0.041 A 
BRANCH  15  21
ATOM     21  C   UNL A   1      33.147  26.133  21.833  1.00  0.00     0.101 C 
ATOM     22  N   UNL A   1      33.084  26.046  20.676  1.00  0.00    -0.192 NA
ENDBRANCH  15  21
ENDBRANCH   7  14
ENDBRANCH   5   6
ENDBRANCH   3   5
ENDBRANCH   2   3
ENDBRANCH   1   2
BRANCH   1  23
ATOM     23  C   UNL A   1      40.274  22.515  26.248  1.00  0.00     0.275 C 
BRANCH  23  24
ATOM     24  O   UNL A   1      40.066  23.756  26.948  1.00  0.00    -0.458 OA
BRANCH  24  25
ATOM     25  C   UNL A   1      40.991  24.715  26.713  1.00  0.00     0.338 C 
ATOM     26  O   UNL A   1      41.829  24.734  25.827  1.00  0.00    -0.246 OA
BRANCH  25  27
ATOM     27  C   UNL A   1      40.810  25.822  27.660  1.00  0.00     0.060 A 
ATOM     28  C   UNL A   1      41.743  26.859  27.683  1.00  0.00     0.016 A 
ATOM     29  C   UNL A   1      39.784  25.772  28.601  1.00  0.00     0.016 A 
ATOM     30  C   UNL A   1      41.672  27.844  28.663  1.00  0.00     0.010 A 
ATOM     31  C   UNL A   1      39.695  26.780  29.566  1.00  0.00     0.010 A 
ATOM     32  C   UNL A   1      40.647  27.813  29.616  1.00  0.00    -0.014 A 
BRANCH  32  33
ATOM     33  C   UNL A   1      40.587  28.843  30.683  1.00  0.00     0.031 A 
ATOM     34  C   UNL A   1      41.521  28.762  31.858  1.00  0.00     0.074 A 
ATOM     35  C   UNL A   1      39.689  29.843  30.598  1.00  0.00     0.049 A 
ATOM     36  N   UNL A   1      41.558  29.501  32.938  1.00  0.00    -0.248 NA
ATOM     37  C   UNL A   1      42.547  27.706  31.819  1.00  0.00     0.031 C 
ATOM     38  C   UNL A   1      38.759  30.052  29.484  1.00  0.00     0.029 A 
ATOM     39  N   UNL A   1      39.405  30.867  31.464  1.00  0.00    -0.354 N 
ATOM     40  C   UNL A   1      42.587  28.986  33.716  1.00  0.00     0.074 A 
ATOM     41  C   UNL A   1      43.132  27.853  32.999  1.00  0.00     0.031 C 
ATOM     42  C   UNL A   1      38.017  31.142  29.733  1.00  0.00     0.029 A 
ATOM     43  C   UNL A   1      38.368  31.669  31.046  1.00  0.00     0.049 A 
ATOM     44  H   UNL A   1      39.896  31.015  32.305  1.00  0.00     0.167 HD
ATOM     45  C   UNL A   1      43.036  29.420  34.919  1.00  0.00     0.031 A 
ATOM     46  C   UNL A   1      37.747  32.692  31.666  1.00  0.00     0.031 A 
ATOM     47  C   UNL A   1      42.477  30.543  35.626  1.00  0.00     0.049 A 
ATOM     48  C   UNL A   1      38.211  33.102  33.036  1.00  0.00     0.074 A 
ATOM     49  C   UNL A   1      42.870  31.074  36.843  1.00  0.00     0.029 A 
ATOM     50  N   UNL A   1      41.405  31.307  35.187  1.00  0.00    -0.354 N 
ATOM     51  N   UNL A   1      39.194  32.613  33.757  1.00  0.00    -0.248 NA
ATOM     52  C   UNL A   1      37.486  34.206  33.679  1.00  0.00     0.031 C 
ATOM     53  C   UNL A   1      41.989  32.110  37.172  1.00  0.00     0.029 A 
ATOM     54  C   UNL A   1      41.102  32.281  36.123  1.00  0.00     0.049 A 
ATOM     55  H   UNL A   1      40.929  31.174  34.334  1.00  0.00     0.167 HD
ATOM     56  C   UNL A   1      39.225  33.373  34.920  1.00  0.00     0.074 A 
ATOM     57  C   UNL A   1      38.175  34.362  34.801  1.00  0.00     0.031 C 
ATOM     58  C   UNL A   1      40.051  33.263  35.991  1.00  0.00     0.031 A 
BRANCH  45  59
ATOM     59  C   UNL A   1      44.162  28.653  35.567  1.00  0.00    -0.014 A 
ATOM     60  C   UNL A   1      43.912  27.582  36.444  1.00  0.00     0.010 A 
ATOM     61  C   UNL A   1      45.495  28.982  35.256  1.00  0.00     0.010 A 
ATOM     62  C   UNL A   1      44.972  26.883  37.029  1.00  0.00     0.020 A 
ATOM     63  C   UNL A   1      46.557  28.264  35.812  1.00  0.00     0.020 A 
ATOM     64  C   UNL A   1      46.289  27.228  36.708  1.00  0.00     0.054 A 
BRANCH  64  65
ATOM     65  S   UNL A   1      47.642  26.287  37.464  1.00  0.00     0.124 S 
ATOM     66  O   UNL A   1      48.128  25.498  36.335  1.00  0.00    -0.237 OA
ATOM     67  O   UNL A   1      48.542  27.339  37.928  1.00  0.00    -0.237 OA
ATOM     68  O   UNL A   1      46.986  25.520  38.521  1.00  0.00    -0.744 OA
ENDBRANCH  64  65
ENDBRANCH  45  59
BRANCH  46  69
ATOM     69  C   UNL A   1      36.605  33.380  31.003  1.00  0.00    -0.014 A 
ATOM     70  C   UNL A   1      35.328  33.379  31.592  1.00  0.00     0.010 A 
ATOM     71  C   UNL A   1      36.788  34.047  29.777  1.00  0.00     0.010 A 
ATOM     72  C   UNL A   1      34.253  34.012  30.960  1.00  0.00     0.020 A 
ATOM     73  C   UNL A   1      35.725  34.712  29.159  1.00  0.00     0.020 A 
ATOM     74  C   UNL A   1      34.461  34.678  29.749  1.00  0.00     0.054 A 
BRANCH  74  75
ATOM     75  S   UNL A   1      33.060  35.529  28.970  1.00  0.00     0.124 S 
ATOM     76  O   UNL A   1      33.727  36.579  28.207  1.00  0.00    -0.237 OA
ATOM     77  O   UNL A   1      32.448  34.463  28.180  1.00  0.00    -0.237 OA
ATOM     78  O   UNL A   1      32.264  35.989  30.106  1.00  0.00    -0.744 OA
ENDBRANCH  74  75
ENDBRANCH  46  69
BRANCH  58  79
ATOM     79  C   UNL A   1      39.888  34.268  37.101  1.00  0.00    -0.014 A 
ATOM     80  C   UNL A   1      40.596  35.484  37.104  1.00  0.00     0.010 A 
ATOM     81  C   UNL A   1      38.970  34.011  38.136  1.00  0.00     0.010 A 
ATOM     82  C   UNL A   1      40.413  36.406  38.138  1.00  0.00     0.020 A 
ATOM     83  C   UNL A   1      38.755  34.946  39.151  1.00  0.00     0.020 A 
ATOM     84  C   UNL A   1      39.490  36.133  39.153  1.00  0.00     0.054 A 
BRANCH  84  85
ATOM     85  S   UNL A   1      39.236  37.368  40.456  1.00  0.00     0.124 S 
ATOM     86  O   UNL A   1      38.163  38.186  39.897  1.00  0.00    -0.237 OA
ATOM     87  O   UNL A   1      38.865  36.546  41.606  1.00  0.00    -0.237 OA
ATOM     88  O   UNL A   1      40.533  38.032  40.565  1.00  0.00    -0.744 OA
ENDBRANCH  84  85
ENDBRANCH  58  79
ENDBRANCH  32  33
ENDBRANCH  25  27
ENDBRANCH  24  25
ENDBRANCH  23  24
ENDBRANCH   1  23
TORSDOF 17
ENDMDL
MODEL 2
REMARK VINA RESULT:     -10.9      3.174      4.342
REMARK SMILES N#Cc1cc(F)ccc1N1[C@@H]2CC[C@H]1C[C@H](CC(=O)OCCOC(=O)c1ccc(-c3c4nc(c(-c5ccc(S(=O)(=O)[O-])cc5)c5ccc([nH]5)c(-c5ccc(S(=O)(=O)[O-])cc5)c5nc(c(-c6ccc(S(=O)(=O)[O-])cc6)c6ccc3[nH]6)C=C5)C=C4)cc1)C2
REMARK SMILES IDX 21 1 20 2 18 3 19 4 17 5 16 6 10 7 11 8 14 9 12 10 86 11
REMARK SMILES IDX 13 12 15 13 9 14 3 15 4 16 5 17 8 18 6 19 7 20 2 21 1 22
REMARK SMILES IDX 22 23 23 24 24 25 25 26 26 27 27 28 85 29 28 30 84 31 29 32
REMARK SMILES IDX 30 33 31 34 78 35 32 36 83 37 77 38 79 39 33 40 82 41 76 42
REMARK SMILES IDX 75 43 34 45 64 46 45 47 63 48 46 49 49 50 62 51 80 52 47 53
REMARK SMILES IDX 48 54 61 56 81 57 50 58 35 59 36 60 44 61 37 62 43 63 38 64
REMARK SMILES IDX 39 65 40 66 41 67 42 68 65 69 66 70 74 71 67 72 73 73 68 74
REMARK SMILES IDX 69 75 70 76 71 77 72 78 51 79 52 80 60 81 53 82 59 83 54 84
REMARK SMILES IDX 55 85 56 86 57 87 58 88
REMARK H PARENT 79 44 49 55
REMARK Flexibility Score: inf
ROOT
ATOM      1  C   UNL A   1      35.651  22.316  24.439  1.00  0.00     0.274 C 
ENDROOT
BRANCH   1   2
ATOM      2  O   UNL A   1      34.812  22.610  23.308  1.00  0.00    -0.462 OA
BRANCH   2   3
ATOM      3  C   UNL A   1      33.676  23.305  23.560  1.00  0.00     0.306 C 
ATOM      4  O   UNL A   1      32.560  22.808  23.650  1.00  0.00    -0.252 OA
BRANCH   3   5
ATOM      5  C   UNL A   1      33.917  24.793  23.693  1.00  0.00     0.126 C 
BRANCH   5   6
ATOM      6  C   UNL A   1      32.686  25.709  23.543  1.00  0.00     0.004 C 
ATOM      7  N   UNL A   1      31.953  28.201  24.797  1.00  0.00    -0.364 N 
ATOM      8  C   UNL A   1      32.141  28.228  23.347  1.00  0.00     0.083 C 
ATOM      9  C   UNL A   1      31.089  27.064  25.079  1.00  0.00     0.083 C 
ATOM     10  C   UNL A   1      30.721  27.962  22.833  1.00  0.00     0.027 C 
ATOM     11  C   UNL A   1      33.133  27.102  23.026  1.00  0.00     0.029 C 
ATOM     12  C   UNL A   1      30.017  27.216  23.975  1.00  0.00     0.027 C 
ATOM     13  C   UNL A   1      31.847  25.755  24.848  1.00  0.00     0.029 C 
BRANCH   7  14
ATOM     14  C   UNL A   1      32.738  28.998  25.585  1.00  0.00     0.055 A 
ATOM     15  C   UNL A   1      32.403  30.263  26.107  1.00  0.00     0.078 A 
ATOM     16  C   UNL A   1      33.168  30.834  27.141  1.00  0.00     0.060 A 
ATOM     17  C   UNL A   1      34.301  30.192  27.612  1.00  0.00     0.124 A 
ATOM     18  C   UNL A   1      33.938  28.415  26.052  1.00  0.00     0.030 A 
ATOM     19  F   UNL A   1      34.997  30.732  28.620  1.00  0.00    -0.207 F 
ATOM     20  C   UNL A   1      34.716  29.001  27.050  1.00  0.00     0.041 A 
BRANCH  15  21
ATOM     21  C   UNL A   1      31.277  31.041  25.690  1.00  0.00     0.101 C 
ATOM     22  N   UNL A   1      30.326  31.568  25.282  1.00  0.00    -0.192 NA
ENDBRANCH  15  21
ENDBRANCH   7  14
ENDBRANCH   5   6
ENDBRANCH   3   5
ENDBRANCH   2   3
ENDBRANCH   1   2
BRANCH   1  23
ATOM     23  C   UNL A   1      37.069  22.843  24.209  1.00  0.00     0.275 C 
BRANCH  23  24
ATOM     24  O   UNL A   1      37.485  23.695  25.292  1.00  0.00    -0.458 OA
BRANCH  24  25
ATOM     25  C   UNL A   1      38.503  23.219  26.044  1.00  0.00     0.338 C 
ATOM     26  O   UNL A   1      38.916  22.073  26.093  1.00  0.00    -0.246 OA
BRANCH  25  27
ATOM     27  C   UNL A   1      39.132  24.322  26.783  1.00  0.00     0.060 A 
ATOM     28  C   UNL A   1      38.801  24.520  28.124  1.00  0.00     0.016 A 
ATOM     29  C   UNL A   1      39.956  25.226  26.116  1.00  0.00     0.016 A 
ATOM     30  C   UNL A   1      39.273  25.638  28.805  1.00  0.00     0.010 A 
ATOM     31  C   UNL A   1      40.455  26.332  26.810  1.00  0.00     0.010 A 
ATOM     32  C   UNL A   1      40.104  26.556  28.153  1.00  0.00    -0.014 A 
BRANCH  32  33
ATOM     33  C   UNL A   1      40.583  27.767  28.865  1.00  0.00     0.031 A 
ATOM     34  C   UNL A   1      41.957  27.784  29.477  1.00  0.00     0.074 A 
ATOM     35  C   UNL A   1      39.781  28.844  28.968  1.00  0.00     0.049 A 
ATOM     36  N   UNL A   1      42.518  28.702  30.223  1.00  0.00    -0.248 NA
ATOM     37  C   UNL A   1      42.811  26.612  29.223  1.00  0.00     0.031 C 
ATOM     38  C   UNL A   1      38.445  28.963  28.377  1.00  0.00     0.029 A 
ATOM     39  N   UNL A   1      39.969  30.042  29.608  1.00  0.00    -0.354 N 
ATOM     40  C   UNL A   1      43.775  28.209  30.549  1.00  0.00     0.074 A 
ATOM     41  C   UNL A   1      43.886  26.899  29.944  1.00  0.00     0.031 C 
ATOM     42  C   UNL A   1      37.940  30.169  28.677  1.00  0.00     0.029 A 
ATOM     43  C   UNL A   1      38.882  30.882  29.531  1.00  0.00     0.049 A 
ATOM     44  H   UNL A   1      40.801  30.279  30.079  1.00  0.00     0.167 HD
ATOM     45  C   UNL A   1      44.749  28.798  31.286  1.00  0.00     0.031 A 
ATOM     46  C   UNL A   1      38.656  32.077  30.111  1.00  0.00     0.031 A 
ATOM     47  C   UNL A   1      44.622  30.099  31.890  1.00  0.00     0.049 A 
ATOM     48  C   UNL A   1      39.721  32.673  30.991  1.00  0.00     0.074 A 
ATOM     49  C   UNL A   1      45.556  30.792  32.642  1.00  0.00     0.029 A 
ATOM     50  N   UNL A   1      43.493  30.903  31.819  1.00  0.00    -0.354 N 
ATOM     51  N   UNL A   1      40.911  32.201  31.282  1.00  0.00    -0.248 NA
ATOM     52  C   UNL A   1      39.416  33.965  31.619  1.00  0.00     0.031 C 
ATOM     53  C   UNL A   1      44.965  31.979  33.086  1.00  0.00     0.029 A 
ATOM     54  C   UNL A   1      43.694  32.067  32.540  1.00  0.00     0.049 A 
ATOM     55  H   UNL A   1      42.669  30.677  31.328  1.00  0.00     0.167 HD
ATOM     56  C   UNL A   1      41.508  33.155  32.098  1.00  0.00     0.074 A 
ATOM     57  C   UNL A   1      40.555  34.236  32.241  1.00  0.00     0.031 C 
ATOM     58  C   UNL A   1      42.735  33.138  32.675  1.00  0.00     0.031 A 
BRANCH  45  59
ATOM     59  C   UNL A   1      46.023  28.023  31.513  1.00  0.00    -0.014 A 
ATOM     60  C   UNL A   1      47.143  28.189  30.678  1.00  0.00     0.010 A 
ATOM     61  C   UNL A   1      46.115  27.144  32.609  1.00  0.00     0.010 A 
ATOM     62  C   UNL A   1      48.315  27.462  30.911  1.00  0.00     0.020 A 
ATOM     63  C   UNL A   1      47.296  26.442  32.867  1.00  0.00     0.020 A 
ATOM     64  C   UNL A   1      48.384  26.593  32.005  1.00  0.00     0.054 A 
BRANCH  64  65
ATOM     65  S   UNL A   1      49.925  25.684  32.295  1.00  0.00     0.124 S 
ATOM     66  O   UNL A   1      50.874  26.768  32.540  1.00  0.00    -0.237 OA
ATOM     67  O   UNL A   1      49.597  24.863  33.458  1.00  0.00    -0.237 OA
ATOM     68  O   UNL A   1      50.134  24.945  31.052  1.00  0.00    -0.744 OA
ENDBRANCH  64  65
ENDBRANCH  45  59
BRANCH  46  69
ATOM     69  C   UNL A   1      37.358  32.776  29.897  1.00  0.00    -0.014 A 
ATOM     70  C   UNL A   1      37.124  33.509  28.720  1.00  0.00     0.010 A 
ATOM     71  C   UNL A   1      36.343  32.708  30.870  1.00  0.00     0.010 A 
ATOM     72  C   UNL A   1      35.910  34.177  28.530  1.00  0.00     0.020 A 
ATOM     73  C   UNL A   1      35.116  33.344  30.668  1.00  0.00     0.020 A 
ATOM     74  C   UNL A   1      34.912  34.085  29.504  1.00  0.00     0.054 A 
BRANCH  74  75
ATOM     75  S   UNL A   1      33.330  34.926  29.213  1.00  0.00     0.124 S 
ATOM     76  O   UNL A   1      32.735  34.924  30.545  1.00  0.00    -0.237 OA
ATOM     77  O   UNL A   1      33.757  36.230  28.712  1.00  0.00    -0.237 OA
ATOM     78  O   UNL A   1      32.665  34.074  28.229  1.00  0.00    -0.744 OA
ENDBRANCH  74  75
ENDBRANCH  46  69
BRANCH  58  79
ATOM     79  C   UNL A   1      43.144  34.348  33.476  1.00  0.00    -0.014 A 
ATOM     80  C   UNL A   1      43.069  34.360  34.881  1.00  0.00     0.010 A 
ATOM     81  C   UNL A   1      43.660  35.474  32.810  1.00  0.00     0.010 A 
ATOM     82  C   UNL A   1      43.472  35.489  35.600  1.00  0.00     0.020 A 
ATOM     83  C   UNL A   1      44.099  36.590  33.526  1.00  0.00     0.020 A 
ATOM     84  C   UNL A   1      43.988  36.596  34.917  1.00  0.00     0.054 A 
BRANCH  84  85
ATOM     85  S   UNL A   1      44.548  38.029  35.877  1.00  0.00     0.124 S 
ATOM     86  O   UNL A   1      44.369  39.123  34.926  1.00  0.00    -0.237 OA
ATOM     87  O   UNL A   1      43.630  38.029  37.014  1.00  0.00    -0.237 OA
ATOM     88  O   UNL A   1      45.936  37.708  36.204  1.00  0.00    -0.744 OA
ENDBRANCH  84  85
ENDBRANCH  58  79
ENDBRANCH  32  33
ENDBRANCH  25  27
ENDBRANCH  24  25
ENDBRANCH  23  24
ENDBRANCH   1  23
TORSDOF 17
ENDMDL
MODEL 3
REMARK VINA RESULT:     -10.9      6.442     12.109
REMARK SMILES N#Cc1cc(F)ccc1N1[C@@H]2CC[C@H]1C[C@H](CC(=O)OCCOC(=O)c1ccc(-c3c4nc(c(-c5ccc(S(=O)(=O)[O-])cc5)c5ccc([nH]5)c(-c5ccc(S(=O)(=O)[O-])cc5)c5nc(c(-c6ccc(S(=O)(=O)[O-])cc6)c6ccc3[nH]6)C=C5)C=C4)cc1)C2
REMARK SMILES IDX 21 1 20 2 18 3 19 4 17 5 16 6 10 7 11 8 14 9 12 10 86 11
REMARK SMILES IDX 13 12 15 13 9 14 3 15 4 16 5 17 8 18 6 19 7 20 2 21 1 22
REMARK SMILES IDX 22 23 23 24 24 25 25 26 26 27 27 28 85 29 28 30 84 31 29 32
REMARK SMILES IDX 30 33 31 34 78 35 32 36 83 37 77 38 79 39 33 40 82 41 76 42
REMARK SMILES IDX 75 43 34 45 64 46 45 47 63 48 46 49 49 50 62 51 80 52 47 53
REMARK SMILES IDX 48 54 61 56 81 57 50 58 35 59 36 60 44 61 37 62 43 63 38 64
REMARK SMILES IDX 39 65 40 66 41 67 42 68 65 69 66 70 74 71 67 72 73 73 68 74
REMARK SMILES IDX 69 75 70 76 71 77 72 78 51 79 52 80 60 81 53 82 59 83 54 84
REMARK SMILES IDX 55 85 56 86 57 87 58 88
REMARK H PARENT 79 44 49 55
REMARK Flexibility Score: inf
ROOT
ATOM      1  C   UNL A   1      34.015  31.771  27.824  1.00  0.00     0.274 C 
ENDROOT
BRANCH   1   2
ATOM      2  O   UNL A   1      33.746  30.487  27.234  1.00  0.00    -0.462 OA
BRANCH   2   3
ATOM      3  C   UNL A   1      32.709  30.424  26.364  1.00  0.00     0.306 C 
ATOM      4  O   UNL A   1      31.711  31.130  26.417  1.00  0.00    -0.252 OA
BRANCH   3   5
ATOM      5  C   UNL A   1      32.892  29.350  25.313  1.00  0.00     0.126 C 
BRANCH   5   6
ATOM      6  C   UNL A   1      31.800  28.263  25.238  1.00  0.00     0.004 C 
ATOM      7  N   UNL A   1      31.923  25.408  24.853  1.00  0.00    -0.364 N 
ATOM      8  C   UNL A   1      31.363  25.873  26.121  1.00  0.00     0.083 C 
ATOM      9  C   UNL A   1      31.257  26.167  23.805  1.00  0.00     0.083 C 
ATOM     10  C   UNL A   1      29.864  25.945  25.805  1.00  0.00     0.027 C 
ATOM     11  C   UNL A   1      32.001  27.243  26.390  1.00  0.00     0.029 C 
ATOM     12  C   UNL A   1      29.786  26.116  24.281  1.00  0.00     0.027 C 
ATOM     13  C   UNL A   1      31.729  27.622  23.827  1.00  0.00     0.029 C 
BRANCH   7  14
ATOM     14  C   UNL A   1      33.037  24.614  24.871  1.00  0.00     0.055 A 
ATOM     15  C   UNL A   1      33.273  23.508  25.712  1.00  0.00     0.078 A 
ATOM     16  C   UNL A   1      34.311  22.601  25.424  1.00  0.00     0.060 A 
ATOM     17  C   UNL A   1      35.156  22.820  24.349  1.00  0.00     0.124 A 
ATOM     18  C   UNL A   1      33.966  24.829  23.828  1.00  0.00     0.030 A 
ATOM     19  F   UNL A   1      36.114  21.929  24.068  1.00  0.00    -0.207 F 
ATOM     20  C   UNL A   1      35.017  23.950  23.567  1.00  0.00     0.041 A 
BRANCH  15  21
ATOM     21  C   UNL A   1      32.493  23.184  26.866  1.00  0.00     0.101 C 
ATOM     22  N   UNL A   1      31.770  22.873  27.720  1.00  0.00    -0.192 NA
ENDBRANCH  15  21
ENDBRANCH   7  14
ENDBRANCH   5   6
ENDBRANCH   3   5
ENDBRANCH   2   3
ENDBRANCH   1   2
BRANCH   1  23
ATOM     23  C   UNL A   1      34.881  31.618  29.076  1.00  0.00     0.275 C 
BRANCH  23  24
ATOM     24  O   UNL A   1      35.612  30.378  29.051  1.00  0.00    -0.458 OA
BRANCH  24  25
ATOM     25  C   UNL A   1      36.352  30.121  30.153  1.00  0.00     0.338 C 
ATOM     26  O   UNL A   1      36.010  30.230  31.318  1.00  0.00    -0.246 OA
BRANCH  25  27
ATOM     27  C   UNL A   1      37.667  29.600  29.756  1.00  0.00     0.060 A 
ATOM     28  C   UNL A   1      38.547  29.150  30.742  1.00  0.00     0.016 A 
ATOM     29  C   UNL A   1      38.070  29.666  28.424  1.00  0.00     0.016 A 
ATOM     30  C   UNL A   1      39.847  28.784  30.406  1.00  0.00     0.010 A 
ATOM     31  C   UNL A   1      39.366  29.269  28.084  1.00  0.00     0.010 A 
ATOM     32  C   UNL A   1      40.270  28.842  29.073  1.00  0.00    -0.014 A 
BRANCH  32  33
ATOM     33  C   UNL A   1      41.665  28.484  28.715  1.00  0.00     0.031 A 
ATOM     34  C   UNL A   1      42.733  29.543  28.707  1.00  0.00     0.074 A 
ATOM     35  C   UNL A   1      41.968  27.213  28.390  1.00  0.00     0.049 A 
ATOM     36  N   UNL A   1      43.982  29.454  28.327  1.00  0.00    -0.248 NA
ATOM     37  C   UNL A   1      42.344  30.881  29.184  1.00  0.00     0.031 C 
ATOM     38  C   UNL A   1      41.027  26.090  28.404  1.00  0.00     0.029 A 
ATOM     39  N   UNL A   1      43.150  26.651  27.980  1.00  0.00    -0.354 N 
ATOM     40  C   UNL A   1      44.520  30.725  28.492  1.00  0.00     0.074 A 
ATOM     41  C   UNL A   1      43.455  31.574  28.980  1.00  0.00     0.031 C 
ATOM     42  C   UNL A   1      41.672  24.974  28.029  1.00  0.00     0.029 A 
ATOM     43  C   UNL A   1      43.048  25.311  27.685  1.00  0.00     0.049 A 
ATOM     44  H   UNL A   1      43.991  27.158  27.903  1.00  0.00     0.167 HD
ATOM     45  C   UNL A   1      45.788  31.143  28.258  1.00  0.00     0.031 A 
ATOM     46  C   UNL A   1      43.951  24.458  27.164  1.00  0.00     0.031 A 
ATOM     47  C   UNL A   1      46.837  30.288  27.763  1.00  0.00     0.049 A 
ATOM     48  C   UNL A   1      45.328  24.966  26.836  1.00  0.00     0.074 A 
ATOM     49  C   UNL A   1      48.159  30.609  27.508  1.00  0.00     0.029 A 
ATOM     50  N   UNL A   1      46.684  28.946  27.443  1.00  0.00    -0.354 N 
ATOM     51  N   UNL A   1      45.828  26.168  27.008  1.00  0.00    -0.248 NA
ATOM     52  C   UNL A   1      46.269  24.003  26.248  1.00  0.00     0.031 C 
ATOM     53  C   UNL A   1      48.785  29.483  26.965  1.00  0.00     0.029 A 
ATOM     54  C   UNL A   1      47.878  28.436  26.962  1.00  0.00     0.049 A 
ATOM     55  H   UNL A   1      45.849  28.433  27.543  1.00  0.00     0.167 HD
ATOM     56  C   UNL A   1      47.148  26.095  26.581  1.00  0.00     0.074 A 
ATOM     57  C   UNL A   1      47.374  24.728  26.159  1.00  0.00     0.031 C 
ATOM     58  C   UNL A   1      48.090  27.070  26.544  1.00  0.00     0.031 A 
BRANCH  45  59
ATOM     59  C   UNL A   1      46.102  32.599  28.496  1.00  0.00    -0.014 A 
ATOM     60  C   UNL A   1      46.588  33.052  29.736  1.00  0.00     0.010 A 
ATOM     61  C   UNL A   1      45.951  33.523  27.445  1.00  0.00     0.010 A 
ATOM     62  C   UNL A   1      46.876  34.407  29.931  1.00  0.00     0.020 A 
ATOM     63  C   UNL A   1      46.270  34.871  27.625  1.00  0.00     0.020 A 
ATOM     64  C   UNL A   1      46.716  35.308  28.874  1.00  0.00     0.054 A 
BRANCH  64  65
ATOM     65  S   UNL A   1      47.122  37.053  29.152  1.00  0.00     0.124 S 
ATOM     66  O   UNL A   1      45.836  37.704  28.911  1.00  0.00    -0.237 OA
ATOM     67  O   UNL A   1      47.577  37.058  30.539  1.00  0.00    -0.237 OA
ATOM     68  O   UNL A   1      48.155  37.334  28.158  1.00  0.00    -0.744 OA
ENDBRANCH  64  65
ENDBRANCH  45  59
BRANCH  46  69
ATOM     69  C   UNL A   1      43.572  23.042  26.898  1.00  0.00    -0.014 A 
ATOM     70  C   UNL A   1      43.884  22.435  25.670  1.00  0.00     0.010 A 
ATOM     71  C   UNL A   1      42.896  22.290  27.878  1.00  0.00     0.010 A 
ATOM     72  C   UNL A   1      43.512  21.111  25.417  1.00  0.00     0.020 A 
ATOM     73  C   UNL A   1      42.554  20.955  27.643  1.00  0.00     0.020 A 
ATOM     74  C   UNL A   1      42.853  20.379  26.409  1.00  0.00     0.054 A 
BRANCH  74  75
ATOM     75  S   UNL A   1      42.418  18.649  26.071  1.00  0.00     0.124 S 
ATOM     76  O   UNL A   1      42.726  18.004  27.344  1.00  0.00    -0.237 OA
ATOM     77  O   UNL A   1      41.000  18.743  25.735  1.00  0.00    -0.237 OA
ATOM     78  O   UNL A   1      43.294  18.286  24.959  1.00  0.00    -0.744 OA
ENDBRANCH  74  75
ENDBRANCH  46  69
BRANCH  58  79
ATOM     79  C   UNL A   1      49.471  26.687  26.076  1.00  0.00    -0.014 A 
ATOM     80  C   UNL A   1      49.912  26.971  24.771  1.00  0.00     0.010 A 
ATOM     81  C   UNL A   1      50.360  26.077  26.980  1.00  0.00     0.010 A 
ATOM     82  C   UNL A   1      51.204  26.620  24.370  1.00  0.00     0.020 A 
ATOM     83  C   UNL A   1      51.665  25.759  26.595  1.00  0.00     0.020 A 
ATOM     84  C   UNL A   1      52.074  26.020  25.286  1.00  0.00     0.054 A 
BRANCH  84  85
ATOM     85  S   UNL A   1      53.760  25.619  24.754  1.00  0.00     0.124 S 
ATOM     86  O   UNL A   1      53.743  24.159  24.756  1.00  0.00    -0.237 OA
ATOM     87  O   UNL A   1      53.835  26.245  23.436  1.00  0.00    -0.237 OA
ATOM     88  O   UNL A   1      54.604  26.233  25.777  1.00  0.00    -0.744 OA
ENDBRANCH  84  85
ENDBRANCH  58  79
ENDBRANCH  32  33
ENDBRANCH  25  27
ENDBRANCH  24  25
ENDBRANCH  23  24
ENDBRANCH   1  23
TORSDOF 17
ENDMDL
