MODEL 1
REMARK VINA RESULT:     -11.6      0.000      0.000
REMARK SMILES CC(C)Cc1ccc(-c2cc(Cl)cc3c2O[C@H](C(F)(F)F)C(C(=O)OCCOC(=O)c2ccc(-c4c5nc(c(-c6ccc(S(=O)(=O)[O-])cc6)c6ccc([nH]6)c(-c6ccc(S(=O)(=O)[O-])cc6)c6nc(c(-c7ccc(S(=O)(=O)[O-])cc7)c7ccc4[nH]7)C=C6)C=C5)cc2)=C3)cc1
REMARK SMILES IDX 26 1 25 2 23 3 24 4 22 5 9 6 10 7 15 8 11 9 14 10 16 11
REMARK SMILES IDX 12 12 13 13 91 14 17 15 8 16 5 17 6 18 93 19 7 20 92 21 4 22
REMARK SMILES IDX 2 23 1 24 3 25 18 26 19 27 20 28 21 29 27 30 28 31 29 32
REMARK SMILES IDX 30 33 31 34 32 35 90 36 33 37 89 38 34 39 35 40 36 41 83 42
REMARK SMILES IDX 37 43 88 44 82 45 84 46 38 47 87 48 81 49 80 50 39 52 69 53
REMARK SMILES IDX 50 54 68 55 51 56 54 57 67 58 85 59 52 60 53 61 66 63 86 64
REMARK SMILES IDX 55 65 40 66 41 67 49 68 42 69 48 70 43 71 44 72 45 73 46 74
REMARK SMILES IDX 47 75 70 76 71 77 79 78 72 79 78 80 73 81 74 82 75 83 76 84
REMARK SMILES IDX 77 85 56 86 57 87 65 88 58 89 64 90 59 91 60 92 61 93 62 94
REMARK SMILES IDX 63 95
REMARK H PARENT 84 51 54 62
REMARK Flexibility Score: inf
ROOT
ATOM      1  C   UNL A   1      45.022  23.584  25.752  1.00  0.00     0.275 C 
ENDROOT
BRANCH   1   2
ATOM      2  O   UNL A   1      43.667  23.087  25.893  1.00  0.00    -0.459 OA
BRANCH   2   3
ATOM      3  C   UNL A   1      43.404  22.644  27.151  1.00  0.00     0.338 C 
ATOM      4  O   UNL A   1      44.037  22.985  28.145  1.00  0.00    -0.246 OA
BRANCH   3   5
ATOM      5  C   UNL A   1      42.211  21.767  27.249  1.00  0.00     0.087 C 
ATOM      6  C   UNL A   1      38.482  23.053  26.145  1.00  0.00     0.026 A 
ATOM      7  C   UNL A   1      38.652  24.444  26.385  1.00  0.00     0.033 A 
ATOM      8  C   UNL A   1      39.553  22.301  26.652  1.00  0.00     0.135 A 
ATOM      9  C   UNL A   1      39.669  25.033  27.147  1.00  0.00     0.042 A 
ATOM     10  C   UNL A   1      40.386  22.875  27.667  1.00  0.00     0.019 A 
ATOM     11  O   UNL A   1      40.023  21.093  26.141  1.00  0.00    -0.475 OA
ATOM     12  Cl  UNL A   1      40.045  26.706  27.150  1.00  0.00    -0.084 Cl
ATOM     13  C   UNL A   1      40.465  24.232  27.902  1.00  0.00     0.032 A 
ATOM     14  C   UNL A   1      41.436  22.058  28.303  1.00  0.00     0.027 C 
ATOM     15  C   UNL A   1      41.543  21.035  26.101  1.00  0.00     0.316 C 
BRANCH   6  16
ATOM     16  C   UNL A   1      37.119  22.731  25.509  1.00  0.00    -0.015 A 
ATOM     17  C   UNL A   1      34.925  23.944  23.934  1.00  0.00    -0.048 A 
ATOM     18  C   UNL A   1      35.808  23.012  23.379  1.00  0.00     0.004 A 
ATOM     19  C   UNL A   1      34.930  23.887  25.352  1.00  0.00     0.004 A 
ATOM     20  C   UNL A   1      36.881  22.408  24.159  1.00  0.00     0.009 A 
ATOM     21  C   UNL A   1      35.999  23.329  26.112  1.00  0.00     0.009 A 
BRANCH  17  22
ATOM     22  C   UNL A   1      33.837  24.952  23.123  1.00  0.00     0.038 C 
BRANCH  22  23
ATOM     23  C   UNL A   1      33.261  26.833  23.013  1.00  0.00    -0.013 C 
ATOM     24  C   UNL A   1      32.610  27.607  24.211  1.00  0.00     0.008 C 
ATOM     25  C   UNL A   1      33.935  28.105  22.323  1.00  0.00     0.008 C 
ENDBRANCH  22  23
ENDBRANCH  17  22
ENDBRANCH   6  16
BRANCH  15  26
ATOM     26  C   UNL A   1      42.053  19.592  26.227  1.00  0.00     0.430 C 
ATOM     27  F   UNL A   1      43.191  19.393  25.517  1.00  0.00    -0.167 F 
ATOM     28  F   UNL A   1      42.296  19.233  27.503  1.00  0.00    -0.167 F 
ATOM     29  F   UNL A   1      41.135  18.711  25.739  1.00  0.00    -0.167 F 
ENDBRANCH  15  26
ENDBRANCH   3   5
ENDBRANCH   2   3
ENDBRANCH   1   2
BRANCH   1  30
ATOM     30  C   UNL A   1      45.103  24.909  24.987  1.00  0.00     0.275 C 
BRANCH  30  31
ATOM     31  O   UNL A   1      45.497  25.991  25.850  1.00  0.00    -0.458 OA
BRANCH  31  32
ATOM     32  C   UNL A   1      44.670  27.060  25.801  1.00  0.00     0.338 C 
ATOM     33  O   UNL A   1      44.377  27.690  24.787  1.00  0.00    -0.246 OA
BRANCH  32  34
ATOM     34  C   UNL A   1      44.019  27.306  27.110  1.00  0.00     0.060 A 
ATOM     35  C   UNL A   1      43.889  28.634  27.476  1.00  0.00     0.016 A 
ATOM     36  C   UNL A   1      43.525  26.318  27.980  1.00  0.00     0.016 A 
ATOM     37  C   UNL A   1      43.211  28.953  28.647  1.00  0.00     0.010 A 
ATOM     38  C   UNL A   1      42.795  26.668  29.151  1.00  0.00     0.010 A 
ATOM     39  C   UNL A   1      42.567  28.006  29.468  1.00  0.00    -0.014 A 
BRANCH  39  40
ATOM     40  C   UNL A   1      41.771  28.566  30.630  1.00  0.00     0.031 A 
ATOM     41  C   UNL A   1      42.695  28.660  31.998  1.00  0.00     0.074 A 
ATOM     42  C   UNL A   1      40.515  29.153  30.476  1.00  0.00     0.049 A 
ATOM     43  N   UNL A   1      42.598  29.414  33.078  1.00  0.00    -0.248 NA
ATOM     44  C   UNL A   1      43.879  27.787  32.102  1.00  0.00     0.031 C 
ATOM     45  C   UNL A   1      39.496  29.319  29.445  1.00  0.00     0.029 A 
ATOM     46  N   UNL A   1      39.934  29.982  31.390  1.00  0.00    -0.354 N 
ATOM     47  C   UNL A   1      43.591  29.098  34.011  1.00  0.00     0.074 A 
ATOM     48  C   UNL A   1      44.393  28.107  33.293  1.00  0.00     0.031 C 
ATOM     49  C   UNL A   1      38.602  30.309  29.765  1.00  0.00     0.029 A 
ATOM     50  C   UNL A   1      38.843  30.833  31.131  1.00  0.00     0.049 A 
ATOM     51  H   UNL A   1      40.306  29.983  32.301  1.00  0.00     0.167 HD
ATOM     52  C   UNL A   1      43.802  29.512  35.318  1.00  0.00     0.031 A 
ATOM     53  C   UNL A   1      38.163  31.865  31.855  1.00  0.00     0.031 A 
ATOM     54  C   UNL A   1      43.011  30.428  36.197  1.00  0.00     0.049 A 
ATOM     55  C   UNL A   1      38.369  32.576  33.438  1.00  0.00     0.074 A 
ATOM     56  C   UNL A   1      43.110  30.758  37.543  1.00  0.00     0.029 A 
ATOM     57  N   UNL A   1      41.877  31.123  35.832  1.00  0.00    -0.354 N 
ATOM     58  N   UNL A   1      39.448  32.679  34.200  1.00  0.00    -0.248 NA
ATOM     59  C   UNL A   1      37.254  33.207  34.186  1.00  0.00     0.031 C 
ATOM     60  C   UNL A   1      42.044  31.657  37.895  1.00  0.00     0.029 A 
ATOM     61  C   UNL A   1      41.263  31.948  36.772  1.00  0.00     0.049 A 
ATOM     62  H   UNL A   1      41.508  31.038  34.923  1.00  0.00     0.167 HD
ATOM     63  C   UNL A   1      39.189  33.027  35.501  1.00  0.00     0.074 A 
ATOM     64  C   UNL A   1      37.809  33.515  35.383  1.00  0.00     0.031 C 
ATOM     65  C   UNL A   1      39.944  32.718  36.631  1.00  0.00     0.031 A 
BRANCH  52  66
ATOM     66  C   UNL A   1      45.023  28.879  35.956  1.00  0.00    -0.014 A 
ATOM     67  C   UNL A   1      46.277  29.516  35.888  1.00  0.00     0.010 A 
ATOM     68  C   UNL A   1      44.932  27.618  36.575  1.00  0.00     0.010 A 
ATOM     69  C   UNL A   1      47.424  28.880  36.374  1.00  0.00     0.020 A 
ATOM     70  C   UNL A   1      46.076  26.988  37.082  1.00  0.00     0.020 A 
ATOM     71  C   UNL A   1      47.318  27.615  36.958  1.00  0.00     0.054 A 
BRANCH  71  72
ATOM     72  S   UNL A   1      48.832  26.799  37.544  1.00  0.00     0.124 S 
ATOM     73  O   UNL A   1      48.423  26.320  38.864  1.00  0.00    -0.237 OA
ATOM     74  O   UNL A   1      49.044  25.761  36.539  1.00  0.00    -0.237 OA
ATOM     75  O   UNL A   1      49.824  27.870  37.552  1.00  0.00    -0.744 OA
ENDBRANCH  71  72
ENDBRANCH  52  66
BRANCH  53  76
ATOM     76  C   UNL A   1      37.002  32.524  31.147  1.00  0.00    -0.014 A 
ATOM     77  C   UNL A   1      35.690  32.030  31.305  1.00  0.00     0.010 A 
ATOM     78  C   UNL A   1      37.200  33.620  30.288  1.00  0.00     0.010 A 
ATOM     79  C   UNL A   1      34.610  32.634  30.645  1.00  0.00     0.020 A 
ATOM     80  C   UNL A   1      36.121  34.256  29.667  1.00  0.00     0.020 A 
ATOM     81  C   UNL A   1      34.831  33.756  29.845  1.00  0.00     0.054 A 
BRANCH  81  82
ATOM     82  S   UNL A   1      33.413  34.596  29.081  1.00  0.00     0.124 S 
ATOM     83  O   UNL A   1      32.613  34.961  30.244  1.00  0.00    -0.237 OA
ATOM     84  O   UNL A   1      34.047  35.706  28.374  1.00  0.00    -0.237 OA
ATOM     85  O   UNL A   1      32.835  33.568  28.218  1.00  0.00    -0.744 OA
ENDBRANCH  81  82
ENDBRANCH  53  76
BRANCH  65  86
ATOM     86  C   UNL A   1      39.288  33.091  37.938  1.00  0.00    -0.014 A 
ATOM     87  C   UNL A   1      38.471  32.186  38.643  1.00  0.00     0.010 A 
ATOM     88  C   UNL A   1      39.552  34.348  38.505  1.00  0.00     0.010 A 
ATOM     89  C   UNL A   1      37.863  32.564  39.845  1.00  0.00     0.020 A 
ATOM     90  C   UNL A   1      38.975  34.719  39.721  1.00  0.00     0.020 A 
ATOM     91  C   UNL A   1      38.106  33.838  40.366  1.00  0.00     0.054 A 
BRANCH  91  92
ATOM     92  S   UNL A   1      37.253  34.340  41.886  1.00  0.00     0.124 S 
ATOM     93  O   UNL A   1      37.741  35.704  42.069  1.00  0.00    -0.237 OA
ATOM     94  O   UNL A   1      35.844  34.220  41.519  1.00  0.00    -0.237 OA
ATOM     95  O   UNL A   1      37.718  33.375  42.880  1.00  0.00    -0.744 OA
ENDBRANCH  91  92
ENDBRANCH  65  86
ENDBRANCH  39  40
ENDBRANCH  32  34
ENDBRANCH  31  32
ENDBRANCH  30  31
ENDBRANCH   1  30
TORSDOF 18
ENDMDL
MODEL 2
REMARK VINA RESULT:     -11.5      6.306     13.050
REMARK SMILES CC(C)Cc1ccc(-c2cc(Cl)cc3c2O[C@H](C(F)(F)F)C(C(=O)OCCOC(=O)c2ccc(-c4c5nc(c(-c6ccc(S(=O)(=O)[O-])cc6)c6ccc([nH]6)c(-c6ccc(S(=O)(=O)[O-])cc6)c6nc(c(-c7ccc(S(=O)(=O)[O-])cc7)c7ccc4[nH]7)C=C6)C=C5)cc2)=C3)cc1
REMARK SMILES IDX 26 1 25 2 23 3 24 4 22 5 9 6 10 7 15 8 11 9 14 10 16 11
REMARK SMILES IDX 12 12 13 13 91 14 17 15 8 16 5 17 6 18 93 19 7 20 92 21 4 22
REMARK SMILES IDX 2 23 1 24 3 25 18 26 19 27 20 28 21 29 27 30 28 31 29 32
REMARK SMILES IDX 30 33 31 34 32 35 90 36 33 37 89 38 34 39 35 40 36 41 83 42
REMARK SMILES IDX 37 43 88 44 82 45 84 46 38 47 87 48 81 49 80 50 39 52 69 53
REMARK SMILES IDX 50 54 68 55 51 56 54 57 67 58 85 59 52 60 53 61 66 63 86 64
REMARK SMILES IDX 55 65 40 66 41 67 49 68 42 69 48 70 43 71 44 72 45 73 46 74
REMARK SMILES IDX 47 75 70 76 71 77 79 78 72 79 78 80 73 81 74 82 75 83 76 84
REMARK SMILES IDX 77 85 56 86 57 87 65 88 58 89 64 90 59 91 60 92 61 93 62 94
REMARK SMILES IDX 63 95
REMARK H PARENT 84 51 54 62
REMARK Flexibility Score: inf
ROOT
ATOM      1  C   UNL A   1      36.347  33.607  32.956  1.00  0.00     0.275 C 
ENDROOT
BRANCH   1   2
ATOM      2  O   UNL A   1      35.695  33.305  31.696  1.00  0.00    -0.459 OA
BRANCH   2   3
ATOM      3  C   UNL A   1      36.395  33.763  30.625  1.00  0.00     0.338 C 
ATOM      4  O   UNL A   1      37.585  34.059  30.658  1.00  0.00    -0.246 OA
BRANCH   3   5
ATOM      5  C   UNL A   1      35.619  33.797  29.360  1.00  0.00     0.087 C 
ATOM      6  C   UNL A   1      34.291  30.373  27.545  1.00  0.00     0.026 A 
ATOM      7  C   UNL A   1      35.290  29.476  28.016  1.00  0.00     0.033 A 
ATOM      8  C   UNL A   1      34.612  31.709  27.833  1.00  0.00     0.135 A 
ATOM      9  C   UNL A   1      36.522  29.833  28.577  1.00  0.00     0.042 A 
ATOM     10  C   UNL A   1      35.975  32.052  28.111  1.00  0.00     0.019 A 
ATOM     11  O   UNL A   1      33.703  32.740  28.063  1.00  0.00    -0.475 OA
ATOM     12  Cl  UNL A   1      37.556  28.763  29.430  1.00  0.00    -0.084 Cl
ATOM     13  C   UNL A   1      36.923  31.129  28.502  1.00  0.00     0.032 A 
ATOM     14  C   UNL A   1      36.353  33.466  28.290  1.00  0.00     0.027 C 
ATOM     15  C   UNL A   1      34.117  33.625  29.229  1.00  0.00     0.316 C 
BRANCH   6  16
ATOM     16  C   UNL A   1      33.194  29.657  26.741  1.00  0.00    -0.015 A 
ATOM     17  C   UNL A   1      32.099  26.970  26.151  1.00  0.00    -0.048 A 
ATOM     18  C   UNL A   1      31.413  27.890  26.950  1.00  0.00     0.004 A 
ATOM     19  C   UNL A   1      33.082  27.606  25.350  1.00  0.00     0.004 A 
ATOM     20  C   UNL A   1      31.949  29.217  27.231  1.00  0.00     0.009 A 
ATOM     21  C   UNL A   1      33.630  28.887  25.649  1.00  0.00     0.009 A 
BRANCH  17  22
ATOM     22  C   UNL A   1      31.784  25.319  25.969  1.00  0.00     0.038 C 
BRANCH  22  23
ATOM     23  C   UNL A   1      32.536  23.547  26.392  1.00  0.00    -0.013 C 
ATOM     24  C   UNL A   1      31.897  22.200  25.904  1.00  0.00     0.008 C 
ATOM     25  C   UNL A   1      34.043  23.023  26.439  1.00  0.00     0.008 C 
ENDBRANCH  22  23
ENDBRANCH  17  22
ENDBRANCH   6  16
BRANCH  15  26
ATOM     26  C   UNL A   1      33.589  35.057  29.062  1.00  0.00     0.430 C 
ATOM     27  F   UNL A   1      33.482  35.701  30.252  1.00  0.00    -0.167 F 
ATOM     28  F   UNL A   1      34.362  35.810  28.255  1.00  0.00    -0.167 F 
ATOM     29  F   UNL A   1      32.341  35.051  28.515  1.00  0.00    -0.167 F 
ENDBRANCH  15  26
ENDBRANCH   3   5
ENDBRANCH   2   3
ENDBRANCH   1   2
BRANCH   1  30
ATOM     30  C   UNL A   1      36.498  32.385  33.867  1.00  0.00     0.275 C 
BRANCH  30  31
ATOM     31  O   UNL A   1      36.866  31.212  33.117  1.00  0.00    -0.458 OA
BRANCH  31  32
ATOM     32  C   UNL A   1      38.002  30.619  33.549  1.00  0.00     0.338 C 
ATOM     33  O   UNL A   1      38.162  30.103  34.653  1.00  0.00    -0.246 OA
BRANCH  32  34
ATOM     34  C   UNL A   1      39.011  30.520  32.467  1.00  0.00     0.060 A 
ATOM     35  C   UNL A   1      39.956  29.521  32.617  1.00  0.00     0.016 A 
ATOM     36  C   UNL A   1      39.071  31.336  31.324  1.00  0.00     0.016 A 
ATOM     37  C   UNL A   1      40.883  29.305  31.603  1.00  0.00     0.010 A 
ATOM     38  C   UNL A   1      39.999  31.069  30.279  1.00  0.00     0.010 A 
ATOM     39  C   UNL A   1      40.882  29.995  30.375  1.00  0.00    -0.014 A 
BRANCH  39  40
ATOM     40  C   UNL A   1      41.894  29.525  29.349  1.00  0.00     0.031 A 
ATOM     41  C   UNL A   1      43.230  30.499  29.334  1.00  0.00     0.074 A 
ATOM     42  C   UNL A   1      41.801  28.293  28.702  1.00  0.00     0.049 A 
ATOM     43  N   UNL A   1      44.475  30.283  28.951  1.00  0.00    -0.248 NA
ATOM     44  C   UNL A   1      43.096  31.875  29.849  1.00  0.00     0.031 C 
ATOM     45  C   UNL A   1      40.851  27.194  28.556  1.00  0.00     0.029 A 
ATOM     46  N   UNL A   1      42.838  27.672  28.072  1.00  0.00    -0.354 N 
ATOM     47  C   UNL A   1      45.254  31.437  29.076  1.00  0.00     0.074 A 
ATOM     48  C   UNL A   1      44.327  32.376  29.707  1.00  0.00     0.031 C 
ATOM     49  C   UNL A   1      41.452  26.060  28.072  1.00  0.00     0.029 A 
ATOM     50  C   UNL A   1      42.865  26.313  27.704  1.00  0.00     0.049 A 
ATOM     51  H   UNL A   1      43.629  28.217  27.856  1.00  0.00     0.167 HD
ATOM     52  C   UNL A   1      46.550  31.731  28.676  1.00  0.00     0.031 A 
ATOM     53  C   UNL A   1      43.854  25.421  27.176  1.00  0.00     0.031 A 
ATOM     54  C   UNL A   1      47.558  30.909  27.938  1.00  0.00     0.049 A 
ATOM     55  C   UNL A   1      45.535  25.596  26.731  1.00  0.00     0.074 A 
ATOM     56  C   UNL A   1      48.805  31.208  27.401  1.00  0.00     0.029 A 
ATOM     57  N   UNL A   1      47.401  29.598  27.538  1.00  0.00    -0.354 N 
ATOM     58  N   UNL A   1      46.455  26.443  27.168  1.00  0.00    -0.248 NA
ATOM     59  C   UNL A   1      46.190  24.736  25.716  1.00  0.00     0.031 C 
ATOM     60  C   UNL A   1      49.331  30.046  26.738  1.00  0.00     0.029 A 
ATOM     61  C   UNL A   1      48.448  28.970  26.867  1.00  0.00     0.049 A 
ATOM     62  H   UNL A   1      46.563  29.115  27.723  1.00  0.00     0.167 HD
ATOM     63  C   UNL A   1      47.586  26.497  26.393  1.00  0.00     0.074 A 
ATOM     64  C   UNL A   1      47.429  25.274  25.597  1.00  0.00     0.031 C 
ATOM     65  C   UNL A   1      48.457  27.574  26.233  1.00  0.00     0.031 A 
BRANCH  52  66
ATOM     66  C   UNL A   1      46.975  33.145  29.015  1.00  0.00    -0.014 A 
ATOM     67  C   UNL A   1      46.610  34.222  28.184  1.00  0.00     0.010 A 
ATOM     68  C   UNL A   1      47.791  33.396  30.134  1.00  0.00     0.010 A 
ATOM     69  C   UNL A   1      47.097  35.509  28.433  1.00  0.00     0.020 A 
ATOM     70  C   UNL A   1      48.263  34.688  30.399  1.00  0.00     0.020 A 
ATOM     71  C   UNL A   1      47.930  35.732  29.532  1.00  0.00     0.054 A 
BRANCH  71  72
ATOM     72  S   UNL A   1      48.579  37.407  29.806  1.00  0.00     0.124 S 
ATOM     73  O   UNL A   1      49.844  37.132  30.484  1.00  0.00    -0.237 OA
ATOM     74  O   UNL A   1      48.695  37.930  28.448  1.00  0.00    -0.237 OA
ATOM     75  O   UNL A   1      47.558  38.045  30.633  1.00  0.00    -0.744 OA
ENDBRANCH  71  72
ENDBRANCH  52  66
BRANCH  53  76
ATOM     76  C   UNL A   1      43.407  23.999  26.929  1.00  0.00    -0.014 A 
ATOM     77  C   UNL A   1      43.207  23.526  25.615  1.00  0.00     0.010 A 
ATOM     78  C   UNL A   1      43.144  23.122  27.997  1.00  0.00     0.010 A 
ATOM     79  C   UNL A   1      42.786  22.209  25.380  1.00  0.00     0.020 A 
ATOM     80  C   UNL A   1      42.772  21.794  27.767  1.00  0.00     0.020 A 
ATOM     81  C   UNL A   1      42.590  21.346  26.459  1.00  0.00     0.054 A 
BRANCH  81  82
ATOM     82  S   UNL A   1      42.149  19.613  26.141  1.00  0.00     0.124 S 
ATOM     83  O   UNL A   1      42.558  18.962  27.381  1.00  0.00    -0.237 OA
ATOM     84  O   UNL A   1      40.708  19.690  25.910  1.00  0.00    -0.237 OA
ATOM     85  O   UNL A   1      42.942  19.272  24.962  1.00  0.00    -0.744 OA
ENDBRANCH  81  82
ENDBRANCH  53  76
BRANCH  65  86
ATOM     86  C   UNL A   1      49.503  27.372  25.164  1.00  0.00    -0.014 A 
ATOM     87  C   UNL A   1      49.265  27.714  23.818  1.00  0.00     0.010 A 
ATOM     88  C   UNL A   1      50.774  26.897  25.528  1.00  0.00     0.010 A 
ATOM     89  C   UNL A   1      50.248  27.502  22.846  1.00  0.00     0.020 A 
ATOM     90  C   UNL A   1      51.770  26.715  24.566  1.00  0.00     0.020 A 
ATOM     91  C   UNL A   1      51.490  26.986  23.226  1.00  0.00     0.054 A 
BRANCH  91  92
ATOM     92  S   UNL A   1      52.728  26.647  21.945  1.00  0.00     0.124 S 
ATOM     93  O   UNL A   1      53.062  27.992  21.486  1.00  0.00    -0.237 OA
ATOM     94  O   UNL A   1      53.779  25.957  22.687  1.00  0.00    -0.237 OA
ATOM     95  O   UNL A   1      52.009  25.821  20.978  1.00  0.00    -0.744 OA
ENDBRANCH  91  92
ENDBRANCH  65  86
ENDBRANCH  39  40
ENDBRANCH  32  34
ENDBRANCH  31  32
ENDBRANCH  30  31
ENDBRANCH   1  30
TORSDOF 18
ENDMDL
MODEL 3
REMARK VINA RESULT:     -11.4      6.210     12.884
REMARK SMILES CC(C)Cc1ccc(-c2cc(Cl)cc3c2O[C@H](C(F)(F)F)C(C(=O)OCCOC(=O)c2ccc(-c4c5nc(c(-c6ccc(S(=O)(=O)[O-])cc6)c6ccc([nH]6)c(-c6ccc(S(=O)(=O)[O-])cc6)c6nc(c(-c7ccc(S(=O)(=O)[O-])cc7)c7ccc4[nH]7)C=C6)C=C5)cc2)=C3)cc1
REMARK SMILES IDX 26 1 25 2 23 3 24 4 22 5 9 6 10 7 15 8 11 9 14 10 16 11
REMARK SMILES IDX 12 12 13 13 91 14 17 15 8 16 5 17 6 18 93 19 7 20 92 21 4 22
REMARK SMILES IDX 2 23 1 24 3 25 18 26 19 27 20 28 21 29 27 30 28 31 29 32
REMARK SMILES IDX 30 33 31 34 32 35 90 36 33 37 89 38 34 39 35 40 36 41 83 42
REMARK SMILES IDX 37 43 88 44 82 45 84 46 38 47 87 48 81 49 80 50 39 52 69 53
REMARK SMILES IDX 50 54 68 55 51 56 54 57 67 58 85 59 52 60 53 61 66 63 86 64
REMARK SMILES IDX 55 65 40 66 41 67 49 68 42 69 48 70 43 71 44 72 45 73 46 74
REMARK SMILES IDX 47 75 70 76 71 77 79 78 72 79 78 80 73 81 74 82 75 83 76 84
REMARK SMILES IDX 77 85 56 86 57 87 65 88 58 89 64 90 59 91 60 92 61 93 62 94
REMARK SMILES IDX 63 95
REMARK H PARENT 84 51 54 62
REMARK Flexibility Score: inf
ROOT
ATOM      1  C   UNL A   1      35.368  33.354  32.650  1.00  0.00     0.275 C 
ENDROOT
BRANCH   1   2
ATOM      2  O   UNL A   1      35.540  32.670  31.383  1.00  0.00    -0.459 OA
BRANCH   2   3
ATOM      3  C   UNL A   1      36.071  33.473  30.424  1.00  0.00     0.338 C 
ATOM      4  O   UNL A   1      37.042  34.202  30.601  1.00  0.00    -0.246 OA
BRANCH   3   5
ATOM      5  C   UNL A   1      35.431  33.336  29.092  1.00  0.00     0.087 C 
ATOM      6  C   UNL A   1      34.737  29.675  27.392  1.00  0.00     0.026 A 
ATOM      7  C   UNL A   1      35.787  28.944  28.014  1.00  0.00     0.033 A 
ATOM      8  C   UNL A   1      34.857  31.055  27.619  1.00  0.00     0.135 A 
ATOM      9  C   UNL A   1      36.900  29.489  28.665  1.00  0.00     0.042 A 
ATOM     10  C   UNL A   1      36.130  31.589  28.001  1.00  0.00     0.019 A 
ATOM     11  O   UNL A   1      33.807  31.968  27.692  1.00  0.00    -0.475 OA
ATOM     12  Cl  UNL A   1      37.967  28.612  29.682  1.00  0.00    -0.084 Cl
ATOM     13  C   UNL A   1      37.141  30.821  28.542  1.00  0.00     0.032 A 
ATOM     14  C   UNL A   1      36.307  33.047  28.121  1.00  0.00     0.027 C 
ATOM     15  C   UNL A   1      33.984  32.962  28.830  1.00  0.00     0.316 C 
BRANCH   6  16
ATOM     16  C   UNL A   1      33.827  28.778  26.536  1.00  0.00    -0.015 A 
ATOM     17  C   UNL A   1      31.754  28.881  24.425  1.00  0.00    -0.048 A 
ATOM     18  C   UNL A   1      33.051  28.424  24.167  1.00  0.00     0.004 A 
ATOM     19  C   UNL A   1      31.456  28.852  25.811  1.00  0.00     0.004 A 
ATOM     20  C   UNL A   1      34.068  28.365  25.211  1.00  0.00     0.009 A 
ATOM     21  C   UNL A   1      32.454  28.830  26.829  1.00  0.00     0.009 A 
BRANCH  17  22
ATOM     22  C   UNL A   1      30.560  29.296  23.302  1.00  0.00     0.038 C 
BRANCH  22  23
ATOM     23  C   UNL A   1      29.052  30.536  23.038  1.00  0.00    -0.013 C 
ATOM     24  C   UNL A   1      27.549  30.088  23.080  1.00  0.00     0.008 C 
ATOM     25  C   UNL A   1      28.808  32.027  23.555  1.00  0.00     0.008 C 
ENDBRANCH  22  23
ENDBRANCH  17  22
ENDBRANCH   6  16
BRANCH  15  26
ATOM     26  C   UNL A   1      33.301  34.301  28.519  1.00  0.00     0.430 C 
ATOM     27  F   UNL A   1      32.295  34.160  27.620  1.00  0.00    -0.167 F 
ATOM     28  F   UNL A   1      32.792  34.896  29.616  1.00  0.00    -0.167 F 
ATOM     29  F   UNL A   1      34.186  35.180  27.971  1.00  0.00    -0.167 F 
ENDBRANCH  15  26
ENDBRANCH   3   5
ENDBRANCH   2   3
ENDBRANCH   1   2
BRANCH   1  30
ATOM     30  C   UNL A   1      36.467  33.030  33.667  1.00  0.00     0.275 C 
BRANCH  30  31
ATOM     31  O   UNL A   1      37.186  31.838  33.302  1.00  0.00    -0.458 OA
BRANCH  31  32
ATOM     32  C   UNL A   1      38.472  31.823  33.721  1.00  0.00     0.338 C 
ATOM     33  O   UNL A   1      38.880  32.277  34.787  1.00  0.00    -0.246 OA
BRANCH  32  34
ATOM     34  C   UNL A   1      39.336  31.045  32.801  1.00  0.00     0.060 A 
ATOM     35  C   UNL A   1      39.410  31.519  31.503  1.00  0.00     0.016 A 
ATOM     36  C   UNL A   1      40.076  29.900  33.141  1.00  0.00     0.016 A 
ATOM     37  C   UNL A   1      40.268  30.900  30.601  1.00  0.00     0.010 A 
ATOM     38  C   UNL A   1      40.982  29.308  32.216  1.00  0.00     0.010 A 
ATOM     39  C   UNL A   1      41.142  29.848  30.941  1.00  0.00    -0.014 A 
BRANCH  39  40
ATOM     40  C   UNL A   1      42.091  29.394  29.849  1.00  0.00     0.031 A 
ATOM     41  C   UNL A   1      43.448  30.338  29.805  1.00  0.00     0.074 A 
ATOM     42  C   UNL A   1      41.937  28.191  29.162  1.00  0.00     0.049 A 
ATOM     43  N   UNL A   1      44.667  30.109  29.353  1.00  0.00    -0.248 NA
ATOM     44  C   UNL A   1      43.373  31.696  30.377  1.00  0.00     0.031 C 
ATOM     45  C   UNL A   1      40.954  27.120  29.022  1.00  0.00     0.029 A 
ATOM     46  N   UNL A   1      42.927  27.572  28.458  1.00  0.00    -0.354 N 
ATOM     47  C   UNL A   1      45.479  31.241  29.481  1.00  0.00     0.074 A 
ATOM     48  C   UNL A   1      44.606  32.175  30.192  1.00  0.00     0.031 C 
ATOM     49  C   UNL A   1      41.503  25.992  28.467  1.00  0.00     0.029 A 
ATOM     50  C   UNL A   1      42.903  26.228  28.038  1.00  0.00     0.049 A 
ATOM     51  H   UNL A   1      43.719  28.107  28.224  1.00  0.00     0.167 HD
ATOM     52  C   UNL A   1      46.761  31.521  29.029  1.00  0.00     0.031 A 
ATOM     53  C   UNL A   1      43.843  25.335  27.430  1.00  0.00     0.031 A 
ATOM     54  C   UNL A   1      47.711  30.705  28.211  1.00  0.00     0.049 A 
ATOM     55  C   UNL A   1      45.503  25.490  26.909  1.00  0.00     0.074 A 
ATOM     56  C   UNL A   1      48.937  30.997  27.625  1.00  0.00     0.029 A 
ATOM     57  N   UNL A   1      47.503  29.415  27.771  1.00  0.00    -0.354 N 
ATOM     58  N   UNL A   1      46.465  26.298  27.330  1.00  0.00    -0.248 NA
ATOM     59  C   UNL A   1      46.088  24.655  25.831  1.00  0.00     0.031 C 
ATOM     60  C   UNL A   1      49.402  29.850  26.893  1.00  0.00     0.029 A 
ATOM     61  C   UNL A   1      48.500  28.790  27.026  1.00  0.00     0.049 A 
ATOM     62  H   UNL A   1      46.664  28.944  27.980  1.00  0.00     0.167 HD
ATOM     63  C   UNL A   1      47.557  26.357  26.503  1.00  0.00     0.074 A 
ATOM     64  C   UNL A   1      47.332  25.169  25.670  1.00  0.00     0.031 C 
ATOM     65  C   UNL A   1      48.445  27.419  26.340  1.00  0.00     0.031 A 
BRANCH  52  66
ATOM     66  C   UNL A   1      47.236  32.911  29.400  1.00  0.00    -0.014 A 
ATOM     67  C   UNL A   1      47.209  33.953  28.453  1.00  0.00     0.010 A 
ATOM     68  C   UNL A   1      47.766  33.167  30.678  1.00  0.00     0.010 A 
ATOM     69  C   UNL A   1      47.753  35.205  28.758  1.00  0.00     0.020 A 
ATOM     70  C   UNL A   1      48.292  34.426  30.994  1.00  0.00     0.020 A 
ATOM     71  C   UNL A   1      48.302  35.430  30.023  1.00  0.00     0.054 A 
BRANCH  71  72
ATOM     72  S   UNL A   1      49.037  37.053  30.376  1.00  0.00     0.124 S 
ATOM     73  O   UNL A   1      49.745  36.797  31.629  1.00  0.00    -0.237 OA
ATOM     74  O   UNL A   1      49.887  37.279  29.210  1.00  0.00    -0.237 OA
ATOM     75  O   UNL A   1      47.883  37.941  30.486  1.00  0.00    -0.744 OA
ENDBRANCH  71  72
ENDBRANCH  52  66
BRANCH  53  76
ATOM     76  C   UNL A   1      43.350  23.934  27.152  1.00  0.00    -0.014 A 
ATOM     77  C   UNL A   1      42.721  23.622  25.929  1.00  0.00     0.010 A 
ATOM     78  C   UNL A   1      43.471  22.914  28.114  1.00  0.00     0.010 A 
ATOM     79  C   UNL A   1      42.256  22.325  25.668  1.00  0.00     0.020 A 
ATOM     80  C   UNL A   1      43.054  21.609  27.840  1.00  0.00     0.020 A 
ATOM     81  C   UNL A   1      42.443  21.322  26.620  1.00  0.00     0.054 A 
BRANCH  81  82
ATOM     82  S   UNL A   1      41.935  19.623  26.231  1.00  0.00     0.124 S 
ATOM     83  O   UNL A   1      42.293  18.910  27.452  1.00  0.00    -0.237 OA
ATOM     84  O   UNL A   1      40.503  19.770  25.979  1.00  0.00    -0.237 OA
ATOM     85  O   UNL A   1      42.734  19.291  25.053  1.00  0.00    -0.744 OA
ENDBRANCH  81  82
ENDBRANCH  53  76
BRANCH  65  86
ATOM     86  C   UNL A   1      49.433  27.236  25.214  1.00  0.00    -0.014 A 
ATOM     87  C   UNL A   1      50.752  26.801  25.447  1.00  0.00     0.010 A 
ATOM     88  C   UNL A   1      49.009  27.437  23.890  1.00  0.00     0.010 A 
ATOM     89  C   UNL A   1      51.651  26.655  24.385  1.00  0.00     0.020 A 
ATOM     90  C   UNL A   1      49.893  27.260  22.823  1.00  0.00     0.020 A 
ATOM     91  C   UNL A   1      51.218  26.904  23.080  1.00  0.00     0.054 A 
BRANCH  91  92
ATOM     92  S   UNL A   1      52.413  26.782  21.722  1.00  0.00     0.124 S 
ATOM     93  O   UNL A   1      52.542  28.176  21.306  1.00  0.00    -0.237 OA
ATOM     94  O   UNL A   1      53.587  26.210  22.376  1.00  0.00    -0.237 OA
ATOM     95  O   UNL A   1      51.754  25.904  20.757  1.00  0.00    -0.744 OA
ENDBRANCH  91  92
ENDBRANCH  65  86
ENDBRANCH  39  40
ENDBRANCH  32  34
ENDBRANCH  31  32
ENDBRANCH  30  31
ENDBRANCH   1  30
TORSDOF 18
ENDMDL
