MODEL 1
REMARK VINA RESULT:     -11.1      0.000      0.000
REMARK SMILES Cc1cc(C(=O)N2C[C@@H](C(=O)OCCOC(=O)c3ccc(-c4c5nc(c(-c6ccc(S(=O)(=O)[O-])cc6)c6ccc([nH]6)c(-c6ccc(S(=O)(=O)[O-])cc6)c6nc(c(-c7ccc(S(=O)(=O)[O-])cc7)c7ccc4[nH]7)C=C6)C=C5)cc3)[C@H](C3CC3)C2)sc1C
REMARK SMILES IDX 14 1 13 2 12 3 10 4 11 5 9 6 7 7 8 8 82 9 78 10 5 11 6 12
REMARK SMILES IDX 4 13 1 14 2 15 3 16 84 17 83 18 85 19 79 20 80 21 81 22
REMARK SMILES IDX 15 23 16 24 17 25 18 26 19 27 77 28 20 29 76 30 21 31 22 32
REMARK SMILES IDX 23 33 70 34 24 35 75 36 69 37 71 38 25 39 74 40 68 41 67 42
REMARK SMILES IDX 26 44 56 45 37 46 55 47 38 48 41 49 54 50 72 51 39 52 40 53
REMARK SMILES IDX 53 55 73 56 42 57 27 58 28 59 36 60 29 61 35 62 30 63 31 64
REMARK SMILES IDX 32 65 33 66 34 67 57 68 58 69 66 70 59 71 65 72 60 73 61 74
REMARK SMILES IDX 62 75 63 76 64 77 43 78 44 79 52 80 45 81 51 82 46 83 47 84
REMARK SMILES IDX 48 85 49 86 50 87
REMARK H PARENT 71 43 41 54
REMARK Flexibility Score: inf
ROOT
ATOM      1  C   UNL A   1      37.875  24.075  26.041  1.00  0.00     0.275 C 
ENDROOT
BRANCH   1   2
ATOM      2  C   UNL A   1      37.595  22.747  25.343  1.00  0.00     0.274 C 
BRANCH   2   3
ATOM      3  O   UNL A   1      36.222  22.648  24.910  1.00  0.00    -0.462 OA
BRANCH   3   4
ATOM      4  C   UNL A   1      35.984  22.952  23.603  1.00  0.00     0.311 C 
ATOM      5  O   UNL A   1      36.815  22.870  22.709  1.00  0.00    -0.252 OA
BRANCH   4   6
ATOM      6  C   UNL A   1      34.575  23.452  23.404  1.00  0.00     0.124 C 
ATOM      7  N   UNL A   1      33.064  25.119  23.990  1.00  0.00    -0.337 N 
ATOM      8  C   UNL A   1      34.450  24.954  23.599  1.00  0.00     0.135 C 
ATOM      9  C   UNL A   1      32.654  24.004  24.812  1.00  0.00     0.124 C 
ATOM     10  C   UNL A   1      33.626  22.857  24.472  1.00  0.00     0.028 C 
BRANCH   7  11
ATOM     11  C   UNL A   1      32.255  26.240  23.893  1.00  0.00     0.263 C 
ATOM     12  O   UNL A   1      31.332  26.244  23.075  1.00  0.00    -0.268 OA
BRANCH  11  13
ATOM     13  C   UNL A   1      32.561  27.431  24.675  1.00  0.00     0.093 A 
ATOM     14  C   UNL A   1      34.554  29.098  27.406  1.00  0.00     0.045 C 
ATOM     15  C   UNL A   1      33.550  28.763  26.351  1.00  0.00    -0.037 A 
ATOM     16  C   UNL A   1      33.641  27.594  25.524  1.00  0.00     0.029 A 
ATOM     17  C   UNL A   1      32.407  29.487  26.054  1.00  0.00     0.005 A 
ATOM     18  S   UNL A   1      31.448  28.712  24.872  1.00  0.00    -0.135 S 
ATOM     19  C   UNL A   1      31.925  30.762  26.663  1.00  0.00     0.056 C 
ENDBRANCH  11  13
ENDBRANCH   7  11
BRANCH  10  20
ATOM     20  C   UNL A   1      32.887  21.596  24.084  1.00  0.00    -0.005 C 
ATOM     21  C   UNL A   1      33.283  20.189  24.471  1.00  0.00     0.004 C 
ATOM     22  C   UNL A   1      32.095  20.838  25.120  1.00  0.00     0.004 C 
ENDBRANCH  10  20
ENDBRANCH   4   6
ENDBRANCH   3   4
ENDBRANCH   2   3
ENDBRANCH   1   2
BRANCH   1  23
ATOM     23  O   UNL A   1      39.132  24.023  26.738  1.00  0.00    -0.458 OA
BRANCH  23  24
ATOM     24  C   UNL A   1      39.999  25.007  26.435  1.00  0.00     0.338 C 
ATOM     25  O   UNL A   1      40.486  25.258  25.333  1.00  0.00    -0.246 OA
BRANCH  24  26
ATOM     26  C   UNL A   1      40.252  25.842  27.611  1.00  0.00     0.060 A 
ATOM     27  C   UNL A   1      39.403  25.716  28.706  1.00  0.00     0.016 A 
ATOM     28  C   UNL A   1      41.196  26.865  27.570  1.00  0.00     0.016 A 
ATOM     29  C   UNL A   1      39.400  26.682  29.704  1.00  0.00     0.010 A 
ATOM     30  C   UNL A   1      41.269  27.772  28.633  1.00  0.00     0.010 A 
ATOM     31  C   UNL A   1      40.338  27.723  29.688  1.00  0.00    -0.014 A 
BRANCH  31  32
ATOM     32  C   UNL A   1      40.297  28.784  30.733  1.00  0.00     0.031 A 
ATOM     33  C   UNL A   1      41.310  28.778  31.851  1.00  0.00     0.074 A 
ATOM     34  C   UNL A   1      39.384  29.773  30.675  1.00  0.00     0.049 A 
ATOM     35  N   UNL A   1      41.330  29.488  32.950  1.00  0.00    -0.248 NA
ATOM     36  C   UNL A   1      42.438  27.840  31.724  1.00  0.00     0.031 C 
ATOM     37  C   UNL A   1      38.381  29.947  29.621  1.00  0.00     0.029 A 
ATOM     38  N   UNL A   1      39.163  30.836  31.516  1.00  0.00    -0.354 N 
ATOM     39  C   UNL A   1      42.422  29.029  33.679  1.00  0.00     0.074 A 
ATOM     40  C   UNL A   1      43.048  27.989  32.891  1.00  0.00     0.031 C 
ATOM     41  C   UNL A   1      37.692  31.076  29.849  1.00  0.00     0.029 A 
ATOM     42  C   UNL A   1      38.136  31.656  31.110  1.00  0.00     0.049 A 
ATOM     43  H   UNL A   1      39.690  30.996  32.332  1.00  0.00     0.167 HD
ATOM     44  C   UNL A   1      42.857  29.431  34.897  1.00  0.00     0.031 A 
ATOM     45  C   UNL A   1      37.581  32.731  31.703  1.00  0.00     0.031 A 
ATOM     46  C   UNL A   1      42.271  30.508  35.650  1.00  0.00     0.049 A 
ATOM     47  C   UNL A   1      38.082  33.166  33.048  1.00  0.00     0.074 A 
ATOM     48  C   UNL A   1      42.630  30.985  36.899  1.00  0.00     0.029 A 
ATOM     49  N   UNL A   1      41.220  31.298  35.208  1.00  0.00    -0.354 N 
ATOM     50  N   UNL A   1      39.049  32.652  33.771  1.00  0.00    -0.248 NA
ATOM     51  C   UNL A   1      37.402  34.309  33.671  1.00  0.00     0.031 C 
ATOM     52  C   UNL A   1      41.780  32.050  37.222  1.00  0.00     0.029 A 
ATOM     53  C   UNL A   1      40.918  32.259  36.157  1.00  0.00     0.049 A 
ATOM     54  H   UNL A   1      40.756  31.191  34.347  1.00  0.00     0.167 HD
ATOM     55  C   UNL A   1      39.092  33.408  34.935  1.00  0.00     0.074 A 
ATOM     56  C   UNL A   1      38.072  34.431  34.810  1.00  0.00     0.031 C 
ATOM     57  C   UNL A   1      39.896  33.263  36.016  1.00  0.00     0.031 A 
BRANCH  44  58
ATOM     58  C   UNL A   1      43.993  28.662  35.516  1.00  0.00    -0.014 A 
ATOM     59  C   UNL A   1      45.334  29.037  35.318  1.00  0.00     0.010 A 
ATOM     60  C   UNL A   1      43.706  27.548  36.327  1.00  0.00     0.010 A 
ATOM     61  C   UNL A   1      46.368  28.285  35.885  1.00  0.00     0.020 A 
ATOM     62  C   UNL A   1      44.735  26.809  36.915  1.00  0.00     0.020 A 
ATOM     63  C   UNL A   1      46.061  27.169  36.672  1.00  0.00     0.054 A 
BRANCH  63  64
ATOM     64  S   UNL A   1      47.417  26.210  37.404  1.00  0.00     0.124 S 
ATOM     65  O   UNL A   1      48.489  26.417  36.433  1.00  0.00    -0.237 OA
ATOM     66  O   UNL A   1      47.611  26.856  38.699  1.00  0.00    -0.237 OA
ATOM     67  O   UNL A   1      46.884  24.850  37.464  1.00  0.00    -0.744 OA
ENDBRANCH  63  64
ENDBRANCH  44  58
BRANCH  45  68
ATOM     68  C   UNL A   1      36.448  33.433  31.041  1.00  0.00    -0.014 A 
ATOM     69  C   UNL A   1      35.242  33.648  31.729  1.00  0.00     0.010 A 
ATOM     70  C   UNL A   1      36.589  33.927  29.732  1.00  0.00     0.010 A 
ATOM     71  C   UNL A   1      34.195  34.345  31.117  1.00  0.00     0.020 A 
ATOM     72  C   UNL A   1      35.555  34.646  29.128  1.00  0.00     0.020 A 
ATOM     73  C   UNL A   1      34.360  34.843  29.822  1.00  0.00     0.054 A 
BRANCH  73  74
ATOM     74  S   UNL A   1      33.026  35.818  29.071  1.00  0.00     0.124 S 
ATOM     75  O   UNL A   1      33.769  36.872  28.389  1.00  0.00    -0.237 OA
ATOM     76  O   UNL A   1      32.366  34.845  28.203  1.00  0.00    -0.237 OA
ATOM     77  O   UNL A   1      32.234  36.250  30.220  1.00  0.00    -0.744 OA
ENDBRANCH  73  74
ENDBRANCH  45  68
BRANCH  57  78
ATOM     78  C   UNL A   1      39.714  34.244  37.138  1.00  0.00    -0.014 A 
ATOM     79  C   UNL A   1      38.994  33.892  38.294  1.00  0.00     0.010 A 
ATOM     80  C   UNL A   1      40.297  35.520  37.050  1.00  0.00     0.010 A 
ATOM     81  C   UNL A   1      38.835  34.814  39.332  1.00  0.00     0.020 A 
ATOM     82  C   UNL A   1      40.154  36.438  38.094  1.00  0.00     0.020 A 
ATOM     83  C   UNL A   1      39.411  36.083  39.222  1.00  0.00     0.054 A 
BRANCH  83  84
ATOM     84  S   UNL A   1      39.221  37.255  40.594  1.00  0.00     0.124 S 
ATOM     85  O   UNL A   1      38.680  36.401  41.647  1.00  0.00    -0.237 OA
ATOM     86  O   UNL A   1      40.586  37.729  40.808  1.00  0.00    -0.237 OA
ATOM     87  O   UNL A   1      38.297  38.257  40.065  1.00  0.00    -0.744 OA
ENDBRANCH  83  84
ENDBRANCH  57  78
ENDBRANCH  31  32
ENDBRANCH  24  26
ENDBRANCH  23  24
ENDBRANCH   1  23
TORSDOF 17
ENDMDL
MODEL 2
REMARK VINA RESULT:     -11.0      1.050      1.659
REMARK SMILES Cc1cc(C(=O)N2C[C@@H](C(=O)OCCOC(=O)c3ccc(-c4c5nc(c(-c6ccc(S(=O)(=O)[O-])cc6)c6ccc([nH]6)c(-c6ccc(S(=O)(=O)[O-])cc6)c6nc(c(-c7ccc(S(=O)(=O)[O-])cc7)c7ccc4[nH]7)C=C6)C=C5)cc3)[C@H](C3CC3)C2)sc1C
REMARK SMILES IDX 14 1 13 2 12 3 10 4 11 5 9 6 7 7 8 8 82 9 78 10 5 11 6 12
REMARK SMILES IDX 4 13 1 14 2 15 3 16 84 17 83 18 85 19 79 20 80 21 81 22
REMARK SMILES IDX 15 23 16 24 17 25 18 26 19 27 77 28 20 29 76 30 21 31 22 32
REMARK SMILES IDX 23 33 70 34 24 35 75 36 69 37 71 38 25 39 74 40 68 41 67 42
REMARK SMILES IDX 26 44 56 45 37 46 55 47 38 48 41 49 54 50 72 51 39 52 40 53
REMARK SMILES IDX 53 55 73 56 42 57 27 58 28 59 36 60 29 61 35 62 30 63 31 64
REMARK SMILES IDX 32 65 33 66 34 67 57 68 58 69 66 70 59 71 65 72 60 73 61 74
REMARK SMILES IDX 62 75 63 76 64 77 43 78 44 79 52 80 45 81 51 82 46 83 47 84
REMARK SMILES IDX 48 85 49 86 50 87
REMARK H PARENT 71 43 41 54
REMARK Flexibility Score: inf
ROOT
ATOM      1  C   UNL A   1      37.925  23.969  26.220  1.00  0.00     0.275 C 
ENDROOT
BRANCH   1   2
ATOM      2  C   UNL A   1      37.778  22.856  25.184  1.00  0.00     0.274 C 
BRANCH   2   3
ATOM      3  O   UNL A   1      36.431  22.340  25.140  1.00  0.00    -0.462 OA
BRANCH   3   4
ATOM      4  C   UNL A   1      35.704  22.660  24.034  1.00  0.00     0.311 C 
ATOM      5  O   UNL A   1      36.184  22.917  22.938  1.00  0.00    -0.252 OA
BRANCH   4   6
ATOM      6  C   UNL A   1      34.228  22.707  24.342  1.00  0.00     0.124 C 
ATOM      7  N   UNL A   1      32.641  23.475  25.857  1.00  0.00    -0.337 N 
ATOM      8  C   UNL A   1      33.838  23.919  25.172  1.00  0.00     0.135 C 
ATOM      9  C   UNL A   1      32.765  22.076  26.196  1.00  0.00     0.124 C 
ATOM     10  C   UNL A   1      33.813  21.503  25.223  1.00  0.00     0.028 C 
BRANCH   7  11
ATOM     11  C   UNL A   1      31.612  24.229  26.401  1.00  0.00     0.263 C 
ATOM     12  O   UNL A   1      30.954  23.761  27.333  1.00  0.00    -0.268 OA
BRANCH  11  13
ATOM     13  C   UNL A   1      31.254  25.510  25.805  1.00  0.00     0.093 A 
ATOM     14  C   UNL A   1      30.153  27.498  22.798  1.00  0.00     0.045 C 
ATOM     15  C   UNL A   1      30.658  27.066  24.136  1.00  0.00    -0.037 A 
ATOM     16  C   UNL A   1      30.661  25.698  24.569  1.00  0.00     0.029 A 
ATOM     17  C   UNL A   1      31.212  27.888  25.103  1.00  0.00     0.005 A 
ATOM     18  S   UNL A   1      31.788  27.001  26.445  1.00  0.00    -0.135 S 
ATOM     19  C   UNL A   1      31.401  29.368  25.073  1.00  0.00     0.056 C 
ENDBRANCH  11  13
ENDBRANCH   7  11
BRANCH  10  20
ATOM     20  C   UNL A   1      33.292  20.287  24.492  1.00  0.00    -0.005 C 
ATOM     21  C   UNL A   1      33.912  18.908  24.522  1.00  0.00     0.004 C 
ATOM     22  C   UNL A   1      32.633  19.170  25.264  1.00  0.00     0.004 C 
ENDBRANCH  10  20
ENDBRANCH   4   6
ENDBRANCH   3   4
ENDBRANCH   2   3
ENDBRANCH   1   2
BRANCH   1  23
ATOM     23  O   UNL A   1      39.244  23.955  26.791  1.00  0.00    -0.458 OA
BRANCH  23  24
ATOM     24  C   UNL A   1      40.018  25.011  26.478  1.00  0.00     0.338 C 
ATOM     25  O   UNL A   1      40.436  25.324  25.365  1.00  0.00    -0.246 OA
BRANCH  24  26
ATOM     26  C   UNL A   1      40.254  25.837  27.665  1.00  0.00     0.060 A 
ATOM     27  C   UNL A   1      39.344  25.762  28.714  1.00  0.00     0.016 A 
ATOM     28  C   UNL A   1      41.254  26.807  27.671  1.00  0.00     0.016 A 
ATOM     29  C   UNL A   1      39.341  26.732  29.709  1.00  0.00     0.010 A 
ATOM     30  C   UNL A   1      41.320  27.714  28.734  1.00  0.00     0.010 A 
ATOM     31  C   UNL A   1      40.334  27.720  29.739  1.00  0.00    -0.014 A 
BRANCH  31  32
ATOM     32  C   UNL A   1      40.297  28.786  30.779  1.00  0.00     0.031 A 
ATOM     33  C   UNL A   1      41.315  28.788  31.892  1.00  0.00     0.074 A 
ATOM     34  C   UNL A   1      39.381  29.774  30.720  1.00  0.00     0.049 A 
ATOM     35  N   UNL A   1      41.339  29.504  32.988  1.00  0.00    -0.248 NA
ATOM     36  C   UNL A   1      42.444  27.851  31.765  1.00  0.00     0.031 C 
ATOM     37  C   UNL A   1      38.373  29.941  29.670  1.00  0.00     0.029 A 
ATOM     38  N   UNL A   1      39.163  30.841  31.556  1.00  0.00    -0.354 N 
ATOM     39  C   UNL A   1      42.436  29.052  33.714  1.00  0.00     0.074 A 
ATOM     40  C   UNL A   1      43.059  28.008  32.928  1.00  0.00     0.031 C 
ATOM     41  C   UNL A   1      37.683  31.070  29.895  1.00  0.00     0.029 A 
ATOM     42  C   UNL A   1      38.132  31.658  31.151  1.00  0.00     0.049 A 
ATOM     43  H   UNL A   1      39.694  31.007  32.369  1.00  0.00     0.167 HD
ATOM     44  C   UNL A   1      42.876  29.461  34.927  1.00  0.00     0.031 A 
ATOM     45  C   UNL A   1      37.579  32.735  31.741  1.00  0.00     0.031 A 
ATOM     46  C   UNL A   1      42.291  30.541  35.677  1.00  0.00     0.049 A 
ATOM     47  C   UNL A   1      38.085  33.178  33.081  1.00  0.00     0.074 A 
ATOM     48  C   UNL A   1      42.655  31.025  36.921  1.00  0.00     0.029 A 
ATOM     49  N   UNL A   1      41.237  31.327  35.236  1.00  0.00    -0.354 N 
ATOM     50  N   UNL A   1      39.057  32.670  33.802  1.00  0.00    -0.248 NA
ATOM     51  C   UNL A   1      37.407  34.323  33.701  1.00  0.00     0.031 C 
ATOM     52  C   UNL A   1      41.806  32.090  37.243  1.00  0.00     0.029 A 
ATOM     53  C   UNL A   1      40.938  32.292  36.182  1.00  0.00     0.049 A 
ATOM     54  H   UNL A   1      40.769  31.214  34.377  1.00  0.00     0.167 HD
ATOM     55  C   UNL A   1      39.105  33.432  34.962  1.00  0.00     0.074 A 
ATOM     56  C   UNL A   1      38.082  34.452  34.836  1.00  0.00     0.031 C 
ATOM     57  C   UNL A   1      39.914  33.294  36.040  1.00  0.00     0.031 A 
BRANCH  44  58
ATOM     58  C   UNL A   1      44.015  28.697  35.545  1.00  0.00    -0.014 A 
ATOM     59  C   UNL A   1      43.797  27.556  36.337  1.00  0.00     0.010 A 
ATOM     60  C   UNL A   1      45.336  29.123  35.309  1.00  0.00     0.010 A 
ATOM     61  C   UNL A   1      44.876  26.883  36.919  1.00  0.00     0.020 A 
ATOM     62  C   UNL A   1      46.418  28.440  35.869  1.00  0.00     0.020 A 
ATOM     63  C   UNL A   1      46.180  27.336  36.689  1.00  0.00     0.054 A 
BRANCH  63  64
ATOM     64  S   UNL A   1      47.567  26.446  37.448  1.00  0.00     0.124 S 
ATOM     65  O   UNL A   1      48.359  27.541  38.001  1.00  0.00    -0.237 OA
ATOM     66  O   UNL A   1      46.907  25.591  38.431  1.00  0.00    -0.237 OA
ATOM     67  O   UNL A   1      48.179  25.738  36.325  1.00  0.00    -0.744 OA
ENDBRANCH  63  64
ENDBRANCH  44  58
BRANCH  45  68
ATOM     68  C   UNL A   1      36.442  33.432  31.081  1.00  0.00    -0.014 A 
ATOM     69  C   UNL A   1      35.282  33.751  31.807  1.00  0.00     0.010 A 
ATOM     70  C   UNL A   1      36.533  33.814  29.731  1.00  0.00     0.010 A 
ATOM     71  C   UNL A   1      34.233  34.443  31.193  1.00  0.00     0.020 A 
ATOM     72  C   UNL A   1      35.498  34.528  29.122  1.00  0.00     0.020 A 
ATOM     73  C   UNL A   1      34.350  34.831  29.856  1.00  0.00     0.054 A 
BRANCH  73  74
ATOM     74  S   UNL A   1      33.018  35.801  29.094  1.00  0.00     0.124 S 
ATOM     75  O   UNL A   1      33.759  36.885  28.458  1.00  0.00    -0.237 OA
ATOM     76  O   UNL A   1      32.398  34.839  28.185  1.00  0.00    -0.237 OA
ATOM     77  O   UNL A   1      32.189  36.190  30.233  1.00  0.00    -0.744 OA
ENDBRANCH  73  74
ENDBRANCH  45  68
BRANCH  57  78
ATOM     78  C   UNL A   1      39.735  34.281  37.158  1.00  0.00    -0.014 A 
ATOM     79  C   UNL A   1      40.144  35.618  37.011  1.00  0.00     0.010 A 
ATOM     80  C   UNL A   1      39.122  33.874  38.355  1.00  0.00     0.010 A 
ATOM     81  C   UNL A   1      39.969  36.526  38.058  1.00  0.00     0.020 A 
ATOM     82  C   UNL A   1      38.930  34.785  39.398  1.00  0.00     0.020 A 
ATOM     83  C   UNL A   1      39.369  36.101  39.247  1.00  0.00     0.054 A 
BRANCH  83  84
ATOM     84  S   UNL A   1      39.121  37.303  40.583  1.00  0.00     0.124 S 
ATOM     85  O   UNL A   1      38.241  38.282  39.950  1.00  0.00    -0.237 OA
ATOM     86  O   UNL A   1      38.509  36.496  41.636  1.00  0.00    -0.237 OA
ATOM     87  O   UNL A   1      40.472  37.776  40.876  1.00  0.00    -0.744 OA
ENDBRANCH  83  84
ENDBRANCH  57  78
ENDBRANCH  31  32
ENDBRANCH  24  26
ENDBRANCH  23  24
ENDBRANCH   1  23
TORSDOF 17
ENDMDL
MODEL 3
REMARK VINA RESULT:     -11.0      1.615      2.115
REMARK SMILES Cc1cc(C(=O)N2C[C@@H](C(=O)OCCOC(=O)c3ccc(-c4c5nc(c(-c6ccc(S(=O)(=O)[O-])cc6)c6ccc([nH]6)c(-c6ccc(S(=O)(=O)[O-])cc6)c6nc(c(-c7ccc(S(=O)(=O)[O-])cc7)c7ccc4[nH]7)C=C6)C=C5)cc3)[C@H](C3CC3)C2)sc1C
REMARK SMILES IDX 14 1 13 2 12 3 10 4 11 5 9 6 7 7 8 8 82 9 78 10 5 11 6 12
REMARK SMILES IDX 4 13 1 14 2 15 3 16 84 17 83 18 85 19 79 20 80 21 81 22
REMARK SMILES IDX 15 23 16 24 17 25 18 26 19 27 77 28 20 29 76 30 21 31 22 32
REMARK SMILES IDX 23 33 70 34 24 35 75 36 69 37 71 38 25 39 74 40 68 41 67 42
REMARK SMILES IDX 26 44 56 45 37 46 55 47 38 48 41 49 54 50 72 51 39 52 40 53
REMARK SMILES IDX 53 55 73 56 42 57 27 58 28 59 36 60 29 61 35 62 30 63 31 64
REMARK SMILES IDX 32 65 33 66 34 67 57 68 58 69 66 70 59 71 65 72 60 73 61 74
REMARK SMILES IDX 62 75 63 76 64 77 43 78 44 79 52 80 45 81 51 82 46 83 47 84
REMARK SMILES IDX 48 85 49 86 50 87
REMARK H PARENT 71 43 41 54
REMARK Flexibility Score: inf
ROOT
ATOM      1  C   UNL A   1      38.552  24.107  26.115  1.00  0.00     0.275 C 
ENDROOT
BRANCH   1   2
ATOM      2  C   UNL A   1      38.539  22.580  26.130  1.00  0.00     0.274 C 
BRANCH   2   3
ATOM      3  O   UNL A   1      37.202  22.054  26.000  1.00  0.00    -0.462 OA
BRANCH   3   4
ATOM      4  C   UNL A   1      37.022  21.110  25.034  1.00  0.00     0.311 C 
ATOM      5  O   UNL A   1      37.749  20.140  24.868  1.00  0.00    -0.252 OA
BRANCH   4   6
ATOM      6  C   UNL A   1      35.838  21.439  24.160  1.00  0.00     0.124 C 
ATOM      7  N   UNL A   1      34.318  23.104  23.589  1.00  0.00    -0.337 N 
ATOM      8  C   UNL A   1      35.734  22.922  23.842  1.00  0.00     0.135 C 
ATOM      9  C   UNL A   1      33.553  22.252  24.471  1.00  0.00     0.124 C 
ATOM     10  C   UNL A   1      34.511  21.121  24.891  1.00  0.00     0.028 C 
BRANCH   7  11
ATOM     11  C   UNL A   1      33.680  24.094  22.859  1.00  0.00     0.263 C 
ATOM     12  O   UNL A   1      33.458  23.905  21.660  1.00  0.00    -0.268 OA
BRANCH  11  13
ATOM     13  C   UNL A   1      33.373  25.376  23.480  1.00  0.00     0.093 A 
ATOM     14  C   UNL A   1      33.808  27.779  26.350  1.00  0.00     0.045 C 
ATOM     15  C   UNL A   1      33.345  27.071  25.119  1.00  0.00    -0.037 A 
ATOM     16  C   UNL A   1      34.020  25.930  24.570  1.00  0.00     0.029 A 
ATOM     17  C   UNL A   1      32.217  27.378  24.377  1.00  0.00     0.005 A 
ATOM     18  S   UNL A   1      31.956  26.257  23.114  1.00  0.00    -0.135 S 
ATOM     19  C   UNL A   1      31.233  28.481  24.586  1.00  0.00     0.056 C 
ENDBRANCH  11  13
ENDBRANCH   7  11
BRANCH  10  20
ATOM     20  C   UNL A   1      33.913  19.757  24.631  1.00  0.00    -0.005 C 
ATOM     21  C   UNL A   1      32.914  19.049  25.518  1.00  0.00     0.004 C 
ATOM     22  C   UNL A   1      32.469  19.636  24.209  1.00  0.00     0.004 C 
ENDBRANCH  10  20
ENDBRANCH   4   6
ENDBRANCH   3   4
ENDBRANCH   2   3
ENDBRANCH   1   2
BRANCH   1  23
ATOM     23  O   UNL A   1      39.420  24.614  27.143  1.00  0.00    -0.458 OA
BRANCH  23  24
ATOM     24  C   UNL A   1      40.021  25.785  26.862  1.00  0.00     0.338 C 
ATOM     25  O   UNL A   1      40.634  26.082  25.838  1.00  0.00    -0.246 OA
BRANCH  24  26
ATOM     26  C   UNL A   1      39.781  26.750  27.939  1.00  0.00     0.060 A 
ATOM     27  C   UNL A   1      40.315  28.028  27.812  1.00  0.00     0.016 A 
ATOM     28  C   UNL A   1      39.198  26.349  29.139  1.00  0.00     0.016 A 
ATOM     29  C   UNL A   1      40.389  28.869  28.916  1.00  0.00     0.010 A 
ATOM     30  C   UNL A   1      39.171  27.240  30.217  1.00  0.00     0.010 A 
ATOM     31  C   UNL A   1      39.812  28.491  30.135  1.00  0.00    -0.014 A 
BRANCH  31  32
ATOM     32  C   UNL A   1      39.937  29.374  31.328  1.00  0.00     0.031 A 
ATOM     33  C   UNL A   1      41.146  29.264  32.223  1.00  0.00     0.074 A 
ATOM     34  C   UNL A   1      38.996  30.299  31.603  1.00  0.00     0.049 A 
ATOM     35  N   UNL A   1      41.354  29.796  33.400  1.00  0.00    -0.248 NA
ATOM     36  C   UNL A   1      42.261  28.432  31.739  1.00  0.00     0.031 C 
ATOM     37  C   UNL A   1      37.802  30.567  30.795  1.00  0.00     0.029 A 
ATOM     38  N   UNL A   1      38.905  31.204  32.631  1.00  0.00    -0.354 N 
ATOM     39  C   UNL A   1      42.582  29.304  33.830  1.00  0.00     0.074 A 
ATOM     40  C   UNL A   1      43.080  28.440  32.781  1.00  0.00     0.031 C 
ATOM     41  C   UNL A   1      37.132  31.601  31.327  1.00  0.00     0.029 A 
ATOM     42  C   UNL A   1      37.790  32.008  32.562  1.00  0.00     0.049 A 
ATOM     43  H   UNL A   1      39.574  31.272  33.351  1.00  0.00     0.167 HD
ATOM     44  C   UNL A   1      43.230  29.542  34.995  1.00  0.00     0.031 A 
ATOM     45  C   UNL A   1      37.324  32.940  33.414  1.00  0.00     0.031 A 
ATOM     46  C   UNL A   1      42.762  30.451  36.008  1.00  0.00     0.049 A 
ATOM     47  C   UNL A   1      38.059  33.196  34.696  1.00  0.00     0.074 A 
ATOM     48  C   UNL A   1      43.339  30.753  37.230  1.00  0.00     0.029 A 
ATOM     49  N   UNL A   1      41.619  31.228  35.903  1.00  0.00    -0.354 N 
ATOM     50  N   UNL A   1      39.165  32.642  35.133  1.00  0.00    -0.248 NA
ATOM     51  C   UNL A   1      37.473  34.183  35.612  1.00  0.00     0.031 C 
ATOM     52  C   UNL A   1      42.531  31.698  37.874  1.00  0.00     0.029 A 
ATOM     53  C   UNL A   1      41.472  32.010  37.036  1.00  0.00     0.049 A 
ATOM     54  H   UNL A   1      41.002  31.224  35.137  1.00  0.00     0.167 HD
ATOM     55  C   UNL A   1      39.406  33.212  36.377  1.00  0.00     0.074 A 
ATOM     56  C   UNL A   1      38.346  34.173  36.611  1.00  0.00     0.031 C 
ATOM     57  C   UNL A   1      40.408  32.956  37.252  1.00  0.00     0.031 A 
BRANCH  44  58
ATOM     58  C   UNL A   1      44.489  28.763  35.259  1.00  0.00    -0.014 A 
ATOM     59  C   UNL A   1      45.762  29.310  35.015  1.00  0.00     0.010 A 
ATOM     60  C   UNL A   1      44.394  27.459  35.779  1.00  0.00     0.010 A 
ATOM     61  C   UNL A   1      46.913  28.550  35.246  1.00  0.00     0.020 A 
ATOM     62  C   UNL A   1      45.542  26.705  36.033  1.00  0.00     0.020 A 
ATOM     63  C   UNL A   1      46.795  27.249  35.744  1.00  0.00     0.054 A 
BRANCH  63  64
ATOM     64  S   UNL A   1      48.300  26.280  36.042  1.00  0.00     0.124 S 
ATOM     65  O   UNL A   1      48.430  25.536  34.792  1.00  0.00    -0.237 OA
ATOM     66  O   UNL A   1      49.311  27.311  36.265  1.00  0.00    -0.237 OA
ATOM     67  O   UNL A   1      47.967  25.476  37.216  1.00  0.00    -0.744 OA
ENDBRANCH  63  64
ENDBRANCH  44  58
BRANCH  45  68
ATOM     68  C   UNL A   1      36.060  33.660  33.097  1.00  0.00    -0.014 A 
ATOM     69  C   UNL A   1      34.815  33.073  33.375  1.00  0.00     0.010 A 
ATOM     70  C   UNL A   1      36.101  34.957  32.553  1.00  0.00     0.010 A 
ATOM     71  C   UNL A   1      33.631  33.770  33.113  1.00  0.00     0.020 A 
ATOM     72  C   UNL A   1      34.922  35.666  32.316  1.00  0.00     0.020 A 
ATOM     73  C   UNL A   1      33.692  35.064  32.589  1.00  0.00     0.054 A 
BRANCH  73  74
ATOM     74  S   UNL A   1      32.153  35.991  32.333  1.00  0.00     0.124 S 
ATOM     75  O   UNL A   1      32.282  37.067  33.310  1.00  0.00    -0.237 OA
ATOM     76  O   UNL A   1      32.249  36.394  30.931  1.00  0.00    -0.237 OA
ATOM     77  O   UNL A   1      31.113  35.005  32.618  1.00  0.00    -0.744 OA
ENDBRANCH  73  74
ENDBRANCH  45  68
BRANCH  57  78
ATOM     78  C   UNL A   1      40.412  33.739  38.533  1.00  0.00    -0.014 A 
ATOM     79  C   UNL A   1      41.052  34.988  38.612  1.00  0.00     0.010 A 
ATOM     80  C   UNL A   1      39.740  33.235  39.660  1.00  0.00     0.010 A 
ATOM     81  C   UNL A   1      41.046  35.708  39.809  1.00  0.00     0.020 A 
ATOM     82  C   UNL A   1      39.716  33.961  40.854  1.00  0.00     0.020 A 
ATOM     83  C   UNL A   1      40.383  35.186  40.924  1.00  0.00     0.054 A 
BRANCH  83  84
ATOM     84  S   UNL A   1      40.358  36.150  42.462  1.00  0.00     0.124 S 
ATOM     85  O   UNL A   1      39.849  35.174  43.421  1.00  0.00    -0.237 OA
ATOM     86  O   UNL A   1      41.758  36.528  42.631  1.00  0.00    -0.237 OA
ATOM     87  O   UNL A   1      39.453  37.257  42.159  1.00  0.00    -0.744 OA
ENDBRANCH  83  84
ENDBRANCH  57  78
ENDBRANCH  31  32
ENDBRANCH  24  26
ENDBRANCH  23  24
ENDBRANCH   1  23
TORSDOF 17
ENDMDL
