MODEL 1
REMARK VINA RESULT:     -11.1      0.000      0.000
REMARK SMILES Cc1nsc(Nc2ccccc2C(C)C)c1C(=O)OCCOC(=O)c1ccc(-c2c3nc(c(-c4ccc(S(=O)(=O)[O-])cc4)c4ccc([nH]4)c(-c4ccc(S(=O)(=O)[O-])cc4)c4nc(c(-c5ccc(S(=O)(=O)[O-])cc5)c5ccc2[nH]5)C=C4)C=C3)cc1
REMARK SMILES IDX 20 1 19 2 17 3 18 4 16 5 1 6 2 7 3 8 4 9 5 10 6 11 7 13 8 14
REMARK SMILES IDX 12 15 9 16 11 17 10 18 13 19 14 20 15 21 21 22 22 23 23 24
REMARK SMILES IDX 24 25 25 26 26 27 84 28 27 29 83 30 28 31 29 32 30 33 77 34
REMARK SMILES IDX 31 35 82 36 76 37 78 38 32 39 81 40 75 41 74 42 33 44 63 45
REMARK SMILES IDX 44 46 62 47 45 48 48 49 61 50 79 51 46 52 47 53 60 55 80 56
REMARK SMILES IDX 49 57 34 58 35 59 43 60 36 61 42 62 37 63 38 64 39 65 40 66
REMARK SMILES IDX 41 67 64 68 65 69 73 70 66 71 72 72 67 73 68 74 69 75 70 76
REMARK SMILES IDX 71 77 50 78 51 79 59 80 52 81 58 82 53 83 54 84 55 85 56 86
REMARK SMILES IDX 57 87
REMARK H PARENT 6 12 78 43 48 54
REMARK Flexibility Score: inf
ROOT
ATOM      1  C   UNL A   1      36.931  22.015  24.097  1.00  0.00     0.275 C 
ENDROOT
BRANCH   1   2
ATOM      2  O   UNL A   1      35.555  21.987  24.521  1.00  0.00    -0.458 OA
BRANCH   2   3
ATOM      3  C   UNL A   1      34.713  22.915  23.968  1.00  0.00     0.343 C 
ATOM      4  O   UNL A   1      34.871  23.391  22.853  1.00  0.00    -0.246 OA
BRANCH   3   5
ATOM      5  C   UNL A   1      33.569  23.235  24.821  1.00  0.00     0.117 A 
ATOM      6  C   UNL A   1      33.926  25.814  25.132  1.00  0.00     0.069 C 
ATOM      7  C   UNL A   1      33.197  24.530  25.342  1.00  0.00     0.068 A 
ATOM      8  N   UNL A   1      32.083  24.572  26.073  1.00  0.00    -0.195 NA
ATOM      9  S   UNL A   1      31.505  23.038  26.259  1.00  0.00    -0.017 S 
ATOM     10  C   UNL A   1      32.686  22.257  25.286  1.00  0.00     0.128 A 
BRANCH  10  11
ATOM     11  N   UNL A   1      32.753  20.917  25.049  1.00  0.00    -0.345 N 
ATOM     12  H   UNL A   1      32.867  20.343  25.840  1.00  0.00     0.167 HD
BRANCH  11  13
ATOM     13  C   UNL A   1      32.679  20.252  23.806  1.00  0.00     0.043 A 
ATOM     14  C   UNL A   1      32.137  20.952  22.714  1.00  0.00     0.026 A 
ATOM     15  C   UNL A   1      32.892  18.861  23.689  1.00  0.00    -0.022 A 
ATOM     16  C   UNL A   1      31.813  20.304  21.522  1.00  0.00     0.002 A 
ATOM     17  C   UNL A   1      32.545  18.221  22.479  1.00  0.00     0.006 A 
ATOM     18  C   UNL A   1      32.002  18.934  21.411  1.00  0.00     0.000 A 
BRANCH  15  19
ATOM     19  C   UNL A   1      33.523  18.050  24.812  1.00  0.00     0.015 C 
ATOM     20  C   UNL A   1      32.627  16.911  25.301  1.00  0.00     0.012 C 
ATOM     21  C   UNL A   1      34.893  17.519  24.374  1.00  0.00     0.012 C 
ENDBRANCH  15  19
ENDBRANCH  11  13
ENDBRANCH  10  11
ENDBRANCH   3   5
ENDBRANCH   2   3
ENDBRANCH   1   2
BRANCH   1  22
ATOM     22  C   UNL A   1      37.863  21.431  25.156  1.00  0.00     0.275 C 
BRANCH  22  23
ATOM     23  O   UNL A   1      38.152  22.378  26.187  1.00  0.00    -0.458 OA
BRANCH  23  24
ATOM     24  C   UNL A   1      39.438  22.359  26.601  1.00  0.00     0.338 C 
ATOM     25  O   UNL A   1      40.098  21.373  26.887  1.00  0.00    -0.246 OA
BRANCH  24  26
ATOM     26  C   UNL A   1      39.933  23.720  26.798  1.00  0.00     0.060 A 
ATOM     27  C   UNL A   1      41.235  23.852  27.288  1.00  0.00     0.016 A 
ATOM     28  C   UNL A   1      39.042  24.799  26.764  1.00  0.00     0.016 A 
ATOM     29  C   UNL A   1      41.598  25.034  27.896  1.00  0.00     0.010 A 
ATOM     30  C   UNL A   1      39.410  25.982  27.368  1.00  0.00     0.010 A 
ATOM     31  C   UNL A   1      40.650  26.057  28.005  1.00  0.00    -0.014 A 
BRANCH  31  32
ATOM     32  C   UNL A   1      41.003  27.204  28.826  1.00  0.00     0.031 A 
ATOM     33  C   UNL A   1      42.114  28.038  28.303  1.00  0.00     0.074 A 
ATOM     34  C   UNL A   1      40.294  27.528  29.924  1.00  0.00     0.049 A 
ATOM     35  N   UNL A   1      43.206  28.398  28.894  1.00  0.00    -0.248 NA
ATOM     36  C   UNL A   1      42.031  28.441  26.888  1.00  0.00     0.031 C 
ATOM     37  C   UNL A   1      39.023  26.946  30.375  1.00  0.00     0.029 A 
ATOM     38  N   UNL A   1      40.482  28.562  30.787  1.00  0.00    -0.354 N 
ATOM     39  C   UNL A   1      43.875  29.215  27.988  1.00  0.00     0.074 A 
ATOM     40  C   UNL A   1      43.179  29.097  26.732  1.00  0.00     0.031 C 
ATOM     41  C   UNL A   1      38.431  27.802  31.235  1.00  0.00     0.029 A 
ATOM     42  C   UNL A   1      39.335  28.911  31.487  1.00  0.00     0.049 A 
ATOM     43  H   UNL A   1      41.347  29.019  30.905  1.00  0.00     0.167 HD
ATOM     44  C   UNL A   1      44.841  30.097  28.364  1.00  0.00     0.031 A 
ATOM     45  C   UNL A   1      39.102  30.088  32.116  1.00  0.00     0.031 A 
ATOM     46  C   UNL A   1      45.394  29.792  29.653  1.00  0.00     0.049 A 
ATOM     47  C   UNL A   1      40.412  30.747  32.340  1.00  0.00     0.074 A 
ATOM     48  C   UNL A   1      46.085  28.720  30.180  1.00  0.00     0.029 A 
ATOM     49  N   UNL A   1      44.961  30.529  30.730  1.00  0.00    -0.354 N 
ATOM     50  N   UNL A   1      41.330  30.282  33.141  1.00  0.00    -0.248 NA
ATOM     51  C   UNL A   1      40.884  31.704  31.350  1.00  0.00     0.031 C 
ATOM     52  C   UNL A   1      45.633  28.612  31.526  1.00  0.00     0.029 A 
ATOM     53  C   UNL A   1      44.721  29.646  31.752  1.00  0.00     0.049 A 
ATOM     54  H   UNL A   1      44.844  31.507  30.762  1.00  0.00     0.167 HD
ATOM     55  C   UNL A   1      42.535  30.556  32.509  1.00  0.00     0.074 A 
ATOM     56  C   UNL A   1      42.202  31.524  31.468  1.00  0.00     0.031 C 
ATOM     57  C   UNL A   1      43.638  29.774  32.705  1.00  0.00     0.031 A 
BRANCH  44  58
ATOM     58  C   UNL A   1      45.021  31.434  27.693  1.00  0.00    -0.014 A 
ATOM     59  C   UNL A   1      46.279  31.787  27.169  1.00  0.00     0.010 A 
ATOM     60  C   UNL A   1      44.061  32.463  27.805  1.00  0.00     0.010 A 
ATOM     61  C   UNL A   1      46.577  33.116  26.837  1.00  0.00     0.020 A 
ATOM     62  C   UNL A   1      44.330  33.779  27.433  1.00  0.00     0.020 A 
ATOM     63  C   UNL A   1      45.603  34.106  26.990  1.00  0.00     0.054 A 
BRANCH  63  64
ATOM     64  S   UNL A   1      46.034  35.838  26.695  1.00  0.00     0.124 S 
ATOM     65  O   UNL A   1      46.850  36.146  27.866  1.00  0.00    -0.237 OA
ATOM     66  O   UNL A   1      46.748  35.770  25.423  1.00  0.00    -0.237 OA
ATOM     67  O   UNL A   1      44.737  36.509  26.640  1.00  0.00    -0.744 OA
ENDBRANCH  63  64
ENDBRANCH  44  58
BRANCH  45  68
ATOM     68  C   UNL A   1      37.804  30.811  32.162  1.00  0.00    -0.014 A 
ATOM     69  C   UNL A   1      37.309  31.346  33.362  1.00  0.00     0.010 A 
ATOM     70  C   UNL A   1      37.164  31.190  30.962  1.00  0.00     0.010 A 
ATOM     71  C   UNL A   1      36.240  32.260  33.357  1.00  0.00     0.020 A 
ATOM     72  C   UNL A   1      36.091  32.085  30.948  1.00  0.00     0.020 A 
ATOM     73  C   UNL A   1      35.647  32.635  32.146  1.00  0.00     0.054 A 
BRANCH  73  74
ATOM     74  S   UNL A   1      34.374  33.930  32.129  1.00  0.00     0.124 S 
ATOM     75  O   UNL A   1      33.929  33.909  30.740  1.00  0.00    -0.237 OA
ATOM     76  O   UNL A   1      33.411  33.439  33.111  1.00  0.00    -0.237 OA
ATOM     77  O   UNL A   1      35.103  35.133  32.529  1.00  0.00    -0.744 OA
ENDBRANCH  73  74
ENDBRANCH  45  68
BRANCH  57  78
ATOM     78  C   UNL A   1      43.615  28.763  33.831  1.00  0.00    -0.014 A 
ATOM     79  C   UNL A   1      44.198  28.999  35.091  1.00  0.00     0.010 A 
ATOM     80  C   UNL A   1      42.835  27.605  33.663  1.00  0.00     0.010 A 
ATOM     81  C   UNL A   1      44.027  28.089  36.145  1.00  0.00     0.020 A 
ATOM     82  C   UNL A   1      42.646  26.702  34.714  1.00  0.00     0.020 A 
ATOM     83  C   UNL A   1      43.251  26.944  35.948  1.00  0.00     0.054 A 
BRANCH  83  84
ATOM     84  S   UNL A   1      42.988  25.799  37.332  1.00  0.00     0.124 S 
ATOM     85  O   UNL A   1      43.860  24.679  36.987  1.00  0.00    -0.237 OA
ATOM     86  O   UNL A   1      43.405  26.585  38.491  1.00  0.00    -0.237 OA
ATOM     87  O   UNL A   1      41.557  25.507  37.275  1.00  0.00    -0.744 OA
ENDBRANCH  83  84
ENDBRANCH  57  78
ENDBRANCH  31  32
ENDBRANCH  24  26
ENDBRANCH  23  24
ENDBRANCH  22  23
ENDBRANCH   1  22
TORSDOF 17
ENDMDL
MODEL 2
REMARK VINA RESULT:     -11.1      1.266      2.780
REMARK SMILES Cc1nsc(Nc2ccccc2C(C)C)c1C(=O)OCCOC(=O)c1ccc(-c2c3nc(c(-c4ccc(S(=O)(=O)[O-])cc4)c4ccc([nH]4)c(-c4ccc(S(=O)(=O)[O-])cc4)c4nc(c(-c5ccc(S(=O)(=O)[O-])cc5)c5ccc2[nH]5)C=C4)C=C3)cc1
REMARK SMILES IDX 20 1 19 2 17 3 18 4 16 5 1 6 2 7 3 8 4 9 5 10 6 11 7 13 8 14
REMARK SMILES IDX 12 15 9 16 11 17 10 18 13 19 14 20 15 21 21 22 22 23 23 24
REMARK SMILES IDX 24 25 25 26 26 27 84 28 27 29 83 30 28 31 29 32 30 33 77 34
REMARK SMILES IDX 31 35 82 36 76 37 78 38 32 39 81 40 75 41 74 42 33 44 63 45
REMARK SMILES IDX 44 46 62 47 45 48 48 49 61 50 79 51 46 52 47 53 60 55 80 56
REMARK SMILES IDX 49 57 34 58 35 59 43 60 36 61 42 62 37 63 38 64 39 65 40 66
REMARK SMILES IDX 41 67 64 68 65 69 73 70 66 71 72 72 67 73 68 74 69 75 70 76
REMARK SMILES IDX 71 77 50 78 51 79 59 80 52 81 58 82 53 83 54 84 55 85 56 86
REMARK SMILES IDX 57 87
REMARK H PARENT 6 12 78 43 48 54
REMARK Flexibility Score: inf
ROOT
ATOM      1  C   UNL A   1      37.040  21.713  24.259  1.00  0.00     0.275 C 
ENDROOT
BRANCH   1   2
ATOM      2  O   UNL A   1      35.926  22.494  24.732  1.00  0.00    -0.458 OA
BRANCH   2   3
ATOM      3  C   UNL A   1      34.909  21.818  25.353  1.00  0.00     0.343 C 
ATOM      4  O   UNL A   1      34.847  21.652  26.562  1.00  0.00    -0.246 OA
BRANCH   3   5
ATOM      5  C   UNL A   1      33.870  21.365  24.427  1.00  0.00     0.117 A 
ATOM      6  C   UNL A   1      33.761  18.822  25.055  1.00  0.00     0.069 C 
ATOM      7  C   UNL A   1      33.337  20.030  24.290  1.00  0.00     0.068 A 
ATOM      8  N   UNL A   1      32.364  19.874  23.393  1.00  0.00    -0.195 NA
ATOM      9  S   UNL A   1      32.131  21.303  22.599  1.00  0.00    -0.017 S 
ATOM     10  C   UNL A   1      33.277  22.219  23.493  1.00  0.00     0.128 A 
BRANCH  10  11
ATOM     11  N   UNL A   1      33.567  23.535  23.290  1.00  0.00    -0.345 N 
ATOM     12  H   UNL A   1      34.509  23.793  23.408  1.00  0.00     0.167 HD
BRANCH  11  13
ATOM     13  C   UNL A   1      32.680  24.572  22.930  1.00  0.00     0.043 A 
ATOM     14  C   UNL A   1      32.664  24.992  21.589  1.00  0.00     0.026 A 
ATOM     15  C   UNL A   1      32.009  25.350  23.899  1.00  0.00    -0.022 A 
ATOM     16  C   UNL A   1      31.998  26.154  21.198  1.00  0.00     0.002 A 
ATOM     17  C   UNL A   1      31.351  26.529  23.485  1.00  0.00     0.006 A 
ATOM     18  C   UNL A   1      31.355  26.931  22.149  1.00  0.00     0.000 A 
BRANCH  15  19
ATOM     19  C   UNL A   1      31.941  24.927  25.360  1.00  0.00     0.015 C 
ATOM     20  C   UNL A   1      33.220  25.248  26.134  1.00  0.00     0.012 C 
ATOM     21  C   UNL A   1      30.719  25.561  26.035  1.00  0.00     0.012 C 
ENDBRANCH  15  19
ENDBRANCH  11  13
ENDBRANCH  10  11
ENDBRANCH   3   5
ENDBRANCH   2   3
ENDBRANCH   1   2
BRANCH   1  22
ATOM     22  C   UNL A   1      38.028  21.398  25.380  1.00  0.00     0.275 C 
BRANCH  22  23
ATOM     23  O   UNL A   1      38.351  22.563  26.142  1.00  0.00    -0.458 OA
BRANCH  23  24
ATOM     24  C   UNL A   1      39.575  22.519  26.714  1.00  0.00     0.338 C 
ATOM     25  O   UNL A   1      40.155  21.526  27.120  1.00  0.00    -0.246 OA
BRANCH  24  26
ATOM     26  C   UNL A   1      40.095  23.870  26.916  1.00  0.00     0.060 A 
ATOM     27  C   UNL A   1      41.344  23.978  27.531  1.00  0.00     0.016 A 
ATOM     28  C   UNL A   1      39.249  24.974  26.757  1.00  0.00     0.016 A 
ATOM     29  C   UNL A   1      41.685  25.170  28.134  1.00  0.00     0.010 A 
ATOM     30  C   UNL A   1      39.596  26.167  27.356  1.00  0.00     0.010 A 
ATOM     31  C   UNL A   1      40.768  26.225  28.113  1.00  0.00    -0.014 A 
BRANCH  31  32
ATOM     32  C   UNL A   1      41.076  27.389  28.929  1.00  0.00     0.031 A 
ATOM     33  C   UNL A   1      42.195  28.230  28.432  1.00  0.00     0.074 A 
ATOM     34  C   UNL A   1      40.323  27.721  29.994  1.00  0.00     0.049 A 
ATOM     35  N   UNL A   1      43.261  28.612  29.057  1.00  0.00    -0.248 NA
ATOM     36  C   UNL A   1      42.159  28.610  27.010  1.00  0.00     0.031 C 
ATOM     37  C   UNL A   1      39.045  27.129  30.408  1.00  0.00     0.029 A 
ATOM     38  N   UNL A   1      40.468  28.770  30.847  1.00  0.00    -0.354 N 
ATOM     39  C   UNL A   1      43.952  29.424  28.164  1.00  0.00     0.074 A 
ATOM     40  C   UNL A   1      43.303  29.278  26.885  1.00  0.00     0.031 C 
ATOM     41  C   UNL A   1      38.410  27.990  31.233  1.00  0.00     0.029 A 
ATOM     42  C   UNL A   1      39.291  29.115  31.500  1.00  0.00     0.049 A 
ATOM     43  H   UNL A   1      41.322  29.240  30.989  1.00  0.00     0.167 HD
ATOM     44  C   UNL A   1      44.893  30.324  28.560  1.00  0.00     0.031 A 
ATOM     45  C   UNL A   1      39.021  30.299  32.101  1.00  0.00     0.031 A 
ATOM     46  C   UNL A   1      45.402  30.047  29.873  1.00  0.00     0.049 A 
ATOM     47  C   UNL A   1      40.313  30.977  32.362  1.00  0.00     0.074 A 
ATOM     48  C   UNL A   1      46.086  28.992  30.442  1.00  0.00     0.029 A 
ATOM     49  N   UNL A   1      44.920  30.794  30.922  1.00  0.00    -0.354 N 
ATOM     50  N   UNL A   1      41.207  30.537  33.203  1.00  0.00    -0.248 NA
ATOM     51  C   UNL A   1      40.809  31.925  31.374  1.00  0.00     0.031 C 
ATOM     52  C   UNL A   1      45.587  28.898  31.772  1.00  0.00     0.029 A 
ATOM     53  C   UNL A   1      44.654  29.924  31.949  1.00  0.00     0.049 A 
ATOM     54  H   UNL A   1      44.791  31.770  30.934  1.00  0.00     0.167 HD
ATOM     55  C   UNL A   1      42.431  30.817  32.611  1.00  0.00     0.074 A 
ATOM     56  C   UNL A   1      42.124  31.765  31.543  1.00  0.00     0.031 C 
ATOM     57  C   UNL A   1      43.536  30.052  32.860  1.00  0.00     0.031 A 
BRANCH  44  58
ATOM     58  C   UNL A   1      45.080  31.653  27.875  1.00  0.00    -0.014 A 
ATOM     59  C   UNL A   1      46.344  32.000  27.361  1.00  0.00     0.010 A 
ATOM     60  C   UNL A   1      44.119  32.683  27.963  1.00  0.00     0.010 A 
ATOM     61  C   UNL A   1      46.646  33.325  27.017  1.00  0.00     0.020 A 
ATOM     62  C   UNL A   1      44.393  33.995  27.579  1.00  0.00     0.020 A 
ATOM     63  C   UNL A   1      45.670  34.316  27.146  1.00  0.00     0.054 A 
BRANCH  63  64
ATOM     64  S   UNL A   1      46.105  36.045  26.835  1.00  0.00     0.124 S 
ATOM     65  O   UNL A   1      46.980  36.340  27.965  1.00  0.00    -0.237 OA
ATOM     66  O   UNL A   1      46.755  35.973  25.529  1.00  0.00    -0.237 OA
ATOM     67  O   UNL A   1      44.814  36.730  26.846  1.00  0.00    -0.744 OA
ENDBRANCH  63  64
ENDBRANCH  44  58
BRANCH  45  68
ATOM     68  C   UNL A   1      37.714  31.005  32.088  1.00  0.00    -0.014 A 
ATOM     69  C   UNL A   1      37.098  31.423  33.279  1.00  0.00     0.010 A 
ATOM     70  C   UNL A   1      37.184  31.490  30.872  1.00  0.00     0.010 A 
ATOM     71  C   UNL A   1      36.020  32.326  33.256  1.00  0.00     0.020 A 
ATOM     72  C   UNL A   1      36.103  32.375  30.838  1.00  0.00     0.020 A 
ATOM     73  C   UNL A   1      35.540  32.808  32.033  1.00  0.00     0.054 A 
BRANCH  73  74
ATOM     74  S   UNL A   1      34.253  34.090  32.013  1.00  0.00     0.124 S 
ATOM     75  O   UNL A   1      34.981  35.266  32.479  1.00  0.00    -0.237 OA
ATOM     76  O   UNL A   1      33.848  34.109  30.611  1.00  0.00    -0.237 OA
ATOM     77  O   UNL A   1      33.244  33.579  32.939  1.00  0.00    -0.744 OA
ENDBRANCH  73  74
ENDBRANCH  45  68
BRANCH  57  78
ATOM     78  C   UNL A   1      43.484  29.058  33.999  1.00  0.00    -0.014 A 
ATOM     79  C   UNL A   1      43.892  29.369  35.312  1.00  0.00     0.010 A 
ATOM     80  C   UNL A   1      42.848  27.825  33.772  1.00  0.00     0.010 A 
ATOM     81  C   UNL A   1      43.692  28.460  36.361  1.00  0.00     0.020 A 
ATOM     82  C   UNL A   1      42.630  26.921  34.816  1.00  0.00     0.020 A 
ATOM     83  C   UNL A   1      43.062  27.239  36.105  1.00  0.00     0.054 A 
BRANCH  83  84
ATOM     84  S   UNL A   1      42.757  26.090  37.478  1.00  0.00     0.124 S 
ATOM     85  O   UNL A   1      43.671  26.578  38.508  1.00  0.00    -0.237 OA
ATOM     86  O   UNL A   1      41.336  26.284  37.756  1.00  0.00    -0.237 OA
ATOM     87  O   UNL A   1      43.096  24.783  36.919  1.00  0.00    -0.744 OA
ENDBRANCH  83  84
ENDBRANCH  57  78
ENDBRANCH  31  32
ENDBRANCH  24  26
ENDBRANCH  23  24
ENDBRANCH  22  23
ENDBRANCH   1  22
TORSDOF 17
ENDMDL
MODEL 3
REMARK VINA RESULT:     -11.0      3.252      9.292
REMARK SMILES Cc1nsc(Nc2ccccc2C(C)C)c1C(=O)OCCOC(=O)c1ccc(-c2c3nc(c(-c4ccc(S(=O)(=O)[O-])cc4)c4ccc([nH]4)c(-c4ccc(S(=O)(=O)[O-])cc4)c4nc(c(-c5ccc(S(=O)(=O)[O-])cc5)c5ccc2[nH]5)C=C4)C=C3)cc1
REMARK SMILES IDX 20 1 19 2 17 3 18 4 16 5 1 6 2 7 3 8 4 9 5 10 6 11 7 13 8 14
REMARK SMILES IDX 12 15 9 16 11 17 10 18 13 19 14 20 15 21 21 22 22 23 23 24
REMARK SMILES IDX 24 25 25 26 26 27 84 28 27 29 83 30 28 31 29 32 30 33 77 34
REMARK SMILES IDX 31 35 82 36 76 37 78 38 32 39 81 40 75 41 74 42 33 44 63 45
REMARK SMILES IDX 44 46 62 47 45 48 48 49 61 50 79 51 46 52 47 53 60 55 80 56
REMARK SMILES IDX 49 57 34 58 35 59 43 60 36 61 42 62 37 63 38 64 39 65 40 66
REMARK SMILES IDX 41 67 64 68 65 69 73 70 66 71 72 72 67 73 68 74 69 75 70 76
REMARK SMILES IDX 71 77 50 78 51 79 59 80 52 81 58 82 53 83 54 84 55 85 56 86
REMARK SMILES IDX 57 87
REMARK H PARENT 6 12 78 43 48 54
REMARK Flexibility Score: inf
ROOT
ATOM      1  C   UNL A   1      32.200  29.434  26.825  1.00  0.00     0.275 C 
ENDROOT
BRANCH   1   2
ATOM      2  O   UNL A   1      32.705  28.205  26.270  1.00  0.00    -0.458 OA
BRANCH   2   3
ATOM      3  C   UNL A   1      31.797  27.368  25.678  1.00  0.00     0.343 C 
ATOM      4  O   UNL A   1      30.695  27.126  26.148  1.00  0.00    -0.246 OA
BRANCH   3   5
ATOM      5  C   UNL A   1      32.254  26.840  24.392  1.00  0.00     0.117 A 
ATOM      6  C   UNL A   1      30.524  27.975  22.781  1.00  0.00     0.069 C 
ATOM      7  C   UNL A   1      31.701  27.111  23.086  1.00  0.00     0.068 A 
ATOM      8  N   UNL A   1      32.319  26.534  22.055  1.00  0.00    -0.195 NA
ATOM      9  S   UNL A   1      33.516  25.552  22.627  1.00  0.00    -0.017 S 
ATOM     10  C   UNL A   1      33.309  25.930  24.290  1.00  0.00     0.128 A 
BRANCH  10  11
ATOM     11  N   UNL A   1      34.033  25.401  25.316  1.00  0.00    -0.345 N 
ATOM     12  H   UNL A   1      34.626  26.024  25.794  1.00  0.00     0.167 HD
BRANCH  11  13
ATOM     13  C   UNL A   1      34.035  24.067  25.777  1.00  0.00     0.043 A 
ATOM     14  C   UNL A   1      32.951  23.638  26.563  1.00  0.00     0.026 A 
ATOM     15  C   UNL A   1      35.181  23.247  25.688  1.00  0.00    -0.022 A 
ATOM     16  C   UNL A   1      32.983  22.423  27.248  1.00  0.00     0.002 A 
ATOM     17  C   UNL A   1      35.200  22.028  26.399  1.00  0.00     0.006 A 
ATOM     18  C   UNL A   1      34.116  21.625  27.179  1.00  0.00     0.000 A 
BRANCH  15  19
ATOM     19  C   UNL A   1      36.370  23.624  24.815  1.00  0.00     0.015 C 
ATOM     20  C   UNL A   1      37.678  23.727  25.600  1.00  0.00     0.012 C 
ATOM     21  C   UNL A   1      36.505  22.633  23.653  1.00  0.00     0.012 C 
ENDBRANCH  15  19
ENDBRANCH  11  13
ENDBRANCH  10  11
ENDBRANCH   3   5
ENDBRANCH   2   3
ENDBRANCH   1   2
BRANCH   1  22
ATOM     22  C   UNL A   1      33.244  30.548  26.781  1.00  0.00     0.275 C 
BRANCH  22  23
ATOM     23  O   UNL A   1      34.473  30.145  27.387  1.00  0.00    -0.458 OA
BRANCH  23  24
ATOM     24  C   UNL A   1      35.253  31.176  27.778  1.00  0.00     0.338 C 
ATOM     25  O   UNL A   1      35.112  32.351  27.481  1.00  0.00    -0.246 OA
BRANCH  24  26
ATOM     26  C   UNL A   1      36.410  30.689  28.528  1.00  0.00     0.060 A 
ATOM     27  C   UNL A   1      37.347  31.644  28.930  1.00  0.00     0.016 A 
ATOM     28  C   UNL A   1      36.681  29.317  28.577  1.00  0.00     0.016 A 
ATOM     29  C   UNL A   1      38.625  31.229  29.235  1.00  0.00     0.010 A 
ATOM     30  C   UNL A   1      37.960  28.905  28.888  1.00  0.00     0.010 A 
ATOM     31  C   UNL A   1      38.940  29.871  29.127  1.00  0.00    -0.014 A 
BRANCH  31  32
ATOM     32  C   UNL A   1      40.340  29.502  29.258  1.00  0.00     0.031 A 
ATOM     33  C   UNL A   1      40.860  29.480  30.649  1.00  0.00     0.074 A 
ATOM     34  C   UNL A   1      41.067  29.109  28.195  1.00  0.00     0.049 A 
ATOM     35  N   UNL A   1      41.892  30.088  31.138  1.00  0.00    -0.248 NA
ATOM     36  C   UNL A   1      40.055  28.756  31.648  1.00  0.00     0.031 C 
ATOM     37  C   UNL A   1      40.588  28.828  26.836  1.00  0.00     0.029 A 
ATOM     38  N   UNL A   1      42.371  28.726  28.148  1.00  0.00    -0.354 N 
ATOM     39  C   UNL A   1      41.968  29.691  32.469  1.00  0.00     0.074 A 
ATOM     40  C   UNL A   1      40.746  28.985  32.762  1.00  0.00     0.031 C 
ATOM     41  C   UNL A   1      41.503  28.067  26.198  1.00  0.00     0.029 A 
ATOM     42  C   UNL A   1      42.670  27.926  27.053  1.00  0.00     0.049 A 
ATOM     43  H   UNL A   1      43.038  28.989  28.823  1.00  0.00     0.167 HD
ATOM     44  C   UNL A   1      43.111  29.785  33.203  1.00  0.00     0.031 A 
ATOM     45  C   UNL A   1      43.740  27.104  26.923  1.00  0.00     0.031 A 
ATOM     46  C   UNL A   1      44.054  30.708  32.638  1.00  0.00     0.049 A 
ATOM     47  C   UNL A   1      44.764  27.540  27.904  1.00  0.00     0.074 A 
ATOM     48  C   UNL A   1      44.041  32.063  32.373  1.00  0.00     0.029 A 
ATOM     49  N   UNL A   1      45.111  30.194  31.925  1.00  0.00    -0.354 N 
ATOM     50  N   UNL A   1      45.391  28.681  27.840  1.00  0.00    -0.248 NA
ATOM     51  C   UNL A   1      44.792  26.892  29.208  1.00  0.00     0.031 C 
ATOM     52  C   UNL A   1      44.781  32.213  31.166  1.00  0.00     0.029 A 
ATOM     53  C   UNL A   1      45.232  30.947  30.784  1.00  0.00     0.049 A 
ATOM     54  H   UNL A   1      45.674  29.429  32.184  1.00  0.00     0.167 HD
ATOM     55  C   UNL A   1      45.533  29.091  29.158  1.00  0.00     0.074 A 
ATOM     56  C   UNL A   1      45.243  27.903  29.956  1.00  0.00     0.031 C 
ATOM     57  C   UNL A   1      45.604  30.416  29.490  1.00  0.00     0.031 A 
BRANCH  44  58
ATOM     58  C   UNL A   1      43.490  28.764  34.244  1.00  0.00    -0.014 A 
ATOM     59  C   UNL A   1      43.982  27.508  33.841  1.00  0.00     0.010 A 
ATOM     60  C   UNL A   1      43.120  28.904  35.600  1.00  0.00     0.010 A 
ATOM     61  C   UNL A   1      44.037  26.431  34.737  1.00  0.00     0.020 A 
ATOM     62  C   UNL A   1      43.216  27.854  36.511  1.00  0.00     0.020 A 
ATOM     63  C   UNL A   1      43.635  26.610  36.063  1.00  0.00     0.054 A 
BRANCH  63  64
ATOM     64  S   UNL A   1      43.574  25.187  37.179  1.00  0.00     0.124 S 
ATOM     65  O   UNL A   1      42.161  25.151  37.540  1.00  0.00    -0.237 OA
ATOM     66  O   UNL A   1      44.039  24.099  36.321  1.00  0.00    -0.237 OA
ATOM     67  O   UNL A   1      44.489  25.557  38.257  1.00  0.00    -0.744 OA
ENDBRANCH  63  64
ENDBRANCH  44  58
BRANCH  45  68
ATOM     68  C   UNL A   1      43.738  25.763  26.283  1.00  0.00    -0.014 A 
ATOM     69  C   UNL A   1      44.582  25.470  25.200  1.00  0.00     0.010 A 
ATOM     70  C   UNL A   1      43.071  24.685  26.905  1.00  0.00     0.010 A 
ATOM     71  C   UNL A   1      44.785  24.142  24.783  1.00  0.00     0.020 A 
ATOM     72  C   UNL A   1      43.254  23.364  26.487  1.00  0.00     0.020 A 
ATOM     73  C   UNL A   1      44.129  23.096  25.440  1.00  0.00     0.054 A 
BRANCH  73  74
ATOM     74  S   UNL A   1      44.512  21.376  25.001  1.00  0.00     0.124 S 
ATOM     75  O   UNL A   1      44.555  21.430  23.543  1.00  0.00    -0.237 OA
ATOM     76  O   UNL A   1      45.794  21.158  25.665  1.00  0.00    -0.237 OA
ATOM     77  O   UNL A   1      43.393  20.620  25.560  1.00  0.00    -0.744 OA
ENDBRANCH  73  74
ENDBRANCH  45  68
BRANCH  57  78
ATOM     78  C   UNL A   1      45.801  31.427  28.382  1.00  0.00    -0.014 A 
ATOM     79  C   UNL A   1      44.733  32.005  27.668  1.00  0.00     0.010 A 
ATOM     80  C   UNL A   1      47.096  31.931  28.170  1.00  0.00     0.010 A 
ATOM     81  C   UNL A   1      44.959  33.040  26.748  1.00  0.00     0.020 A 
ATOM     82  C   UNL A   1      47.327  32.974  27.269  1.00  0.00     0.020 A 
ATOM     83  C   UNL A   1      46.258  33.518  26.554  1.00  0.00     0.054 A 
BRANCH  83  84
ATOM     84  S   UNL A   1      46.537  34.894  25.404  1.00  0.00     0.124 S 
ATOM     85  O   UNL A   1      45.614  34.588  24.313  1.00  0.00    -0.237 OA
ATOM     86  O   UNL A   1      46.193  36.066  26.207  1.00  0.00    -0.237 OA
ATOM     87  O   UNL A   1      47.954  34.783  25.064  1.00  0.00    -0.744 OA
ENDBRANCH  83  84
ENDBRANCH  57  78
ENDBRANCH  31  32
ENDBRANCH  24  26
ENDBRANCH  23  24
ENDBRANCH  22  23
ENDBRANCH   1  22
TORSDOF 17
ENDMDL
