MODEL 1
REMARK VINA RESULT:     -11.7      0.000      0.000
REMARK SMILES CC1=C[C@@H]([C@@H]2N=N[C@H](S)N2/N=C/c2ccc(C(=O)OCCOC(=O)c3ccc(-c4c5nc(c(-c6ccc(S(=O)(=O)[O-])cc6)c6ccc([nH]6)c(-c6ccc(S(=O)(=O)[O-])cc6)c6nc(c(-c7ccc(S(=O)(=O)[O-])cc7)c7ccc4[nH]7)C=C6)C=C5)cc3)cc2)N=N1
REMARK SMILES IDX 20 1 19 2 17 3 18 4 16 5 13 6 14 7 86 8 15 9 85 10 12 11
REMARK SMILES IDX 11 12 10 13 5 14 6 15 7 16 8 17 4 18 1 19 2 20 3 21 88 22
REMARK SMILES IDX 87 23 9 24 21 26 22 27 23 28 24 29 25 30 26 31 84 32 27 33
REMARK SMILES IDX 83 34 28 35 29 36 30 37 77 38 31 39 82 40 76 41 78 42 32 43
REMARK SMILES IDX 81 44 75 45 74 46 33 48 63 49 44 50 62 51 45 52 48 53 61 54
REMARK SMILES IDX 79 55 46 56 47 57 60 59 80 60 49 61 34 62 35 63 43 64 36 65
REMARK SMILES IDX 42 66 37 67 38 68 39 69 40 70 41 71 64 72 65 73 73 74 66 75
REMARK SMILES IDX 72 76 67 77 68 78 69 79 70 80 71 81 50 82 51 83 59 84 52 85
REMARK SMILES IDX 58 86 53 87 54 88 55 89 56 90 57 91
REMARK H PARENT 9 25 78 47 48 58
REMARK Flexibility Score: inf
ROOT
ATOM      1  C   UNL A   1      41.708  19.701  26.637  1.00  0.00     0.275 C 
ENDROOT
BRANCH   1   2
ATOM      2  O   UNL A   1      40.638  20.477  26.074  1.00  0.00    -0.458 OA
BRANCH   2   3
ATOM      3  C   UNL A   1      40.121  21.432  26.886  1.00  0.00     0.338 C 
ATOM      4  O   UNL A   1      40.567  21.783  27.970  1.00  0.00    -0.246 OA
BRANCH   3   5
ATOM      5  C   UNL A   1      38.957  22.087  26.243  1.00  0.00     0.060 A 
ATOM      6  C   UNL A   1      36.730  23.360  25.173  1.00  0.00    -0.005 A 
ATOM      7  C   UNL A   1      37.549  24.054  26.065  1.00  0.00     0.010 A 
ATOM      8  C   UNL A   1      37.039  22.058  24.770  1.00  0.00     0.010 A 
ATOM      9  C   UNL A   1      38.657  23.407  26.612  1.00  0.00     0.016 A 
ATOM     10  C   UNL A   1      38.165  21.426  25.294  1.00  0.00     0.016 A 
BRANCH   6  11
ATOM     11  C   UNL A   1      35.505  24.016  24.691  1.00  0.00     0.141 C 
ATOM     12  N   UNL A   1      34.857  24.843  25.446  1.00  0.00    -0.180 NA
BRANCH  12  13
ATOM     13  N   UNL A   1      33.742  25.423  24.942  1.00  0.00    -0.233 NA
ATOM     14  C   UNL A   1      33.864  26.538  23.999  1.00  0.00     0.274 C 
ATOM     15  N   UNL A   1      32.718  26.461  23.052  1.00  0.00    -0.161 NA
ATOM     16  N   UNL A   1      31.960  25.509  23.356  1.00  0.00    -0.153 NA
ATOM     17  C   UNL A   1      32.487  24.787  24.535  1.00  0.00     0.298 C 
BRANCH  14  18
ATOM     18  C   UNL A   1      33.887  27.913  24.724  1.00  0.00     0.201 C 
ATOM     19  C   UNL A   1      31.611  28.241  27.610  1.00  0.00     0.068 C 
ATOM     20  C   UNL A   1      32.424  28.340  26.372  1.00  0.00     0.058 C 
ATOM     21  C   UNL A   1      33.633  27.819  26.189  1.00  0.00     0.031 C 
ATOM     22  N   UNL A   1      31.923  28.916  25.232  1.00  0.00    -0.160 NA
ATOM     23  N   UNL A   1      32.735  28.756  24.272  1.00  0.00    -0.177 NA
ENDBRANCH  14  18
BRANCH  17  24
ATOM     24  S   UNL A   1      31.333  24.723  25.959  1.00  0.00    -0.128 SA
ATOM     25  H   UNL A   1      30.251  23.966  25.633  1.00  0.00     0.106 HD
ENDBRANCH  17  24
ENDBRANCH  12  13
ENDBRANCH   6  11
ENDBRANCH   3   5
ENDBRANCH   2   3
ENDBRANCH   1   2
BRANCH   1  26
ATOM     26  C   UNL A   1      42.965  19.800  25.786  1.00  0.00     0.275 C 
BRANCH  26  27
ATOM     27  O   UNL A   1      43.059  21.058  25.116  1.00  0.00    -0.458 OA
BRANCH  27  28
ATOM     28  C   UNL A   1      44.015  21.885  25.594  1.00  0.00     0.338 C 
ATOM     29  O   UNL A   1      45.224  21.733  25.528  1.00  0.00    -0.246 OA
BRANCH  28  30
ATOM     30  C   UNL A   1      43.388  22.906  26.440  1.00  0.00     0.060 A 
ATOM     31  C   UNL A   1      42.576  23.859  25.816  1.00  0.00     0.016 A 
ATOM     32  C   UNL A   1      43.829  23.064  27.762  1.00  0.00     0.016 A 
ATOM     33  C   UNL A   1      42.317  25.042  26.479  1.00  0.00     0.010 A 
ATOM     34  C   UNL A   1      43.587  24.251  28.412  1.00  0.00     0.010 A 
ATOM     35  C   UNL A   1      42.886  25.249  27.741  1.00  0.00    -0.014 A 
BRANCH  35  36
ATOM     36  C   UNL A   1      42.642  26.511  28.406  1.00  0.00     0.031 A 
ATOM     37  C   UNL A   1      43.720  27.503  28.199  1.00  0.00     0.074 A 
ATOM     38  C   UNL A   1      41.480  26.809  29.013  1.00  0.00     0.049 A 
ATOM     39  N   UNL A   1      44.564  27.947  29.067  1.00  0.00    -0.248 NA
ATOM     40  C   UNL A   1      43.995  27.925  26.815  1.00  0.00     0.031 C 
ATOM     41  C   UNL A   1      40.231  26.044  28.995  1.00  0.00     0.029 A 
ATOM     42  N   UNL A   1      41.140  27.943  29.679  1.00  0.00    -0.354 N 
ATOM     43  C   UNL A   1      45.344  28.873  28.385  1.00  0.00     0.074 A 
ATOM     44  C   UNL A   1      45.089  28.665  26.983  1.00  0.00     0.031 C 
ATOM     45  C   UNL A   1      39.219  26.842  29.410  1.00  0.00     0.029 A 
ATOM     46  C   UNL A   1      39.773  28.115  29.846  1.00  0.00     0.049 A 
ATOM     47  H   UNL A   1      41.804  28.587  30.013  1.00  0.00     0.167 HD
ATOM     48  C   UNL A   1      45.941  29.915  29.025  1.00  0.00     0.031 A 
ATOM     49  C   UNL A   1      39.150  29.258  30.232  1.00  0.00     0.031 A 
ATOM     50  C   UNL A   1      45.941  29.741  30.453  1.00  0.00     0.049 A 
ATOM     51  C   UNL A   1      40.169  30.116  30.889  1.00  0.00     0.074 A 
ATOM     52  C   UNL A   1      46.464  28.804  31.322  1.00  0.00     0.029 A 
ATOM     53  N   UNL A   1      44.984  30.431  31.161  1.00  0.00    -0.354 N 
ATOM     54  N   UNL A   1      40.746  29.816  32.020  1.00  0.00    -0.248 NA
ATOM     55  C   UNL A   1      40.871  31.099  30.078  1.00  0.00     0.031 C 
ATOM     56  C   UNL A   1      45.491  28.675  32.355  1.00  0.00     0.029 A 
ATOM     57  C   UNL A   1      44.456  29.577  32.093  1.00  0.00     0.049 A 
ATOM     58  H   UNL A   1      44.725  31.370  31.022  1.00  0.00     0.167 HD
ATOM     59  C   UNL A   1      42.062  30.232  31.873  1.00  0.00     0.074 A 
ATOM     60  C   UNL A   1      42.052  31.109  30.703  1.00  0.00     0.031 C 
ATOM     61  C   UNL A   1      43.078  29.609  32.540  1.00  0.00     0.031 A 
BRANCH  48  62
ATOM     62  C   UNL A   1      46.140  31.268  28.388  1.00  0.00    -0.014 A 
ATOM     63  C   UNL A   1      45.017  32.092  28.181  1.00  0.00     0.010 A 
ATOM     64  C   UNL A   1      47.336  31.639  27.738  1.00  0.00     0.010 A 
ATOM     65  C   UNL A   1      45.074  33.189  27.312  1.00  0.00     0.020 A 
ATOM     66  C   UNL A   1      47.417  32.758  26.908  1.00  0.00     0.020 A 
ATOM     67  C   UNL A   1      46.273  33.504  26.672  1.00  0.00     0.054 A 
BRANCH  67  68
ATOM     68  S   UNL A   1      46.311  34.855  25.470  1.00  0.00     0.124 S 
ATOM     69  O   UNL A   1      47.700  34.821  25.026  1.00  0.00    -0.237 OA
ATOM     70  O   UNL A   1      45.318  34.424  24.489  1.00  0.00    -0.237 OA
ATOM     71  O   UNL A   1      45.932  36.025  26.259  1.00  0.00    -0.744 OA
ENDBRANCH  67  68
ENDBRANCH  48  62
BRANCH  49  72
ATOM     72  C   UNL A   1      37.842  29.782  29.767  1.00  0.00    -0.014 A 
ATOM     73  C   UNL A   1      36.977  30.454  30.650  1.00  0.00     0.010 A 
ATOM     74  C   UNL A   1      37.566  29.872  28.387  1.00  0.00     0.010 A 
ATOM     75  C   UNL A   1      35.917  31.242  30.167  1.00  0.00     0.020 A 
ATOM     76  C   UNL A   1      36.508  30.646  27.898  1.00  0.00     0.020 A 
ATOM     77  C   UNL A   1      35.704  31.350  28.790  1.00  0.00     0.054 A 
BRANCH  77  78
ATOM     78  S   UNL A   1      34.456  32.515  28.165  1.00  0.00     0.124 S 
ATOM     79  O   UNL A   1      33.610  31.654  27.345  1.00  0.00    -0.237 OA
ATOM     80  O   UNL A   1      33.847  33.017  29.394  1.00  0.00    -0.237 OA
ATOM     81  O   UNL A   1      35.244  33.498  27.423  1.00  0.00    -0.744 OA
ENDBRANCH  77  78
ENDBRANCH  49  72
BRANCH  61  82
ATOM     82  C   UNL A   1      42.729  28.694  33.691  1.00  0.00    -0.014 A 
ATOM     83  C   UNL A   1      42.213  27.393  33.533  1.00  0.00     0.010 A 
ATOM     84  C   UNL A   1      43.083  29.124  34.982  1.00  0.00     0.010 A 
ATOM     85  C   UNL A   1      42.036  26.556  34.646  1.00  0.00     0.020 A 
ATOM     86  C   UNL A   1      42.926  28.289  36.090  1.00  0.00     0.020 A 
ATOM     87  C   UNL A   1      42.395  27.010  35.918  1.00  0.00     0.054 A 
BRANCH  87  88
ATOM     88  S   UNL A   1      42.214  25.907  37.347  1.00  0.00     0.124 S 
ATOM     89  O   UNL A   1      40.785  26.000  37.640  1.00  0.00    -0.237 OA
ATOM     90  O   UNL A   1      42.667  24.621  36.824  1.00  0.00    -0.237 OA
ATOM     91  O   UNL A   1      43.091  26.499  38.357  1.00  0.00    -0.744 OA
ENDBRANCH  87  88
ENDBRANCH  61  82
ENDBRANCH  35  36
ENDBRANCH  28  30
ENDBRANCH  27  28
ENDBRANCH  26  27
ENDBRANCH   1  26
TORSDOF 18
ENDMDL
MODEL 2
REMARK VINA RESULT:     -11.3      1.434      1.918
REMARK SMILES CC1=C[C@@H]([C@@H]2N=N[C@H](S)N2/N=C/c2ccc(C(=O)OCCOC(=O)c3ccc(-c4c5nc(c(-c6ccc(S(=O)(=O)[O-])cc6)c6ccc([nH]6)c(-c6ccc(S(=O)(=O)[O-])cc6)c6nc(c(-c7ccc(S(=O)(=O)[O-])cc7)c7ccc4[nH]7)C=C6)C=C5)cc3)cc2)N=N1
REMARK SMILES IDX 20 1 19 2 17 3 18 4 16 5 13 6 14 7 86 8 15 9 85 10 12 11
REMARK SMILES IDX 11 12 10 13 5 14 6 15 7 16 8 17 4 18 1 19 2 20 3 21 88 22
REMARK SMILES IDX 87 23 9 24 21 26 22 27 23 28 24 29 25 30 26 31 84 32 27 33
REMARK SMILES IDX 83 34 28 35 29 36 30 37 77 38 31 39 82 40 76 41 78 42 32 43
REMARK SMILES IDX 81 44 75 45 74 46 33 48 63 49 44 50 62 51 45 52 48 53 61 54
REMARK SMILES IDX 79 55 46 56 47 57 60 59 80 60 49 61 34 62 35 63 43 64 36 65
REMARK SMILES IDX 42 66 37 67 38 68 39 69 40 70 41 71 64 72 65 73 73 74 66 75
REMARK SMILES IDX 72 76 67 77 68 78 69 79 70 80 71 81 50 82 51 83 59 84 52 85
REMARK SMILES IDX 58 86 53 87 54 88 55 89 56 90 57 91
REMARK H PARENT 9 25 78 47 48 58
REMARK Flexibility Score: inf
ROOT
ATOM      1  C   UNL A   1      43.029  20.494  25.944  1.00  0.00     0.275 C 
ENDROOT
BRANCH   1   2
ATOM      2  O   UNL A   1      41.670  20.949  25.854  1.00  0.00    -0.458 OA
BRANCH   2   3
ATOM      3  C   UNL A   1      41.227  21.674  26.910  1.00  0.00     0.338 C 
ATOM      4  O   UNL A   1      41.829  21.877  27.956  1.00  0.00    -0.246 OA
BRANCH   3   5
ATOM      5  C   UNL A   1      39.913  22.289  26.604  1.00  0.00     0.060 A 
ATOM      6  C   UNL A   1      37.468  23.400  25.889  1.00  0.00    -0.005 A 
ATOM      7  C   UNL A   1      37.762  22.091  25.503  1.00  0.00     0.010 A 
ATOM      8  C   UNL A   1      38.359  24.140  26.670  1.00  0.00     0.010 A 
ATOM      9  C   UNL A   1      38.995  21.541  25.851  1.00  0.00     0.016 A 
ATOM     10  C   UNL A   1      39.578  23.577  27.043  1.00  0.00     0.016 A 
BRANCH   6  11
ATOM     11  C   UNL A   1      36.212  24.003  25.420  1.00  0.00     0.141 C 
ATOM     12  N   UNL A   1      35.287  23.273  24.884  1.00  0.00    -0.180 NA
BRANCH  12  13
ATOM     13  N   UNL A   1      34.148  23.886  24.482  1.00  0.00    -0.233 NA
ATOM     14  C   UNL A   1      33.907  25.286  24.843  1.00  0.00     0.274 C 
ATOM     15  N   UNL A   1      33.134  25.915  23.737  1.00  0.00    -0.161 NA
ATOM     16  N   UNL A   1      32.870  25.069  22.849  1.00  0.00    -0.153 NA
ATOM     17  C   UNL A   1      33.441  23.752  23.207  1.00  0.00     0.298 C 
BRANCH  14  18
ATOM     18  C   UNL A   1      33.146  25.416  26.191  1.00  0.00     0.201 C 
ATOM     19  C   UNL A   1      30.343  23.066  26.681  1.00  0.00     0.068 C 
ATOM     20  C   UNL A   1      31.297  24.196  26.561  1.00  0.00     0.058 C 
ATOM     21  C   UNL A   1      32.617  24.121  26.706  1.00  0.00     0.031 C 
ATOM     22  N   UNL A   1      30.882  25.445  26.172  1.00  0.00    -0.160 NA
ATOM     23  N   UNL A   1      31.884  26.201  25.999  1.00  0.00    -0.177 NA
ENDBRANCH  14  18
BRANCH  17  24
ATOM     24  S   UNL A   1      32.207  22.399  23.320  1.00  0.00    -0.128 SA
ATOM     25  H   UNL A   1      32.759  21.333  23.958  1.00  0.00     0.106 HD
ENDBRANCH  17  24
ENDBRANCH  12  13
ENDBRANCH   6  11
ENDBRANCH   3   5
ENDBRANCH   2   3
ENDBRANCH   1   2
BRANCH   1  26
ATOM     26  C   UNL A   1      43.972  21.426  25.197  1.00  0.00     0.275 C 
BRANCH  26  27
ATOM     27  O   UNL A   1      43.290  22.562  24.667  1.00  0.00    -0.458 OA
BRANCH  27  28
ATOM     28  C   UNL A   1      43.958  23.732  24.788  1.00  0.00     0.338 C 
ATOM     29  O   UNL A   1      45.036  24.021  24.296  1.00  0.00    -0.246 OA
BRANCH  28  30
ATOM     30  C   UNL A   1      43.309  24.551  25.816  1.00  0.00     0.060 A 
ATOM     31  C   UNL A   1      42.339  25.469  25.400  1.00  0.00     0.016 A 
ATOM     32  C   UNL A   1      43.858  24.591  27.106  1.00  0.00     0.016 A 
ATOM     33  C   UNL A   1      42.019  26.517  26.240  1.00  0.00     0.010 A 
ATOM     34  C   UNL A   1      43.553  25.646  27.932  1.00  0.00     0.010 A 
ATOM     35  C   UNL A   1      42.683  26.628  27.468  1.00  0.00    -0.014 A 
BRANCH  35  36
ATOM     36  C   UNL A   1      42.368  27.756  28.319  1.00  0.00     0.031 A 
ATOM     37  C   UNL A   1      43.410  28.806  28.314  1.00  0.00     0.074 A 
ATOM     38  C   UNL A   1      41.178  27.909  28.925  1.00  0.00     0.049 A 
ATOM     39  N   UNL A   1      44.210  29.132  29.272  1.00  0.00    -0.248 NA
ATOM     40  C   UNL A   1      43.707  29.458  27.028  1.00  0.00     0.031 C 
ATOM     41  C   UNL A   1      39.962  27.113  28.739  1.00  0.00     0.029 A 
ATOM     42  N   UNL A   1      40.773  28.906  29.753  1.00  0.00    -0.354 N 
ATOM     43  C   UNL A   1      44.971  30.184  28.777  1.00  0.00     0.074 A 
ATOM     44  C   UNL A   1      44.765  30.199  27.352  1.00  0.00     0.031 C 
ATOM     45  C   UNL A   1      38.907  27.796  29.242  1.00  0.00     0.029 A 
ATOM     46  C   UNL A   1      39.395  29.000  29.899  1.00  0.00     0.049 A 
ATOM     47  H   UNL A   1      41.400  29.510  30.211  1.00  0.00     0.167 HD
ATOM     48  C   UNL A   1      45.506  31.128  29.598  1.00  0.00     0.031 A 
ATOM     49  C   UNL A   1      38.716  30.041  30.443  1.00  0.00     0.031 A 
ATOM     50  C   UNL A   1      45.471  30.723  30.978  1.00  0.00     0.049 A 
ATOM     51  C   UNL A   1      39.679  30.816  31.265  1.00  0.00     0.074 A 
ATOM     52  C   UNL A   1      46.007  29.676  31.701  1.00  0.00     0.029 A 
ATOM     53  N   UNL A   1      44.467  31.254  31.754  1.00  0.00    -0.354 N 
ATOM     54  N   UNL A   1      40.234  30.356  32.352  1.00  0.00    -0.248 NA
ATOM     55  C   UNL A   1      40.364  31.943  30.649  1.00  0.00     0.031 C 
ATOM     56  C   UNL A   1      45.010  29.345  32.665  1.00  0.00     0.029 A 
ATOM     57  C   UNL A   1      43.948  30.241  32.516  1.00  0.00     0.049 A 
ATOM     58  H   UNL A   1      44.174  32.194  31.760  1.00  0.00     0.167 HD
ATOM     59  C   UNL A   1      41.536  30.837  32.321  1.00  0.00     0.074 A 
ATOM     60  C   UNL A   1      41.524  31.893  31.309  1.00  0.00     0.031 C 
ATOM     61  C   UNL A   1      42.557  30.150  32.914  1.00  0.00     0.031 A 
BRANCH  48  62
ATOM     62  C   UNL A   1      45.668  32.573  29.196  1.00  0.00    -0.014 A 
ATOM     63  C   UNL A   1      44.525  33.303  28.816  1.00  0.00     0.010 A 
ATOM     64  C   UNL A   1      46.923  33.153  28.912  1.00  0.00     0.010 A 
ATOM     65  C   UNL A   1      44.638  34.517  28.125  1.00  0.00     0.020 A 
ATOM     66  C   UNL A   1      47.046  34.384  28.269  1.00  0.00     0.020 A 
ATOM     67  C   UNL A   1      45.901  35.040  27.846  1.00  0.00     0.054 A 
BRANCH  67  68
ATOM     68  S   UNL A   1      46.039  36.550  26.861  1.00  0.00     0.124 S 
ATOM     69  O   UNL A   1      44.671  37.055  26.892  1.00  0.00    -0.237 OA
ATOM     70  O   UNL A   1      47.020  37.324  27.618  1.00  0.00    -0.237 OA
ATOM     71  O   UNL A   1      46.502  36.069  25.561  1.00  0.00    -0.744 OA
ENDBRANCH  67  68
ENDBRANCH  48  62
BRANCH  49  72
ATOM     72  C   UNL A   1      37.401  30.587  30.023  1.00  0.00    -0.014 A 
ATOM     73  C   UNL A   1      36.679  31.459  30.859  1.00  0.00     0.010 A 
ATOM     74  C   UNL A   1      36.985  30.477  28.679  1.00  0.00     0.010 A 
ATOM     75  C   UNL A   1      35.627  32.242  30.353  1.00  0.00     0.020 A 
ATOM     76  C   UNL A   1      35.932  31.245  28.171  1.00  0.00     0.020 A 
ATOM     77  C   UNL A   1      35.274  32.145  29.004  1.00  0.00     0.054 A 
BRANCH  77  78
ATOM     78  S   UNL A   1      34.043  33.291  28.315  1.00  0.00     0.124 S 
ATOM     79  O   UNL A   1      33.152  32.391  27.589  1.00  0.00    -0.237 OA
ATOM     80  O   UNL A   1      33.480  33.910  29.512  1.00  0.00    -0.237 OA
ATOM     81  O   UNL A   1      34.839  34.186  27.476  1.00  0.00    -0.744 OA
ENDBRANCH  77  78
ENDBRANCH  49  72
BRANCH  61  82
ATOM     82  C   UNL A   1      42.212  29.048  33.888  1.00  0.00    -0.014 A 
ATOM     83  C   UNL A   1      42.173  27.681  33.549  1.00  0.00     0.010 A 
ATOM     84  C   UNL A   1      42.070  29.408  35.240  1.00  0.00     0.010 A 
ATOM     85  C   UNL A   1      41.973  26.706  34.538  1.00  0.00     0.020 A 
ATOM     86  C   UNL A   1      41.888  28.441  36.230  1.00  0.00     0.020 A 
ATOM     87  C   UNL A   1      41.832  27.093  35.874  1.00  0.00     0.054 A 
BRANCH  87  88
ATOM     88  S   UNL A   1      41.625  25.827  37.156  1.00  0.00     0.124 S 
ATOM     89  O   UNL A   1      42.732  26.112  38.066  1.00  0.00    -0.237 OA
ATOM     90  O   UNL A   1      40.290  26.110  37.679  1.00  0.00    -0.237 OA
ATOM     91  O   UNL A   1      41.738  24.567  36.422  1.00  0.00    -0.744 OA
ENDBRANCH  87  88
ENDBRANCH  61  82
ENDBRANCH  35  36
ENDBRANCH  28  30
ENDBRANCH  27  28
ENDBRANCH  26  27
ENDBRANCH   1  26
TORSDOF 18
ENDMDL
MODEL 3
REMARK VINA RESULT:     -11.3      1.650      2.338
REMARK SMILES CC1=C[C@@H]([C@@H]2N=N[C@H](S)N2/N=C/c2ccc(C(=O)OCCOC(=O)c3ccc(-c4c5nc(c(-c6ccc(S(=O)(=O)[O-])cc6)c6ccc([nH]6)c(-c6ccc(S(=O)(=O)[O-])cc6)c6nc(c(-c7ccc(S(=O)(=O)[O-])cc7)c7ccc4[nH]7)C=C6)C=C5)cc3)cc2)N=N1
REMARK SMILES IDX 20 1 19 2 17 3 18 4 16 5 13 6 14 7 86 8 15 9 85 10 12 11
REMARK SMILES IDX 11 12 10 13 5 14 6 15 7 16 8 17 4 18 1 19 2 20 3 21 88 22
REMARK SMILES IDX 87 23 9 24 21 26 22 27 23 28 24 29 25 30 26 31 84 32 27 33
REMARK SMILES IDX 83 34 28 35 29 36 30 37 77 38 31 39 82 40 76 41 78 42 32 43
REMARK SMILES IDX 81 44 75 45 74 46 33 48 63 49 44 50 62 51 45 52 48 53 61 54
REMARK SMILES IDX 79 55 46 56 47 57 60 59 80 60 49 61 34 62 35 63 43 64 36 65
REMARK SMILES IDX 42 66 37 67 38 68 39 69 40 70 41 71 64 72 65 73 73 74 66 75
REMARK SMILES IDX 72 76 67 77 68 78 69 79 70 80 71 81 50 82 51 83 59 84 52 85
REMARK SMILES IDX 58 86 53 87 54 88 55 89 56 90 57 91
REMARK H PARENT 9 25 78 47 48 58
REMARK Flexibility Score: inf
ROOT
ATOM      1  C   UNL A   1      41.870  19.368  26.474  1.00  0.00     0.275 C 
ENDROOT
BRANCH   1   2
ATOM      2  O   UNL A   1      41.203  20.536  25.970  1.00  0.00    -0.458 OA
BRANCH   2   3
ATOM      3  C   UNL A   1      40.476  21.230  26.880  1.00  0.00     0.338 C 
ATOM      4  O   UNL A   1      40.787  21.448  28.043  1.00  0.00    -0.246 OA
BRANCH   3   5
ATOM      5  C   UNL A   1      39.256  21.790  26.253  1.00  0.00     0.060 A 
ATOM      6  C   UNL A   1      37.015  22.786  24.945  1.00  0.00    -0.005 A 
ATOM      7  C   UNL A   1      37.377  21.450  24.758  1.00  0.00     0.010 A 
ATOM      8  C   UNL A   1      37.728  23.612  25.816  1.00  0.00     0.010 A 
ATOM      9  C   UNL A   1      38.511  20.958  25.403  1.00  0.00     0.016 A 
ATOM     10  C   UNL A   1      38.842  23.109  26.485  1.00  0.00     0.016 A 
BRANCH   6  11
ATOM     11  C   UNL A   1      35.883  23.319  24.172  1.00  0.00     0.141 C 
ATOM     12  N   UNL A   1      35.163  24.289  24.636  1.00  0.00    -0.180 NA
BRANCH  12  13
ATOM     13  N   UNL A   1      34.141  24.743  23.872  1.00  0.00    -0.233 NA
ATOM     14  C   UNL A   1      33.947  26.185  23.697  1.00  0.00     0.274 C 
ATOM     15  N   UNL A   1      33.391  26.408  22.335  1.00  0.00    -0.161 NA
ATOM     16  N   UNL A   1      33.203  25.313  21.753  1.00  0.00    -0.153 NA
ATOM     17  C   UNL A   1      33.623  24.190  22.619  1.00  0.00     0.298 C 
BRANCH  14  18
ATOM     18  C   UNL A   1      33.006  26.781  24.781  1.00  0.00     0.201 C 
ATOM     19  C   UNL A   1      30.500  24.460  26.178  1.00  0.00     0.068 C 
ATOM     20  C   UNL A   1      31.304  25.559  25.587  1.00  0.00     0.058 C 
ATOM     21  C   UNL A   1      32.592  25.795  25.819  1.00  0.00     0.031 C 
ATOM     22  N   UNL A   1      30.781  26.393  24.631  1.00  0.00    -0.160 NA
ATOM     23  N   UNL A   1      31.688  27.151  24.174  1.00  0.00    -0.177 NA
ENDBRANCH  14  18
BRANCH  17  24
ATOM     24  S   UNL A   1      32.294  22.976  22.979  1.00  0.00    -0.128 SA
ATOM     25  H   UNL A   1      31.730  22.562  21.813  1.00  0.00     0.106 HD
ENDBRANCH  17  24
ENDBRANCH  12  13
ENDBRANCH   6  11
ENDBRANCH   3   5
ENDBRANCH   2   3
ENDBRANCH   1   2
BRANCH   1  26
ATOM     26  C   UNL A   1      43.195  19.140  25.761  1.00  0.00     0.275 C 
BRANCH  26  27
ATOM     27  O   UNL A   1      43.413  20.095  24.722  1.00  0.00    -0.458 OA
BRANCH  27  28
ATOM     28  C   UNL A   1      44.677  20.566  24.641  1.00  0.00     0.338 C 
ATOM     29  O   UNL A   1      45.697  19.919  24.471  1.00  0.00    -0.246 OA
BRANCH  28  30
ATOM     30  C   UNL A   1      44.689  21.979  25.035  1.00  0.00     0.060 A 
ATOM     31  C   UNL A   1      45.640  22.384  25.978  1.00  0.00     0.016 A 
ATOM     32  C   UNL A   1      43.605  22.796  24.683  1.00  0.00     0.016 A 
ATOM     33  C   UNL A   1      45.426  23.559  26.669  1.00  0.00     0.010 A 
ATOM     34  C   UNL A   1      43.382  23.955  25.387  1.00  0.00     0.010 A 
ATOM     35  C   UNL A   1      44.262  24.293  26.412  1.00  0.00    -0.014 A 
BRANCH  35  36
ATOM     36  C   UNL A   1      44.028  25.501  27.175  1.00  0.00     0.031 A 
ATOM     37  C   UNL A   1      45.037  26.555  26.931  1.00  0.00     0.074 A 
ATOM     38  C   UNL A   1      42.918  25.705  27.905  1.00  0.00     0.049 A 
ATOM     39  N   UNL A   1      45.941  26.988  27.744  1.00  0.00    -0.248 NA
ATOM     40  C   UNL A   1      45.160  27.071  25.558  1.00  0.00     0.031 C 
ATOM     41  C   UNL A   1      41.707  24.882  27.955  1.00  0.00     0.029 A 
ATOM     42  N   UNL A   1      42.595  26.780  28.670  1.00  0.00    -0.354 N 
ATOM     43  C   UNL A   1      46.611  27.990  27.053  1.00  0.00     0.074 A 
ATOM     44  C   UNL A   1      46.232  27.853  25.670  1.00  0.00     0.031 C 
ATOM     45  C   UNL A   1      40.707  25.604  28.512  1.00  0.00     0.029 A 
ATOM     46  C   UNL A   1      41.243  26.875  28.975  1.00  0.00     0.049 A 
ATOM     47  H   UNL A   1      43.260  27.435  28.981  1.00  0.00     0.167 HD
ATOM     48  C   UNL A   1      47.221  29.020  27.699  1.00  0.00     0.031 A 
ATOM     49  C   UNL A   1      40.612  27.961  29.488  1.00  0.00     0.031 A 
ATOM     50  C   UNL A   1      47.365  28.763  29.107  1.00  0.00     0.049 A 
ATOM     51  C   UNL A   1      41.651  28.828  30.101  1.00  0.00     0.074 A 
ATOM     52  C   UNL A   1      48.009  27.803  29.862  1.00  0.00     0.029 A 
ATOM     53  N   UNL A   1      46.452  29.362  29.942  1.00  0.00    -0.354 N 
ATOM     54  N   UNL A   1      42.346  28.491  31.151  1.00  0.00    -0.248 NA
ATOM     55  C   UNL A   1      42.229  29.890  29.291  1.00  0.00     0.031 C 
ATOM     56  C   UNL A   1      47.146  27.565  30.971  1.00  0.00     0.029 A 
ATOM     57  C   UNL A   1      46.053  28.430  30.864  1.00  0.00     0.049 A 
ATOM     58  H   UNL A   1      46.140  30.294  29.888  1.00  0.00     0.167 HD
ATOM     59  C   UNL A   1      43.623  28.978  30.909  1.00  0.00     0.074 A 
ATOM     60  C   UNL A   1      43.463  29.921  29.804  1.00  0.00     0.031 C 
ATOM     61  C   UNL A   1      44.724  28.368  31.439  1.00  0.00     0.031 A 
BRANCH  48  62
ATOM     62  C   UNL A   1      47.300  30.416  27.132  1.00  0.00    -0.014 A 
ATOM     63  C   UNL A   1      48.531  31.099  27.179  1.00  0.00     0.010 A 
ATOM     64  C   UNL A   1      46.156  31.179  26.814  1.00  0.00     0.010 A 
ATOM     65  C   UNL A   1      48.599  32.485  26.985  1.00  0.00     0.020 A 
ATOM     66  C   UNL A   1      46.219  32.551  26.572  1.00  0.00     0.020 A 
ATOM     67  C   UNL A   1      47.437  33.201  26.696  1.00  0.00     0.054 A 
BRANCH  67  68
ATOM     68  S   UNL A   1      47.515  35.002  26.555  1.00  0.00     0.124 S 
ATOM     69  O   UNL A   1      48.827  35.198  25.948  1.00  0.00    -0.237 OA
ATOM     70  O   UNL A   1      46.368  35.295  25.700  1.00  0.00    -0.237 OA
ATOM     71  O   UNL A   1      47.388  35.459  27.938  1.00  0.00    -0.744 OA
ENDBRANCH  67  68
ENDBRANCH  48  62
BRANCH  49  72
ATOM     72  C   UNL A   1      39.244  28.447  29.181  1.00  0.00    -0.014 A 
ATOM     73  C   UNL A   1      38.287  28.607  30.200  1.00  0.00     0.010 A 
ATOM     74  C   UNL A   1      38.964  29.025  27.925  1.00  0.00     0.010 A 
ATOM     75  C   UNL A   1      37.127  29.373  29.991  1.00  0.00     0.020 A 
ATOM     76  C   UNL A   1      37.807  29.781  27.706  1.00  0.00     0.020 A 
ATOM     77  C   UNL A   1      36.906  29.974  28.749  1.00  0.00     0.054 A 
BRANCH  77  78
ATOM     78  S   UNL A   1      35.506  31.115  28.541  1.00  0.00     0.124 S 
ATOM     79  O   UNL A   1      35.198  31.484  29.919  1.00  0.00    -0.237 OA
ATOM     80  O   UNL A   1      36.079  32.174  27.715  1.00  0.00    -0.237 OA
ATOM     81  O   UNL A   1      34.492  30.298  27.877  1.00  0.00    -0.744 OA
ENDBRANCH  77  78
ENDBRANCH  49  72
BRANCH  61  82
ATOM     82  C   UNL A   1      44.527  27.370  32.556  1.00  0.00    -0.014 A 
ATOM     83  C   UNL A   1      44.386  27.725  33.912  1.00  0.00     0.010 A 
ATOM     84  C   UNL A   1      44.326  26.028  32.189  1.00  0.00     0.010 A 
ATOM     85  C   UNL A   1      44.075  26.752  34.876  1.00  0.00     0.020 A 
ATOM     86  C   UNL A   1      43.998  25.060  33.140  1.00  0.00     0.020 A 
ATOM     87  C   UNL A   1      43.882  25.425  34.482  1.00  0.00     0.054 A 
BRANCH  87  88
ATOM     88  S   UNL A   1      43.430  24.180  35.721  1.00  0.00     0.124 S 
ATOM     89  O   UNL A   1      43.839  24.814  36.972  1.00  0.00    -0.237 OA
ATOM     90  O   UNL A   1      41.988  24.039  35.530  1.00  0.00    -0.237 OA
ATOM     91  O   UNL A   1      44.213  23.006  35.338  1.00  0.00    -0.744 OA
ENDBRANCH  87  88
ENDBRANCH  61  82
ENDBRANCH  35  36
ENDBRANCH  28  30
ENDBRANCH  27  28
ENDBRANCH  26  27
ENDBRANCH   1  26
TORSDOF 18
ENDMDL
