MODEL 1
REMARK VINA RESULT:     -11.7      0.000      0.000
REMARK SMILES CC(C)=C1[C@H]2CC[C@@H]1[C@H](C(=O)NNC(=O)c1ccoc1C)[C@H]2C(=O)OCCOC(=O)c1ccc(-c2c3nc(c(-c4ccc(S(=O)(=O)[O-])cc4)c4ccc([nH]4)c(-c4ccc(S(=O)(=O)[O-])cc4)c4nc(c(-c5ccc(S(=O)(=O)[O-])cc5)c5ccc2[nH]5)C=C4)C=C3)cc1
REMARK SMILES IDX 26 1 25 2 23 3 24 4 22 5 1 6 2 7 3 8 4 9 5 10 8 11 6 12 7 13
REMARK SMILES IDX 9 14 10 15 11 16 12 17 13 19 14 20 15 22 16 23 17 24 20 25
REMARK SMILES IDX 18 26 19 27 21 28 27 29 28 30 29 31 30 32 31 33 32 34 90 35
REMARK SMILES IDX 33 36 89 37 34 38 35 39 36 40 83 41 37 42 88 43 82 44 84 45
REMARK SMILES IDX 38 46 87 47 81 48 80 49 39 51 69 52 50 53 68 54 51 55 54 56
REMARK SMILES IDX 67 57 85 58 52 59 53 60 66 62 86 63 55 64 40 65 41 66 49 67
REMARK SMILES IDX 42 68 48 69 43 70 44 71 45 72 46 73 47 74 70 75 71 76 79 77
REMARK SMILES IDX 72 78 78 79 73 80 74 81 75 82 76 83 77 84 56 85 57 86 65 87
REMARK SMILES IDX 58 88 64 89 59 90 60 91 61 92 62 93 63 94
REMARK H PARENT 12 18 13 21 84 50 54 61
REMARK Flexibility Score: inf
ROOT
ATOM      1  C   UNL A   1      38.209  22.005  25.718  1.00  0.00     0.274 C 
ENDROOT
BRANCH   1   2
ATOM      2  O   UNL A   1      36.774  21.914  25.745  1.00  0.00    -0.462 OA
BRANCH   2   3
ATOM      3  C   UNL A   1      36.082  23.017  25.385  1.00  0.00     0.310 C 
ATOM      4  O   UNL A   1      36.519  23.903  24.654  1.00  0.00    -0.252 OA
BRANCH   3   5
ATOM      5  C   UNL A   1      34.678  23.080  25.951  1.00  0.00     0.119 C 
ATOM      6  C   UNL A   1      32.756  24.081  21.896  1.00  0.00     0.039 C 
ATOM      7  C   UNL A   1      33.368  24.623  23.151  1.00  0.00    -0.077 C 
ATOM      8  C   UNL A   1      34.061  25.958  23.051  1.00  0.00     0.039 C 
ATOM      9  C   UNL A   1      33.287  23.976  24.325  1.00  0.00    -0.064 C 
ATOM     10  C   UNL A   1      33.874  24.357  25.654  1.00  0.00     0.030 C 
ATOM     11  C   UNL A   1      32.605  22.697  24.760  1.00  0.00     0.029 C 
ATOM     12  C   UNL A   1      32.592  24.373  26.504  1.00  0.00     0.009 C 
ATOM     13  C   UNL A   1      31.693  23.329  25.820  1.00  0.00     0.009 C 
ATOM     14  C   UNL A   1      33.826  21.940  25.330  1.00  0.00     0.102 C 
BRANCH  14  15
ATOM     15  C   UNL A   1      33.582  20.886  26.411  1.00  0.00     0.243 C 
ATOM     16  O   UNL A   1      33.838  21.067  27.598  1.00  0.00    -0.273 OA
ATOM     17  N   UNL A   1      33.169  19.633  26.025  1.00  0.00    -0.267 N 
ATOM     18  H   UNL A   1      33.304  18.888  26.654  1.00  0.00     0.191 HD
BRANCH  17  19
ATOM     19  N   UNL A   1      32.570  19.351  24.801  1.00  0.00    -0.263 N 
ATOM     20  C   UNL A   1      32.726  18.171  24.093  1.00  0.00     0.273 C 
ATOM     21  H   UNL A   1      31.992  20.042  24.408  1.00  0.00     0.191 HD
ATOM     22  O   UNL A   1      32.178  18.049  22.998  1.00  0.00    -0.267 OA
BRANCH  20  23
ATOM     23  C   UNL A   1      33.623  17.144  24.603  1.00  0.00     0.082 A 
ATOM     24  C   UNL A   1      35.050  17.188  24.514  1.00  0.00     0.056 A 
ATOM     25  C   UNL A   1      33.337  15.937  25.223  1.00  0.00     0.113 A 
ATOM     26  C   UNL A   1      35.525  16.065  25.143  1.00  0.00     0.196 A 
ATOM     27  O   UNL A   1      34.492  15.298  25.569  1.00  0.00    -0.469 OA
ATOM     28  C   UNL A   1      32.102  15.203  25.576  1.00  0.00     0.088 C 
ENDBRANCH  20  23
ENDBRANCH  17  19
ENDBRANCH  14  15
ENDBRANCH   3   5
ENDBRANCH   2   3
ENDBRANCH   1   2
BRANCH   1  29
ATOM     29  C   UNL A   1      38.812  20.604  25.612  1.00  0.00     0.275 C 
BRANCH  29  30
ATOM     30  O   UNL A   1      39.722  20.350  26.697  1.00  0.00    -0.458 OA
BRANCH  30  31
ATOM     31  C   UNL A   1      41.002  20.112  26.320  1.00  0.00     0.338 C 
ATOM     32  O   UNL A   1      41.444  19.121  25.768  1.00  0.00    -0.246 OA
BRANCH  31  33
ATOM     33  C   UNL A   1      41.817  21.306  26.578  1.00  0.00     0.060 A 
ATOM     34  C   UNL A   1      42.157  21.603  27.898  1.00  0.00     0.016 A 
ATOM     35  C   UNL A   1      42.142  22.182  25.546  1.00  0.00     0.016 A 
ATOM     36  C   UNL A   1      42.803  22.795  28.205  1.00  0.00     0.010 A 
ATOM     37  C   UNL A   1      42.811  23.370  25.850  1.00  0.00     0.010 A 
ATOM     38  C   UNL A   1      43.130  23.692  27.183  1.00  0.00    -0.014 A 
BRANCH  38  39
ATOM     39  C   UNL A   1      43.771  24.987  27.507  1.00  0.00     0.031 A 
ATOM     40  C   UNL A   1      42.940  26.115  28.048  1.00  0.00     0.074 A 
ATOM     41  C   UNL A   1      45.092  25.149  27.309  1.00  0.00     0.049 A 
ATOM     42  N   UNL A   1      43.271  27.364  28.242  1.00  0.00    -0.248 NA
ATOM     43  C   UNL A   1      41.550  25.795  28.412  1.00  0.00     0.031 C 
ATOM     44  C   UNL A   1      46.013  24.108  26.846  1.00  0.00     0.029 A 
ATOM     45  N   UNL A   1      45.888  26.254  27.465  1.00  0.00    -0.354 N 
ATOM     46  C   UNL A   1      42.124  27.990  28.714  1.00  0.00     0.074 A 
ATOM     47  C   UNL A   1      41.087  26.983  28.776  1.00  0.00     0.031 C 
ATOM     48  C   UNL A   1      47.249  24.626  26.756  1.00  0.00     0.029 A 
ATOM     49  C   UNL A   1      47.195  26.044  27.093  1.00  0.00     0.049 A 
ATOM     50  H   UNL A   1      45.556  27.114  27.809  1.00  0.00     0.167 HD
ATOM     51  C   UNL A   1      41.954  29.289  29.058  1.00  0.00     0.031 A 
ATOM     52  C   UNL A   1      48.224  26.908  26.994  1.00  0.00     0.031 A 
ATOM     53  C   UNL A   1      42.996  30.280  29.001  1.00  0.00     0.049 A 
ATOM     54  C   UNL A   1      47.998  28.354  27.328  1.00  0.00     0.074 A 
ATOM     55  C   UNL A   1      42.926  31.624  29.322  1.00  0.00     0.029 A 
ATOM     56  N   UNL A   1      44.300  30.030  28.602  1.00  0.00    -0.354 N 
ATOM     57  N   UNL A   1      46.898  28.941  27.737  1.00  0.00    -0.248 NA
ATOM     58  C   UNL A   1      49.148  29.257  27.184  1.00  0.00     0.031 C 
ATOM     59  C   UNL A   1      44.181  32.196  29.082  1.00  0.00     0.029 A 
ATOM     60  C   UNL A   1      45.043  31.198  28.657  1.00  0.00     0.049 A 
ATOM     61  H   UNL A   1      44.648  29.153  28.322  1.00  0.00     0.167 HD
ATOM     62  C   UNL A   1      47.228  30.280  27.916  1.00  0.00     0.074 A 
ATOM     63  C   UNL A   1      48.632  30.413  27.582  1.00  0.00     0.031 C 
ATOM     64  C   UNL A   1      46.440  31.306  28.322  1.00  0.00     0.031 A 
BRANCH  51  65
ATOM     65  C   UNL A   1      40.575  29.721  29.478  1.00  0.00    -0.014 A 
ATOM     66  C   UNL A   1      39.540  29.881  28.538  1.00  0.00     0.010 A 
ATOM     67  C   UNL A   1      40.304  29.944  30.840  1.00  0.00     0.010 A 
ATOM     68  C   UNL A   1      38.271  30.296  28.951  1.00  0.00     0.020 A 
ATOM     69  C   UNL A   1      39.030  30.337  31.259  1.00  0.00     0.020 A 
ATOM     70  C   UNL A   1      38.025  30.529  30.307  1.00  0.00     0.054 A 
BRANCH  70  71
ATOM     71  S   UNL A   1      36.367  31.057  30.820  1.00  0.00     0.124 S 
ATOM     72  O   UNL A   1      35.949  29.947  31.672  1.00  0.00    -0.237 OA
ATOM     73  O   UNL A   1      36.629  32.315  31.514  1.00  0.00    -0.237 OA
ATOM     74  O   UNL A   1      35.638  31.184  29.560  1.00  0.00    -0.744 OA
ENDBRANCH  70  71
ENDBRANCH  51  65
BRANCH  52  75
ATOM     75  C   UNL A   1      49.547  26.424  26.517  1.00  0.00    -0.014 A 
ATOM     76  C   UNL A   1      49.964  26.667  25.199  1.00  0.00     0.010 A 
ATOM     77  C   UNL A   1      50.411  25.745  27.396  1.00  0.00     0.010 A 
ATOM     78  C   UNL A   1      51.221  26.233  24.764  1.00  0.00     0.020 A 
ATOM     79  C   UNL A   1      51.676  25.332  26.973  1.00  0.00     0.020 A 
ATOM     80  C   UNL A   1      52.070  25.572  25.655  1.00  0.00     0.054 A 
BRANCH  80  81
ATOM     81  S   UNL A   1      53.724  25.081  25.094  1.00  0.00     0.124 S 
ATOM     82  O   UNL A   1      53.721  25.540  23.708  1.00  0.00    -0.237 OA
ATOM     83  O   UNL A   1      54.600  25.816  26.002  1.00  0.00    -0.237 OA
ATOM     84  O   UNL A   1      53.729  23.631  25.276  1.00  0.00    -0.744 OA
ENDBRANCH  80  81
ENDBRANCH  52  75
BRANCH  64  85
ATOM     85  C   UNL A   1      47.088  32.655  28.465  1.00  0.00    -0.014 A 
ATOM     86  C   UNL A   1      47.687  33.048  29.674  1.00  0.00     0.010 A 
ATOM     87  C   UNL A   1      47.150  33.513  27.353  1.00  0.00     0.010 A 
ATOM     88  C   UNL A   1      48.316  34.291  29.775  1.00  0.00     0.020 A 
ATOM     89  C   UNL A   1      47.797  34.747  27.445  1.00  0.00     0.020 A 
ATOM     90  C   UNL A   1      48.366  35.133  28.659  1.00  0.00     0.054 A 
BRANCH  90  91
ATOM     91  S   UNL A   1      49.236  36.720  28.797  1.00  0.00     0.124 S 
ATOM     92  O   UNL A   1      50.028  36.527  30.009  1.00  0.00    -0.237 OA
ATOM     93  O   UNL A   1      49.997  36.782  27.552  1.00  0.00    -0.237 OA
ATOM     94  O   UNL A   1      48.155  37.696  28.908  1.00  0.00    -0.744 OA
ENDBRANCH  90  91
ENDBRANCH  64  85
ENDBRANCH  38  39
ENDBRANCH  31  33
ENDBRANCH  30  31
ENDBRANCH  29  30
ENDBRANCH   1  29
TORSDOF 17
ENDMDL
MODEL 2
REMARK VINA RESULT:     -11.7      6.636     12.326
REMARK SMILES CC(C)=C1[C@H]2CC[C@@H]1[C@H](C(=O)NNC(=O)c1ccoc1C)[C@H]2C(=O)OCCOC(=O)c1ccc(-c2c3nc(c(-c4ccc(S(=O)(=O)[O-])cc4)c4ccc([nH]4)c(-c4ccc(S(=O)(=O)[O-])cc4)c4nc(c(-c5ccc(S(=O)(=O)[O-])cc5)c5ccc2[nH]5)C=C4)C=C3)cc1
REMARK SMILES IDX 26 1 25 2 23 3 24 4 22 5 1 6 2 7 3 8 4 9 5 10 8 11 6 12 7 13
REMARK SMILES IDX 9 14 10 15 11 16 12 17 13 19 14 20 15 22 16 23 17 24 20 25
REMARK SMILES IDX 18 26 19 27 21 28 27 29 28 30 29 31 30 32 31 33 32 34 90 35
REMARK SMILES IDX 33 36 89 37 34 38 35 39 36 40 83 41 37 42 88 43 82 44 84 45
REMARK SMILES IDX 38 46 87 47 81 48 80 49 39 51 69 52 50 53 68 54 51 55 54 56
REMARK SMILES IDX 67 57 85 58 52 59 53 60 66 62 86 63 55 64 40 65 41 66 49 67
REMARK SMILES IDX 42 68 48 69 43 70 44 71 45 72 46 73 47 74 70 75 71 76 79 77
REMARK SMILES IDX 72 78 78 79 73 80 74 81 75 82 76 83 77 84 56 85 57 86 65 87
REMARK SMILES IDX 58 88 64 89 59 90 60 91 61 92 62 93 63 94
REMARK H PARENT 12 18 13 21 84 50 54 61
REMARK Flexibility Score: inf
ROOT
ATOM      1  C   UNL A   1      33.658  30.579  27.040  1.00  0.00     0.274 C 
ENDROOT
BRANCH   1   2
ATOM      2  O   UNL A   1      33.187  29.837  25.902  1.00  0.00    -0.462 OA
BRANCH   2   3
ATOM      3  C   UNL A   1      33.246  28.490  25.980  1.00  0.00     0.310 C 
ATOM      4  O   UNL A   1      33.301  27.856  27.031  1.00  0.00    -0.252 OA
BRANCH   3   5
ATOM      5  C   UNL A   1      33.221  27.790  24.635  1.00  0.00     0.119 C 
ATOM      6  C   UNL A   1      30.094  24.690  25.958  1.00  0.00     0.039 C 
ATOM      7  C   UNL A   1      31.551  25.019  25.847  1.00  0.00    -0.077 C 
ATOM      8  C   UNL A   1      32.472  24.390  26.860  1.00  0.00     0.039 C 
ATOM      9  C   UNL A   1      32.034  25.812  24.876  1.00  0.00    -0.064 C 
ATOM     10  C   UNL A   1      33.447  26.269  24.648  1.00  0.00     0.030 C 
ATOM     11  C   UNL A   1      31.399  26.505  23.690  1.00  0.00     0.029 C 
ATOM     12  C   UNL A   1      33.650  25.762  23.210  1.00  0.00     0.009 C 
ATOM     13  C   UNL A   1      32.237  25.815  22.606  1.00  0.00     0.009 C 
ATOM     14  C   UNL A   1      31.817  27.962  23.996  1.00  0.00     0.102 C 
BRANCH  14  15
ATOM     15  C   UNL A   1      31.943  28.938  22.825  1.00  0.00     0.243 C 
ATOM     16  O   UNL A   1      33.023  29.325  22.385  1.00  0.00    -0.273 OA
ATOM     17  N   UNL A   1      30.799  29.503  22.315  1.00  0.00    -0.267 N 
ATOM     18  H   UNL A   1      30.887  30.333  21.793  1.00  0.00     0.191 HD
BRANCH  17  19
ATOM     19  N   UNL A   1      29.523  28.976  22.489  1.00  0.00    -0.263 N 
ATOM     20  C   UNL A   1      28.358  29.721  22.554  1.00  0.00     0.273 C 
ATOM     21  H   UNL A   1      29.442  27.999  22.573  1.00  0.00     0.191 HD
ATOM     22  O   UNL A   1      27.287  29.148  22.752  1.00  0.00    -0.267 OA
BRANCH  20  23
ATOM     23  C   UNL A   1      28.433  31.174  22.501  1.00  0.00     0.082 A 
ATOM     24  C   UNL A   1      28.777  32.015  23.605  1.00  0.00     0.056 A 
ATOM     25  C   UNL A   1      28.171  32.043  21.452  1.00  0.00     0.113 A 
ATOM     26  C   UNL A   1      28.778  33.306  23.139  1.00  0.00     0.196 A 
ATOM     27  O   UNL A   1      28.404  33.331  21.837  1.00  0.00    -0.469 OA
ATOM     28  C   UNL A   1      27.704  31.896  20.056  1.00  0.00     0.088 C 
ENDBRANCH  20  23
ENDBRANCH  17  19
ENDBRANCH  14  15
ENDBRANCH   3   5
ENDBRANCH   2   3
ENDBRANCH   1   2
BRANCH   1  29
ATOM     29  C   UNL A   1      32.772  31.805  27.261  1.00  0.00     0.275 C 
BRANCH  29  30
ATOM     30  O   UNL A   1      33.542  33.019  27.188  1.00  0.00    -0.458 OA
BRANCH  30  31
ATOM     31  C   UNL A   1      33.466  33.804  28.290  1.00  0.00     0.338 C 
ATOM     32  O   UNL A   1      32.579  34.581  28.591  1.00  0.00    -0.246 OA
BRANCH  31  33
ATOM     33  C   UNL A   1      34.599  33.511  29.178  1.00  0.00     0.060 A 
ATOM     34  C   UNL A   1      35.862  33.981  28.817  1.00  0.00     0.016 A 
ATOM     35  C   UNL A   1      34.437  32.685  30.287  1.00  0.00     0.016 A 
ATOM     36  C   UNL A   1      36.984  33.607  29.548  1.00  0.00     0.010 A 
ATOM     37  C   UNL A   1      35.561  32.328  31.037  1.00  0.00     0.010 A 
ATOM     38  C   UNL A   1      36.843  32.773  30.662  1.00  0.00    -0.014 A 
BRANCH  38  39
ATOM     39  C   UNL A   1      38.038  32.329  31.414  1.00  0.00     0.031 A 
ATOM     40  C   UNL A   1      38.882  31.207  30.879  1.00  0.00     0.074 A 
ATOM     41  C   UNL A   1      38.359  32.928  32.576  1.00  0.00     0.049 A 
ATOM     42  N   UNL A   1      39.865  30.567  31.456  1.00  0.00    -0.248 NA
ATOM     43  C   UNL A   1      38.572  30.740  29.518  1.00  0.00     0.031 C 
ATOM     44  C   UNL A   1      37.652  34.068  33.165  1.00  0.00     0.029 A 
ATOM     45  N   UNL A   1      39.359  32.655  33.473  1.00  0.00    -0.354 N 
ATOM     46  C   UNL A   1      40.268  29.597  30.546  1.00  0.00     0.074 A 
ATOM     47  C   UNL A   1      39.422  29.732  29.380  1.00  0.00     0.031 C 
ATOM     48  C   UNL A   1      38.241  34.395  34.326  1.00  0.00     0.029 A 
ATOM     49  C   UNL A   1      39.324  33.453  34.592  1.00  0.00     0.049 A 
ATOM     50  H   UNL A   1      40.037  31.955  33.331  1.00  0.00     0.167 HD
ATOM     51  C   UNL A   1      41.252  28.675  30.678  1.00  0.00     0.031 A 
ATOM     52  C   UNL A   1      40.054  33.405  35.723  1.00  0.00     0.031 A 
ATOM     53  C   UNL A   1      42.092  28.557  31.840  1.00  0.00     0.049 A 
ATOM     54  C   UNL A   1      41.103  32.340  35.870  1.00  0.00     0.074 A 
ATOM     55  C   UNL A   1      43.114  27.654  32.077  1.00  0.00     0.029 A 
ATOM     56  N   UNL A   1      42.013  29.374  32.958  1.00  0.00    -0.354 N 
ATOM     57  N   UNL A   1      41.448  31.404  35.018  1.00  0.00    -0.248 NA
ATOM     58  C   UNL A   1      41.856  32.320  37.131  1.00  0.00     0.031 C 
ATOM     59  C   UNL A   1      43.628  27.902  33.355  1.00  0.00     0.029 A 
ATOM     60  C   UNL A   1      42.958  28.988  33.893  1.00  0.00     0.049 A 
ATOM     61  H   UNL A   1      41.378  30.118  33.070  1.00  0.00     0.167 HD
ATOM     62  C   UNL A   1      42.473  30.693  35.632  1.00  0.00     0.074 A 
ATOM     63  C   UNL A   1      42.698  31.315  36.922  1.00  0.00     0.031 C 
ATOM     64  C   UNL A   1      43.166  29.624  35.170  1.00  0.00     0.031 A 
BRANCH  51  65
ATOM     65  C   UNL A   1      41.435  27.690  29.556  1.00  0.00    -0.014 A 
ATOM     66  C   UNL A   1      40.592  26.572  29.419  1.00  0.00     0.010 A 
ATOM     67  C   UNL A   1      42.452  27.902  28.608  1.00  0.00     0.010 A 
ATOM     68  C   UNL A   1      40.790  25.664  28.375  1.00  0.00     0.020 A 
ATOM     69  C   UNL A   1      42.638  27.008  27.550  1.00  0.00     0.020 A 
ATOM     70  C   UNL A   1      41.816  25.882  27.452  1.00  0.00     0.054 A 
BRANCH  70  71
ATOM     71  S   UNL A   1      42.048  24.694  26.100  1.00  0.00     0.124 S 
ATOM     72  O   UNL A   1      40.781  23.968  26.119  1.00  0.00    -0.237 OA
ATOM     73  O   UNL A   1      42.259  25.558  24.943  1.00  0.00    -0.237 OA
ATOM     74  O   UNL A   1      43.215  23.919  26.517  1.00  0.00    -0.744 OA
ENDBRANCH  70  71
ENDBRANCH  51  65
BRANCH  52  75
ATOM     75  C   UNL A   1      39.782  34.375  36.817  1.00  0.00    -0.014 A 
ATOM     76  C   UNL A   1      38.956  34.022  37.896  1.00  0.00     0.010 A 
ATOM     77  C   UNL A   1      40.378  35.650  36.797  1.00  0.00     0.010 A 
ATOM     78  C   UNL A   1      38.725  34.929  38.935  1.00  0.00     0.020 A 
ATOM     79  C   UNL A   1      40.170  36.549  37.845  1.00  0.00     0.020 A 
ATOM     80  C   UNL A   1      39.336  36.185  38.905  1.00  0.00     0.054 A 
BRANCH  80  81
ATOM     81  S   UNL A   1      39.083  37.321  40.297  1.00  0.00     0.124 S 
ATOM     82  O   UNL A   1      40.439  37.802  40.545  1.00  0.00    -0.237 OA
ATOM     83  O   UNL A   1      38.154  38.302  39.743  1.00  0.00    -0.237 OA
ATOM     84  O   UNL A   1      38.520  36.463  41.337  1.00  0.00    -0.744 OA
ENDBRANCH  80  81
ENDBRANCH  52  75
BRANCH  64  85
ATOM     85  C   UNL A   1      44.260  29.082  36.047  1.00  0.00    -0.014 A 
ATOM     86  C   UNL A   1      45.559  29.616  36.002  1.00  0.00     0.010 A 
ATOM     87  C   UNL A   1      43.963  28.065  36.973  1.00  0.00     0.010 A 
ATOM     88  C   UNL A   1      46.551  29.123  36.853  1.00  0.00     0.020 A 
ATOM     89  C   UNL A   1      44.948  27.586  37.839  1.00  0.00     0.020 A 
ATOM     90  C   UNL A   1      46.239  28.110  37.766  1.00  0.00     0.054 A 
BRANCH  90  91
ATOM     91  S   UNL A   1      47.529  27.522  38.897  1.00  0.00     0.124 S 
ATOM     92  O   UNL A   1      48.733  28.111  38.317  1.00  0.00    -0.237 OA
ATOM     93  O   UNL A   1      47.113  28.080  40.181  1.00  0.00    -0.237 OA
ATOM     94  O   UNL A   1      47.438  26.067  38.799  1.00  0.00    -0.744 OA
ENDBRANCH  90  91
ENDBRANCH  64  85
ENDBRANCH  38  39
ENDBRANCH  31  33
ENDBRANCH  30  31
ENDBRANCH  29  30
ENDBRANCH   1  29
TORSDOF 17
ENDMDL
MODEL 3
REMARK VINA RESULT:     -11.4      2.749      7.656
REMARK SMILES CC(C)=C1[C@H]2CC[C@@H]1[C@H](C(=O)NNC(=O)c1ccoc1C)[C@H]2C(=O)OCCOC(=O)c1ccc(-c2c3nc(c(-c4ccc(S(=O)(=O)[O-])cc4)c4ccc([nH]4)c(-c4ccc(S(=O)(=O)[O-])cc4)c4nc(c(-c5ccc(S(=O)(=O)[O-])cc5)c5ccc2[nH]5)C=C4)C=C3)cc1
REMARK SMILES IDX 26 1 25 2 23 3 24 4 22 5 1 6 2 7 3 8 4 9 5 10 8 11 6 12 7 13
REMARK SMILES IDX 9 14 10 15 11 16 12 17 13 19 14 20 15 22 16 23 17 24 20 25
REMARK SMILES IDX 18 26 19 27 21 28 27 29 28 30 29 31 30 32 31 33 32 34 90 35
REMARK SMILES IDX 33 36 89 37 34 38 35 39 36 40 83 41 37 42 88 43 82 44 84 45
REMARK SMILES IDX 38 46 87 47 81 48 80 49 39 51 69 52 50 53 68 54 51 55 54 56
REMARK SMILES IDX 67 57 85 58 52 59 53 60 66 62 86 63 55 64 40 65 41 66 49 67
REMARK SMILES IDX 42 68 48 69 43 70 44 71 45 72 46 73 47 74 70 75 71 76 79 77
REMARK SMILES IDX 72 78 78 79 73 80 74 81 75 82 76 83 77 84 56 85 57 86 65 87
REMARK SMILES IDX 58 88 64 89 59 90 60 91 61 92 62 93 63 94
REMARK H PARENT 12 18 13 21 84 50 54 61
REMARK Flexibility Score: inf
ROOT
ATOM      1  C   UNL A   1      32.617  29.847  26.184  1.00  0.00     0.274 C 
ENDROOT
BRANCH   1   2
ATOM      2  O   UNL A   1      32.705  28.431  26.426  1.00  0.00    -0.462 OA
BRANCH   2   3
ATOM      3  C   UNL A   1      31.607  27.826  26.928  1.00  0.00     0.310 C 
ATOM      4  O   UNL A   1      31.044  28.158  27.968  1.00  0.00    -0.252 OA
BRANCH   3   5
ATOM      5  C   UNL A   1      31.091  26.679  26.081  1.00  0.00     0.119 C 
ATOM      6  C   UNL A   1      33.334  28.050  22.309  1.00  0.00     0.039 C 
ATOM      7  C   UNL A   1      32.067  28.134  23.104  1.00  0.00    -0.077 C 
ATOM      8  C   UNL A   1      31.269  29.407  22.983  1.00  0.00     0.039 C 
ATOM      9  C   UNL A   1      31.633  27.119  23.869  1.00  0.00    -0.064 C 
ATOM     10  C   UNL A   1      30.419  27.056  24.751  1.00  0.00     0.030 C 
ATOM     11  C   UNL A   1      32.147  25.719  24.125  1.00  0.00     0.029 C 
ATOM     12  C   UNL A   1      29.730  25.820  24.148  1.00  0.00     0.009 C 
ATOM     13  C   UNL A   1      30.902  24.975  23.622  1.00  0.00     0.009 C 
ATOM     14  C   UNL A   1      32.284  25.777  25.663  1.00  0.00     0.102 C 
BRANCH  14  15
ATOM     15  C   UNL A   1      32.187  24.467  26.447  1.00  0.00     0.243 C 
ATOM     16  O   UNL A   1      31.167  24.103  27.026  1.00  0.00    -0.273 OA
ATOM     17  N   UNL A   1      33.326  23.715  26.613  1.00  0.00    -0.267 N 
ATOM     18  H   UNL A   1      33.343  23.060  27.348  1.00  0.00     0.191 HD
BRANCH  17  19
ATOM     19  N   UNL A   1      34.456  23.822  25.809  1.00  0.00    -0.263 N 
ATOM     20  C   UNL A   1      34.671  23.107  24.643  1.00  0.00     0.273 C 
ATOM     21  H   UNL A   1      35.156  24.453  26.090  1.00  0.00     0.191 HD
ATOM     22  O   UNL A   1      35.730  23.255  24.034  1.00  0.00    -0.267 OA
BRANCH  20  23
ATOM     23  C   UNL A   1      33.694  22.113  24.222  1.00  0.00     0.082 A 
ATOM     24  C   UNL A   1      32.916  22.189  23.024  1.00  0.00     0.056 A 
ATOM     25  C   UNL A   1      33.276  20.950  24.852  1.00  0.00     0.113 A 
ATOM     26  C   UNL A   1      32.153  21.049  22.971  1.00  0.00     0.196 A 
ATOM     27  O   UNL A   1      32.360  20.298  24.079  1.00  0.00    -0.469 OA
ATOM     28  C   UNL A   1      33.583  20.280  26.135  1.00  0.00     0.088 C 
ENDBRANCH  20  23
ENDBRANCH  17  19
ENDBRANCH  14  15
ENDBRANCH   3   5
ENDBRANCH   2   3
ENDBRANCH   1   2
BRANCH   1  29
ATOM     29  C   UNL A   1      33.186  30.611  27.379  1.00  0.00     0.275 C 
BRANCH  29  30
ATOM     30  O   UNL A   1      34.278  29.891  27.981  1.00  0.00    -0.458 OA
BRANCH  30  31
ATOM     31  C   UNL A   1      35.085  30.642  28.769  1.00  0.00     0.338 C 
ATOM     32  O   UNL A   1      34.768  31.572  29.488  1.00  0.00    -0.246 OA
BRANCH  31  33
ATOM     33  C   UNL A   1      36.450  30.102  28.725  1.00  0.00     0.060 A 
ATOM     34  C   UNL A   1      37.054  29.729  29.925  1.00  0.00     0.016 A 
ATOM     35  C   UNL A   1      37.165  30.074  27.530  1.00  0.00     0.016 A 
ATOM     36  C   UNL A   1      38.391  29.349  29.949  1.00  0.00     0.010 A 
ATOM     37  C   UNL A   1      38.502  29.670  27.549  1.00  0.00     0.010 A 
ATOM     38  C   UNL A   1      39.128  29.321  28.761  1.00  0.00    -0.014 A 
BRANCH  38  39
ATOM     39  C   UNL A   1      40.566  28.969  28.786  1.00  0.00     0.031 A 
ATOM     40  C   UNL A   1      41.586  30.020  29.117  1.00  0.00     0.074 A 
ATOM     41  C   UNL A   1      40.951  27.710  28.504  1.00  0.00     0.049 A 
ATOM     42  N   UNL A   1      42.889  29.959  29.037  1.00  0.00    -0.248 NA
ATOM     43  C   UNL A   1      41.070  31.313  29.597  1.00  0.00     0.031 C 
ATOM     44  C   UNL A   1      40.050  26.590  28.228  1.00  0.00     0.029 A 
ATOM     45  N   UNL A   1      42.205  27.164  28.398  1.00  0.00    -0.354 N 
ATOM     46  C   UNL A   1      43.350  31.213  29.418  1.00  0.00     0.074 A 
ATOM     47  C   UNL A   1      42.186  32.016  29.728  1.00  0.00     0.031 C 
ATOM     48  C   UNL A   1      40.780  25.490  27.982  1.00  0.00     0.029 A 
ATOM     49  C   UNL A   1      42.196  25.842  28.023  1.00  0.00     0.049 A 
ATOM     50  H   UNL A   1      43.031  27.671  28.572  1.00  0.00     0.167 HD
ATOM     51  C   UNL A   1      44.629  31.654  29.495  1.00  0.00     0.031 A 
ATOM     52  C   UNL A   1      43.212  25.017  27.707  1.00  0.00     0.031 A 
ATOM     53  C   UNL A   1      45.778  30.843  29.193  1.00  0.00     0.049 A 
ATOM     54  C   UNL A   1      44.619  25.543  27.746  1.00  0.00     0.074 A 
ATOM     55  C   UNL A   1      47.116  31.194  29.234  1.00  0.00     0.029 A 
ATOM     56  N   UNL A   1      45.725  29.514  28.801  1.00  0.00    -0.354 N 
ATOM     57  N   UNL A   1      45.039  26.743  28.071  1.00  0.00    -0.248 NA
ATOM     58  C   UNL A   1      45.688  24.608  27.373  1.00  0.00     0.031 C 
ATOM     59  C   UNL A   1      47.870  30.087  28.830  1.00  0.00     0.029 A 
ATOM     60  C   UNL A   1      47.005  29.034  28.584  1.00  0.00     0.049 A 
ATOM     61  H   UNL A   1      44.899  28.989  28.692  1.00  0.00     0.167 HD
ATOM     62  C   UNL A   1      46.423  26.702  27.958  1.00  0.00     0.074 A 
ATOM     63  C   UNL A   1      46.770  25.356  27.546  1.00  0.00     0.031 C 
ATOM     64  C   UNL A   1      47.327  27.689  28.177  1.00  0.00     0.031 A 
BRANCH  51  65
ATOM     65  C   UNL A   1      44.844  33.094  29.874  1.00  0.00    -0.014 A 
ATOM     66  C   UNL A   1      44.840  34.114  28.906  1.00  0.00     0.010 A 
ATOM     67  C   UNL A   1      45.029  33.433  31.227  1.00  0.00     0.010 A 
ATOM     68  C   UNL A   1      45.056  35.443  29.280  1.00  0.00     0.020 A 
ATOM     69  C   UNL A   1      45.223  34.764  31.607  1.00  0.00     0.020 A 
ATOM     70  C   UNL A   1      45.254  35.759  30.628  1.00  0.00     0.054 A 
BRANCH  70  71
ATOM     71  S   UNL A   1      45.524  37.493  31.091  1.00  0.00     0.124 S 
ATOM     72  O   UNL A   1      45.917  37.370  32.493  1.00  0.00    -0.237 OA
ATOM     73  O   UNL A   1      46.582  37.911  30.177  1.00  0.00    -0.237 OA
ATOM     74  O   UNL A   1      44.223  38.119  30.863  1.00  0.00    -0.744 OA
ENDBRANCH  70  71
ENDBRANCH  51  65
BRANCH  52  75
ATOM     75  C   UNL A   1      42.924  23.620  27.285  1.00  0.00    -0.014 A 
ATOM     76  C   UNL A   1      42.950  23.263  25.928  1.00  0.00     0.010 A 
ATOM     77  C   UNL A   1      42.651  22.632  28.249  1.00  0.00     0.010 A 
ATOM     78  C   UNL A   1      42.703  21.943  25.540  1.00  0.00     0.020 A 
ATOM     79  C   UNL A   1      42.429  21.307  27.868  1.00  0.00     0.020 A 
ATOM     80  C   UNL A   1      42.448  20.973  26.512  1.00  0.00     0.054 A 
BRANCH  80  81
ATOM     81  S   UNL A   1      42.203  19.251  25.994  1.00  0.00     0.124 S 
ATOM     82  O   UNL A   1      43.057  19.166  24.813  1.00  0.00    -0.237 OA
ATOM     83  O   UNL A   1      42.659  18.499  27.161  1.00  0.00    -0.237 OA
ATOM     84  O   UNL A   1      40.766  19.174  25.738  1.00  0.00    -0.744 OA
ENDBRANCH  80  81
ENDBRANCH  52  75
BRANCH  64  85
ATOM     85  C   UNL A   1      48.780  27.340  28.013  1.00  0.00    -0.014 A 
ATOM     86  C   UNL A   1      49.493  27.724  26.865  1.00  0.00     0.010 A 
ATOM     87  C   UNL A   1      49.451  26.671  29.053  1.00  0.00     0.010 A 
ATOM     88  C   UNL A   1      50.852  27.422  26.749  1.00  0.00     0.020 A 
ATOM     89  C   UNL A   1      50.814  26.387  28.948  1.00  0.00     0.020 A 
ATOM     90  C   UNL A   1      51.504  26.754  27.792  1.00  0.00     0.054 A 
BRANCH  90  91
ATOM     91  S   UNL A   1      53.281  26.420  27.643  1.00  0.00     0.124 S 
ATOM     92  O   UNL A   1      53.292  25.173  26.882  1.00  0.00    -0.237 OA
ATOM     93  O   UNL A   1      53.773  27.596  26.929  1.00  0.00    -0.237 OA
ATOM     94  O   UNL A   1      53.729  26.308  29.028  1.00  0.00    -0.744 OA
ENDBRANCH  90  91
ENDBRANCH  64  85
ENDBRANCH  38  39
ENDBRANCH  31  33
ENDBRANCH  30  31
ENDBRANCH  29  30
ENDBRANCH   1  29
TORSDOF 17
ENDMDL
