MODEL 1
REMARK VINA RESULT:     -12.1      0.000      0.000
REMARK SMILES C[C@H](C(=O)OCCOC(=O)c1ccc(-c2c3nc(c(-c4ccc(S(=O)(=O)[O-])cc4)c4ccc([nH]4)c(-c4ccc(S(=O)(=O)[O-])cc4)c4nc(c(-c5ccc(S(=O)(=O)[O-])cc5)c5ccc2[nH]5)C=C4)C=C3)cc1)N1C(=O)C[C@@H](N2C(=O)/C(=C/c3ccccc3)SC2=S)C1=O
REMARK SMILES IDX 6 1 5 2 3 3 4 4 2 5 1 6 71 7 72 8 90 9 73 10 74 11 75 12
REMARK SMILES IDX 91 13 76 14 77 15 88 16 78 17 79 18 87 19 89 20 80 21 81 22
REMARK SMILES IDX 82 23 86 24 83 25 85 26 84 27 7 28 8 29 9 30 10 31 11 32
REMARK SMILES IDX 12 33 70 34 13 35 69 36 14 37 15 38 16 39 63 40 17 41 68 42
REMARK SMILES IDX 62 43 64 44 18 45 67 46 61 47 60 48 19 50 49 51 30 52 48 53
REMARK SMILES IDX 31 54 34 55 47 56 65 57 32 58 33 59 46 61 66 62 35 63 20 64
REMARK SMILES IDX 21 65 29 66 22 67 28 68 23 69 24 70 25 71 26 72 27 73 50 74
REMARK SMILES IDX 51 75 59 76 52 77 58 78 53 79 54 80 55 81 56 82 57 83 36 84
REMARK SMILES IDX 37 85 45 86 38 87 44 88 39 89 40 90 41 91 42 92 43 93
REMARK H PARENT 64 49 34 60
REMARK Flexibility Score: inf
ROOT
ATOM      1  C   UNL A   1      33.677  29.682  26.699  1.00  0.00     0.274 C 
ENDROOT
BRANCH   1   2
ATOM      2  O   UNL A   1      32.632  30.145  25.821  1.00  0.00    -0.461 OA
BRANCH   2   3
ATOM      3  C   UNL A   1      32.433  29.422  24.682  1.00  0.00     0.329 C 
ATOM      4  O   UNL A   1      33.286  29.213  23.826  1.00  0.00    -0.250 OA
BRANCH   3   5
ATOM      5  C   UNL A   1      31.028  28.811  24.617  1.00  0.00     0.200 C 
ATOM      6  C   UNL A   1      30.175  29.601  23.613  1.00  0.00     0.044 C 
BRANCH   5   7
ATOM      7  N   UNL A   1      30.965  27.380  24.318  1.00  0.00    -0.267 N 
ATOM      8  C   UNL A   1      30.928  26.935  23.026  1.00  0.00     0.232 C 
ATOM      9  C   UNL A   1      30.832  26.354  25.207  1.00  0.00     0.253 C 
ATOM     10  O   UNL A   1      30.753  27.612  22.024  1.00  0.00    -0.274 OA
ATOM     11  C   UNL A   1      31.075  25.447  22.994  1.00  0.00     0.136 C 
ATOM     12  C   UNL A   1      31.042  25.055  24.460  1.00  0.00     0.191 C 
ATOM     13  O   UNL A   1      30.619  26.409  26.408  1.00  0.00    -0.272 OA
BRANCH  12  14
ATOM     14  N   UNL A   1      32.257  24.412  24.983  1.00  0.00    -0.280 N 
ATOM     15  C   UNL A   1      33.492  24.761  24.454  1.00  0.00     0.266 C 
ATOM     16  C   UNL A   1      32.274  23.504  26.020  1.00  0.00     0.149 C 
ATOM     17  O   UNL A   1      33.676  25.576  23.562  1.00  0.00    -0.268 OA
ATOM     18  C   UNL A   1      34.576  23.985  25.102  1.00  0.00     0.081 C 
ATOM     19  S   UNL A   1      33.925  22.988  26.337  1.00  0.00    -0.054 SA
ATOM     20  S   UNL A   1      30.983  22.883  26.873  1.00  0.00    -0.052 S 
ATOM     21  C   UNL A   1      35.849  24.078  24.693  1.00  0.00     0.029 C 
BRANCH  21  22
ATOM     22  C   UNL A   1      36.952  23.241  25.177  1.00  0.00    -0.024 A 
ATOM     23  C   UNL A   1      37.904  23.759  26.059  1.00  0.00     0.008 A 
ATOM     24  C   UNL A   1      37.081  21.922  24.721  1.00  0.00     0.008 A 
ATOM     25  C   UNL A   1      38.958  22.955  26.501  1.00  0.00     0.001 A 
ATOM     26  C   UNL A   1      38.132  21.121  25.165  1.00  0.00     0.001 A 
ATOM     27  C   UNL A   1      39.069  21.637  26.057  1.00  0.00     0.000 A 
ENDBRANCH  21  22
ENDBRANCH  12  14
ENDBRANCH   5   7
ENDBRANCH   3   5
ENDBRANCH   2   3
ENDBRANCH   1   2
BRANCH   1  28
ATOM     28  C   UNL A   1      34.132  30.811  27.616  1.00  0.00     0.275 C 
BRANCH  28  29
ATOM     29  O   UNL A   1      35.567  30.854  27.627  1.00  0.00    -0.458 OA
BRANCH  29  30
ATOM     30  C   UNL A   1      36.143  30.723  28.843  1.00  0.00     0.338 C 
ATOM     31  O   UNL A   1      35.689  31.072  29.919  1.00  0.00    -0.246 OA
BRANCH  30  32
ATOM     32  C   UNL A   1      37.436  30.032  28.707  1.00  0.00     0.060 A 
ATOM     33  C   UNL A   1      38.177  29.712  29.843  1.00  0.00     0.016 A 
ATOM     34  C   UNL A   1      37.981  29.840  27.439  1.00  0.00     0.016 A 
ATOM     35  C   UNL A   1      39.511  29.333  29.718  1.00  0.00     0.010 A 
ATOM     36  C   UNL A   1      39.276  29.328  27.317  1.00  0.00     0.010 A 
ATOM     37  C   UNL A   1      40.076  29.112  28.452  1.00  0.00    -0.014 A 
BRANCH  37  38
ATOM     38  C   UNL A   1      41.493  28.673  28.308  1.00  0.00     0.031 A 
ATOM     39  C   UNL A   1      42.615  29.675  28.437  1.00  0.00     0.074 A 
ATOM     40  C   UNL A   1      41.784  27.382  28.042  1.00  0.00     0.049 A 
ATOM     41  N   UNL A   1      43.878  29.548  28.118  1.00  0.00    -0.248 NA
ATOM     42  C   UNL A   1      42.267  31.000  28.978  1.00  0.00     0.031 C 
ATOM     43  C   UNL A   1      40.811  26.292  27.940  1.00  0.00     0.029 A 
ATOM     44  N   UNL A   1      42.988  26.766  27.807  1.00  0.00    -0.354 N 
ATOM     45  C   UNL A   1      44.457  30.791  28.347  1.00  0.00     0.074 A 
ATOM     46  C   UNL A   1      43.410  31.659  28.841  1.00  0.00     0.031 C 
ATOM     47  C   UNL A   1      41.457  25.140  27.709  1.00  0.00     0.029 A 
ATOM     48  C   UNL A   1      42.875  25.423  27.536  1.00  0.00     0.049 A 
ATOM     49  H   UNL A   1      43.851  27.241  27.830  1.00  0.00     0.167 HD
ATOM     50  C   UNL A   1      45.743  31.175  28.155  1.00  0.00     0.031 A 
ATOM     51  C   UNL A   1      43.794  24.522  27.137  1.00  0.00     0.031 A 
ATOM     52  C   UNL A   1      46.790  30.290  27.712  1.00  0.00     0.049 A 
ATOM     53  C   UNL A   1      45.204  24.975  26.900  1.00  0.00     0.074 A 
ATOM     54  C   UNL A   1      48.129  30.576  27.506  1.00  0.00     0.029 A 
ATOM     55  N   UNL A   1      46.620  28.944  27.426  1.00  0.00    -0.354 N 
ATOM     56  N   UNL A   1      45.721  26.170  27.059  1.00  0.00    -0.248 NA
ATOM     57  C   UNL A   1      46.150  23.965  26.410  1.00  0.00     0.031 C 
ATOM     58  C   UNL A   1      48.759  29.410  27.055  1.00  0.00     0.029 A 
ATOM     59  C   UNL A   1      47.825  28.389  27.031  1.00  0.00     0.049 A 
ATOM     60  H   UNL A   1      45.768  28.456  27.495  1.00  0.00     0.167 HD
ATOM     61  C   UNL A   1      47.057  26.053  26.698  1.00  0.00     0.074 A 
ATOM     62  C   UNL A   1      47.272  24.667  26.333  1.00  0.00     0.031 C 
ATOM     63  C   UNL A   1      48.019  27.008  26.668  1.00  0.00     0.031 A 
BRANCH  50  64
ATOM     64  C   UNL A   1      46.085  32.627  28.374  1.00  0.00    -0.014 A 
ATOM     65  C   UNL A   1      45.952  33.583  27.353  1.00  0.00     0.010 A 
ATOM     66  C   UNL A   1      46.506  33.047  29.651  1.00  0.00     0.010 A 
ATOM     67  C   UNL A   1      46.268  34.924  27.593  1.00  0.00     0.020 A 
ATOM     68  C   UNL A   1      46.799  34.391  29.902  1.00  0.00     0.020 A 
ATOM     69  C   UNL A   1      46.694  35.319  28.866  1.00  0.00     0.054 A 
BRANCH  69  70
ATOM     70  S   UNL A   1      47.078  37.069  29.158  1.00  0.00     0.124 S 
ATOM     71  O   UNL A   1      47.044  37.146  30.616  1.00  0.00    -0.237 OA
ATOM     72  O   UNL A   1      48.399  37.214  28.553  1.00  0.00    -0.237 OA
ATOM     73  O   UNL A   1      46.002  37.779  28.472  1.00  0.00    -0.744 OA
ENDBRANCH  69  70
ENDBRANCH  50  64
BRANCH  51  74
ATOM     74  C   UNL A   1      43.385  23.114  26.881  1.00  0.00    -0.014 A 
ATOM     75  C   UNL A   1      43.510  22.556  25.598  1.00  0.00     0.010 A 
ATOM     76  C   UNL A   1      42.900  22.312  27.932  1.00  0.00     0.010 A 
ATOM     77  C   UNL A   1      43.154  21.223  25.369  1.00  0.00     0.020 A 
ATOM     78  C   UNL A   1      42.570  20.972  27.713  1.00  0.00     0.020 A 
ATOM     79  C   UNL A   1      42.691  20.439  26.429  1.00  0.00     0.054 A 
BRANCH  79  80
ATOM     80  S   UNL A   1      42.298  18.694  26.126  1.00  0.00     0.124 S 
ATOM     81  O   UNL A   1      40.889  18.760  25.751  1.00  0.00    -0.237 OA
ATOM     82  O   UNL A   1      43.224  18.341  25.052  1.00  0.00    -0.237 OA
ATOM     83  O   UNL A   1      42.576  18.055  27.411  1.00  0.00    -0.744 OA
ENDBRANCH  79  80
ENDBRANCH  51  74
BRANCH  63  84
ATOM     84  C   UNL A   1      49.398  26.575  26.258  1.00  0.00    -0.014 A 
ATOM     85  C   UNL A   1      49.848  26.737  24.936  1.00  0.00     0.010 A 
ATOM     86  C   UNL A   1      50.268  26.031  27.220  1.00  0.00     0.010 A 
ATOM     87  C   UNL A   1      51.136  26.333  24.575  1.00  0.00     0.020 A 
ATOM     88  C   UNL A   1      51.564  25.648  26.869  1.00  0.00     0.020 A 
ATOM     89  C   UNL A   1      51.985  25.788  25.545  1.00  0.00     0.054 A 
BRANCH  89  90
ATOM     90  S   UNL A   1      53.664  25.303  25.063  1.00  0.00     0.124 S 
ATOM     91  O   UNL A   1      53.559  23.846  25.018  1.00  0.00    -0.237 OA
ATOM     92  O   UNL A   1      53.831  25.961  23.768  1.00  0.00    -0.237 OA
ATOM     93  O   UNL A   1      54.500  25.834  26.136  1.00  0.00    -0.744 OA
ENDBRANCH  89  90
ENDBRANCH  63  84
ENDBRANCH  37  38
ENDBRANCH  30  32
ENDBRANCH  29  30
ENDBRANCH  28  29
ENDBRANCH   1  28
TORSDOF 17
ENDMDL
MODEL 2
REMARK VINA RESULT:     -12.1      6.296     11.848
REMARK SMILES C[C@H](C(=O)OCCOC(=O)c1ccc(-c2c3nc(c(-c4ccc(S(=O)(=O)[O-])cc4)c4ccc([nH]4)c(-c4ccc(S(=O)(=O)[O-])cc4)c4nc(c(-c5ccc(S(=O)(=O)[O-])cc5)c5ccc2[nH]5)C=C4)C=C3)cc1)N1C(=O)C[C@@H](N2C(=O)/C(=C/c3ccccc3)SC2=S)C1=O
REMARK SMILES IDX 6 1 5 2 3 3 4 4 2 5 1 6 71 7 72 8 90 9 73 10 74 11 75 12
REMARK SMILES IDX 91 13 76 14 77 15 88 16 78 17 79 18 87 19 89 20 80 21 81 22
REMARK SMILES IDX 82 23 86 24 83 25 85 26 84 27 7 28 8 29 9 30 10 31 11 32
REMARK SMILES IDX 12 33 70 34 13 35 69 36 14 37 15 38 16 39 63 40 17 41 68 42
REMARK SMILES IDX 62 43 64 44 18 45 67 46 61 47 60 48 19 50 49 51 30 52 48 53
REMARK SMILES IDX 31 54 34 55 47 56 65 57 32 58 33 59 46 61 66 62 35 63 20 64
REMARK SMILES IDX 21 65 29 66 22 67 28 68 23 69 24 70 25 71 26 72 27 73 50 74
REMARK SMILES IDX 51 75 59 76 52 77 58 78 53 79 54 80 55 81 56 82 57 83 36 84
REMARK SMILES IDX 37 85 45 86 38 87 44 88 39 89 40 90 41 91 42 92 43 93
REMARK H PARENT 64 49 34 60
REMARK Flexibility Score: inf
ROOT
ATOM      1  C   UNL A   1      37.193  22.696  25.553  1.00  0.00     0.274 C 
ENDROOT
BRANCH   1   2
ATOM      2  O   UNL A   1      36.613  21.392  25.756  1.00  0.00    -0.461 OA
BRANCH   2   3
ATOM      3  C   UNL A   1      35.259  21.348  25.910  1.00  0.00     0.329 C 
ATOM      4  O   UNL A   1      34.663  21.602  26.951  1.00  0.00    -0.250 OA
BRANCH   3   5
ATOM      5  C   UNL A   1      34.533  21.025  24.598  1.00  0.00     0.200 C 
ATOM      6  C   UNL A   1      34.009  19.581  24.649  1.00  0.00     0.044 C 
BRANCH   5   7
ATOM      7  N   UNL A   1      33.457  21.941  24.220  1.00  0.00    -0.267 N 
ATOM      8  C   UNL A   1      32.199  21.797  24.739  1.00  0.00     0.232 C 
ATOM      9  C   UNL A   1      33.503  22.931  23.284  1.00  0.00     0.253 C 
ATOM     10  O   UNL A   1      31.777  20.847  25.380  1.00  0.00    -0.274 OA
ATOM     11  C   UNL A   1      31.353  22.969  24.357  1.00  0.00     0.136 C 
ATOM     12  C   UNL A   1      32.237  23.750  23.402  1.00  0.00     0.191 C 
ATOM     13  O   UNL A   1      34.394  23.186  22.488  1.00  0.00    -0.272 OA
BRANCH  12  14
ATOM     14  N   UNL A   1      32.604  25.109  23.829  1.00  0.00    -0.280 N 
ATOM     15  C   UNL A   1      32.805  25.367  25.178  1.00  0.00     0.266 C 
ATOM     16  C   UNL A   1      32.823  26.165  22.970  1.00  0.00     0.149 C 
ATOM     17  O   UNL A   1      32.699  24.548  26.080  1.00  0.00    -0.268 OA
ATOM     18  C   UNL A   1      33.144  26.794  25.393  1.00  0.00     0.081 C 
ATOM     19  S   UNL A   1      33.249  27.604  23.885  1.00  0.00    -0.054 SA
ATOM     20  S   UNL A   1      32.678  26.193  21.309  1.00  0.00    -0.052 S 
ATOM     21  C   UNL A   1      33.289  27.305  26.624  1.00  0.00     0.029 C 
BRANCH  21  22
ATOM     22  C   UNL A   1      33.476  28.727  26.928  1.00  0.00    -0.024 A 
ATOM     23  C   UNL A   1      34.735  29.220  27.282  1.00  0.00     0.008 A 
ATOM     24  C   UNL A   1      32.377  29.597  26.907  1.00  0.00     0.008 A 
ATOM     25  C   UNL A   1      34.896  30.575  27.583  1.00  0.00     0.001 A 
ATOM     26  C   UNL A   1      32.541  30.949  27.206  1.00  0.00     0.001 A 
ATOM     27  C   UNL A   1      33.801  31.438  27.541  1.00  0.00     0.000 A 
ENDBRANCH  21  22
ENDBRANCH  12  14
ENDBRANCH   5   7
ENDBRANCH   3   5
ENDBRANCH   2   3
ENDBRANCH   1   2
BRANCH   1  28
ATOM     28  C   UNL A   1      38.605  22.737  26.126  1.00  0.00     0.275 C 
BRANCH  28  29
ATOM     29  O   UNL A   1      39.129  24.066  25.978  1.00  0.00    -0.458 OA
BRANCH  29  30
ATOM     30  C   UNL A   1      40.291  24.308  26.625  1.00  0.00     0.338 C 
ATOM     31  O   UNL A   1      41.337  23.689  26.526  1.00  0.00    -0.246 OA
BRANCH  30  32
ATOM     32  C   UNL A   1      40.146  25.500  27.477  1.00  0.00     0.060 A 
ATOM     33  C   UNL A   1      40.958  26.612  27.263  1.00  0.00     0.016 A 
ATOM     34  C   UNL A   1      39.305  25.450  28.587  1.00  0.00     0.016 A 
ATOM     35  C   UNL A   1      41.034  27.612  28.229  1.00  0.00     0.010 A 
ATOM     36  C   UNL A   1      39.285  26.522  29.484  1.00  0.00     0.010 A 
ATOM     37  C   UNL A   1      40.182  27.596  29.344  1.00  0.00    -0.014 A 
BRANCH  37  38
ATOM     38  C   UNL A   1      40.233  28.679  30.366  1.00  0.00     0.031 A 
ATOM     39  C   UNL A   1      41.248  28.624  31.482  1.00  0.00     0.074 A 
ATOM     40  C   UNL A   1      39.359  29.707  30.315  1.00  0.00     0.049 A 
ATOM     41  N   UNL A   1      41.304  29.326  32.586  1.00  0.00    -0.248 NA
ATOM     42  C   UNL A   1      42.332  27.635  31.350  1.00  0.00     0.031 C 
ATOM     43  C   UNL A   1      38.356  29.922  29.269  1.00  0.00     0.029 A 
ATOM     44  N   UNL A   1      39.175  30.768  31.167  1.00  0.00    -0.354 N 
ATOM     45  C   UNL A   1      42.377  28.817  33.309  1.00  0.00     0.074 A 
ATOM     46  C   UNL A   1      42.952  27.751  32.517  1.00  0.00     0.031 C 
ATOM     47  C   UNL A   1      37.695  31.062  29.516  1.00  0.00     0.029 A 
ATOM     48  C   UNL A   1      38.148  31.602  30.791  1.00  0.00     0.049 A 
ATOM     49  H   UNL A   1      39.725  30.916  31.970  1.00  0.00     0.167 HD
ATOM     50  C   UNL A   1      42.836  29.199  34.526  1.00  0.00     0.031 A 
ATOM     51  C   UNL A   1      37.588  32.653  31.422  1.00  0.00     0.031 A 
ATOM     52  C   UNL A   1      42.290  30.296  35.284  1.00  0.00     0.049 A 
ATOM     53  C   UNL A   1      38.090  33.039  32.782  1.00  0.00     0.074 A 
ATOM     54  C   UNL A   1      42.696  30.776  36.518  1.00  0.00     0.029 A 
ATOM     55  N   UNL A   1      41.234  31.094  34.872  1.00  0.00    -0.354 N 
ATOM     56  N   UNL A   1      39.063  32.505  33.480  1.00  0.00    -0.248 NA
ATOM     57  C   UNL A   1      37.405  34.153  33.448  1.00  0.00     0.031 C 
ATOM     58  C   UNL A   1      41.857  31.839  36.869  1.00  0.00     0.029 A 
ATOM     59  C   UNL A   1      40.964  32.054  35.833  1.00  0.00     0.049 A 
ATOM     60  H   UNL A   1      40.748  30.994  34.022  1.00  0.00     0.167 HD
ATOM     61  C   UNL A   1      39.116  33.227  34.665  1.00  0.00     0.074 A 
ATOM     62  C   UNL A   1      38.090  34.247  34.579  1.00  0.00     0.031 C 
ATOM     63  C   UNL A   1      39.937  33.059  35.731  1.00  0.00     0.031 A 
BRANCH  50  64
ATOM     64  C   UNL A   1      43.954  28.397  35.141  1.00  0.00    -0.014 A 
ATOM     65  C   UNL A   1      43.710  27.221  35.870  1.00  0.00     0.010 A 
ATOM     66  C   UNL A   1      45.286  28.811  34.941  1.00  0.00     0.010 A 
ATOM     67  C   UNL A   1      44.772  26.494  36.419  1.00  0.00     0.020 A 
ATOM     68  C   UNL A   1      46.351  28.074  35.467  1.00  0.00     0.020 A 
ATOM     69  C   UNL A   1      46.086  26.929  36.217  1.00  0.00     0.054 A 
BRANCH  69  70
ATOM     70  S   UNL A   1      47.448  25.957  36.921  1.00  0.00     0.124 S 
ATOM     71  O   UNL A   1      47.900  26.817  38.011  1.00  0.00    -0.237 OA
ATOM     72  O   UNL A   1      46.784  24.722  37.331  1.00  0.00    -0.237 OA
ATOM     73  O   UNL A   1      48.384  25.816  35.810  1.00  0.00    -0.744 OA
ENDBRANCH  69  70
ENDBRANCH  50  64
BRANCH  51  74
ATOM     74  C   UNL A   1      36.448  33.372  30.790  1.00  0.00    -0.014 A 
ATOM     75  C   UNL A   1      35.184  33.384  31.403  1.00  0.00     0.010 A 
ATOM     76  C   UNL A   1      36.632  34.078  29.586  1.00  0.00     0.010 A 
ATOM     77  C   UNL A   1      34.124  34.086  30.822  1.00  0.00     0.020 A 
ATOM     78  C   UNL A   1      35.583  34.805  29.017  1.00  0.00     0.020 A 
ATOM     79  C   UNL A   1      34.332  34.795  29.635  1.00  0.00     0.054 A 
BRANCH  79  80
ATOM     80  S   UNL A   1      32.962  35.756  28.933  1.00  0.00     0.124 S 
ATOM     81  O   UNL A   1      32.331  34.782  28.047  1.00  0.00    -0.237 OA
ATOM     82  O   UNL A   1      32.192  36.125  30.119  1.00  0.00    -0.237 OA
ATOM     83  O   UNL A   1      33.634  36.869  28.266  1.00  0.00    -0.744 OA
ENDBRANCH  79  80
ENDBRANCH  51  74
BRANCH  63  84
ATOM     84  C   UNL A   1      39.778  34.022  36.874  1.00  0.00    -0.014 A 
ATOM     85  C   UNL A   1      40.461  35.251  36.889  1.00  0.00     0.010 A 
ATOM     86  C   UNL A   1      38.904  33.707  37.929  1.00  0.00     0.010 A 
ATOM     87  C   UNL A   1      40.297  36.135  37.957  1.00  0.00     0.020 A 
ATOM     88  C   UNL A   1      38.718  34.598  38.987  1.00  0.00     0.020 A 
ATOM     89  C   UNL A   1      39.427  35.802  39.002  1.00  0.00     0.054 A 
BRANCH  89  90
ATOM     90  S   UNL A   1      39.202  36.980  40.362  1.00  0.00     0.124 S 
ATOM     91  O   UNL A   1      38.363  36.220  41.286  1.00  0.00    -0.237 OA
ATOM     92  O   UNL A   1      40.572  37.221  40.810  1.00  0.00    -0.237 OA
ATOM     93  O   UNL A   1      38.551  38.122  39.726  1.00  0.00    -0.744 OA
ENDBRANCH  89  90
ENDBRANCH  63  84
ENDBRANCH  37  38
ENDBRANCH  30  32
ENDBRANCH  29  30
ENDBRANCH  28  29
ENDBRANCH   1  28
TORSDOF 17
ENDMDL
MODEL 3
REMARK VINA RESULT:     -11.5      1.513      2.217
REMARK SMILES C[C@H](C(=O)OCCOC(=O)c1ccc(-c2c3nc(c(-c4ccc(S(=O)(=O)[O-])cc4)c4ccc([nH]4)c(-c4ccc(S(=O)(=O)[O-])cc4)c4nc(c(-c5ccc(S(=O)(=O)[O-])cc5)c5ccc2[nH]5)C=C4)C=C3)cc1)N1C(=O)C[C@@H](N2C(=O)/C(=C/c3ccccc3)SC2=S)C1=O
REMARK SMILES IDX 6 1 5 2 3 3 4 4 2 5 1 6 71 7 72 8 90 9 73 10 74 11 75 12
REMARK SMILES IDX 91 13 76 14 77 15 88 16 78 17 79 18 87 19 89 20 80 21 81 22
REMARK SMILES IDX 82 23 86 24 83 25 85 26 84 27 7 28 8 29 9 30 10 31 11 32
REMARK SMILES IDX 12 33 70 34 13 35 69 36 14 37 15 38 16 39 63 40 17 41 68 42
REMARK SMILES IDX 62 43 64 44 18 45 67 46 61 47 60 48 19 50 49 51 30 52 48 53
REMARK SMILES IDX 31 54 34 55 47 56 65 57 32 58 33 59 46 61 66 62 35 63 20 64
REMARK SMILES IDX 21 65 29 66 22 67 28 68 23 69 24 70 25 71 26 72 27 73 50 74
REMARK SMILES IDX 51 75 59 76 52 77 58 78 53 79 54 80 55 81 56 82 57 83 36 84
REMARK SMILES IDX 37 85 45 86 38 87 44 88 39 89 40 90 41 91 42 92 43 93
REMARK H PARENT 64 49 34 60
REMARK Flexibility Score: inf
ROOT
ATOM      1  C   UNL A   1      33.752  31.879  27.713  1.00  0.00     0.274 C 
ENDROOT
BRANCH   1   2
ATOM      2  O   UNL A   1      33.275  30.564  27.365  1.00  0.00    -0.461 OA
BRANCH   2   3
ATOM      3  C   UNL A   1      32.300  30.504  26.414  1.00  0.00     0.329 C 
ATOM      4  O   UNL A   1      31.308  31.225  26.380  1.00  0.00    -0.250 OA
BRANCH   3   5
ATOM      5  C   UNL A   1      32.616  29.480  25.317  1.00  0.00     0.200 C 
ATOM      6  C   UNL A   1      33.971  28.820  25.614  1.00  0.00     0.044 C 
BRANCH   5   7
ATOM      7  N   UNL A   1      31.596  28.459  25.080  1.00  0.00    -0.267 N 
ATOM      8  C   UNL A   1      30.662  28.616  24.093  1.00  0.00     0.232 C 
ATOM      9  C   UNL A   1      31.364  27.335  25.816  1.00  0.00     0.253 C 
ATOM     10  O   UNL A   1      30.438  29.633  23.455  1.00  0.00    -0.274 OA
ATOM     11  C   UNL A   1      29.878  27.354  23.927  1.00  0.00     0.136 C 
ATOM     12  C   UNL A   1      30.369  26.478  25.065  1.00  0.00     0.191 C 
ATOM     13  O   UNL A   1      31.865  27.003  26.880  1.00  0.00    -0.272 OA
BRANCH  12  14
ATOM     14  N   UNL A   1      31.038  25.228  24.674  1.00  0.00    -0.280 N 
ATOM     15  C   UNL A   1      30.975  24.130  25.521  1.00  0.00     0.266 C 
ATOM     16  C   UNL A   1      31.696  25.036  23.478  1.00  0.00     0.149 C 
ATOM     17  O   UNL A   1      30.401  24.098  26.600  1.00  0.00    -0.268 OA
ATOM     18  C   UNL A   1      31.728  22.987  24.952  1.00  0.00     0.081 C 
ATOM     19  S   UNL A   1      32.343  23.403  23.405  1.00  0.00    -0.054 SA
ATOM     20  S   UNL A   1      31.946  26.134  22.248  1.00  0.00    -0.052 S 
ATOM     21  C   UNL A   1      31.892  21.843  25.632  1.00  0.00     0.029 C 
BRANCH  21  22
ATOM     22  C   UNL A   1      32.742  20.726  25.208  1.00  0.00    -0.024 A 
ATOM     23  C   UNL A   1      34.128  20.781  25.382  1.00  0.00     0.008 A 
ATOM     24  C   UNL A   1      32.170  19.609  24.585  1.00  0.00     0.008 A 
ATOM     25  C   UNL A   1      34.928  19.716  24.961  1.00  0.00     0.001 A 
ATOM     26  C   UNL A   1      32.970  18.546  24.167  1.00  0.00     0.001 A 
ATOM     27  C   UNL A   1      34.349  18.599  24.358  1.00  0.00     0.000 A 
ENDBRANCH  21  22
ENDBRANCH  12  14
ENDBRANCH   5   7
ENDBRANCH   3   5
ENDBRANCH   2   3
ENDBRANCH   1   2
BRANCH   1  28
ATOM     28  C   UNL A   1      34.817  31.782  28.798  1.00  0.00     0.275 C 
BRANCH  28  29
ATOM     29  O   UNL A   1      35.626  30.620  28.555  1.00  0.00    -0.458 OA
BRANCH  29  30
ATOM     30  C   UNL A   1      36.229  30.094  29.643  1.00  0.00     0.338 C 
ATOM     31  O   UNL A   1      35.705  29.751  30.689  1.00  0.00    -0.246 OA
BRANCH  30  32
ATOM     32  C   UNL A   1      37.670  29.937  29.383  1.00  0.00     0.060 A 
ATOM     33  C   UNL A   1      38.132  29.815  28.075  1.00  0.00     0.016 A 
ATOM     34  C   UNL A   1      38.544  29.756  30.454  1.00  0.00     0.016 A 
ATOM     35  C   UNL A   1      39.432  29.377  27.835  1.00  0.00     0.010 A 
ATOM     36  C   UNL A   1      39.885  29.450  30.203  1.00  0.00     0.010 A 
ATOM     37  C   UNL A   1      40.337  29.210  28.894  1.00  0.00    -0.014 A 
BRANCH  37  38
ATOM     38  C   UNL A   1      41.741  28.774  28.645  1.00  0.00     0.031 A 
ATOM     39  C   UNL A   1      42.872  29.771  28.731  1.00  0.00     0.074 A 
ATOM     40  C   UNL A   1      42.010  27.492  28.321  1.00  0.00     0.049 A 
ATOM     41  N   UNL A   1      44.111  29.652  28.326  1.00  0.00    -0.248 NA
ATOM     42  C   UNL A   1      42.564  31.079  29.333  1.00  0.00     0.031 C 
ATOM     43  C   UNL A   1      41.029  26.406  28.250  1.00  0.00     0.029 A 
ATOM     44  N   UNL A   1      43.195  26.882  27.990  1.00  0.00    -0.354 N 
ATOM     45  C   UNL A   1      44.708  30.887  28.556  1.00  0.00     0.074 A 
ATOM     46  C   UNL A   1      43.698  31.741  29.143  1.00  0.00     0.031 C 
ATOM     47  C   UNL A   1      41.655  25.261  27.943  1.00  0.00     0.029 A 
ATOM     48  C   UNL A   1      43.060  25.548  27.686  1.00  0.00     0.049 A 
ATOM     49  H   UNL A   1      44.058  27.356  27.972  1.00  0.00     0.167 HD
ATOM     50  C   UNL A   1      45.980  31.275  28.292  1.00  0.00     0.031 A 
ATOM     51  C   UNL A   1      43.948  24.658  27.201  1.00  0.00     0.031 A 
ATOM     52  C   UNL A   1      46.993  30.403  27.755  1.00  0.00     0.049 A 
ATOM     53  C   UNL A   1      45.342  25.117  26.887  1.00  0.00     0.074 A 
ATOM     54  C   UNL A   1      48.316  30.693  27.471  1.00  0.00     0.029 A 
ATOM     55  N   UNL A   1      46.800  29.066  27.440  1.00  0.00    -0.354 N 
ATOM     56  N   UNL A   1      45.871  26.306  27.048  1.00  0.00    -0.248 NA
ATOM     57  C   UNL A   1      46.250  24.121  26.306  1.00  0.00     0.031 C 
ATOM     58  C   UNL A   1      48.913  29.542  26.945  1.00  0.00     0.029 A 
ATOM     59  C   UNL A   1      47.976  28.522  26.951  1.00  0.00     0.049 A 
ATOM     60  H   UNL A   1      45.954  28.577  27.549  1.00  0.00     0.167 HD
ATOM     61  C   UNL A   1      47.181  26.199  26.598  1.00  0.00     0.074 A 
ATOM     62  C   UNL A   1      47.367  24.824  26.178  1.00  0.00     0.031 C 
ATOM     63  C   UNL A   1      48.141  27.153  26.534  1.00  0.00     0.031 A 
BRANCH  50  64
ATOM     64  C   UNL A   1      46.340  32.719  28.532  1.00  0.00    -0.014 A 
ATOM     65  C   UNL A   1      46.129  33.709  27.557  1.00  0.00     0.010 A 
ATOM     66  C   UNL A   1      46.859  33.097  29.786  1.00  0.00     0.010 A 
ATOM     67  C   UNL A   1      46.464  35.042  27.817  1.00  0.00     0.020 A 
ATOM     68  C   UNL A   1      47.172  34.432  30.059  1.00  0.00     0.020 A 
ATOM     69  C   UNL A   1      46.988  35.394  29.065  1.00  0.00     0.054 A 
BRANCH  69  70
ATOM     70  S   UNL A   1      47.396  37.134  29.385  1.00  0.00     0.124 S 
ATOM     71  O   UNL A   1      47.453  37.684  28.034  1.00  0.00    -0.237 OA
ATOM     72  O   UNL A   1      46.270  37.584  30.199  1.00  0.00    -0.237 OA
ATOM     73  O   UNL A   1      48.677  37.067  30.083  1.00  0.00    -0.744 OA
ENDBRANCH  69  70
ENDBRANCH  50  64
BRANCH  51  74
ATOM     74  C   UNL A   1      43.519  23.259  26.930  1.00  0.00    -0.014 A 
ATOM     75  C   UNL A   1      43.507  22.758  25.618  1.00  0.00     0.010 A 
ATOM     76  C   UNL A   1      43.153  22.409  27.991  1.00  0.00     0.010 A 
ATOM     77  C   UNL A   1      43.132  21.434  25.370  1.00  0.00     0.020 A 
ATOM     78  C   UNL A   1      42.807  21.077  27.751  1.00  0.00     0.020 A 
ATOM     79  C   UNL A   1      42.790  20.601  26.439  1.00  0.00     0.054 A 
BRANCH  79  80
ATOM     80  S   UNL A   1      42.374  18.866  26.105  1.00  0.00     0.124 S 
ATOM     81  O   UNL A   1      42.550  18.254  27.418  1.00  0.00    -0.237 OA
ATOM     82  O   UNL A   1      40.995  18.956  25.629  1.00  0.00    -0.237 OA
ATOM     83  O   UNL A   1      43.350  18.471  25.092  1.00  0.00    -0.744 OA
ENDBRANCH  79  80
ENDBRANCH  51  74
BRANCH  63  84
ATOM     84  C   UNL A   1      49.490  26.731  26.022  1.00  0.00    -0.014 A 
ATOM     85  C   UNL A   1      49.869  26.970  24.690  1.00  0.00     0.010 A 
ATOM     86  C   UNL A   1      50.403  26.120  26.900  1.00  0.00     0.010 A 
ATOM     87  C   UNL A   1      51.128  26.575  24.234  1.00  0.00     0.020 A 
ATOM     88  C   UNL A   1      51.672  25.745  26.455  1.00  0.00     0.020 A 
ATOM     89  C   UNL A   1      52.022  25.962  25.120  1.00  0.00     0.054 A 
BRANCH  89  90
ATOM     90  S   UNL A   1      53.665  25.489  24.517  1.00  0.00     0.124 S 
ATOM     91  O   UNL A   1      53.675  24.048  24.758  1.00  0.00    -0.237 OA
ATOM     92  O   UNL A   1      53.621  25.890  23.112  1.00  0.00    -0.237 OA
ATOM     93  O   UNL A   1      54.577  26.267  25.351  1.00  0.00    -0.744 OA
ENDBRANCH  89  90
ENDBRANCH  63  84
ENDBRANCH  37  38
ENDBRANCH  30  32
ENDBRANCH  29  30
ENDBRANCH  28  29
ENDBRANCH   1  28
TORSDOF 17
ENDMDL
