MODEL 1
REMARK VINA RESULT:     -11.1      0.000      0.000
REMARK SMILES O=C(OCCOC(=O)[C@H]1CCC(=O)N(C2CCCCC2)[C@H]1c1ccccc1)c1ccc(-c2c3nc(c(-c4ccc(S(=O)(=O)[O-])cc4)c4ccc([nH]4)c(-c4ccc(S(=O)(=O)[O-])cc4)c4nc(c(-c5ccc(S(=O)(=O)[O-])cc5)c5ccc2[nH]5)C=C4)C=C3)cc1
REMARK SMILES IDX 4 1 3 2 2 3 1 4 28 5 29 6 87 7 30 8 86 9 31 10 32 11 33 12
REMARK SMILES IDX 80 13 34 14 85 15 79 16 81 17 35 18 84 19 78 20 77 21 36 23
REMARK SMILES IDX 66 24 47 25 65 26 48 27 51 28 64 29 82 30 49 31 50 32 63 34
REMARK SMILES IDX 83 35 52 36 37 37 38 38 46 39 39 40 45 41 40 42 41 43 42 44
REMARK SMILES IDX 43 45 44 46 67 47 68 48 76 49 69 50 75 51 70 52 71 53 72 54
REMARK SMILES IDX 73 55 74 56 53 57 54 58 62 59 55 60 61 61 56 62 57 63 58 64
REMARK SMILES IDX 59 65 60 66 5 67 6 68 7 69 8 70 9 71 10 72 21 73 11 74 14 75
REMARK SMILES IDX 12 76 13 77 22 78 23 79 27 80 24 81 26 82 25 83 15 84 16 85
REMARK SMILES IDX 20 86 17 87 19 88 18 89
REMARK H PARENT 81 22 51 33
REMARK Flexibility Score: inf
ROOT
ATOM      1  C   UNL A   1      33.063  28.255  27.479  1.00  0.00     0.275 C 
ENDROOT
BRANCH   1   2
ATOM      2  O   UNL A   1      33.653  29.444  26.921  1.00  0.00    -0.458 OA
BRANCH   2   3
ATOM      3  C   UNL A   1      34.415  30.397  27.510  1.00  0.00     0.338 C 
ATOM      4  O   UNL A   1      34.046  31.569  27.484  1.00  0.00    -0.246 OA
BRANCH   3   5
ATOM      5  C   UNL A   1      35.762  30.102  28.077  1.00  0.00     0.060 A 
ATOM      6  C   UNL A   1      36.958  30.165  27.359  1.00  0.00     0.016 A 
ATOM      7  C   UNL A   1      35.810  29.709  29.425  1.00  0.00     0.016 A 
ATOM      8  C   UNL A   1      38.189  29.971  27.993  1.00  0.00     0.010 A 
ATOM      9  C   UNL A   1      37.037  29.489  30.058  1.00  0.00     0.010 A 
ATOM     10  C   UNL A   1      38.239  29.640  29.346  1.00  0.00    -0.014 A 
BRANCH  10  11
ATOM     11  C   UNL A   1      39.535  29.265  29.958  1.00  0.00     0.031 A 
ATOM     12  C   UNL A   1      40.072  30.174  31.020  1.00  0.00     0.074 A 
ATOM     13  C   UNL A   1      40.185  28.125  29.644  1.00  0.00     0.049 A 
ATOM     14  N   UNL A   1      41.098  29.987  31.802  1.00  0.00    -0.248 NA
ATOM     15  C   UNL A   1      39.311  31.407  31.299  1.00  0.00     0.031 C 
ATOM     16  C   UNL A   1      39.702  27.074  28.755  1.00  0.00     0.029 A 
ATOM     17  N   UNL A   1      41.429  27.676  30.011  1.00  0.00    -0.354 N 
ATOM     18  C   UNL A   1      41.033  31.007  32.737  1.00  0.00     0.074 A 
ATOM     19  C   UNL A   1      39.954  31.886  32.352  1.00  0.00     0.031 C 
ATOM     20  C   UNL A   1      40.696  26.208  28.492  1.00  0.00     0.029 A 
ATOM     21  C   UNL A   1      41.853  26.580  29.289  1.00  0.00     0.049 A 
ATOM     22  H   UNL A   1      41.966  28.094  30.721  1.00  0.00     0.167 HD
ATOM     23  C   UNL A   1      41.761  31.144  33.866  1.00  0.00     0.031 A 
ATOM     24  C   UNL A   1      43.032  25.931  29.295  1.00  0.00     0.031 A 
ATOM     25  C   UNL A   1      42.876  30.302  34.190  1.00  0.00     0.049 A 
ATOM     26  C   UNL A   1      43.982  26.255  30.411  1.00  0.00     0.074 A 
ATOM     27  C   UNL A   1      43.714  30.363  35.286  1.00  0.00     0.029 A 
ATOM     28  N   UNL A   1      43.326  29.257  33.393  1.00  0.00    -0.354 N 
ATOM     29  N   UNL A   1      43.856  27.164  31.351  1.00  0.00    -0.248 NA
ATOM     30  C   UNL A   1      45.168  25.403  30.545  1.00  0.00     0.031 C 
ATOM     31  C   UNL A   1      44.713  29.398  35.117  1.00  0.00     0.029 A 
ATOM     32  C   UNL A   1      44.457  28.692  33.949  1.00  0.00     0.049 A 
ATOM     33  H   UNL A   1      42.902  28.963  32.553  1.00  0.00     0.167 HD
ATOM     34  C   UNL A   1      44.903  26.943  32.232  1.00  0.00     0.074 A 
ATOM     35  C   UNL A   1      45.657  25.821  31.704  1.00  0.00     0.031 C 
ATOM     36  C   UNL A   1      45.197  27.587  33.390  1.00  0.00     0.031 A 
BRANCH  23  37
ATOM     37  C   UNL A   1      41.342  32.232  34.808  1.00  0.00    -0.014 A 
ATOM     38  C   UNL A   1      41.926  33.512  34.720  1.00  0.00     0.010 A 
ATOM     39  C   UNL A   1      40.375  31.985  35.794  1.00  0.00     0.010 A 
ATOM     40  C   UNL A   1      41.569  34.517  35.620  1.00  0.00     0.020 A 
ATOM     41  C   UNL A   1      39.998  32.996  36.684  1.00  0.00     0.020 A 
ATOM     42  C   UNL A   1      40.605  34.251  36.597  1.00  0.00     0.054 A 
BRANCH  42  43
ATOM     43  S   UNL A   1      40.139  35.583  37.735  1.00  0.00     0.124 S 
ATOM     44  O   UNL A   1      39.830  36.675  36.814  1.00  0.00    -0.237 OA
ATOM     45  O   UNL A   1      38.992  35.012  38.438  1.00  0.00    -0.237 OA
ATOM     46  O   UNL A   1      41.333  35.777  38.553  1.00  0.00    -0.744 OA
ENDBRANCH  42  43
ENDBRANCH  23  37
BRANCH  24  47
ATOM     47  C   UNL A   1      43.338  24.877  28.285  1.00  0.00    -0.014 A 
ATOM     48  C   UNL A   1      44.023  25.172  27.094  1.00  0.00     0.010 A 
ATOM     49  C   UNL A   1      42.906  23.554  28.506  1.00  0.00     0.010 A 
ATOM     50  C   UNL A   1      44.229  24.182  26.126  1.00  0.00     0.020 A 
ATOM     51  C   UNL A   1      43.125  22.556  27.549  1.00  0.00     0.020 A 
ATOM     52  C   UNL A   1      43.771  22.880  26.356  1.00  0.00     0.054 A 
BRANCH  52  53
ATOM     53  S   UNL A   1      44.049  21.619  25.078  1.00  0.00     0.124 S 
ATOM     54  O   UNL A   1      45.417  21.196  25.358  1.00  0.00    -0.237 OA
ATOM     55  O   UNL A   1      43.010  20.636  25.378  1.00  0.00    -0.237 OA
ATOM     56  O   UNL A   1      43.863  22.348  23.826  1.00  0.00    -0.744 OA
ENDBRANCH  52  53
ENDBRANCH  24  47
BRANCH  36  57
ATOM     57  C   UNL A   1      46.371  27.070  34.170  1.00  0.00    -0.014 A 
ATOM     58  C   UNL A   1      47.663  27.582  33.964  1.00  0.00     0.010 A 
ATOM     59  C   UNL A   1      46.168  26.076  35.146  1.00  0.00     0.010 A 
ATOM     60  C   UNL A   1      48.742  27.075  34.688  1.00  0.00     0.020 A 
ATOM     61  C   UNL A   1      47.239  25.594  35.898  1.00  0.00     0.020 A 
ATOM     62  C   UNL A   1      48.522  26.083  35.648  1.00  0.00     0.054 A 
BRANCH  62  63
ATOM     63  S   UNL A   1      49.938  25.463  36.595  1.00  0.00     0.124 S 
ATOM     64  O   UNL A   1      50.128  26.522  37.582  1.00  0.00    -0.237 OA
ATOM     65  O   UNL A   1      49.440  24.194  37.120  1.00  0.00    -0.237 OA
ATOM     66  O   UNL A   1      50.997  25.345  35.595  1.00  0.00    -0.744 OA
ENDBRANCH  62  63
ENDBRANCH  36  57
ENDBRANCH  10  11
ENDBRANCH   3   5
ENDBRANCH   2   3
ENDBRANCH   1   2
BRANCH   1  67
ATOM     67  C   UNL A   1      31.566  28.055  27.234  1.00  0.00     0.274 C 
BRANCH  67  68
ATOM     68  O   UNL A   1      31.181  26.735  26.830  1.00  0.00    -0.462 OA
BRANCH  68  69
ATOM     69  C   UNL A   1      30.789  26.604  25.531  1.00  0.00     0.311 C 
ATOM     70  O   UNL A   1      30.232  27.485  24.894  1.00  0.00    -0.252 OA
BRANCH  69  71
ATOM     71  C   UNL A   1      31.182  25.266  24.925  1.00  0.00     0.127 C 
ATOM     72  C   UNL A   1      30.461  24.912  23.638  1.00  0.00     0.028 C 
ATOM     73  C   UNL A   1      32.692  25.121  24.678  1.00  0.00     0.130 C 
ATOM     74  C   UNL A   1      30.716  23.463  23.280  1.00  0.00     0.101 C 
ATOM     75  N   UNL A   1      32.996  23.728  24.246  1.00  0.00    -0.332 N 
ATOM     76  C   UNL A   1      32.112  22.950  23.505  1.00  0.00     0.223 C 
ATOM     77  O   UNL A   1      32.386  21.825  23.086  1.00  0.00    -0.275 OA
BRANCH  73  78
ATOM     78  C   UNL A   1      33.235  26.190  23.722  1.00  0.00    -0.025 A 
ATOM     79  C   UNL A   1      33.155  26.073  22.326  1.00  0.00     0.006 A 
ATOM     80  C   UNL A   1      33.768  27.385  24.243  1.00  0.00     0.006 A 
ATOM     81  C   UNL A   1      33.575  27.110  21.490  1.00  0.00     0.000 A 
ATOM     82  C   UNL A   1      34.142  28.440  23.411  1.00  0.00     0.000 A 
ATOM     83  C   UNL A   1      34.050  28.301  22.032  1.00  0.00     0.000 A 
ENDBRANCH  73  78
BRANCH  75  84
ATOM     84  C   UNL A   1      34.326  23.172  24.559  1.00  0.00     0.085 C 
ATOM     85  C   UNL A   1      35.278  23.275  23.348  1.00  0.00     0.025 C 
ATOM     86  C   UNL A   1      34.929  23.785  25.838  1.00  0.00     0.025 C 
ATOM     87  C   UNL A   1      36.688  22.794  23.673  1.00  0.00     0.002 C 
ATOM     88  C   UNL A   1      36.340  23.284  26.112  1.00  0.00     0.002 C 
ATOM     89  C   UNL A   1      37.246  23.494  24.907  1.00  0.00     0.000 C 
ENDBRANCH  75  84
ENDBRANCH  69  71
ENDBRANCH  68  69
ENDBRANCH  67  68
ENDBRANCH   1  67
TORSDOF 16
ENDMDL
MODEL 2
REMARK VINA RESULT:     -10.9      4.339      9.706
REMARK SMILES O=C(OCCOC(=O)[C@H]1CCC(=O)N(C2CCCCC2)[C@H]1c1ccccc1)c1ccc(-c2c3nc(c(-c4ccc(S(=O)(=O)[O-])cc4)c4ccc([nH]4)c(-c4ccc(S(=O)(=O)[O-])cc4)c4nc(c(-c5ccc(S(=O)(=O)[O-])cc5)c5ccc2[nH]5)C=C4)C=C3)cc1
REMARK SMILES IDX 4 1 3 2 2 3 1 4 28 5 29 6 87 7 30 8 86 9 31 10 32 11 33 12
REMARK SMILES IDX 80 13 34 14 85 15 79 16 81 17 35 18 84 19 78 20 77 21 36 23
REMARK SMILES IDX 66 24 47 25 65 26 48 27 51 28 64 29 82 30 49 31 50 32 63 34
REMARK SMILES IDX 83 35 52 36 37 37 38 38 46 39 39 40 45 41 40 42 41 43 42 44
REMARK SMILES IDX 43 45 44 46 67 47 68 48 76 49 69 50 75 51 70 52 71 53 72 54
REMARK SMILES IDX 73 55 74 56 53 57 54 58 62 59 55 60 61 61 56 62 57 63 58 64
REMARK SMILES IDX 59 65 60 66 5 67 6 68 7 69 8 70 9 71 10 72 21 73 11 74 14 75
REMARK SMILES IDX 12 76 13 77 22 78 23 79 27 80 24 81 26 82 25 83 15 84 16 85
REMARK SMILES IDX 20 86 17 87 19 88 18 89
REMARK H PARENT 81 22 51 33
REMARK Flexibility Score: inf
ROOT
ATOM      1  C   UNL A   1      36.693  21.886  24.761  1.00  0.00     0.275 C 
ENDROOT
BRANCH   1   2
ATOM      2  O   UNL A   1      37.324  22.563  25.863  1.00  0.00    -0.458 OA
BRANCH   2   3
ATOM      3  C   UNL A   1      38.637  22.693  26.170  1.00  0.00     0.338 C 
ATOM      4  O   UNL A   1      39.360  21.698  26.174  1.00  0.00    -0.246 OA
BRANCH   3   5
ATOM      5  C   UNL A   1      39.221  23.982  26.639  1.00  0.00     0.060 A 
ATOM      6  C   UNL A   1      40.006  24.831  25.855  1.00  0.00     0.016 A 
ATOM      7  C   UNL A   1      38.975  24.341  27.974  1.00  0.00     0.016 A 
ATOM      8  C   UNL A   1      40.430  26.071  26.341  1.00  0.00     0.010 A 
ATOM      9  C   UNL A   1      39.419  25.569  28.473  1.00  0.00     0.010 A 
ATOM     10  C   UNL A   1      40.135  26.453  27.648  1.00  0.00    -0.014 A 
BRANCH  10  11
ATOM     11  C   UNL A   1      40.739  27.686  28.203  1.00  0.00     0.031 A 
ATOM     12  C   UNL A   1      42.229  27.700  28.360  1.00  0.00     0.074 A 
ATOM     13  C   UNL A   1      40.014  28.786  28.493  1.00  0.00     0.049 A 
ATOM     14  N   UNL A   1      42.999  28.702  28.679  1.00  0.00    -0.248 NA
ATOM     15  C   UNL A   1      42.952  26.456  28.034  1.00  0.00     0.031 C 
ATOM     16  C   UNL A   1      38.588  28.970  28.238  1.00  0.00     0.029 A 
ATOM     17  N   UNL A   1      40.373  29.956  29.114  1.00  0.00    -0.354 N 
ATOM     18  C   UNL A   1      44.292  28.247  28.473  1.00  0.00     0.074 A 
ATOM     19  C   UNL A   1      44.213  26.845  28.134  1.00  0.00     0.031 C 
ATOM     20  C   UNL A   1      38.155  30.080  28.860  1.00  0.00     0.029 A 
ATOM     21  C   UNL A   1      39.298  30.747  29.459  1.00  0.00     0.049 A 
ATOM     22  H   UNL A   1      41.307  30.207  29.294  1.00  0.00     0.167 HD
ATOM     23  C   UNL A   1      45.434  28.965  28.484  1.00  0.00     0.031 A 
ATOM     24  C   UNL A   1      39.247  31.898  30.155  1.00  0.00     0.031 A 
ATOM     25  C   UNL A   1      45.497  30.338  28.894  1.00  0.00     0.049 A 
ATOM     26  C   UNL A   1      40.551  32.600  30.408  1.00  0.00     0.074 A 
ATOM     27  C   UNL A   1      46.601  31.163  28.984  1.00  0.00     0.029 A 
ATOM     28  N   UNL A   1      44.402  31.080  29.319  1.00  0.00    -0.354 N 
ATOM     29  N   UNL A   1      41.765  32.194  30.114  1.00  0.00    -0.248 NA
ATOM     30  C   UNL A   1      40.481  33.951  30.972  1.00  0.00     0.031 C 
ATOM     31  C   UNL A   1      46.183  32.383  29.525  1.00  0.00     0.029 A 
ATOM     32  C   UNL A   1      44.808  32.340  29.711  1.00  0.00     0.049 A 
ATOM     33  H   UNL A   1      43.472  30.754  29.337  1.00  0.00     0.167 HD
ATOM     34  C   UNL A   1      42.597  33.269  30.385  1.00  0.00     0.074 A 
ATOM     35  C   UNL A   1      41.746  34.337  30.875  1.00  0.00     0.031 C 
ATOM     36  C   UNL A   1      43.939  33.376  30.213  1.00  0.00     0.031 A 
BRANCH  23  37
ATOM     37  C   UNL A   1      46.675  28.261  28.021  1.00  0.00    -0.014 A 
ATOM     38  C   UNL A   1      47.480  27.561  28.943  1.00  0.00     0.010 A 
ATOM     39  C   UNL A   1      47.054  28.303  26.671  1.00  0.00     0.010 A 
ATOM     40  C   UNL A   1      48.657  26.938  28.526  1.00  0.00     0.020 A 
ATOM     41  C   UNL A   1      48.221  27.661  26.245  1.00  0.00     0.020 A 
ATOM     42  C   UNL A   1      49.019  26.992  27.177  1.00  0.00     0.054 A 
BRANCH  42  43
ATOM     43  S   UNL A   1      50.538  26.150  26.656  1.00  0.00     0.124 S 
ATOM     44  O   UNL A   1      50.370  24.826  27.253  1.00  0.00    -0.237 OA
ATOM     45  O   UNL A   1      50.443  26.198  25.199  1.00  0.00    -0.237 OA
ATOM     46  O   UNL A   1      51.603  26.963  27.236  1.00  0.00    -0.744 OA
ENDBRANCH  42  43
ENDBRANCH  23  37
BRANCH  24  47
ATOM     47  C   UNL A   1      37.944  32.489  30.576  1.00  0.00    -0.014 A 
ATOM     48  C   UNL A   1      37.143  33.221  29.683  1.00  0.00     0.010 A 
ATOM     49  C   UNL A   1      37.511  32.344  31.908  1.00  0.00     0.010 A 
ATOM     50  C   UNL A   1      35.963  33.834  30.122  1.00  0.00     0.020 A 
ATOM     51  C   UNL A   1      36.322  32.939  32.348  1.00  0.00     0.020 A 
ATOM     52  C   UNL A   1      35.563  33.696  31.454  1.00  0.00     0.054 A 
BRANCH  52  53
ATOM     53  S   UNL A   1      34.029  34.507  31.995  1.00  0.00     0.124 S 
ATOM     54  O   UNL A   1      34.534  35.709  32.650  1.00  0.00    -0.237 OA
ATOM     55  O   UNL A   1      33.329  34.724  30.730  1.00  0.00    -0.237 OA
ATOM     56  O   UNL A   1      33.411  33.523  32.880  1.00  0.00    -0.744 OA
ENDBRANCH  52  53
ENDBRANCH  24  47
BRANCH  36  57
ATOM     57  C   UNL A   1      44.557  34.706  30.536  1.00  0.00    -0.014 A 
ATOM     58  C   UNL A   1      44.641  35.722  29.571  1.00  0.00     0.010 A 
ATOM     59  C   UNL A   1      45.032  34.947  31.839  1.00  0.00     0.010 A 
ATOM     60  C   UNL A   1      45.235  36.944  29.888  1.00  0.00     0.020 A 
ATOM     61  C   UNL A   1      45.592  36.181  32.170  1.00  0.00     0.020 A 
ATOM     62  C   UNL A   1      45.708  37.164  31.185  1.00  0.00     0.054 A 
BRANCH  62  63
ATOM     63  S   UNL A   1      46.448  38.770  31.578  1.00  0.00     0.124 S 
ATOM     64  O   UNL A   1      47.548  38.838  30.620  1.00  0.00    -0.237 OA
ATOM     65  O   UNL A   1      45.346  39.698  31.338  1.00  0.00    -0.237 OA
ATOM     66  O   UNL A   1      46.848  38.634  32.977  1.00  0.00    -0.744 OA
ENDBRANCH  62  63
ENDBRANCH  36  57
ENDBRANCH  10  11
ENDBRANCH   3   5
ENDBRANCH   2   3
ENDBRANCH   1   2
BRANCH   1  67
ATOM     67  C   UNL A   1      36.515  22.694  23.474  1.00  0.00     0.274 C 
BRANCH  67  68
ATOM     68  O   UNL A   1      35.642  23.826  23.575  1.00  0.00    -0.462 OA
BRANCH  68  69
ATOM     69  C   UNL A   1      34.369  23.636  23.125  1.00  0.00     0.311 C 
ATOM     70  O   UNL A   1      33.862  22.537  22.960  1.00  0.00    -0.252 OA
BRANCH  69  71
ATOM     71  C   UNL A   1      33.612  24.938  22.917  1.00  0.00     0.127 C 
ATOM     72  C   UNL A   1      32.315  24.805  22.143  1.00  0.00     0.028 C 
ATOM     73  C   UNL A   1      33.311  25.691  24.222  1.00  0.00     0.130 C 
ATOM     74  C   UNL A   1      31.796  26.174  21.757  1.00  0.00     0.101 C 
ATOM     75  N   UNL A   1      32.723  27.022  23.906  1.00  0.00    -0.332 N 
ATOM     76  C   UNL A   1      31.927  27.259  22.790  1.00  0.00     0.223 C 
ATOM     77  O   UNL A   1      31.382  28.340  22.562  1.00  0.00    -0.275 OA
BRANCH  73  78
ATOM     78  C   UNL A   1      32.460  24.862  25.194  1.00  0.00    -0.025 A 
ATOM     79  C   UNL A   1      31.063  24.781  25.102  1.00  0.00     0.006 A 
ATOM     80  C   UNL A   1      33.093  24.079  26.178  1.00  0.00     0.006 A 
ATOM     81  C   UNL A   1      30.332  23.942  25.946  1.00  0.00     0.000 A 
ATOM     82  C   UNL A   1      32.369  23.203  26.988  1.00  0.00     0.000 A 
ATOM     83  C   UNL A   1      30.986  23.138  26.876  1.00  0.00     0.000 A 
ENDBRANCH  73  78
BRANCH  75  84
ATOM     84  C   UNL A   1      32.938  28.128  24.860  1.00  0.00     0.085 C 
ATOM     85  C   UNL A   1      31.700  28.348  25.756  1.00  0.00     0.025 C 
ATOM     86  C   UNL A   1      34.234  27.950  25.676  1.00  0.00     0.025 C 
ATOM     87  C   UNL A   1      31.930  29.421  26.814  1.00  0.00     0.002 C 
ATOM     88  C   UNL A   1      34.411  29.038  26.726  1.00  0.00     0.002 C 
ATOM     89  C   UNL A   1      33.189  29.142  27.628  1.00  0.00     0.000 C 
ENDBRANCH  75  84
ENDBRANCH  69  71
ENDBRANCH  68  69
ENDBRANCH  67  68
ENDBRANCH   1  67
TORSDOF 16
ENDMDL
MODEL 3
REMARK VINA RESULT:     -10.8      3.340      9.267
REMARK SMILES O=C(OCCOC(=O)[C@H]1CCC(=O)N(C2CCCCC2)[C@H]1c1ccccc1)c1ccc(-c2c3nc(c(-c4ccc(S(=O)(=O)[O-])cc4)c4ccc([nH]4)c(-c4ccc(S(=O)(=O)[O-])cc4)c4nc(c(-c5ccc(S(=O)(=O)[O-])cc5)c5ccc2[nH]5)C=C4)C=C3)cc1
REMARK SMILES IDX 4 1 3 2 2 3 1 4 28 5 29 6 87 7 30 8 86 9 31 10 32 11 33 12
REMARK SMILES IDX 80 13 34 14 85 15 79 16 81 17 35 18 84 19 78 20 77 21 36 23
REMARK SMILES IDX 66 24 47 25 65 26 48 27 51 28 64 29 82 30 49 31 50 32 63 34
REMARK SMILES IDX 83 35 52 36 37 37 38 38 46 39 39 40 45 41 40 42 41 43 42 44
REMARK SMILES IDX 43 45 44 46 67 47 68 48 76 49 69 50 75 51 70 52 71 53 72 54
REMARK SMILES IDX 73 55 74 56 53 57 54 58 62 59 55 60 61 61 56 62 57 63 58 64
REMARK SMILES IDX 59 65 60 66 5 67 6 68 7 69 8 70 9 71 10 72 21 73 11 74 14 75
REMARK SMILES IDX 12 76 13 77 22 78 23 79 27 80 24 81 26 82 25 83 15 84 16 85
REMARK SMILES IDX 20 86 17 87 19 88 18 89
REMARK H PARENT 81 22 51 33
REMARK Flexibility Score: inf
ROOT
ATOM      1  C   UNL A   1      37.073  23.351  25.578  1.00  0.00     0.275 C 
ENDROOT
BRANCH   1   2
ATOM      2  O   UNL A   1      38.166  22.470  25.895  1.00  0.00    -0.458 OA
BRANCH   2   3
ATOM      3  C   UNL A   1      39.411  22.755  26.348  1.00  0.00     0.338 C 
ATOM      4  O   UNL A   1      40.262  21.868  26.382  1.00  0.00    -0.246 OA
BRANCH   3   5
ATOM      5  C   UNL A   1      39.759  24.079  26.939  1.00  0.00     0.060 A 
ATOM      6  C   UNL A   1      40.604  25.018  26.343  1.00  0.00     0.016 A 
ATOM      7  C   UNL A   1      39.208  24.377  28.195  1.00  0.00     0.016 A 
ATOM      8  C   UNL A   1      40.798  26.278  26.917  1.00  0.00     0.010 A 
ATOM      9  C   UNL A   1      39.418  25.626  28.786  1.00  0.00     0.010 A 
ATOM     10  C   UNL A   1      40.202  26.595  28.136  1.00  0.00    -0.014 A 
BRANCH  10  11
ATOM     11  C   UNL A   1      40.557  27.862  28.815  1.00  0.00     0.031 A 
ATOM     12  C   UNL A   1      41.851  27.888  29.570  1.00  0.00     0.074 A 
ATOM     13  C   UNL A   1      39.805  28.978  28.714  1.00  0.00     0.049 A 
ATOM     14  N   UNL A   1      42.448  28.911  30.116  1.00  0.00    -0.248 NA
ATOM     15  C   UNL A   1      42.612  26.627  29.646  1.00  0.00     0.031 C 
ATOM     16  C   UNL A   1      38.615  29.143  27.884  1.00  0.00     0.029 A 
ATOM     17  N   UNL A   1      39.908  30.187  29.355  1.00  0.00    -0.354 N 
ATOM     18  C   UNL A   1      43.699  28.444  30.488  1.00  0.00     0.074 A 
ATOM     19  C   UNL A   1      43.730  27.023  30.232  1.00  0.00     0.031 C 
ATOM     20  C   UNL A   1      37.994  30.291  28.205  1.00  0.00     0.029 A 
ATOM     21  C   UNL A   1      38.807  30.998  29.179  1.00  0.00     0.049 A 
ATOM     22  H   UNL A   1      40.692  30.450  29.888  1.00  0.00     0.167 HD
ATOM     23  C   UNL A   1      44.755  29.163  30.924  1.00  0.00     0.031 A 
ATOM     24  C   UNL A   1      38.505  32.192  29.721  1.00  0.00     0.031 A 
ATOM     25  C   UNL A   1      44.679  30.560  31.240  1.00  0.00     0.049 A 
ATOM     26  C   UNL A   1      39.608  32.910  30.445  1.00  0.00     0.074 A 
ATOM     27  C   UNL A   1      45.670  31.391  31.726  1.00  0.00     0.029 A 
ATOM     28  N   UNL A   1      43.526  31.327  31.131  1.00  0.00    -0.354 N 
ATOM     29  N   UNL A   1      40.824  32.488  30.702  1.00  0.00    -0.248 NA
ATOM     30  C   UNL A   1      39.347  34.296  30.848  1.00  0.00     0.031 C 
ATOM     31  C   UNL A   1      45.098  32.643  31.973  1.00  0.00     0.029 A 
ATOM     32  C   UNL A   1      43.767  32.611  31.579  1.00  0.00     0.049 A 
ATOM     33  H   UNL A   1      42.662  31.002  30.785  1.00  0.00     0.167 HD
ATOM     34  C   UNL A   1      41.499  33.579  31.226  1.00  0.00     0.074 A 
ATOM     35  C   UNL A   1      40.550  34.676  31.257  1.00  0.00     0.031 C 
ATOM     36  C   UNL A   1      42.796  33.676  31.615  1.00  0.00     0.031 A 
BRANCH  23  37
ATOM     37  C   UNL A   1      46.057  28.432  31.057  1.00  0.00    -0.014 A 
ATOM     38  C   UNL A   1      46.407  27.819  32.277  1.00  0.00     0.010 A 
ATOM     39  C   UNL A   1      46.946  28.361  29.973  1.00  0.00     0.010 A 
ATOM     40  C   UNL A   1      47.635  27.172  32.418  1.00  0.00     0.020 A 
ATOM     41  C   UNL A   1      48.168  27.694  30.104  1.00  0.00     0.020 A 
ATOM     42  C   UNL A   1      48.508  27.113  31.329  1.00  0.00     0.054 A 
BRANCH  42  43
ATOM     43  S   UNL A   1      50.085  26.241  31.530  1.00  0.00     0.124 S 
ATOM     44  O   UNL A   1      50.766  27.073  32.521  1.00  0.00    -0.237 OA
ATOM     45  O   UNL A   1      49.661  24.925  32.002  1.00  0.00    -0.237 OA
ATOM     46  O   UNL A   1      50.668  26.263  30.192  1.00  0.00    -0.744 OA
ENDBRANCH  42  43
ENDBRANCH  23  37
BRANCH  24  47
ATOM     47  C   UNL A   1      37.160  32.808  29.533  1.00  0.00    -0.014 A 
ATOM     48  C   UNL A   1      36.828  33.512  28.362  1.00  0.00     0.010 A 
ATOM     49  C   UNL A   1      36.200  32.715  30.560  1.00  0.00     0.010 A 
ATOM     50  C   UNL A   1      35.587  34.149  28.241  1.00  0.00     0.020 A 
ATOM     51  C   UNL A   1      34.951  33.335  30.436  1.00  0.00     0.020 A 
ATOM     52  C   UNL A   1      34.658  34.064  29.283  1.00  0.00     0.054 A 
BRANCH  52  53
ATOM     53  S   UNL A   1      33.059  34.906  29.097  1.00  0.00     0.124 S 
ATOM     54  O   UNL A   1      32.384  34.066  28.113  1.00  0.00    -0.237 OA
ATOM     55  O   UNL A   1      32.518  34.850  30.454  1.00  0.00    -0.237 OA
ATOM     56  O   UNL A   1      33.423  36.243  28.635  1.00  0.00    -0.744 OA
ENDBRANCH  52  53
ENDBRANCH  24  47
BRANCH  36  57
ATOM     57  C   UNL A   1      43.261  35.025  32.083  1.00  0.00    -0.014 A 
ATOM     58  C   UNL A   1      43.144  35.407  33.429  1.00  0.00     0.010 A 
ATOM     59  C   UNL A   1      43.850  35.910  31.160  1.00  0.00     0.010 A 
ATOM     60  C   UNL A   1      43.566  36.672  33.839  1.00  0.00     0.020 A 
ATOM     61  C   UNL A   1      44.308  37.161  31.574  1.00  0.00     0.020 A 
ATOM     62  C   UNL A   1      44.144  37.540  32.908  1.00  0.00     0.054 A 
BRANCH  62  63
ATOM     63  S   UNL A   1      44.710  39.166  33.473  1.00  0.00     0.124 S 
ATOM     64  O   UNL A   1      45.026  39.831  32.211  1.00  0.00    -0.237 OA
ATOM     65  O   UNL A   1      43.543  39.683  34.182  1.00  0.00    -0.237 OA
ATOM     66  O   UNL A   1      45.860  38.857  34.319  1.00  0.00    -0.744 OA
ENDBRANCH  62  63
ENDBRANCH  36  57
ENDBRANCH  10  11
ENDBRANCH   3   5
ENDBRANCH   2   3
ENDBRANCH   1   2
BRANCH   1  67
ATOM     67  C   UNL A   1      36.239  22.989  24.347  1.00  0.00     0.274 C 
BRANCH  67  68
ATOM     68  O   UNL A   1      35.637  24.097  23.665  1.00  0.00    -0.462 OA
BRANCH  68  69
ATOM     69  C   UNL A   1      34.445  23.841  23.055  1.00  0.00     0.311 C 
ATOM     70  O   UNL A   1      34.075  22.724  22.722  1.00  0.00    -0.252 OA
BRANCH  69  71
ATOM     71  C   UNL A   1      33.582  25.082  22.893  1.00  0.00     0.127 C 
ATOM     72  C   UNL A   1      32.300  24.870  22.110  1.00  0.00     0.028 C 
ATOM     73  C   UNL A   1      33.219  25.759  24.223  1.00  0.00     0.130 C 
ATOM     74  C   UNL A   1      31.669  26.204  21.773  1.00  0.00     0.101 C 
ATOM     75  N   UNL A   1      32.523  27.047  23.955  1.00  0.00    -0.332 N 
ATOM     76  C   UNL A   1      31.709  27.258  22.845  1.00  0.00     0.223 C 
ATOM     77  O   UNL A   1      31.076  28.297  22.656  1.00  0.00    -0.275 OA
BRANCH  73  78
ATOM     78  C   UNL A   1      32.441  24.827  25.162  1.00  0.00    -0.025 A 
ATOM     79  C   UNL A   1      31.118  24.431  24.915  1.00  0.00     0.006 A 
ATOM     80  C   UNL A   1      33.087  24.269  26.282  1.00  0.00     0.006 A 
ATOM     81  C   UNL A   1      30.475  23.507  25.742  1.00  0.00     0.000 A 
ATOM     82  C   UNL A   1      32.463  23.309  27.080  1.00  0.00     0.000 A 
ATOM     83  C   UNL A   1      31.154  22.932  26.813  1.00  0.00     0.000 A 
ENDBRANCH  73  78
BRANCH  75  84
ATOM     84  C   UNL A   1      32.645  28.131  24.949  1.00  0.00     0.085 C 
ATOM     85  C   UNL A   1      31.615  27.969  26.088  1.00  0.00     0.025 C 
ATOM     86  C   UNL A   1      34.086  28.281  25.473  1.00  0.00     0.025 C 
ATOM     87  C   UNL A   1      31.782  29.022  27.178  1.00  0.00     0.002 C 
ATOM     88  C   UNL A   1      34.199  29.334  26.568  1.00  0.00     0.002 C 
ATOM     89  C   UNL A   1      33.214  29.065  27.698  1.00  0.00     0.000 C 
ENDBRANCH  75  84
ENDBRANCH  69  71
ENDBRANCH  68  69
ENDBRANCH  67  68
ENDBRANCH   1  67
TORSDOF 16
ENDMDL
