MODEL 1
REMARK VINA RESULT:     -11.4      0.000      0.000
REMARK SMILES CSc1nc2nnc(C(=O)OCCOC(=O)c3ccc(-c4c5nc(c(-c6ccc(S(=O)(=O)[O-])cc6)c6ccc([nH]6)c(-c6ccc(S(=O)(=O)[O-])cc6)c6nc(c(-c7ccc(S(=O)(=O)[O-])cc7)c7ccc4[nH]7)C=C6)C=C5)cc3)c(O)n2n1
REMARK SMILES IDX 13 1 12 2 11 3 9 4 10 5 8 6 3 7 4 8 80 9 5 10 79 11 6 12
REMARK SMILES IDX 77 13 7 14 2 15 1 16 78 17 14 19 15 20 16 21 17 22 18 23
REMARK SMILES IDX 76 24 19 25 75 26 20 27 21 28 22 29 69 30 23 31 74 32 68 33
REMARK SMILES IDX 70 34 24 35 73 36 67 37 66 38 25 40 55 41 36 42 54 43 37 44
REMARK SMILES IDX 40 45 53 46 71 47 38 48 39 49 52 51 72 52 41 53 26 54 27 55
REMARK SMILES IDX 35 56 28 57 34 58 29 59 30 60 31 61 32 62 33 63 56 64 57 65
REMARK SMILES IDX 65 66 58 67 64 68 59 69 60 70 61 71 62 72 63 73 42 74 43 75
REMARK SMILES IDX 51 76 44 77 50 78 45 79 46 80 47 81 48 82 49 83
REMARK H PARENT 78 18 70 39 40 50
REMARK Flexibility Score: inf
ROOT
ATOM      1  C   UNL A   1      40.726  20.020  26.867  1.00  0.00     0.275 C 
ENDROOT
BRANCH   1   2
ATOM      2  C   UNL A   1      42.089  19.342  26.735  1.00  0.00     0.275 C 
BRANCH   2   3
ATOM      3  O   UNL A   1      42.461  19.116  25.364  1.00  0.00    -0.457 OA
BRANCH   3   4
ATOM      4  C   UNL A   1      43.770  19.314  25.067  1.00  0.00     0.364 C 
ATOM      5  O   UNL A   1      44.569  18.439  24.745  1.00  0.00    -0.244 OA
BRANCH   4   6
ATOM      6  C   UNL A   1      44.124  20.759  25.069  1.00  0.00     0.232 A 
ATOM      7  C   UNL A   1      46.391  24.406  25.724  1.00  0.00     0.210 A 
ATOM      8  N   UNL A   1      45.105  24.610  25.319  1.00  0.00    -0.182 NA
ATOM      9  N   UNL A   1      46.774  23.135  25.813  1.00  0.00    -0.134 NA
ATOM     10  C   UNL A   1      44.652  23.388  25.134  1.00  0.00     0.275 A 
ATOM     11  N   UNL A   1      45.654  22.473  25.436  1.00  0.00    -0.159 N 
ATOM     12  N   UNL A   1      43.415  22.938  24.767  1.00  0.00    -0.108 NA
ATOM     13  C   UNL A   1      45.391  21.103  25.399  1.00  0.00     0.251 A 
ATOM     14  N   UNL A   1      43.162  21.700  24.741  1.00  0.00    -0.134 NA
BRANCH   7  15
ATOM     15  S   UNL A   1      47.456  25.721  26.145  1.00  0.00    -0.088 SA
ATOM     16  C   UNL A   1      47.448  26.648  24.594  1.00  0.00     0.094 C 
ENDBRANCH   7  15
BRANCH  13  17
ATOM     17  O   UNL A   1      46.412  20.220  25.724  1.00  0.00    -0.491 OA
ATOM     18  H   UNL A   1      47.297  20.525  25.778  1.00  0.00     0.295 HD
ENDBRANCH  13  17
ENDBRANCH   4   6
ENDBRANCH   3   4
ENDBRANCH   2   3
ENDBRANCH   1   2
BRANCH   1  19
ATOM     19  O   UNL A   1      40.814  21.370  27.335  1.00  0.00    -0.458 OA
BRANCH  19  20
ATOM     20  C   UNL A   1      40.046  22.249  26.659  1.00  0.00     0.338 C 
ATOM     21  O   UNL A   1      39.156  21.972  25.861  1.00  0.00    -0.246 OA
BRANCH  20  22
ATOM     22  C   UNL A   1      40.509  23.623  26.868  1.00  0.00     0.060 A 
ATOM     23  C   UNL A   1      41.543  23.803  27.792  1.00  0.00     0.016 A 
ATOM     24  C   UNL A   1      39.775  24.708  26.371  1.00  0.00     0.016 A 
ATOM     25  C   UNL A   1      41.729  25.052  28.346  1.00  0.00     0.010 A 
ATOM     26  C   UNL A   1      39.975  25.962  26.918  1.00  0.00     0.010 A 
ATOM     27  C   UNL A   1      40.893  26.105  27.959  1.00  0.00    -0.014 A 
BRANCH  27  28
ATOM     28  C   UNL A   1      41.033  27.360  28.683  1.00  0.00     0.031 A 
ATOM     29  C   UNL A   1      42.286  28.107  28.414  1.00  0.00     0.074 A 
ATOM     30  C   UNL A   1      40.069  27.860  29.477  1.00  0.00     0.049 A 
ATOM     31  N   UNL A   1      43.204  28.470  29.248  1.00  0.00    -0.248 NA
ATOM     32  C   UNL A   1      42.590  28.405  27.006  1.00  0.00     0.031 C 
ATOM     33  C   UNL A   1      38.686  27.394  29.619  1.00  0.00     0.029 A 
ATOM     34  N   UNL A   1      40.101  28.985  30.242  1.00  0.00    -0.354 N 
ATOM     35  C   UNL A   1      44.133  29.185  28.500  1.00  0.00     0.074 A 
ATOM     36  C   UNL A   1      43.772  29.009  27.115  1.00  0.00     0.031 C 
ATOM     37  C   UNL A   1      37.957  28.361  30.220  1.00  0.00     0.029 A 
ATOM     38  C   UNL A   1      38.847  29.438  30.622  1.00  0.00     0.049 A 
ATOM     39  H   UNL A   1      40.937  29.436  30.501  1.00  0.00     0.167 HD
ATOM     40  C   UNL A   1      45.036  30.034  29.058  1.00  0.00     0.031 A 
ATOM     41  C   UNL A   1      38.553  30.648  31.150  1.00  0.00     0.031 A 
ATOM     42  C   UNL A   1      45.208  29.818  30.466  1.00  0.00     0.049 A 
ATOM     43  C   UNL A   1      39.805  31.222  31.697  1.00  0.00     0.074 A 
ATOM     44  C   UNL A   1      45.683  28.779  31.239  1.00  0.00     0.029 A 
ATOM     45  N   UNL A   1      44.549  30.665  31.323  1.00  0.00    -0.354 N 
ATOM     46  N   UNL A   1      40.438  30.736  32.727  1.00  0.00    -0.248 NA
ATOM     47  C   UNL A   1      40.580  32.133  30.868  1.00  0.00     0.031 C 
ATOM     48  C   UNL A   1      44.923  28.828  32.442  1.00  0.00     0.029 A 
ATOM     49  C   UNL A   1      44.034  29.902  32.341  1.00  0.00     0.049 A 
ATOM     50  H   UNL A   1      44.462  31.641  31.226  1.00  0.00     0.167 HD
ATOM     51  C   UNL A   1      41.782  30.956  32.464  1.00  0.00     0.074 A 
ATOM     52  C   UNL A   1      41.799  31.927  31.376  1.00  0.00     0.031 C 
ATOM     53  C   UNL A   1      42.747  30.131  32.967  1.00  0.00     0.031 A 
BRANCH  40  54
ATOM     54  C   UNL A   1      45.499  31.292  28.370  1.00  0.00    -0.014 A 
ATOM     55  C   UNL A   1      44.675  32.432  28.372  1.00  0.00     0.010 A 
ATOM     56  C   UNL A   1      46.603  31.294  27.490  1.00  0.00     0.010 A 
ATOM     57  C   UNL A   1      44.916  33.500  27.495  1.00  0.00     0.020 A 
ATOM     58  C   UNL A   1      46.879  32.369  26.647  1.00  0.00     0.020 A 
ATOM     59  C   UNL A   1      46.009  33.450  26.626  1.00  0.00     0.054 A 
BRANCH  59  60
ATOM     60  S   UNL A   1      46.235  34.762  25.401  1.00  0.00     0.124 S 
ATOM     61  O   UNL A   1      45.837  35.947  26.155  1.00  0.00    -0.237 OA
ATOM     62  O   UNL A   1      47.656  34.656  25.088  1.00  0.00    -0.237 OA
ATOM     63  O   UNL A   1      45.333  34.376  24.317  1.00  0.00    -0.744 OA
ENDBRANCH  59  60
ENDBRANCH  40  54
BRANCH  41  64
ATOM     64  C   UNL A   1      37.320  31.441  30.935  1.00  0.00    -0.014 A 
ATOM     65  C   UNL A   1      37.174  32.725  31.488  1.00  0.00     0.010 A 
ATOM     66  C   UNL A   1      36.378  31.030  29.968  1.00  0.00     0.010 A 
ATOM     67  C   UNL A   1      36.149  33.582  31.055  1.00  0.00     0.020 A 
ATOM     68  C   UNL A   1      35.348  31.873  29.541  1.00  0.00     0.020 A 
ATOM     69  C   UNL A   1      35.252  33.155  30.071  1.00  0.00     0.054 A 
BRANCH  69  70
ATOM     70  S   UNL A   1      34.029  34.324  29.410  1.00  0.00     0.124 S 
ATOM     71  O   UNL A   1      33.290  33.496  28.460  1.00  0.00    -0.237 OA
ATOM     72  O   UNL A   1      33.296  34.723  30.607  1.00  0.00    -0.237 OA
ATOM     73  O   UNL A   1      34.848  35.376  28.808  1.00  0.00    -0.744 OA
ENDBRANCH  69  70
ENDBRANCH  41  64
BRANCH  53  74
ATOM     74  C   UNL A   1      42.360  29.162  34.061  1.00  0.00    -0.014 A 
ATOM     75  C   UNL A   1      41.635  27.980  33.808  1.00  0.00     0.010 A 
ATOM     76  C   UNL A   1      42.904  29.355  35.343  1.00  0.00     0.010 A 
ATOM     77  C   UNL A   1      41.456  27.020  34.814  1.00  0.00     0.020 A 
ATOM     78  C   UNL A   1      42.743  28.393  36.345  1.00  0.00     0.020 A 
ATOM     79  C   UNL A   1      42.020  27.230  36.076  1.00  0.00     0.054 A 
BRANCH  79  80
ATOM     80  S   UNL A   1      41.870  25.934  37.338  1.00  0.00     0.124 S 
ATOM     81  O   UNL A   1      42.234  24.728  36.601  1.00  0.00    -0.237 OA
ATOM     82  O   UNL A   1      42.828  26.360  38.357  1.00  0.00    -0.237 OA
ATOM     83  O   UNL A   1      40.468  26.008  37.749  1.00  0.00    -0.744 OA
ENDBRANCH  79  80
ENDBRANCH  53  74
ENDBRANCH  27  28
ENDBRANCH  20  22
ENDBRANCH  19  20
ENDBRANCH   1  19
TORSDOF 16
ENDMDL
MODEL 2
REMARK VINA RESULT:     -11.3      1.183      1.787
REMARK SMILES CSc1nc2nnc(C(=O)OCCOC(=O)c3ccc(-c4c5nc(c(-c6ccc(S(=O)(=O)[O-])cc6)c6ccc([nH]6)c(-c6ccc(S(=O)(=O)[O-])cc6)c6nc(c(-c7ccc(S(=O)(=O)[O-])cc7)c7ccc4[nH]7)C=C6)C=C5)cc3)c(O)n2n1
REMARK SMILES IDX 13 1 12 2 11 3 9 4 10 5 8 6 3 7 4 8 80 9 5 10 79 11 6 12
REMARK SMILES IDX 77 13 7 14 2 15 1 16 78 17 14 19 15 20 16 21 17 22 18 23
REMARK SMILES IDX 76 24 19 25 75 26 20 27 21 28 22 29 69 30 23 31 74 32 68 33
REMARK SMILES IDX 70 34 24 35 73 36 67 37 66 38 25 40 55 41 36 42 54 43 37 44
REMARK SMILES IDX 40 45 53 46 71 47 38 48 39 49 52 51 72 52 41 53 26 54 27 55
REMARK SMILES IDX 35 56 28 57 34 58 29 59 30 60 31 61 32 62 33 63 56 64 57 65
REMARK SMILES IDX 65 66 58 67 64 68 59 69 60 70 61 71 62 72 63 73 42 74 43 75
REMARK SMILES IDX 51 76 44 77 50 78 45 79 46 80 47 81 48 82 49 83
REMARK H PARENT 78 18 70 39 40 50
REMARK Flexibility Score: inf
ROOT
ATOM      1  C   UNL A   1      40.684  20.173  26.395  1.00  0.00     0.275 C 
ENDROOT
BRANCH   1   2
ATOM      2  C   UNL A   1      42.181  19.882  26.301  1.00  0.00     0.275 C 
BRANCH   2   3
ATOM      3  O   UNL A   1      42.978  21.079  26.358  1.00  0.00    -0.457 OA
BRANCH   3   4
ATOM      4  C   UNL A   1      43.884  21.234  25.359  1.00  0.00     0.364 C 
ATOM      5  O   UNL A   1      43.958  20.539  24.349  1.00  0.00    -0.244 OA
BRANCH   4   6
ATOM      6  C   UNL A   1      44.737  22.434  25.568  1.00  0.00     0.232 A 
ATOM      7  C   UNL A   1      46.133  26.542  25.347  1.00  0.00     0.210 A 
ATOM      8  N   UNL A   1      47.033  25.672  25.886  1.00  0.00    -0.182 NA
ATOM      9  N   UNL A   1      44.954  26.021  25.015  1.00  0.00    -0.134 NA
ATOM     10  C   UNL A   1      46.377  24.531  25.901  1.00  0.00     0.275 A 
ATOM     11  N   UNL A   1      45.107  24.722  25.368  1.00  0.00    -0.159 N 
ATOM     12  N   UNL A   1      46.764  23.280  26.290  1.00  0.00    -0.108 NA
ATOM     13  C   UNL A   1      44.245  23.638  25.196  1.00  0.00     0.251 A 
ATOM     14  N   UNL A   1      45.996  22.290  26.129  1.00  0.00    -0.134 NA
BRANCH   7  15
ATOM     15  S   UNL A   1      46.511  28.220  25.065  1.00  0.00    -0.088 SA
ATOM     16  C   UNL A   1      47.014  28.147  23.331  1.00  0.00     0.094 C 
ENDBRANCH   7  15
BRANCH  13  17
ATOM     17  O   UNL A   1      42.991  23.865  24.643  1.00  0.00    -0.491 OA
ATOM     18  H   UNL A   1      42.916  24.280  23.806  1.00  0.00     0.295 HD
ENDBRANCH  13  17
ENDBRANCH   4   6
ENDBRANCH   3   4
ENDBRANCH   2   3
ENDBRANCH   1   2
BRANCH   1  19
ATOM     19  O   UNL A   1      40.378  21.252  27.285  1.00  0.00    -0.458 OA
BRANCH  19  20
ATOM     20  C   UNL A   1      39.527  22.170  26.781  1.00  0.00     0.338 C 
ATOM     21  O   UNL A   1      38.507  21.940  26.139  1.00  0.00    -0.246 OA
BRANCH  20  22
ATOM     22  C   UNL A   1      40.052  23.526  26.954  1.00  0.00     0.060 A 
ATOM     23  C   UNL A   1      41.197  23.659  27.745  1.00  0.00     0.016 A 
ATOM     24  C   UNL A   1      39.295  24.641  26.570  1.00  0.00     0.016 A 
ATOM     25  C   UNL A   1      41.487  24.891  28.293  1.00  0.00     0.010 A 
ATOM     26  C   UNL A   1      39.597  25.877  27.110  1.00  0.00     0.010 A 
ATOM     27  C   UNL A   1      40.641  25.975  28.031  1.00  0.00    -0.014 A 
BRANCH  27  28
ATOM     28  C   UNL A   1      40.906  27.209  28.753  1.00  0.00     0.031 A 
ATOM     29  C   UNL A   1      42.074  27.986  28.269  1.00  0.00     0.074 A 
ATOM     30  C   UNL A   1      40.110  27.670  29.735  1.00  0.00     0.049 A 
ATOM     31  N   UNL A   1      43.133  28.340  28.919  1.00  0.00    -0.248 NA
ATOM     32  C   UNL A   1      42.094  28.329  26.839  1.00  0.00     0.031 C 
ATOM     33  C   UNL A   1      38.787  27.177  30.130  1.00  0.00     0.029 A 
ATOM     34  N   UNL A   1      40.279  28.773  30.514  1.00  0.00    -0.354 N 
ATOM     35  C   UNL A   1      43.890  29.091  28.027  1.00  0.00     0.074 A 
ATOM     36  C   UNL A   1      43.267  28.950  26.734  1.00  0.00     0.031 C 
ATOM     37  C   UNL A   1      38.179  28.114  30.891  1.00  0.00     0.029 A 
ATOM     38  C   UNL A   1      39.119  29.193  31.146  1.00  0.00     0.049 A 
ATOM     39  H   UNL A   1      41.145  29.230  30.620  1.00  0.00     0.167 HD
ATOM     40  C   UNL A   1      44.875  29.939  28.426  1.00  0.00     0.031 A 
ATOM     41  C   UNL A   1      38.920  30.383  31.759  1.00  0.00     0.031 A 
ATOM     42  C   UNL A   1      45.322  29.685  29.764  1.00  0.00     0.049 A 
ATOM     43  C   UNL A   1      40.249  30.961  32.069  1.00  0.00     0.074 A 
ATOM     44  C   UNL A   1      45.950  28.632  30.397  1.00  0.00     0.029 A 
ATOM     45  N   UNL A   1      44.834  30.496  30.761  1.00  0.00    -0.354 N 
ATOM     46  N   UNL A   1      41.076  30.457  32.941  1.00  0.00    -0.248 NA
ATOM     47  C   UNL A   1      40.837  31.909  31.135  1.00  0.00     0.031 C 
ATOM     48  C   UNL A   1      45.439  28.634  31.726  1.00  0.00     0.029 A 
ATOM     49  C   UNL A   1      44.536  29.696  31.834  1.00  0.00     0.049 A 
ATOM     50  H   UNL A   1      44.719  31.473  30.713  1.00  0.00     0.167 HD
ATOM     51  C   UNL A   1      42.340  30.707  32.428  1.00  0.00     0.074 A 
ATOM     52  C   UNL A   1      42.133  31.709  31.388  1.00  0.00     0.031 C 
ATOM     53  C   UNL A   1      43.394  29.884  32.707  1.00  0.00     0.031 A 
BRANCH  40  54
ATOM     54  C   UNL A   1      45.182  31.224  27.700  1.00  0.00    -0.014 A 
ATOM     55  C   UNL A   1      46.477  31.450  27.199  1.00  0.00     0.010 A 
ATOM     56  C   UNL A   1      44.302  32.328  27.738  1.00  0.00     0.010 A 
ATOM     57  C   UNL A   1      46.886  32.732  26.806  1.00  0.00     0.020 A 
ATOM     58  C   UNL A   1      44.683  33.597  27.307  1.00  0.00     0.020 A 
ATOM     59  C   UNL A   1      45.988  33.800  26.880  1.00  0.00     0.054 A 
BRANCH  59  60
ATOM     60  S   UNL A   1      46.561  35.476  26.507  1.00  0.00     0.124 S 
ATOM     61  O   UNL A   1      45.301  36.205  26.404  1.00  0.00    -0.237 OA
ATOM     62  O   UNL A   1      47.384  35.791  27.671  1.00  0.00    -0.237 OA
ATOM     63  O   UNL A   1      47.297  35.314  25.255  1.00  0.00    -0.744 OA
ENDBRANCH  59  60
ENDBRANCH  40  54
BRANCH  41  64
ATOM     64  C   UNL A   1      37.660  31.160  31.814  1.00  0.00    -0.014 A 
ATOM     65  C   UNL A   1      37.031  31.441  33.039  1.00  0.00     0.010 A 
ATOM     66  C   UNL A   1      37.205  31.847  30.668  1.00  0.00     0.010 A 
ATOM     67  C   UNL A   1      36.013  32.406  33.120  1.00  0.00     0.020 A 
ATOM     68  C   UNL A   1      36.185  32.800  30.739  1.00  0.00     0.020 A 
ATOM     69  C   UNL A   1      35.609  33.092  31.971  1.00  0.00     0.054 A 
BRANCH  69  70
ATOM     70  S   UNL A   1      34.405  34.444  32.114  1.00  0.00     0.124 S 
ATOM     71  O   UNL A   1      34.063  34.705  30.718  1.00  0.00    -0.237 OA
ATOM     72  O   UNL A   1      33.349  33.841  32.922  1.00  0.00    -0.237 OA
ATOM     73  O   UNL A   1      35.158  35.508  32.777  1.00  0.00    -0.744 OA
ENDBRANCH  69  70
ENDBRANCH  41  64
BRANCH  53  74
ATOM     74  C   UNL A   1      43.239  28.877  33.824  1.00  0.00    -0.014 A 
ATOM     75  C   UNL A   1      43.583  29.164  35.160  1.00  0.00     0.010 A 
ATOM     76  C   UNL A   1      42.554  27.680  33.548  1.00  0.00     0.010 A 
ATOM     77  C   UNL A   1      43.254  28.274  36.192  1.00  0.00     0.020 A 
ATOM     78  C   UNL A   1      42.208  26.797  34.576  1.00  0.00     0.020 A 
ATOM     79  C   UNL A   1      42.559  27.098  35.893  1.00  0.00     0.054 A 
BRANCH  79  80
ATOM     80  S   UNL A   1      42.048  26.004  37.248  1.00  0.00     0.124 S 
ATOM     81  O   UNL A   1      42.298  24.676  36.697  1.00  0.00    -0.237 OA
ATOM     82  O   UNL A   1      42.930  26.407  38.342  1.00  0.00    -0.237 OA
ATOM     83  O   UNL A   1      40.637  26.334  37.448  1.00  0.00    -0.744 OA
ENDBRANCH  79  80
ENDBRANCH  53  74
ENDBRANCH  27  28
ENDBRANCH  20  22
ENDBRANCH  19  20
ENDBRANCH   1  19
TORSDOF 16
ENDMDL
MODEL 3
REMARK VINA RESULT:     -11.3      2.795     11.998
REMARK SMILES CSc1nc2nnc(C(=O)OCCOC(=O)c3ccc(-c4c5nc(c(-c6ccc(S(=O)(=O)[O-])cc6)c6ccc([nH]6)c(-c6ccc(S(=O)(=O)[O-])cc6)c6nc(c(-c7ccc(S(=O)(=O)[O-])cc7)c7ccc4[nH]7)C=C6)C=C5)cc3)c(O)n2n1
REMARK SMILES IDX 13 1 12 2 11 3 9 4 10 5 8 6 3 7 4 8 80 9 5 10 79 11 6 12
REMARK SMILES IDX 77 13 7 14 2 15 1 16 78 17 14 19 15 20 16 21 17 22 18 23
REMARK SMILES IDX 76 24 19 25 75 26 20 27 21 28 22 29 69 30 23 31 74 32 68 33
REMARK SMILES IDX 70 34 24 35 73 36 67 37 66 38 25 40 55 41 36 42 54 43 37 44
REMARK SMILES IDX 40 45 53 46 71 47 38 48 39 49 52 51 72 52 41 53 26 54 27 55
REMARK SMILES IDX 35 56 28 57 34 58 29 59 30 60 31 61 32 62 33 63 56 64 57 65
REMARK SMILES IDX 65 66 58 67 64 68 59 69 60 70 61 71 62 72 63 73 42 74 43 75
REMARK SMILES IDX 51 76 44 77 50 78 45 79 46 80 47 81 48 82 49 83
REMARK H PARENT 78 18 70 39 40 50
REMARK Flexibility Score: inf
ROOT
ATOM      1  C   UNL A   1      33.283  33.377  27.919  1.00  0.00     0.275 C 
ENDROOT
BRANCH   1   2
ATOM      2  C   UNL A   1      33.148  34.842  28.332  1.00  0.00     0.275 C 
BRANCH   2   3
ATOM      3  O   UNL A   1      34.099  35.218  29.345  1.00  0.00    -0.457 OA
BRANCH   3   4
ATOM      4  C   UNL A   1      33.605  35.334  30.604  1.00  0.00     0.364 C 
ATOM      5  O   UNL A   1      32.626  35.999  30.928  1.00  0.00    -0.244 OA
BRANCH   4   6
ATOM      6  C   UNL A   1      34.333  34.461  31.564  1.00  0.00     0.232 A 
ATOM      7  C   UNL A   1      36.960  33.261  34.809  1.00  0.00     0.210 A 
ATOM      8  N   UNL A   1      36.491  32.226  34.056  1.00  0.00    -0.182 NA
ATOM      9  N   UNL A   1      36.513  34.469  34.474  1.00  0.00    -0.134 NA
ATOM     10  C   UNL A   1      35.691  32.820  33.195  1.00  0.00     0.275 A 
ATOM     11  N   UNL A   1      35.695  34.191  33.430  1.00  0.00    -0.159 N 
ATOM     12  N   UNL A   1      34.960  32.316  32.156  1.00  0.00    -0.108 NA
ATOM     13  C   UNL A   1      34.987  35.051  32.591  1.00  0.00     0.251 A 
ATOM     14  N   UNL A   1      34.324  33.087  31.383  1.00  0.00    -0.134 NA
BRANCH   7  15
ATOM     15  S   UNL A   1      38.108  33.029  36.100  1.00  0.00    -0.088 SA
ATOM     16  C   UNL A   1      38.353  31.242  35.993  1.00  0.00     0.094 C 
ENDBRANCH   7  15
BRANCH  13  17
ATOM     17  O   UNL A   1      35.029  36.416  32.847  1.00  0.00    -0.491 OA
ATOM     18  H   UNL A   1      34.281  36.950  32.664  1.00  0.00     0.295 HD
ENDBRANCH  13  17
ENDBRANCH   4   6
ENDBRANCH   3   4
ENDBRANCH   2   3
ENDBRANCH   1   2
BRANCH   1  19
ATOM     19  O   UNL A   1      34.641  32.923  27.904  1.00  0.00    -0.458 OA
BRANCH  19  20
ATOM     20  C   UNL A   1      34.787  31.599  27.688  1.00  0.00     0.338 C 
ATOM     21  O   UNL A   1      34.040  30.884  27.028  1.00  0.00    -0.246 OA
BRANCH  20  22
ATOM     22  C   UNL A   1      35.888  31.053  28.484  1.00  0.00     0.060 A 
ATOM     23  C   UNL A   1      36.944  31.923  28.775  1.00  0.00     0.016 A 
ATOM     24  C   UNL A   1      35.996  29.674  28.706  1.00  0.00     0.016 A 
ATOM     25  C   UNL A   1      38.166  31.392  29.128  1.00  0.00     0.010 A 
ATOM     26  C   UNL A   1      37.219  29.146  29.075  1.00  0.00     0.010 A 
ATOM     27  C   UNL A   1      38.313  30.001  29.202  1.00  0.00    -0.014 A 
BRANCH  27  28
ATOM     28  C   UNL A   1      39.657  29.491  29.430  1.00  0.00     0.031 A 
ATOM     29  C   UNL A   1      40.126  29.552  30.835  1.00  0.00     0.074 A 
ATOM     30  C   UNL A   1      40.399  28.925  28.461  1.00  0.00     0.049 A 
ATOM     31  N   UNL A   1      41.160  30.160  31.316  1.00  0.00    -0.248 NA
ATOM     32  C   UNL A   1      39.265  28.920  31.848  1.00  0.00     0.031 C 
ATOM     33  C   UNL A   1      39.979  28.538  27.111  1.00  0.00     0.029 A 
ATOM     34  N   UNL A   1      41.678  28.463  28.535  1.00  0.00    -0.354 N 
ATOM     35  C   UNL A   1      41.177  29.860  32.674  1.00  0.00     0.074 A 
ATOM     36  C   UNL A   1      39.929  29.201  32.968  1.00  0.00     0.031 C 
ATOM     37  C   UNL A   1      40.895  27.692  26.591  1.00  0.00     0.029 A 
ATOM     38  C   UNL A   1      42.018  27.595  27.510  1.00  0.00     0.049 A 
ATOM     39  H   UNL A   1      42.303  28.722  29.251  1.00  0.00     0.167 HD
ATOM     40  C   UNL A   1      42.287  29.998  33.447  1.00  0.00     0.031 A 
ATOM     41  C   UNL A   1      43.104  26.788  27.462  1.00  0.00     0.031 A 
ATOM     42  C   UNL A   1      43.282  30.840  32.848  1.00  0.00     0.049 A 
ATOM     43  C   UNL A   1      44.102  27.315  28.423  1.00  0.00     0.074 A 
ATOM     44  C   UNL A   1      43.344  32.172  32.494  1.00  0.00     0.029 A 
ATOM     45  N   UNL A   1      44.339  30.226  32.221  1.00  0.00    -0.354 N 
ATOM     46  N   UNL A   1      44.726  28.449  28.275  1.00  0.00    -0.248 NA
ATOM     47  C   UNL A   1      44.147  26.754  29.766  1.00  0.00     0.031 C 
ATOM     48  C   UNL A   1      44.171  32.214  31.335  1.00  0.00     0.029 A 
ATOM     49  C   UNL A   1      44.577  30.905  31.054  1.00  0.00     0.049 A 
ATOM     50  H   UNL A   1      44.835  29.441  32.550  1.00  0.00     0.167 HD
ATOM     51  C   UNL A   1      44.898  28.939  29.562  1.00  0.00     0.074 A 
ATOM     52  C   UNL A   1      44.639  27.800  30.435  1.00  0.00     0.031 C 
ATOM     53  C   UNL A   1      44.968  30.281  29.806  1.00  0.00     0.031 A 
BRANCH  40  54
ATOM     54  C   UNL A   1      42.593  29.075  34.597  1.00  0.00    -0.014 A 
ATOM     55  C   UNL A   1      43.148  29.596  35.780  1.00  0.00     0.010 A 
ATOM     56  C   UNL A   1      42.601  27.671  34.443  1.00  0.00     0.010 A 
ATOM     57  C   UNL A   1      43.732  28.753  36.737  1.00  0.00     0.020 A 
ATOM     58  C   UNL A   1      43.137  26.821  35.408  1.00  0.00     0.020 A 
ATOM     59  C   UNL A   1      43.736  27.371  36.533  1.00  0.00     0.054 A 
BRANCH  59  60
ATOM     60  S   UNL A   1      44.613  26.299  37.698  1.00  0.00     0.124 S 
ATOM     61  O   UNL A   1      44.089  26.760  38.980  1.00  0.00    -0.237 OA
ATOM     62  O   UNL A   1      44.187  24.968  37.280  1.00  0.00    -0.237 OA
ATOM     63  O   UNL A   1      46.021  26.604  37.450  1.00  0.00    -0.744 OA
ENDBRANCH  59  60
ENDBRANCH  40  54
BRANCH  41  64
ATOM     64  C   UNL A   1      43.189  25.440  26.856  1.00  0.00    -0.014 A 
ATOM     65  C   UNL A   1      43.240  25.271  25.461  1.00  0.00     0.010 A 
ATOM     66  C   UNL A   1      43.476  24.320  27.665  1.00  0.00     0.010 A 
ATOM     67  C   UNL A   1      43.608  24.038  24.899  1.00  0.00     0.020 A 
ATOM     68  C   UNL A   1      43.831  23.086  27.112  1.00  0.00     0.020 A 
ATOM     69  C   UNL A   1      43.917  22.957  25.730  1.00  0.00     0.054 A 
BRANCH  69  70
ATOM     70  S   UNL A   1      44.540  21.416  24.998  1.00  0.00     0.124 S 
ATOM     71  O   UNL A   1      45.831  21.257  25.661  1.00  0.00    -0.237 OA
ATOM     72  O   UNL A   1      43.512  20.451  25.374  1.00  0.00    -0.237 OA
ATOM     73  O   UNL A   1      44.611  21.718  23.568  1.00  0.00    -0.744 OA
ENDBRANCH  69  70
ENDBRANCH  41  64
BRANCH  53  74
ATOM     74  C   UNL A   1      45.165  31.212  28.631  1.00  0.00    -0.014 A 
ATOM     75  C   UNL A   1      44.131  31.520  27.723  1.00  0.00     0.010 A 
ATOM     76  C   UNL A   1      46.366  31.938  28.552  1.00  0.00     0.010 A 
ATOM     77  C   UNL A   1      44.299  32.525  26.760  1.00  0.00     0.020 A 
ATOM     78  C   UNL A   1      46.533  32.953  27.605  1.00  0.00     0.020 A 
ATOM     79  C   UNL A   1      45.498  33.242  26.713  1.00  0.00     0.054 A 
BRANCH  79  80
ATOM     80  S   UNL A   1      45.665  34.609  25.531  1.00  0.00     0.124 S 
ATOM     81  O   UNL A   1      47.083  34.559  25.184  1.00  0.00    -0.237 OA
ATOM     82  O   UNL A   1      44.743  34.230  24.463  1.00  0.00    -0.237 OA
ATOM     83  O   UNL A   1      45.259  35.786  26.300  1.00  0.00    -0.744 OA
ENDBRANCH  79  80
ENDBRANCH  53  74
ENDBRANCH  27  28
ENDBRANCH  20  22
ENDBRANCH  19  20
ENDBRANCH   1  19
TORSDOF 16
ENDMDL
