MODEL 1
REMARK VINA RESULT:     -10.7      0.000      0.000
REMARK SMILES CC(C)(C)OC(=O)N1CCC2(CC1)C[C@@H](C(=O)OCCOC(=O)c1ccc(-c3c4nc(c(-c5ccc(S(=O)(=O)[O-])cc5)c5ccc([nH]5)c(-c5ccc(S(=O)(=O)[O-])cc5)c5nc(c(-c6ccc(S(=O)(=O)[O-])cc6)c6ccc3[nH]6)C=C5)C=C4)cc1)CO2
REMARK SMILES IDX 20 1 19 2 18 3 16 4 17 5 15 6 6 7 7 8 8 9 9 10 13 11 10 12
REMARK SMILES IDX 12 13 11 14 14 15 85 16 84 17 5 18 2 19 1 20 3 21 4 22 21 23
REMARK SMILES IDX 22 24 23 25 24 26 25 27 83 28 26 29 82 30 27 31 28 32 29 33
REMARK SMILES IDX 76 34 30 35 81 36 75 37 77 38 31 39 80 40 74 41 73 42 32 44
REMARK SMILES IDX 62 45 43 46 61 47 44 48 47 49 60 50 78 51 45 52 46 53 59 55
REMARK SMILES IDX 79 56 48 57 33 58 34 59 42 60 35 61 41 62 36 63 37 64 38 65
REMARK SMILES IDX 39 66 40 67 63 68 64 69 72 70 65 71 71 72 66 73 67 74 68 75
REMARK SMILES IDX 69 76 70 77 49 78 50 79 58 80 51 81 57 82 52 83 53 84 54 85
REMARK SMILES IDX 55 86 56 87
REMARK H PARENT 77 43 47 54
REMARK Flexibility Score: inf
ROOT
ATOM      1  C   UNL A   1      32.445  30.106  27.252  1.00  0.00     0.275 C 
ENDROOT
BRANCH   1   2
ATOM      2  C   UNL A   1      32.039  30.131  25.775  1.00  0.00     0.274 C 
BRANCH   2   3
ATOM      3  O   UNL A   1      31.944  28.792  25.257  1.00  0.00    -0.462 OA
BRANCH   3   4
ATOM      4  C   UNL A   1      31.129  28.604  24.192  1.00  0.00     0.311 C 
ATOM      5  O   UNL A   1      31.082  29.342  23.214  1.00  0.00    -0.252 OA
BRANCH   4   6
ATOM      6  C   UNL A   1      30.279  27.352  24.290  1.00  0.00     0.128 C 
ATOM      7  C   UNL A   1      34.312  22.304  24.898  1.00  0.00     0.410 C 
ATOM      8  O   UNL A   1      34.015  21.119  24.977  1.00  0.00    -0.224 OA
ATOM      9  N   UNL A   1      33.520  23.249  24.290  1.00  0.00    -0.308 N 
ATOM     10  C   UNL A   1      32.113  22.969  24.054  1.00  0.00     0.126 C 
ATOM     11  C   UNL A   1      33.963  24.594  23.939  1.00  0.00     0.126 C 
ATOM     12  C   UNL A   1      31.271  23.951  24.867  1.00  0.00     0.057 C 
ATOM     13  C   UNL A   1      33.155  25.639  24.698  1.00  0.00     0.057 C 
ATOM     14  C   UNL A   1      31.647  25.400  24.519  1.00  0.00     0.073 C 
ATOM     15  C   UNL A   1      30.822  26.401  25.330  1.00  0.00     0.053 C 
ATOM     16  O   UNL A   1      31.325  25.611  23.128  1.00  0.00    -0.374 OA
ATOM     17  C   UNL A   1      30.216  26.508  23.044  1.00  0.00     0.176 C 
BRANCH   7  18
ATOM     18  O   UNL A   1      35.423  22.857  25.444  1.00  0.00    -0.444 OA
BRANCH  18  19
ATOM     19  C   UNL A   1      36.735  22.624  24.881  1.00  0.00     0.106 C 
ATOM     20  C   UNL A   1      37.074  21.179  25.275  1.00  0.00     0.056 C 
ATOM     21  C   UNL A   1      37.730  23.582  25.540  1.00  0.00     0.056 C 
ATOM     22  C   UNL A   1      36.775  22.720  23.349  1.00  0.00     0.056 C 
ENDBRANCH  18  19
ENDBRANCH   7  18
ENDBRANCH   4   6
ENDBRANCH   3   4
ENDBRANCH   2   3
ENDBRANCH   1   2
BRANCH   1  23
ATOM     23  O   UNL A   1      33.816  29.702  27.421  1.00  0.00    -0.458 OA
BRANCH  23  24
ATOM     24  C   UNL A   1      34.593  30.579  28.097  1.00  0.00     0.338 C 
ATOM     25  O   UNL A   1      34.257  31.644  28.591  1.00  0.00    -0.246 OA
BRANCH  24  26
ATOM     26  C   UNL A   1      35.937  30.022  28.273  1.00  0.00     0.060 A 
ATOM     27  C   UNL A   1      36.312  29.585  29.545  1.00  0.00     0.016 A 
ATOM     28  C   UNL A   1      36.857  30.049  27.229  1.00  0.00     0.016 A 
ATOM     29  C   UNL A   1      37.628  29.225  29.802  1.00  0.00     0.010 A 
ATOM     30  C   UNL A   1      38.169  29.638  27.476  1.00  0.00     0.010 A 
ATOM     31  C   UNL A   1      38.565  29.244  28.767  1.00  0.00    -0.014 A 
BRANCH  31  32
ATOM     32  C   UNL A   1      39.973  28.880  29.033  1.00  0.00     0.031 A 
ATOM     33  C   UNL A   1      40.923  29.923  29.544  1.00  0.00     0.074 A 
ATOM     34  C   UNL A   1      40.397  27.625  28.793  1.00  0.00     0.049 A 
ATOM     35  N   UNL A   1      42.225  29.880  29.633  1.00  0.00    -0.248 NA
ATOM     36  C   UNL A   1      40.324  31.187  30.005  1.00  0.00     0.031 C 
ATOM     37  C   UNL A   1      39.546  26.512  28.364  1.00  0.00     0.029 A 
ATOM     38  N   UNL A   1      41.653  27.081  28.856  1.00  0.00    -0.354 N 
ATOM     39  C   UNL A   1      42.609  31.122  30.122  1.00  0.00     0.074 A 
ATOM     40  C   UNL A   1      41.402  31.898  30.305  1.00  0.00     0.031 C 
ATOM     41  C   UNL A   1      40.309  25.422  28.185  1.00  0.00     0.029 A 
ATOM     42  C   UNL A   1      41.704  25.779  28.417  1.00  0.00     0.049 A 
ATOM     43  H   UNL A   1      42.441  27.574  29.182  1.00  0.00     0.167 HD
ATOM     44  C   UNL A   1      43.859  31.571  30.383  1.00  0.00     0.031 A 
ATOM     45  C   UNL A   1      42.761  24.983  28.170  1.00  0.00     0.031 A 
ATOM     46  C   UNL A   1      45.046  30.782  30.190  1.00  0.00     0.049 A 
ATOM     47  C   UNL A   1      44.145  25.521  28.398  1.00  0.00     0.074 A 
ATOM     48  C   UNL A   1      46.366  31.140  30.405  1.00  0.00     0.029 A 
ATOM     49  N   UNL A   1      45.055  29.470  29.740  1.00  0.00    -0.354 N 
ATOM     50  N   UNL A   1      44.502  26.711  28.819  1.00  0.00    -0.248 NA
ATOM     51  C   UNL A   1      45.266  24.617  28.113  1.00  0.00     0.031 C 
ATOM     52  C   UNL A   1      47.174  30.056  30.045  1.00  0.00     0.029 A 
ATOM     53  C   UNL A   1      46.355  29.006  29.657  1.00  0.00     0.049 A 
ATOM     54  H   UNL A   1      44.253  28.946  29.512  1.00  0.00     0.167 HD
ATOM     55  C   UNL A   1      45.890  26.693  28.870  1.00  0.00     0.074 A 
ATOM     56  C   UNL A   1      46.307  25.372  28.443  1.00  0.00     0.031 C 
ATOM     57  C   UNL A   1      46.742  27.680  29.239  1.00  0.00     0.031 A 
BRANCH  44  58
ATOM     58  C   UNL A   1      43.998  32.995  30.850  1.00  0.00    -0.014 A 
ATOM     59  C   UNL A   1      44.113  34.058  29.937  1.00  0.00     0.010 A 
ATOM     60  C   UNL A   1      44.013  33.273  32.229  1.00  0.00     0.010 A 
ATOM     61  C   UNL A   1      44.295  35.367  30.394  1.00  0.00     0.020 A 
ATOM     62  C   UNL A   1      44.167  34.584  32.691  1.00  0.00     0.020 A 
ATOM     63  C   UNL A   1      44.331  35.619  31.769  1.00  0.00     0.054 A 
BRANCH  63  64
ATOM     64  S   UNL A   1      44.584  37.323  32.339  1.00  0.00     0.124 S 
ATOM     65  O   UNL A   1      43.647  38.063  31.498  1.00  0.00    -0.237 OA
ATOM     66  O   UNL A   1      44.229  37.246  33.754  1.00  0.00    -0.237 OA
ATOM     67  O   UNL A   1      45.997  37.574  32.068  1.00  0.00    -0.744 OA
ENDBRANCH  63  64
ENDBRANCH  44  58
BRANCH  45  68
ATOM     68  C   UNL A   1      42.533  23.617  27.627  1.00  0.00    -0.014 A 
ATOM     69  C   UNL A   1      42.649  23.363  26.251  1.00  0.00     0.010 A 
ATOM     70  C   UNL A   1      42.256  22.548  28.502  1.00  0.00     0.010 A 
ATOM     71  C   UNL A   1      42.493  22.063  25.758  1.00  0.00     0.020 A 
ATOM     72  C   UNL A   1      42.126  21.244  28.015  1.00  0.00     0.020 A 
ATOM     73  C   UNL A   1      42.238  21.011  26.643  1.00  0.00     0.054 A 
BRANCH  73  74
ATOM     74  S   UNL A   1      42.122  19.322  25.991  1.00  0.00     0.124 S 
ATOM     75  O   UNL A   1      42.990  19.389  24.820  1.00  0.00    -0.237 OA
ATOM     76  O   UNL A   1      42.621  18.518  27.103  1.00  0.00    -0.237 OA
ATOM     77  O   UNL A   1      40.697  19.163  25.709  1.00  0.00    -0.744 OA
ENDBRANCH  73  74
ENDBRANCH  45  68
BRANCH  57  78
ATOM     78  C   UNL A   1      48.210  27.364  29.243  1.00  0.00    -0.014 A 
ATOM     79  C   UNL A   1      49.009  27.607  28.113  1.00  0.00     0.010 A 
ATOM     80  C   UNL A   1      48.813  26.914  30.432  1.00  0.00     0.010 A 
ATOM     81  C   UNL A   1      50.389  27.400  28.171  1.00  0.00     0.020 A 
ATOM     82  C   UNL A   1      50.196  26.726  30.500  1.00  0.00     0.020 A 
ATOM     83  C   UNL A   1      50.974  26.968  29.367  1.00  0.00     0.054 A 
BRANCH  83  84
ATOM     84  S   UNL A   1      52.778  26.794  29.444  1.00  0.00     0.124 S 
ATOM     85  O   UNL A   1      53.213  28.183  29.570  1.00  0.00    -0.237 OA
ATOM     86  O   UNL A   1      52.970  25.966  30.633  1.00  0.00    -0.237 OA
ATOM     87  O   UNL A   1      53.118  26.145  28.180  1.00  0.00    -0.744 OA
ENDBRANCH  83  84
ENDBRANCH  57  78
ENDBRANCH  31  32
ENDBRANCH  24  26
ENDBRANCH  23  24
ENDBRANCH   1  23
TORSDOF 16
ENDMDL
MODEL 2
REMARK VINA RESULT:     -10.7      3.295      6.455
REMARK SMILES CC(C)(C)OC(=O)N1CCC2(CC1)C[C@@H](C(=O)OCCOC(=O)c1ccc(-c3c4nc(c(-c5ccc(S(=O)(=O)[O-])cc5)c5ccc([nH]5)c(-c5ccc(S(=O)(=O)[O-])cc5)c5nc(c(-c6ccc(S(=O)(=O)[O-])cc6)c6ccc3[nH]6)C=C5)C=C4)cc1)CO2
REMARK SMILES IDX 20 1 19 2 18 3 16 4 17 5 15 6 6 7 7 8 8 9 9 10 13 11 10 12
REMARK SMILES IDX 12 13 11 14 14 15 85 16 84 17 5 18 2 19 1 20 3 21 4 22 21 23
REMARK SMILES IDX 22 24 23 25 24 26 25 27 83 28 26 29 82 30 27 31 28 32 29 33
REMARK SMILES IDX 76 34 30 35 81 36 75 37 77 38 31 39 80 40 74 41 73 42 32 44
REMARK SMILES IDX 62 45 43 46 61 47 44 48 47 49 60 50 78 51 45 52 46 53 59 55
REMARK SMILES IDX 79 56 48 57 33 58 34 59 42 60 35 61 41 62 36 63 37 64 38 65
REMARK SMILES IDX 39 66 40 67 63 68 64 69 72 70 65 71 71 72 66 73 67 74 68 75
REMARK SMILES IDX 69 76 70 77 49 78 50 79 58 80 51 81 57 82 52 83 53 84 54 85
REMARK SMILES IDX 55 86 56 87
REMARK H PARENT 77 43 47 54
REMARK Flexibility Score: inf
ROOT
ATOM      1  C   UNL A   1      34.107  32.566  28.992  1.00  0.00     0.275 C 
ENDROOT
BRANCH   1   2
ATOM      2  C   UNL A   1      34.724  33.941  29.263  1.00  0.00     0.274 C 
BRANCH   2   3
ATOM      3  O   UNL A   1      35.370  33.958  30.549  1.00  0.00    -0.462 OA
BRANCH   3   4
ATOM      4  C   UNL A   1      36.693  33.669  30.573  1.00  0.00     0.311 C 
ATOM      5  O   UNL A   1      37.239  32.851  29.840  1.00  0.00    -0.252 OA
BRANCH   4   6
ATOM      6  C   UNL A   1      37.476  34.486  31.582  1.00  0.00     0.128 C 
ATOM      7  C   UNL A   1      40.242  30.328  35.728  1.00  0.00     0.410 C 
ATOM      8  O   UNL A   1      40.932  30.597  36.703  1.00  0.00    -0.224 OA
ATOM      9  N   UNL A   1      39.302  31.183  35.201  1.00  0.00    -0.308 N 
ATOM     10  C   UNL A   1      39.350  32.599  35.527  1.00  0.00     0.126 C 
ATOM     11  C   UNL A   1      38.286  30.792  34.229  1.00  0.00     0.126 C 
ATOM     12  C   UNL A   1      39.616  33.391  34.249  1.00  0.00     0.057 C 
ATOM     13  C   UNL A   1      38.472  31.557  32.925  1.00  0.00     0.057 C 
ATOM     14  C   UNL A   1      38.555  33.070  33.184  1.00  0.00     0.073 C 
ATOM     15  C   UNL A   1      38.810  33.845  31.890  1.00  0.00     0.053 C 
ATOM     16  O   UNL A   1      37.278  33.503  33.697  1.00  0.00    -0.374 OA
ATOM     17  C   UNL A   1      36.837  34.632  32.939  1.00  0.00     0.176 C 
BRANCH   7  18
ATOM     18  O   UNL A   1      40.346  29.188  35.002  1.00  0.00    -0.444 OA
BRANCH  18  19
ATOM     19  C   UNL A   1      41.418  28.997  34.049  1.00  0.00     0.106 C 
ATOM     20  C   UNL A   1      42.426  28.095  34.775  1.00  0.00     0.056 C 
ATOM     21  C   UNL A   1      42.062  30.353  33.756  1.00  0.00     0.056 C 
ATOM     22  C   UNL A   1      40.981  28.280  32.763  1.00  0.00     0.056 C 
ENDBRANCH  18  19
ENDBRANCH   7  18
ENDBRANCH   4   6
ENDBRANCH   3   4
ENDBRANCH   2   3
ENDBRANCH   1   2
BRANCH   1  23
ATOM     23  O   UNL A   1      34.730  31.915  27.868  1.00  0.00    -0.458 OA
BRANCH  23  24
ATOM     24  C   UNL A   1      34.664  30.564  27.880  1.00  0.00     0.338 C 
ATOM     25  O   UNL A   1      33.690  29.864  27.655  1.00  0.00    -0.246 OA
BRANCH  24  26
ATOM     26  C   UNL A   1      36.000  30.002  28.098  1.00  0.00     0.060 A 
ATOM     27  C   UNL A   1      36.310  29.500  29.363  1.00  0.00     0.016 A 
ATOM     28  C   UNL A   1      36.975  30.087  27.107  1.00  0.00     0.016 A 
ATOM     29  C   UNL A   1      37.611  29.131  29.671  1.00  0.00     0.010 A 
ATOM     30  C   UNL A   1      38.274  29.667  27.402  1.00  0.00     0.010 A 
ATOM     31  C   UNL A   1      38.603  29.207  28.690  1.00  0.00    -0.014 A 
BRANCH  31  32
ATOM     32  C   UNL A   1      39.997  28.833  29.012  1.00  0.00     0.031 A 
ATOM     33  C   UNL A   1      40.929  29.867  29.574  1.00  0.00     0.074 A 
ATOM     34  C   UNL A   1      40.425  27.579  28.776  1.00  0.00     0.049 A 
ATOM     35  N   UNL A   1      42.225  29.816  29.717  1.00  0.00    -0.248 NA
ATOM     36  C   UNL A   1      40.316  31.128  30.023  1.00  0.00     0.031 C 
ATOM     37  C   UNL A   1      39.589  26.475  28.299  1.00  0.00     0.029 A 
ATOM     38  N   UNL A   1      41.675  27.029  28.886  1.00  0.00    -0.354 N 
ATOM     39  C   UNL A   1      42.594  31.051  30.236  1.00  0.00     0.074 A 
ATOM     40  C   UNL A   1      41.383  31.831  30.376  1.00  0.00     0.031 C 
ATOM     41  C   UNL A   1      40.354  25.383  28.142  1.00  0.00     0.029 A 
ATOM     42  C   UNL A   1      41.739  25.731  28.437  1.00  0.00     0.049 A 
ATOM     43  H   UNL A   1      42.450  27.514  29.251  1.00  0.00     0.167 HD
ATOM     44  C   UNL A   1      43.833  31.492  30.554  1.00  0.00     0.031 A 
ATOM     45  C   UNL A   1      42.802  24.932  28.226  1.00  0.00     0.031 A 
ATOM     46  C   UNL A   1      45.024  30.699  30.403  1.00  0.00     0.049 A 
ATOM     47  C   UNL A   1      44.177  25.461  28.519  1.00  0.00     0.074 A 
ATOM     48  C   UNL A   1      46.335  31.049  30.678  1.00  0.00     0.029 A 
ATOM     49  N   UNL A   1      45.046  29.391  29.940  1.00  0.00    -0.354 N 
ATOM     50  N   UNL A   1      44.521  26.646  28.966  1.00  0.00    -0.248 NA
ATOM     51  C   UNL A   1      45.306  24.556  28.271  1.00  0.00     0.031 C 
ATOM     52  C   UNL A   1      47.153  29.964  30.341  1.00  0.00     0.029 A 
ATOM     53  C   UNL A   1      46.347  28.922  29.907  1.00  0.00     0.049 A 
ATOM     54  H   UNL A   1      44.253  28.874  29.673  1.00  0.00     0.167 HD
ATOM     55  C   UNL A   1      45.906  26.621  29.076  1.00  0.00     0.074 A 
ATOM     56  C   UNL A   1      46.335  25.302  28.653  1.00  0.00     0.031 C 
ATOM     57  C   UNL A   1      46.745  27.600  29.491  1.00  0.00     0.031 A 
BRANCH  44  58
ATOM     58  C   UNL A   1      43.958  32.910  31.043  1.00  0.00    -0.014 A 
ATOM     59  C   UNL A   1      44.047  33.208  32.414  1.00  0.00     0.010 A 
ATOM     60  C   UNL A   1      43.987  33.964  30.111  1.00  0.00     0.010 A 
ATOM     61  C   UNL A   1      44.109  34.535  32.847  1.00  0.00     0.020 A 
ATOM     62  C   UNL A   1      44.075  35.292  30.538  1.00  0.00     0.020 A 
ATOM     63  C   UNL A   1      44.111  35.569  31.906  1.00  0.00     0.054 A 
BRANCH  63  64
ATOM     64  S   UNL A   1      44.176  37.285  32.491  1.00  0.00     0.124 S 
ATOM     65  O   UNL A   1      43.950  38.033  31.257  1.00  0.00    -0.237 OA
ATOM     66  O   UNL A   1      43.085  37.336  33.463  1.00  0.00    -0.237 OA
ATOM     67  O   UNL A   1      45.517  37.409  33.058  1.00  0.00    -0.744 OA
ENDBRANCH  63  64
ENDBRANCH  44  58
BRANCH  45  68
ATOM     68  C   UNL A   1      42.591  23.573  27.659  1.00  0.00    -0.014 A 
ATOM     69  C   UNL A   1      42.793  23.327  26.292  1.00  0.00     0.010 A 
ATOM     70  C   UNL A   1      42.244  22.502  28.506  1.00  0.00     0.010 A 
ATOM     71  C   UNL A   1      42.652  22.033  25.779  1.00  0.00     0.020 A 
ATOM     72  C   UNL A   1      42.128  21.204  28.002  1.00  0.00     0.020 A 
ATOM     73  C   UNL A   1      42.326  20.979  26.639  1.00  0.00     0.054 A 
BRANCH  73  74
ATOM     74  S   UNL A   1      42.229  19.296  25.968  1.00  0.00     0.124 S 
ATOM     75  O   UNL A   1      42.774  18.501  27.064  1.00  0.00    -0.237 OA
ATOM     76  O   UNL A   1      40.799  19.135  25.720  1.00  0.00    -0.237 OA
ATOM     77  O   UNL A   1      43.058  19.359  24.766  1.00  0.00    -0.744 OA
ENDBRANCH  73  74
ENDBRANCH  45  68
BRANCH  57  78
ATOM     78  C   UNL A   1      48.211  27.277  29.555  1.00  0.00    -0.014 A 
ATOM     79  C   UNL A   1      49.072  27.595  28.491  1.00  0.00     0.010 A 
ATOM     80  C   UNL A   1      48.746  26.739  30.740  1.00  0.00     0.010 A 
ATOM     81  C   UNL A   1      50.446  27.378  28.611  1.00  0.00     0.020 A 
ATOM     82  C   UNL A   1      50.122  26.540  30.871  1.00  0.00     0.020 A 
ATOM     83  C   UNL A   1      50.963  26.858  29.803  1.00  0.00     0.054 A 
BRANCH  83  84
ATOM     84  S   UNL A   1      52.760  26.670  29.968  1.00  0.00     0.124 S 
ATOM     85  O   UNL A   1      53.181  28.033  30.279  1.00  0.00    -0.237 OA
ATOM     86  O   UNL A   1      52.883  25.709  31.062  1.00  0.00    -0.237 OA
ATOM     87  O   UNL A   1      53.177  26.171  28.660  1.00  0.00    -0.744 OA
ENDBRANCH  83  84
ENDBRANCH  57  78
ENDBRANCH  31  32
ENDBRANCH  24  26
ENDBRANCH  23  24
ENDBRANCH   1  23
TORSDOF 16
ENDMDL
MODEL 3
REMARK VINA RESULT:     -10.5      2.810      8.168
REMARK SMILES CC(C)(C)OC(=O)N1CCC2(CC1)C[C@@H](C(=O)OCCOC(=O)c1ccc(-c3c4nc(c(-c5ccc(S(=O)(=O)[O-])cc5)c5ccc([nH]5)c(-c5ccc(S(=O)(=O)[O-])cc5)c5nc(c(-c6ccc(S(=O)(=O)[O-])cc6)c6ccc3[nH]6)C=C5)C=C4)cc1)CO2
REMARK SMILES IDX 20 1 19 2 18 3 16 4 17 5 15 6 6 7 7 8 8 9 9 10 13 11 10 12
REMARK SMILES IDX 12 13 11 14 14 15 85 16 84 17 5 18 2 19 1 20 3 21 4 22 21 23
REMARK SMILES IDX 22 24 23 25 24 26 25 27 83 28 26 29 82 30 27 31 28 32 29 33
REMARK SMILES IDX 76 34 30 35 81 36 75 37 77 38 31 39 80 40 74 41 73 42 32 44
REMARK SMILES IDX 62 45 43 46 61 47 44 48 47 49 60 50 78 51 45 52 46 53 59 55
REMARK SMILES IDX 79 56 48 57 33 58 34 59 42 60 35 61 41 62 36 63 37 64 38 65
REMARK SMILES IDX 39 66 40 67 63 68 64 69 72 70 65 71 71 72 66 73 67 74 68 75
REMARK SMILES IDX 69 76 70 77 49 78 50 79 58 80 51 81 57 82 52 83 53 84 54 85
REMARK SMILES IDX 55 86 56 87
REMARK H PARENT 77 43 47 54
REMARK Flexibility Score: inf
ROOT
ATOM      1  C   UNL A   1      39.192  20.237  25.705  1.00  0.00     0.275 C 
ENDROOT
BRANCH   1   2
ATOM      2  C   UNL A   1      38.626  21.659  25.751  1.00  0.00     0.274 C 
BRANCH   2   3
ATOM      3  O   UNL A   1      37.188  21.629  25.713  1.00  0.00    -0.462 OA
BRANCH   3   4
ATOM      4  C   UNL A   1      36.577  22.545  24.924  1.00  0.00     0.311 C 
ATOM      5  O   UNL A   1      36.970  23.695  24.762  1.00  0.00    -0.252 OA
BRANCH   4   6
ATOM      6  C   UNL A   1      35.352  22.010  24.208  1.00  0.00     0.128 C 
ATOM      7  C   UNL A   1      30.575  26.325  25.033  1.00  0.00     0.410 C 
ATOM      8  O   UNL A   1      29.421  26.244  24.631  1.00  0.00    -0.224 OA
ATOM      9  N   UNL A   1      31.375  25.233  25.274  1.00  0.00    -0.308 N 
ATOM     10  C   UNL A   1      31.033  23.944  24.694  1.00  0.00     0.126 C 
ATOM     11  C   UNL A   1      32.637  25.281  26.005  1.00  0.00     0.126 C 
ATOM     12  C   UNL A   1      32.137  23.531  23.723  1.00  0.00     0.057 C 
ATOM     13  C   UNL A   1      33.792  24.863  25.106  1.00  0.00     0.057 C 
ATOM     14  C   UNL A   1      33.500  23.512  24.432  1.00  0.00     0.073 C 
ATOM     15  C   UNL A   1      34.623  23.111  23.473  1.00  0.00     0.053 C 
ATOM     16  O   UNL A   1      33.441  22.505  25.463  1.00  0.00    -0.374 OA
ATOM     17  C   UNL A   1      34.287  21.415  25.092  1.00  0.00     0.176 C 
BRANCH   7  18
ATOM     18  O   UNL A   1      31.238  27.489  25.239  1.00  0.00    -0.444 OA
BRANCH  18  19
ATOM     19  C   UNL A   1      31.675  28.312  24.133  1.00  0.00     0.106 C 
ATOM     20  C   UNL A   1      32.973  28.968  24.627  1.00  0.00     0.056 C 
ATOM     21  C   UNL A   1      30.621  29.391  23.878  1.00  0.00     0.056 C 
ATOM     22  C   UNL A   1      32.001  27.517  22.861  1.00  0.00     0.056 C 
ENDBRANCH  18  19
ENDBRANCH   7  18
ENDBRANCH   4   6
ENDBRANCH   3   4
ENDBRANCH   2   3
ENDBRANCH   1   2
BRANCH   1  23
ATOM     23  O   UNL A   1      40.254  20.055  26.660  1.00  0.00    -0.458 OA
BRANCH  23  24
ATOM     24  C   UNL A   1      41.491  19.936  26.127  1.00  0.00     0.338 C 
ATOM     25  O   UNL A   1      41.920  19.026  25.436  1.00  0.00    -0.246 OA
BRANCH  24  26
ATOM     26  C   UNL A   1      42.269  21.148  26.399  1.00  0.00     0.060 A 
ATOM     27  C   UNL A   1      42.619  21.429  27.720  1.00  0.00     0.016 A 
ATOM     28  C   UNL A   1      42.538  22.061  25.382  1.00  0.00     0.016 A 
ATOM     29  C   UNL A   1      43.190  22.650  28.050  1.00  0.00     0.010 A 
ATOM     30  C   UNL A   1      43.158  23.268  25.706  1.00  0.00     0.010 A 
ATOM     31  C   UNL A   1      43.469  23.578  27.043  1.00  0.00    -0.014 A 
BRANCH  31  32
ATOM     32  C   UNL A   1      44.060  24.889  27.384  1.00  0.00     0.031 A 
ATOM     33  C   UNL A   1      43.172  25.997  27.871  1.00  0.00     0.074 A 
ATOM     34  C   UNL A   1      45.383  25.086  27.233  1.00  0.00     0.049 A 
ATOM     35  N   UNL A   1      43.441  27.267  28.013  1.00  0.00    -0.248 NA
ATOM     36  C   UNL A   1      41.796  25.623  28.235  1.00  0.00     0.031 C 
ATOM     37  C   UNL A   1      46.352  24.062  26.836  1.00  0.00     0.029 A 
ATOM     38  N   UNL A   1      46.137  26.222  27.376  1.00  0.00    -0.354 N 
ATOM     39  C   UNL A   1      42.259  27.855  28.445  1.00  0.00     0.074 A 
ATOM     40  C   UNL A   1      41.270  26.802  28.536  1.00  0.00     0.031 C 
ATOM     41  C   UNL A   1      47.569  24.621  26.751  1.00  0.00     0.029 A 
ATOM     42  C   UNL A   1      47.452  26.050  27.016  1.00  0.00     0.049 A 
ATOM     43  H   UNL A   1      45.772  27.076  27.704  1.00  0.00     0.167 HD
ATOM     44  C   UNL A   1      42.023  29.157  28.727  1.00  0.00     0.031 A 
ATOM     45  C   UNL A   1      48.438  26.953  26.856  1.00  0.00     0.031 A 
ATOM     46  C   UNL A   1      43.022  30.188  28.626  1.00  0.00     0.049 A 
ATOM     47  C   UNL A   1      48.142  28.404  27.107  1.00  0.00     0.074 A 
ATOM     48  C   UNL A   1      42.891  31.544  28.872  1.00  0.00     0.029 A 
ATOM     49  N   UNL A   1      44.341  29.972  28.253  1.00  0.00    -0.354 N 
ATOM     50  N   UNL A   1      47.009  28.958  27.471  1.00  0.00    -0.248 NA
ATOM     51  C   UNL A   1      49.246  29.352  26.917  1.00  0.00     0.031 C 
ATOM     52  C   UNL A   1      44.123  32.153  28.606  1.00  0.00     0.029 A 
ATOM     53  C   UNL A   1      45.033  31.170  28.247  1.00  0.00     0.049 A 
ATOM     54  H   UNL A   1      44.726  29.096  28.025  1.00  0.00     0.167 HD
ATOM     55  C   UNL A   1      47.271  30.318  27.577  1.00  0.00     0.074 A 
ATOM     56  C   UNL A   1      48.670  30.502  27.243  1.00  0.00     0.031 C 
ATOM     57  C   UNL A   1      46.430  31.323  27.921  1.00  0.00     0.031 A 
BRANCH  44  58
ATOM     58  C   UNL A   1      40.620  29.537  29.117  1.00  0.00    -0.014 A 
ATOM     59  C   UNL A   1      39.607  29.689  28.153  1.00  0.00     0.010 A 
ATOM     60  C   UNL A   1      40.310  29.745  30.474  1.00  0.00     0.010 A 
ATOM     61  C   UNL A   1      38.325  30.094  28.533  1.00  0.00     0.020 A 
ATOM     62  C   UNL A   1      39.022  30.125  30.861  1.00  0.00     0.020 A 
ATOM     63  C   UNL A   1      38.043  30.320  29.884  1.00  0.00     0.054 A 
BRANCH  63  64
ATOM     64  S   UNL A   1      36.376  30.861  30.351  1.00  0.00     0.124 S 
ATOM     65  O   UNL A   1      36.623  32.220  30.828  1.00  0.00    -0.237 OA
ATOM     66  O   UNL A   1      35.640  30.763  29.093  1.00  0.00    -0.237 OA
ATOM     67  O   UNL A   1      35.976  29.904  31.380  1.00  0.00    -0.744 OA
ENDBRANCH  63  64
ENDBRANCH  44  58
BRANCH  45  68
ATOM     68  C   UNL A   1      49.774  26.498  26.384  1.00  0.00    -0.014 A 
ATOM     69  C   UNL A   1      50.161  26.677  25.047  1.00  0.00     0.010 A 
ATOM     70  C   UNL A   1      50.689  25.934  27.294  1.00  0.00     0.010 A 
ATOM     71  C   UNL A   1      51.442  26.302  24.627  1.00  0.00     0.020 A 
ATOM     72  C   UNL A   1      51.977  25.582  26.884  1.00  0.00     0.020 A 
ATOM     73  C   UNL A   1      52.344  25.762  25.549  1.00  0.00     0.054 A 
BRANCH  73  74
ATOM     74  S   UNL A   1      54.025  25.359  25.002  1.00  0.00     0.124 S 
ATOM     75  O   UNL A   1      54.005  23.900  25.011  1.00  0.00    -0.237 OA
ATOM     76  O   UNL A   1      54.087  25.982  23.682  1.00  0.00    -0.237 OA
ATOM     77  O   UNL A   1      54.874  25.982  26.015  1.00  0.00    -0.744 OA
ENDBRANCH  73  74
ENDBRANCH  45  68
BRANCH  57  78
ATOM     78  C   UNL A   1      47.001  32.710  28.001  1.00  0.00    -0.014 A 
ATOM     79  C   UNL A   1      46.962  33.577  26.896  1.00  0.00     0.010 A 
ATOM     80  C   UNL A   1      47.492  33.182  29.232  1.00  0.00     0.010 A 
ATOM     81  C   UNL A   1      47.407  34.894  27.021  1.00  0.00     0.020 A 
ATOM     82  C   UNL A   1      47.919  34.505  29.366  1.00  0.00     0.020 A 
ATOM     83  C   UNL A   1      47.877  35.352  28.257  1.00  0.00     0.054 A 
BRANCH  83  84
ATOM     84  S   UNL A   1      48.364  37.092  28.418  1.00  0.00     0.124 S 
ATOM     85  O   UNL A   1      47.205  37.785  27.863  1.00  0.00    -0.237 OA
ATOM     86  O   UNL A   1      48.554  37.240  29.859  1.00  0.00    -0.237 OA
ATOM     87  O   UNL A   1      49.587  37.183  27.623  1.00  0.00    -0.744 OA
ENDBRANCH  83  84
ENDBRANCH  57  78
ENDBRANCH  31  32
ENDBRANCH  24  26
ENDBRANCH  23  24
ENDBRANCH   1  23
TORSDOF 16
ENDMDL
