MODEL 1
REMARK VINA RESULT:     -10.6      0.000      0.000
REMARK SMILES CCc1cc(Nc2ccc(C(=O)OCCOC(=O)c3ccc(-c4c5nc(c(-c6ccc(S(=O)(=O)[O-])cc6)c6ccc([nH]6)c(-c6ccc(S(=O)(=O)[O-])cc6)c6nc(c(-c7ccc(S(=O)(=O)[O-])cc7)c7ccc4[nH]7)C=C6)C=C5)cc3)cc2)nc(C(C)C)n1
REMARK SMILES IDX 14 1 13 2 11 3 12 4 10 5 7 6 8 7 80 8 9 9 79 10 6 11 5 13
REMARK SMILES IDX 3 14 4 15 86 16 82 17 81 18 2 19 1 20 83 21 84 22 85 23
REMARK SMILES IDX 15 24 16 25 17 26 18 27 19 28 20 29 78 30 21 31 77 32 22 33
REMARK SMILES IDX 23 34 24 35 71 36 25 37 76 38 70 39 72 40 26 41 75 42 69 43
REMARK SMILES IDX 68 44 27 46 57 47 38 48 56 49 39 50 42 51 55 52 73 53 40 54
REMARK SMILES IDX 41 55 54 57 74 58 43 59 28 60 29 61 37 62 30 63 36 64 31 65
REMARK SMILES IDX 32 66 33 67 34 68 35 69 58 70 59 71 67 72 60 73 66 74 61 75
REMARK SMILES IDX 62 76 63 77 64 78 65 79 44 80 45 81 53 82 46 83 52 84 47 85
REMARK SMILES IDX 48 86 49 87 50 88 51 89
REMARK H PARENT 6 12 72 45 42 56
REMARK Flexibility Score: inf
ROOT
ATOM      1  C   UNL A   1      32.785  28.712  25.243  1.00  0.00     0.275 C 
ENDROOT
BRANCH   1   2
ATOM      2  O   UNL A   1      32.598  27.450  24.569  1.00  0.00    -0.458 OA
BRANCH   2   3
ATOM      3  C   UNL A   1      31.308  27.080  24.394  1.00  0.00     0.338 C 
ATOM      4  O   UNL A   1      30.409  27.778  23.947  1.00  0.00    -0.246 OA
BRANCH   3   5
ATOM      5  C   UNL A   1      31.097  25.665  24.764  1.00  0.00     0.060 A 
ATOM      6  C   UNL A   1      31.113  22.953  25.490  1.00  0.00     0.040 A 
ATOM      7  C   UNL A   1      31.328  23.934  26.453  1.00  0.00     0.027 A 
ATOM      8  C   UNL A   1      30.834  23.346  24.170  1.00  0.00     0.027 A 
ATOM      9  C   UNL A   1      31.349  25.275  26.084  1.00  0.00     0.018 A 
ATOM     10  C   UNL A   1      30.805  24.697  23.806  1.00  0.00     0.018 A 
BRANCH   6  11
ATOM     11  N   UNL A   1      31.408  21.614  25.820  1.00  0.00    -0.340 N 
ATOM     12  H   UNL A   1      30.730  21.094  26.310  1.00  0.00     0.168 HD
BRANCH  11  13
ATOM     13  C   UNL A   1      32.623  20.981  25.482  1.00  0.00     0.134 A 
ATOM     14  C   UNL A   1      33.814  19.134  24.637  1.00  0.00     0.046 A 
ATOM     15  C   UNL A   1      32.596  19.709  24.950  1.00  0.00     0.071 A 
ATOM     16  N   UNL A   1      34.983  19.784  24.811  1.00  0.00    -0.238 NA
ATOM     17  C   UNL A   1      34.919  21.018  25.337  1.00  0.00     0.133 A 
ATOM     18  N   UNL A   1      33.779  21.638  25.663  1.00  0.00    -0.216 NA
BRANCH  14  19
ATOM     19  C   UNL A   1      33.871  17.763  24.014  1.00  0.00     0.053 C 
ATOM     20  C   UNL A   1      34.971  16.895  24.608  1.00  0.00     0.011 C 
ENDBRANCH  14  19
BRANCH  17  21
ATOM     21  C   UNL A   1      36.194  21.805  25.534  1.00  0.00     0.051 C 
ATOM     22  C   UNL A   1      37.347  21.224  24.720  1.00  0.00     0.016 C 
ATOM     23  C   UNL A   1      35.960  23.279  25.208  1.00  0.00     0.016 C 
ENDBRANCH  17  21
ENDBRANCH  11  13
ENDBRANCH   6  11
ENDBRANCH   3   5
ENDBRANCH   2   3
ENDBRANCH   1   2
BRANCH   1  24
ATOM     24  C   UNL A   1      32.636  28.571  26.759  1.00  0.00     0.275 C 
BRANCH  24  25
ATOM     25  O   UNL A   1      33.908  28.697  27.422  1.00  0.00    -0.458 OA
BRANCH  25  26
ATOM     26  C   UNL A   1      34.249  29.958  27.765  1.00  0.00     0.338 C 
ATOM     27  O   UNL A   1      33.529  30.943  27.773  1.00  0.00    -0.246 OA
BRANCH  26  28
ATOM     28  C   UNL A   1      35.652  30.020  28.209  1.00  0.00     0.060 A 
ATOM     29  C   UNL A   1      36.628  30.322  27.270  1.00  0.00     0.016 A 
ATOM     30  C   UNL A   1      36.021  29.553  29.467  1.00  0.00     0.016 A 
ATOM     31  C   UNL A   1      37.956  29.983  27.509  1.00  0.00     0.010 A 
ATOM     32  C   UNL A   1      37.380  29.371  29.762  1.00  0.00     0.010 A 
ATOM     33  C   UNL A   1      38.365  29.524  28.768  1.00  0.00    -0.014 A 
BRANCH  33  34
ATOM     34  C   UNL A   1      39.799  29.186  29.031  1.00  0.00     0.031 A 
ATOM     35  C   UNL A   1      40.740  30.227  29.601  1.00  0.00     0.074 A 
ATOM     36  C   UNL A   1      40.271  27.946  28.777  1.00  0.00     0.049 A 
ATOM     37  N   UNL A   1      42.046  30.194  29.699  1.00  0.00    -0.248 NA
ATOM     38  C   UNL A   1      40.138  31.470  30.111  1.00  0.00     0.031 C 
ATOM     39  C   UNL A   1      39.481  26.818  28.272  1.00  0.00     0.029 A 
ATOM     40  N   UNL A   1      41.534  27.419  28.910  1.00  0.00    -0.354 N 
ATOM     41  C   UNL A   1      42.423  31.426  30.229  1.00  0.00     0.074 A 
ATOM     42  C   UNL A   1      41.210  32.189  30.418  1.00  0.00     0.031 C 
ATOM     43  C   UNL A   1      40.260  25.732  28.183  1.00  0.00     0.029 A 
ATOM     44  C   UNL A   1      41.629  26.105  28.507  1.00  0.00     0.049 A 
ATOM     45  H   UNL A   1      42.298  27.933  29.260  1.00  0.00     0.167 HD
ATOM     46  C   UNL A   1      43.665  31.878  30.533  1.00  0.00     0.031 A 
ATOM     47  C   UNL A   1      42.698  25.301  28.348  1.00  0.00     0.031 A 
ATOM     48  C   UNL A   1      44.868  31.100  30.380  1.00  0.00     0.049 A 
ATOM     49  C   UNL A   1      44.068  25.842  28.638  1.00  0.00     0.074 A 
ATOM     50  C   UNL A   1      46.175  31.473  30.648  1.00  0.00     0.029 A 
ATOM     51  N   UNL A   1      44.911  29.784  29.946  1.00  0.00    -0.354 N 
ATOM     52  N   UNL A   1      44.408  27.033  29.069  1.00  0.00    -0.248 NA
ATOM     53  C   UNL A   1      45.202  24.936  28.408  1.00  0.00     0.031 C 
ATOM     54  C   UNL A   1      47.011  30.395  30.337  1.00  0.00     0.029 A 
ATOM     55  C   UNL A   1      46.220  29.333  29.935  1.00  0.00     0.049 A 
ATOM     56  H   UNL A   1      44.126  29.249  29.684  1.00  0.00     0.167 HD
ATOM     57  C   UNL A   1      45.793  27.011  29.183  1.00  0.00     0.074 A 
ATOM     58  C   UNL A   1      46.225  25.682  28.799  1.00  0.00     0.031 C 
ATOM     59  C   UNL A   1      46.633  28.003  29.564  1.00  0.00     0.031 A 
BRANCH  46  60
ATOM     60  C   UNL A   1      43.800  33.291  31.044  1.00  0.00    -0.014 A 
ATOM     61  C   UNL A   1      43.802  33.573  32.421  1.00  0.00     0.010 A 
ATOM     62  C   UNL A   1      44.004  34.345  30.132  1.00  0.00     0.010 A 
ATOM     63  C   UNL A   1      43.979  34.884  32.876  1.00  0.00     0.020 A 
ATOM     64  C   UNL A   1      44.209  35.652  30.584  1.00  0.00     0.020 A 
ATOM     65  C   UNL A   1      44.183  35.916  31.954  1.00  0.00     0.054 A 
BRANCH  65  66
ATOM     66  S   UNL A   1      44.454  37.599  32.577  1.00  0.00     0.124 S 
ATOM     67  O   UNL A   1      45.909  37.645  32.694  1.00  0.00    -0.237 OA
ATOM     68  O   UNL A   1      43.884  38.428  31.518  1.00  0.00    -0.237 OA
ATOM     69  O   UNL A   1      43.726  37.624  33.843  1.00  0.00    -0.744 OA
ENDBRANCH  65  66
ENDBRANCH  46  60
BRANCH  47  70
ATOM     70  C   UNL A   1      42.521  23.921  27.811  1.00  0.00    -0.014 A 
ATOM     71  C   UNL A   1      42.288  22.833  28.670  1.00  0.00     0.010 A 
ATOM     72  C   UNL A   1      42.600  23.689  26.424  1.00  0.00     0.010 A 
ATOM     73  C   UNL A   1      42.172  21.537  28.156  1.00  0.00     0.020 A 
ATOM     74  C   UNL A   1      42.444  22.402  25.904  1.00  0.00     0.020 A 
ATOM     75  C   UNL A   1      42.253  21.331  26.776  1.00  0.00     0.054 A 
BRANCH  75  76
ATOM     76  S   UNL A   1      42.081  19.646  26.126  1.00  0.00     0.124 S 
ATOM     77  O   UNL A   1      42.484  18.839  27.273  1.00  0.00    -0.237 OA
ATOM     78  O   UNL A   1      40.664  19.584  25.775  1.00  0.00    -0.237 OA
ATOM     79  O   UNL A   1      42.998  19.623  24.989  1.00  0.00    -0.744 OA
ENDBRANCH  75  76
ENDBRANCH  47  70
BRANCH  59  80
ATOM     80  C   UNL A   1      48.099  27.672  29.643  1.00  0.00    -0.014 A 
ATOM     81  C   UNL A   1      48.666  27.135  30.811  1.00  0.00     0.010 A 
ATOM     82  C   UNL A   1      48.910  27.868  28.511  1.00  0.00     0.010 A 
ATOM     83  C   UNL A   1      50.030  26.833  30.856  1.00  0.00     0.020 A 
ATOM     84  C   UNL A   1      50.267  27.541  28.543  1.00  0.00     0.020 A 
ATOM     85  C   UNL A   1      50.821  27.038  29.723  1.00  0.00     0.054 A 
BRANCH  85  86
ATOM     86  S   UNL A   1      52.581  26.603  29.795  1.00  0.00     0.124 S 
ATOM     87  O   UNL A   1      52.800  26.002  28.482  1.00  0.00    -0.237 OA
ATOM     88  O   UNL A   1      53.223  27.897  30.009  1.00  0.00    -0.237 OA
ATOM     89  O   UNL A   1      52.664  25.679  30.925  1.00  0.00    -0.744 OA
ENDBRANCH  85  86
ENDBRANCH  59  80
ENDBRANCH  33  34
ENDBRANCH  26  28
ENDBRANCH  25  26
ENDBRANCH  24  25
ENDBRANCH   1  24
TORSDOF 18
ENDMDL
MODEL 2
REMARK VINA RESULT:     -10.5      0.949      2.116
REMARK SMILES CCc1cc(Nc2ccc(C(=O)OCCOC(=O)c3ccc(-c4c5nc(c(-c6ccc(S(=O)(=O)[O-])cc6)c6ccc([nH]6)c(-c6ccc(S(=O)(=O)[O-])cc6)c6nc(c(-c7ccc(S(=O)(=O)[O-])cc7)c7ccc4[nH]7)C=C6)C=C5)cc3)cc2)nc(C(C)C)n1
REMARK SMILES IDX 14 1 13 2 11 3 12 4 10 5 7 6 8 7 80 8 9 9 79 10 6 11 5 13
REMARK SMILES IDX 3 14 4 15 86 16 82 17 81 18 2 19 1 20 83 21 84 22 85 23
REMARK SMILES IDX 15 24 16 25 17 26 18 27 19 28 20 29 78 30 21 31 77 32 22 33
REMARK SMILES IDX 23 34 24 35 71 36 25 37 76 38 70 39 72 40 26 41 75 42 69 43
REMARK SMILES IDX 68 44 27 46 57 47 38 48 56 49 39 50 42 51 55 52 73 53 40 54
REMARK SMILES IDX 41 55 54 57 74 58 43 59 28 60 29 61 37 62 30 63 36 64 31 65
REMARK SMILES IDX 32 66 33 67 34 68 35 69 58 70 59 71 67 72 60 73 66 74 61 75
REMARK SMILES IDX 62 76 63 77 64 78 65 79 44 80 45 81 53 82 46 83 52 84 47 85
REMARK SMILES IDX 48 86 49 87 50 88 51 89
REMARK H PARENT 6 12 72 45 42 56
REMARK Flexibility Score: inf
ROOT
ATOM      1  C   UNL A   1      32.092  30.386  26.347  1.00  0.00     0.275 C 
ENDROOT
BRANCH   1   2
ATOM      2  O   UNL A   1      32.371  29.957  24.998  1.00  0.00    -0.458 OA
BRANCH   2   3
ATOM      3  C   UNL A   1      31.559  28.981  24.529  1.00  0.00     0.338 C 
ATOM      4  O   UNL A   1      30.535  29.140  23.879  1.00  0.00    -0.246 OA
BRANCH   3   5
ATOM      5  C   UNL A   1      32.087  27.639  24.850  1.00  0.00     0.060 A 
ATOM      6  C   UNL A   1      33.168  25.244  25.841  1.00  0.00     0.040 A 
ATOM      7  C   UNL A   1      31.872  25.619  26.183  1.00  0.00     0.027 A 
ATOM      8  C   UNL A   1      33.897  26.053  24.953  1.00  0.00     0.027 A 
ATOM      9  C   UNL A   1      31.351  26.820  25.714  1.00  0.00     0.018 A 
ATOM     10  C   UNL A   1      33.357  27.238  24.440  1.00  0.00     0.018 A 
BRANCH   6  11
ATOM     11  N   UNL A   1      33.779  24.203  26.569  1.00  0.00    -0.340 N 
ATOM     12  H   UNL A   1      33.798  24.270  27.551  1.00  0.00     0.168 HD
BRANCH  11  13
ATOM     13  C   UNL A   1      34.363  23.070  25.964  1.00  0.00     0.134 A 
ATOM     14  C   UNL A   1      36.250  21.898  25.182  1.00  0.00     0.046 A 
ATOM     15  C   UNL A   1      35.729  23.031  25.778  1.00  0.00     0.071 A 
ATOM     16  N   UNL A   1      35.475  20.856  24.816  1.00  0.00    -0.238 NA
ATOM     17  C   UNL A   1      34.155  20.977  25.030  1.00  0.00     0.133 A 
ATOM     18  N   UNL A   1      33.580  22.040  25.603  1.00  0.00    -0.216 NA
BRANCH  14  19
ATOM     19  C   UNL A   1      37.736  21.759  24.979  1.00  0.00     0.053 C 
ATOM     20  C   UNL A   1      38.543  22.436  26.077  1.00  0.00     0.011 C 
ENDBRANCH  14  19
BRANCH  17  21
ATOM     21  C   UNL A   1      33.238  19.833  24.663  1.00  0.00     0.051 C 
ATOM     22  C   UNL A   1      32.410  20.149  23.420  1.00  0.00     0.016 C 
ATOM     23  C   UNL A   1      34.042  18.546  24.492  1.00  0.00     0.016 C 
ENDBRANCH  17  21
ENDBRANCH  11  13
ENDBRANCH   6  11
ENDBRANCH   3   5
ENDBRANCH   2   3
ENDBRANCH   1   2
BRANCH   1  24
ATOM     24  C   UNL A   1      33.168  31.338  26.871  1.00  0.00     0.275 C 
BRANCH  24  25
ATOM     25  O   UNL A   1      33.750  30.847  28.095  1.00  0.00    -0.458 OA
BRANCH  25  26
ATOM     26  C   UNL A   1      34.345  29.638  27.996  1.00  0.00     0.338 C 
ATOM     27  O   UNL A   1      33.836  28.591  27.630  1.00  0.00    -0.246 OA
BRANCH  26  28
ATOM     28  C   UNL A   1      35.772  29.726  28.345  1.00  0.00     0.060 A 
ATOM     29  C   UNL A   1      36.682  30.009  27.335  1.00  0.00     0.016 A 
ATOM     30  C   UNL A   1      36.228  29.301  29.589  1.00  0.00     0.016 A 
ATOM     31  C   UNL A   1      38.026  29.690  27.497  1.00  0.00     0.010 A 
ATOM     32  C   UNL A   1      37.605  29.141  29.800  1.00  0.00     0.010 A 
ATOM     33  C   UNL A   1      38.522  29.273  28.739  1.00  0.00    -0.014 A 
BRANCH  33  34
ATOM     34  C   UNL A   1      39.974  28.957  28.917  1.00  0.00     0.031 A 
ATOM     35  C   UNL A   1      40.934  30.017  29.414  1.00  0.00     0.074 A 
ATOM     36  C   UNL A   1      40.446  27.720  28.650  1.00  0.00     0.049 A 
ATOM     37  N   UNL A   1      42.244  30.003  29.432  1.00  0.00    -0.248 NA
ATOM     38  C   UNL A   1      40.348  31.259  29.945  1.00  0.00     0.031 C 
ATOM     39  C   UNL A   1      39.641  26.575  28.209  1.00  0.00     0.029 A 
ATOM     40  N   UNL A   1      41.722  27.210  28.711  1.00  0.00    -0.354 N 
ATOM     41  C   UNL A   1      42.636  31.246  29.922  1.00  0.00     0.074 A 
ATOM     42  C   UNL A   1      41.427  31.996  30.176  1.00  0.00     0.031 C 
ATOM     43  C   UNL A   1      40.429  25.498  28.085  1.00  0.00     0.029 A 
ATOM     44  C   UNL A   1      41.810  25.893  28.319  1.00  0.00     0.049 A 
ATOM     45  H   UNL A   1      42.499  27.738  29.007  1.00  0.00     0.167 HD
ATOM     46  C   UNL A   1      43.888  31.718  30.143  1.00  0.00     0.031 A 
ATOM     47  C   UNL A   1      42.877  25.100  28.105  1.00  0.00     0.031 A 
ATOM     48  C   UNL A   1      45.090  30.953  29.926  1.00  0.00     0.049 A 
ATOM     49  C   UNL A   1      44.255  25.663  28.302  1.00  0.00     0.074 A 
ATOM     50  C   UNL A   1      46.406  31.346  30.107  1.00  0.00     0.029 A 
ATOM     51  N   UNL A   1      45.124  29.632  29.506  1.00  0.00    -0.354 N 
ATOM     52  N   UNL A   1      44.605  26.864  28.697  1.00  0.00    -0.248 NA
ATOM     53  C   UNL A   1      45.385  24.768  28.015  1.00  0.00     0.031 C 
ATOM     54  C   UNL A   1      47.235  30.275  29.760  1.00  0.00     0.029 A 
ATOM     55  C   UNL A   1      46.436  29.197  29.420  1.00  0.00     0.049 A 
ATOM     56  H   UNL A   1      44.332  29.084  29.301  1.00  0.00     0.167 HD
ATOM     57  C   UNL A   1      45.995  26.860  28.725  1.00  0.00     0.074 A 
ATOM     58  C   UNL A   1      46.420  25.532  28.332  1.00  0.00     0.031 C 
ATOM     59  C   UNL A   1      46.843  27.868  29.042  1.00  0.00     0.031 A 
BRANCH  46  60
ATOM     60  C   UNL A   1      44.035  33.139  30.627  1.00  0.00    -0.014 A 
ATOM     61  C   UNL A   1      44.086  34.217  29.727  1.00  0.00     0.010 A 
ATOM     62  C   UNL A   1      44.047  33.405  32.011  1.00  0.00     0.010 A 
ATOM     63  C   UNL A   1      44.172  35.531  30.199  1.00  0.00     0.020 A 
ATOM     64  C   UNL A   1      44.105  34.719  32.486  1.00  0.00     0.020 A 
ATOM     65  C   UNL A   1      44.179  35.774  31.576  1.00  0.00     0.054 A 
BRANCH  65  66
ATOM     66  S   UNL A   1      44.245  37.492  32.157  1.00  0.00     0.124 S 
ATOM     67  O   UNL A   1      43.762  38.224  30.990  1.00  0.00    -0.237 OA
ATOM     68  O   UNL A   1      43.344  37.476  33.306  1.00  0.00    -0.237 OA
ATOM     69  O   UNL A   1      45.656  37.697  32.479  1.00  0.00    -0.744 OA
ENDBRANCH  65  66
ENDBRANCH  46  60
BRANCH  47  70
ATOM     70  C   UNL A   1      42.686  23.711  27.597  1.00  0.00    -0.014 A 
ATOM     71  C   UNL A   1      42.308  22.669  28.461  1.00  0.00     0.010 A 
ATOM     72  C   UNL A   1      42.899  23.423  26.235  1.00  0.00     0.010 A 
ATOM     73  C   UNL A   1      42.179  21.362  27.980  1.00  0.00     0.020 A 
ATOM     74  C   UNL A   1      42.732  22.126  25.743  1.00  0.00     0.020 A 
ATOM     75  C   UNL A   1      42.394  21.099  26.624  1.00  0.00     0.054 A 
BRANCH  75  76
ATOM     76  S   UNL A   1      42.204  19.401  26.015  1.00  0.00     0.124 S 
ATOM     77  O   UNL A   1      40.775  19.346  25.721  1.00  0.00    -0.237 OA
ATOM     78  O   UNL A   1      43.090  19.380  24.855  1.00  0.00    -0.237 OA
ATOM     79  O   UNL A   1      42.644  18.583  27.142  1.00  0.00    -0.744 OA
ENDBRANCH  75  76
ENDBRANCH  47  70
BRANCH  59  80
ATOM     80  C   UNL A   1      48.315  27.557  29.034  1.00  0.00    -0.014 A 
ATOM     81  C   UNL A   1      49.087  27.697  27.868  1.00  0.00     0.010 A 
ATOM     82  C   UNL A   1      48.940  27.154  30.228  1.00  0.00     0.010 A 
ATOM     83  C   UNL A   1      50.453  27.404  27.889  1.00  0.00     0.020 A 
ATOM     84  C   UNL A   1      50.310  26.889  30.260  1.00  0.00     0.020 A 
ATOM     85  C   UNL A   1      51.056  27.002  29.085  1.00  0.00     0.054 A 
BRANCH  85  86
ATOM     86  S   UNL A   1      52.838  26.665  29.095  1.00  0.00     0.124 S 
ATOM     87  O   UNL A   1      53.012  25.912  27.856  1.00  0.00    -0.237 OA
ATOM     88  O   UNL A   1      53.417  28.006  29.102  1.00  0.00    -0.237 OA
ATOM     89  O   UNL A   1      53.040  25.900  30.323  1.00  0.00    -0.744 OA
ENDBRANCH  85  86
ENDBRANCH  59  80
ENDBRANCH  33  34
ENDBRANCH  26  28
ENDBRANCH  25  26
ENDBRANCH  24  25
ENDBRANCH   1  24
TORSDOF 18
ENDMDL
MODEL 3
REMARK VINA RESULT:     -10.4      3.677      9.626
REMARK SMILES CCc1cc(Nc2ccc(C(=O)OCCOC(=O)c3ccc(-c4c5nc(c(-c6ccc(S(=O)(=O)[O-])cc6)c6ccc([nH]6)c(-c6ccc(S(=O)(=O)[O-])cc6)c6nc(c(-c7ccc(S(=O)(=O)[O-])cc7)c7ccc4[nH]7)C=C6)C=C5)cc3)cc2)nc(C(C)C)n1
REMARK SMILES IDX 14 1 13 2 11 3 12 4 10 5 7 6 8 7 80 8 9 9 79 10 6 11 5 13
REMARK SMILES IDX 3 14 4 15 86 16 82 17 81 18 2 19 1 20 83 21 84 22 85 23
REMARK SMILES IDX 15 24 16 25 17 26 18 27 19 28 20 29 78 30 21 31 77 32 22 33
REMARK SMILES IDX 23 34 24 35 71 36 25 37 76 38 70 39 72 40 26 41 75 42 69 43
REMARK SMILES IDX 68 44 27 46 57 47 38 48 56 49 39 50 42 51 55 52 73 53 40 54
REMARK SMILES IDX 41 55 54 57 74 58 43 59 28 60 29 61 37 62 30 63 36 64 31 65
REMARK SMILES IDX 32 66 33 67 34 68 35 69 58 70 59 71 67 72 60 73 66 74 61 75
REMARK SMILES IDX 62 76 63 77 64 78 65 79 44 80 45 81 53 82 46 83 52 84 47 85
REMARK SMILES IDX 48 86 49 87 50 88 51 89
REMARK H PARENT 6 12 72 45 42 56
REMARK Flexibility Score: inf
ROOT
ATOM      1  C   UNL A   1      35.109  33.241  30.432  1.00  0.00     0.275 C 
ENDROOT
BRANCH   1   2
ATOM      2  O   UNL A   1      34.489  32.252  29.585  1.00  0.00    -0.458 OA
BRANCH   2   3
ATOM      3  C   UNL A   1      35.077  32.085  28.377  1.00  0.00     0.338 C 
ATOM      4  O   UNL A   1      36.123  32.596  28.003  1.00  0.00    -0.246 OA
BRANCH   3   5
ATOM      5  C   UNL A   1      34.320  31.135  27.534  1.00  0.00     0.060 A 
ATOM      6  C   UNL A   1      32.640  29.273  26.271  1.00  0.00     0.040 A 
ATOM      7  C   UNL A   1      32.214  30.586  26.454  1.00  0.00     0.027 A 
ATOM      8  C   UNL A   1      33.936  28.917  26.678  1.00  0.00     0.027 A 
ATOM      9  C   UNL A   1      33.037  31.497  27.107  1.00  0.00     0.018 A 
ATOM     10  C   UNL A   1      34.787  29.846  27.290  1.00  0.00     0.018 A 
BRANCH   6  11
ATOM     11  N   UNL A   1      31.684  28.305  25.902  1.00  0.00    -0.340 N 
ATOM     12  H   UNL A   1      31.284  27.751  26.611  1.00  0.00     0.168 HD
BRANCH  11  13
ATOM     13  C   UNL A   1      31.271  28.088  24.570  1.00  0.00     0.134 A 
ATOM     14  C   UNL A   1      31.472  26.963  22.511  1.00  0.00     0.046 A 
ATOM     15  C   UNL A   1      31.916  27.136  23.809  1.00  0.00     0.071 A 
ATOM     16  N   UNL A   1      30.439  27.666  22.004  1.00  0.00    -0.238 NA
ATOM     17  C   UNL A   1      29.869  28.576  22.812  1.00  0.00     0.133 A 
ATOM     18  N   UNL A   1      30.242  28.797  24.078  1.00  0.00    -0.216 NA
BRANCH  14  19
ATOM     19  C   UNL A   1      32.096  25.916  21.626  1.00  0.00     0.053 C 
ATOM     20  C   UNL A   1      32.932  24.912  22.406  1.00  0.00     0.011 C 
ENDBRANCH  14  19
BRANCH  17  21
ATOM     21  C   UNL A   1      28.692  29.378  22.309  1.00  0.00     0.051 C 
ATOM     22  C   UNL A   1      27.401  29.001  23.032  1.00  0.00     0.016 C 
ATOM     23  C   UNL A   1      28.985  30.873  22.421  1.00  0.00     0.016 C 
ENDBRANCH  17  21
ENDBRANCH  11  13
ENDBRANCH   6  11
ENDBRANCH   3   5
ENDBRANCH   2   3
ENDBRANCH   1   2
BRANCH   1  24
ATOM     24  C   UNL A   1      35.907  32.594  31.565  1.00  0.00     0.275 C 
BRANCH  24  25
ATOM     25  O   UNL A   1      37.055  31.885  31.057  1.00  0.00    -0.458 OA
BRANCH  25  26
ATOM     26  C   UNL A   1      37.004  30.543  31.200  1.00  0.00     0.338 C 
ATOM     27  O   UNL A   1      36.156  29.894  31.789  1.00  0.00    -0.246 OA
BRANCH  26  28
ATOM     28  C   UNL A   1      38.115  29.896  30.481  1.00  0.00     0.060 A 
ATOM     29  C   UNL A   1      39.111  29.280  31.225  1.00  0.00     0.016 A 
ATOM     30  C   UNL A   1      38.295  30.104  29.117  1.00  0.00     0.016 A 
ATOM     31  C   UNL A   1      40.358  29.041  30.658  1.00  0.00     0.010 A 
ATOM     32  C   UNL A   1      39.497  29.707  28.514  1.00  0.00     0.010 A 
ATOM     33  C   UNL A   1      40.572  29.225  29.285  1.00  0.00    -0.014 A 
BRANCH  33  34
ATOM     34  C   UNL A   1      41.907  28.942  28.673  1.00  0.00     0.031 A 
ATOM     35  C   UNL A   1      42.237  27.556  28.159  1.00  0.00     0.074 A 
ATOM     36  C   UNL A   1      42.833  29.919  28.559  1.00  0.00     0.049 A 
ATOM     37  N   UNL A   1      43.395  27.063  27.795  1.00  0.00    -0.248 NA
ATOM     38  C   UNL A   1      41.126  26.595  28.055  1.00  0.00     0.031 C 
ATOM     39  C   UNL A   1      42.653  31.318  28.961  1.00  0.00     0.029 A 
ATOM     40  N   UNL A   1      44.116  29.891  28.065  1.00  0.00    -0.354 N 
ATOM     41  C   UNL A   1      43.161  25.729  27.473  1.00  0.00     0.074 A 
ATOM     42  C   UNL A   1      41.754  25.484  27.699  1.00  0.00     0.031 C 
ATOM     43  C   UNL A   1      43.757  32.015  28.660  1.00  0.00     0.029 A 
ATOM     44  C   UNL A   1      44.769  31.100  28.153  1.00  0.00     0.049 A 
ATOM     45  H   UNL A   1      44.529  29.081  27.685  1.00  0.00     0.167 HD
ATOM     46  C   UNL A   1      44.038  24.794  27.028  1.00  0.00     0.031 A 
ATOM     47  C   UNL A   1      46.052  31.436  27.919  1.00  0.00     0.031 A 
ATOM     48  C   UNL A   1      45.430  25.052  26.766  1.00  0.00     0.049 A 
ATOM     49  C   UNL A   1      47.016  30.371  27.480  1.00  0.00     0.074 A 
ATOM     50  C   UNL A   1      46.403  24.169  26.326  1.00  0.00     0.029 A 
ATOM     51  N   UNL A   1      46.045  26.288  26.894  1.00  0.00    -0.354 N 
ATOM     52  N   UNL A   1      46.790  29.100  27.251  1.00  0.00    -0.248 NA
ATOM     53  C   UNL A   1      48.412  30.783  27.279  1.00  0.00     0.031 C 
ATOM     54  C   UNL A   1      47.613  24.862  26.226  1.00  0.00     0.029 A 
ATOM     55  C   UNL A   1      47.382  26.189  26.545  1.00  0.00     0.049 A 
ATOM     56  H   UNL A   1      45.597  27.114  27.189  1.00  0.00     0.167 HD
ATOM     57  C   UNL A   1      48.011  28.565  26.859  1.00  0.00     0.074 A 
ATOM     58  C   UNL A   1      48.966  29.655  26.857  1.00  0.00     0.031 C 
ATOM     59  C   UNL A   1      48.316  27.286  26.535  1.00  0.00     0.031 A 
BRANCH  46  60
ATOM     60  C   UNL A   1      43.528  23.390  26.811  1.00  0.00    -0.014 A 
ATOM     61  C   UNL A   1      43.742  22.714  25.597  1.00  0.00     0.010 A 
ATOM     62  C   UNL A   1      42.890  22.710  27.867  1.00  0.00     0.010 A 
ATOM     63  C   UNL A   1      43.305  21.395  25.434  1.00  0.00     0.020 A 
ATOM     64  C   UNL A   1      42.478  21.383  27.717  1.00  0.00     0.020 A 
ATOM     65  C   UNL A   1      42.677  20.737  26.496  1.00  0.00     0.054 A 
BRANCH  65  66
ATOM     66  S   UNL A   1      42.163  19.012  26.269  1.00  0.00     0.124 S 
ATOM     67  O   UNL A   1      42.323  18.470  27.615  1.00  0.00    -0.237 OA
ATOM     68  O   UNL A   1      40.784  19.147  25.806  1.00  0.00    -0.237 OA
ATOM     69  O   UNL A   1      43.102  18.496  25.275  1.00  0.00    -0.744 OA
ENDBRANCH  65  66
ENDBRANCH  46  60
BRANCH  47  70
ATOM     70  C   UNL A   1      46.519  32.829  28.176  1.00  0.00    -0.014 A 
ATOM     71  C   UNL A   1      46.851  33.253  29.473  1.00  0.00     0.010 A 
ATOM     72  C   UNL A   1      46.620  33.746  27.112  1.00  0.00     0.010 A 
ATOM     73  C   UNL A   1      47.243  34.577  29.707  1.00  0.00     0.020 A 
ATOM     74  C   UNL A   1      47.048  35.057  27.335  1.00  0.00     0.020 A 
ATOM     75  C   UNL A   1      47.336  35.470  28.635  1.00  0.00     0.054 A 
BRANCH  75  76
ATOM     76  S   UNL A   1      47.863  37.176  28.954  1.00  0.00     0.124 S 
ATOM     77  O   UNL A   1      49.268  37.135  28.559  1.00  0.00    -0.237 OA
ATOM     78  O   UNL A   1      46.982  37.948  28.083  1.00  0.00    -0.237 OA
ATOM     79  O   UNL A   1      47.619  37.347  30.385  1.00  0.00    -0.744 OA
ENDBRANCH  75  76
ENDBRANCH  47  70
BRANCH  59  80
ATOM     80  C   UNL A   1      49.728  27.005  26.093  1.00  0.00    -0.014 A 
ATOM     81  C   UNL A   1      50.718  26.616  27.011  1.00  0.00     0.010 A 
ATOM     82  C   UNL A   1      50.053  27.097  24.728  1.00  0.00     0.010 A 
ATOM     83  C   UNL A   1      52.020  26.358  26.574  1.00  0.00     0.020 A 
ATOM     84  C   UNL A   1      51.346  26.812  24.284  1.00  0.00     0.020 A 
ATOM     85  C   UNL A   1      52.325  26.459  25.214  1.00  0.00     0.054 A 
BRANCH  85  86
ATOM     86  S   UNL A   1      54.013  26.082  24.667  1.00  0.00     0.124 S 
ATOM     87  O   UNL A   1      54.807  27.013  25.464  1.00  0.00    -0.237 OA
ATOM     88  O   UNL A   1      54.157  24.671  25.020  1.00  0.00    -0.237 OA
ATOM     89  O   UNL A   1      53.983  26.358  23.232  1.00  0.00    -0.744 OA
ENDBRANCH  85  86
ENDBRANCH  59  80
ENDBRANCH  33  34
ENDBRANCH  26  28
ENDBRANCH  25  26
ENDBRANCH  24  25
ENDBRANCH   1  24
TORSDOF 18
ENDMDL
