MODEL 1
REMARK VINA RESULT:     -11.0      0.000      0.000
REMARK SMILES Cc1ccc(F)cc1NC(=O)c1nn(C)cc1C(=O)OCCOC(=O)c1ccc(-c2c3nc(c(-c4ccc(S(=O)(=O)[O-])cc4)c4ccc([nH]4)c(-c4ccc(S(=O)(=O)[O-])cc4)c4nc(c(-c5ccc(S(=O)(=O)[O-])cc5)c5ccc2[nH]5)C=C4)C=C3)cc1
REMARK SMILES IDX 22 1 21 2 20 3 18 4 19 5 17 6 12 7 13 8 14 9 16 10 15 11
REMARK SMILES IDX 10 12 9 13 11 15 8 16 1 17 2 18 3 19 4 20 7 21 5 22 6 23
REMARK SMILES IDX 23 24 24 25 25 26 26 27 27 28 85 29 28 30 84 31 29 32 30 33
REMARK SMILES IDX 31 34 78 35 32 36 83 37 77 38 79 39 33 40 82 41 76 42 75 43
REMARK SMILES IDX 34 45 64 46 45 47 63 48 46 49 49 50 62 51 80 52 47 53 48 54
REMARK SMILES IDX 61 56 81 57 50 58 35 59 36 60 44 61 37 62 43 63 38 64 39 65
REMARK SMILES IDX 40 66 41 67 42 68 65 69 66 70 74 71 67 72 73 73 68 74 69 75
REMARK SMILES IDX 70 76 71 77 72 78 51 79 52 80 60 81 53 82 59 83 54 84 55 85
REMARK SMILES IDX 56 86 57 87 58 88
REMARK H PARENT 9 14 79 44 49 55
REMARK Flexibility Score: inf
ROOT
ATOM      1  C   UNL A   1      34.717  29.526  27.850  1.00  0.00     0.275 C 
ENDROOT
BRANCH   1   2
ATOM      2  C   UNL A   1      34.028  28.910  26.635  1.00  0.00     0.275 C 
BRANCH   2   3
ATOM      3  O   UNL A   1      33.384  27.652  26.929  1.00  0.00    -0.458 OA
BRANCH   3   4
ATOM      4  C   UNL A   1      32.026  27.700  27.031  1.00  0.00     0.342 C 
ATOM      5  O   UNL A   1      31.416  27.918  28.073  1.00  0.00    -0.246 OA
BRANCH   4   6
ATOM      6  C   UNL A   1      31.350  27.295  25.822  1.00  0.00     0.111 A 
ATOM      7  C   UNL A   1      30.818  26.031  25.422  1.00  0.00     0.165 A 
ATOM      8  N   UNL A   1      30.416  26.068  24.136  1.00  0.00    -0.167 NA
ATOM      9  N   UNL A   1      30.754  27.289  23.713  1.00  0.00    -0.274 N 
ATOM     10  C   UNL A   1      31.240  28.092  24.696  1.00  0.00     0.125 A 
ATOM     11  C   UNL A   1      30.667  27.593  22.306  1.00  0.00     0.173 C 
BRANCH   7  12
ATOM     12  C   UNL A   1      30.722  24.772  26.159  1.00  0.00     0.277 C 
ATOM     13  N   UNL A   1      31.685  23.790  26.050  1.00  0.00    -0.320 N 
ATOM     14  H   UNL A   1      31.463  22.975  26.556  1.00  0.00     0.170 HD
ATOM     15  O   UNL A   1      29.755  24.545  26.889  1.00  0.00    -0.267 OA
BRANCH  13  16
ATOM     16  C   UNL A   1      32.918  23.700  25.370  1.00  0.00     0.047 A 
ATOM     17  C   UNL A   1      31.730  22.754  23.272  1.00  0.00     0.046 C 
ATOM     18  C   UNL A   1      32.938  23.240  24.030  1.00  0.00    -0.027 A 
ATOM     19  C   UNL A   1      34.150  23.248  23.309  1.00  0.00     0.008 A 
ATOM     20  C   UNL A   1      35.328  23.690  23.898  1.00  0.00     0.039 A 
ATOM     21  C   UNL A   1      34.128  24.059  25.965  1.00  0.00     0.065 A 
ATOM     22  C   UNL A   1      35.308  24.072  25.227  1.00  0.00     0.125 A 
ATOM     23  F   UNL A   1      36.446  24.462  25.817  1.00  0.00    -0.207 F 
ENDBRANCH  13  16
ENDBRANCH   7  12
ENDBRANCH   4   6
ENDBRANCH   3   4
ENDBRANCH   2   3
ENDBRANCH   1   2
BRANCH   1  24
ATOM     24  O   UNL A   1      36.136  29.624  27.629  1.00  0.00    -0.458 OA
BRANCH  24  25
ATOM     25  C   UNL A   1      36.878  29.350  28.726  1.00  0.00     0.338 C 
ATOM     26  O   UNL A   1      36.507  29.425  29.880  1.00  0.00    -0.246 OA
BRANCH  25  27
ATOM     27  C   UNL A   1      38.253  28.942  28.392  1.00  0.00     0.060 A 
ATOM     28  C   UNL A   1      39.103  28.438  29.372  1.00  0.00     0.016 A 
ATOM     29  C   UNL A   1      38.763  29.308  27.143  1.00  0.00     0.016 A 
ATOM     30  C   UNL A   1      40.475  28.389  29.140  1.00  0.00     0.010 A 
ATOM     31  C   UNL A   1      40.134  29.198  26.888  1.00  0.00     0.010 A 
ATOM     32  C   UNL A   1      41.005  28.770  27.899  1.00  0.00    -0.014 A 
BRANCH  32  33
ATOM     33  C   UNL A   1      42.459  28.623  27.655  1.00  0.00     0.031 A 
ATOM     34  C   UNL A   1      43.435  29.720  27.970  1.00  0.00     0.074 A 
ATOM     35  C   UNL A   1      42.896  27.446  27.171  1.00  0.00     0.049 A 
ATOM     36  N   UNL A   1      44.726  29.761  27.757  1.00  0.00    -0.248 NA
ATOM     37  C   UNL A   1      42.899  30.932  28.607  1.00  0.00     0.031 C 
ATOM     38  C   UNL A   1      42.042  26.292  26.879  1.00  0.00     0.029 A 
ATOM     39  N   UNL A   1      44.158  27.015  26.866  1.00  0.00    -0.354 N 
ATOM     40  C   UNL A   1      45.152  31.008  28.202  1.00  0.00     0.074 A 
ATOM     41  C   UNL A   1      43.980  31.695  28.705  1.00  0.00     0.031 C 
ATOM     42  C   UNL A   1      42.809  25.269  26.484  1.00  0.00     0.029 A 
ATOM     43  C   UNL A   1      44.196  25.717  26.422  1.00  0.00     0.049 A 
ATOM     44  H   UNL A   1      44.959  27.581  26.956  1.00  0.00     0.167 HD
ATOM     45  C   UNL A   1      46.403  31.530  28.178  1.00  0.00     0.031 A 
ATOM     46  C   UNL A   1      45.225  24.971  25.985  1.00  0.00     0.031 A 
ATOM     47  C   UNL A   1      47.561  30.824  27.692  1.00  0.00     0.049 A 
ATOM     48  C   UNL A   1      46.589  25.581  25.931  1.00  0.00     0.074 A 
ATOM     49  C   UNL A   1      48.878  31.253  27.644  1.00  0.00     0.029 A 
ATOM     50  N   UNL A   1      47.545  29.538  27.171  1.00  0.00    -0.354 N 
ATOM     51  N   UNL A   1      46.963  26.783  26.303  1.00  0.00    -0.248 NA
ATOM     52  C   UNL A   1      47.662  24.748  25.380  1.00  0.00     0.031 C 
ATOM     53  C   UNL A   1      49.648  30.245  27.052  1.00  0.00     0.029 A 
ATOM     54  C   UNL A   1      48.820  29.170  26.770  1.00  0.00     0.049 A 
ATOM     55  H   UNL A   1      46.745  28.969  27.097  1.00  0.00     0.167 HD
ATOM     56  C   UNL A   1      48.317  26.859  26.014  1.00  0.00     0.074 A 
ATOM     57  C   UNL A   1      48.700  25.571  25.466  1.00  0.00     0.031 C 
ATOM     58  C   UNL A   1      49.165  27.903  26.181  1.00  0.00     0.031 A 
BRANCH  45  59
ATOM     59  C   UNL A   1      46.585  32.954  28.634  1.00  0.00    -0.014 A 
ATOM     60  C   UNL A   1      46.334  34.044  27.782  1.00  0.00     0.010 A 
ATOM     61  C   UNL A   1      46.945  33.204  29.972  1.00  0.00     0.010 A 
ATOM     62  C   UNL A   1      46.458  35.356  28.255  1.00  0.00     0.020 A 
ATOM     63  C   UNL A   1      47.052  34.512  30.453  1.00  0.00     0.020 A 
ATOM     64  C   UNL A   1      46.820  35.582  29.588  1.00  0.00     0.054 A 
BRANCH  64  65
ATOM     65  S   UNL A   1      46.932  37.288  30.195  1.00  0.00     0.124 S 
ATOM     66  O   UNL A   1      48.371  37.533  30.140  1.00  0.00    -0.237 OA
ATOM     67  O   UNL A   1      46.132  38.033  29.226  1.00  0.00    -0.237 OA
ATOM     68  O   UNL A   1      46.365  37.216  31.539  1.00  0.00    -0.744 OA
ENDBRANCH  64  65
ENDBRANCH  45  59
BRANCH  46  69
ATOM     69  C   UNL A   1      44.955  23.584  25.534  1.00  0.00    -0.014 A 
ATOM     70  C   UNL A   1      44.691  23.315  24.182  1.00  0.00     0.010 A 
ATOM     71  C   UNL A   1      45.107  22.513  26.435  1.00  0.00     0.010 A 
ATOM     72  C   UNL A   1      44.621  21.994  23.729  1.00  0.00     0.020 A 
ATOM     73  C   UNL A   1      45.060  21.193  25.982  1.00  0.00     0.020 A 
ATOM     74  C   UNL A   1      44.822  20.942  24.629  1.00  0.00     0.054 A 
BRANCH  74  75
ATOM     75  S   UNL A   1      44.894  19.241  24.004  1.00  0.00     0.124 S 
ATOM     76  O   UNL A   1      44.488  19.412  22.612  1.00  0.00    -0.237 OA
ATOM     77  O   UNL A   1      46.292  18.874  24.214  1.00  0.00    -0.237 OA
ATOM     78  O   UNL A   1      43.941  18.530  24.854  1.00  0.00    -0.744 OA
ENDBRANCH  74  75
ENDBRANCH  46  69
BRANCH  58  79
ATOM     79  C   UNL A   1      50.581  27.685  25.730  1.00  0.00    -0.014 A 
ATOM     80  C   UNL A   1      50.954  27.948  24.400  1.00  0.00     0.010 A 
ATOM     81  C   UNL A   1      51.538  27.190  26.633  1.00  0.00     0.010 A 
ATOM     82  C   UNL A   1      52.250  27.668  23.965  1.00  0.00     0.020 A 
ATOM     83  C   UNL A   1      52.841  26.928  26.205  1.00  0.00     0.020 A 
ATOM     84  C   UNL A   1      53.182  27.145  24.867  1.00  0.00     0.054 A 
BRANCH  84  85
ATOM     85  S   UNL A   1      54.854  26.766  24.279  1.00  0.00     0.124 S 
ATOM     86  O   UNL A   1      54.668  26.747  22.831  1.00  0.00    -0.237 OA
ATOM     87  O   UNL A   1      55.643  27.882  24.796  1.00  0.00    -0.237 OA
ATOM     88  O   UNL A   1      55.147  25.471  24.889  1.00  0.00    -0.744 OA
ENDBRANCH  84  85
ENDBRANCH  58  79
ENDBRANCH  32  33
ENDBRANCH  25  27
ENDBRANCH  24  25
ENDBRANCH   1  24
TORSDOF 16
ENDMDL
MODEL 2
REMARK VINA RESULT:     -10.8      3.768      4.885
REMARK SMILES Cc1ccc(F)cc1NC(=O)c1nn(C)cc1C(=O)OCCOC(=O)c1ccc(-c2c3nc(c(-c4ccc(S(=O)(=O)[O-])cc4)c4ccc([nH]4)c(-c4ccc(S(=O)(=O)[O-])cc4)c4nc(c(-c5ccc(S(=O)(=O)[O-])cc5)c5ccc2[nH]5)C=C4)C=C3)cc1
REMARK SMILES IDX 22 1 21 2 20 3 18 4 19 5 17 6 12 7 13 8 14 9 16 10 15 11
REMARK SMILES IDX 10 12 9 13 11 15 8 16 1 17 2 18 3 19 4 20 7 21 5 22 6 23
REMARK SMILES IDX 23 24 24 25 25 26 26 27 27 28 85 29 28 30 84 31 29 32 30 33
REMARK SMILES IDX 31 34 78 35 32 36 83 37 77 38 79 39 33 40 82 41 76 42 75 43
REMARK SMILES IDX 34 45 64 46 45 47 63 48 46 49 49 50 62 51 80 52 47 53 48 54
REMARK SMILES IDX 61 56 81 57 50 58 35 59 36 60 44 61 37 62 43 63 38 64 39 65
REMARK SMILES IDX 40 66 41 67 42 68 65 69 66 70 74 71 67 72 73 73 68 74 69 75
REMARK SMILES IDX 70 76 71 77 72 78 51 79 52 80 60 81 53 82 59 83 54 84 55 85
REMARK SMILES IDX 56 86 57 87 58 88
REMARK H PARENT 9 14 79 44 49 55
REMARK Flexibility Score: inf
ROOT
ATOM      1  C   UNL A   1      33.513  28.929  25.534  1.00  0.00     0.275 C 
ENDROOT
BRANCH   1   2
ATOM      2  C   UNL A   1      33.459  27.547  24.887  1.00  0.00     0.275 C 
BRANCH   2   3
ATOM      3  O   UNL A   1      33.875  26.490  25.779  1.00  0.00    -0.458 OA
BRANCH   3   4
ATOM      4  C   UNL A   1      33.350  25.261  25.513  1.00  0.00     0.342 C 
ATOM      5  O   UNL A   1      32.161  25.046  25.299  1.00  0.00    -0.246 OA
BRANCH   4   6
ATOM      6  C   UNL A   1      34.301  24.189  25.678  1.00  0.00     0.111 A 
ATOM      7  C   UNL A   1      34.182  22.916  26.317  1.00  0.00     0.165 A 
ATOM      8  N   UNL A   1      35.378  22.298  26.375  1.00  0.00    -0.167 NA
ATOM      9  N   UNL A   1      36.239  23.181  25.861  1.00  0.00    -0.274 N 
ATOM     10  C   UNL A   1      35.643  24.292  25.355  1.00  0.00     0.125 A 
ATOM     11  C   UNL A   1      37.654  22.928  25.975  1.00  0.00     0.173 C 
BRANCH   7  12
ATOM     12  C   UNL A   1      33.021  22.276  26.931  1.00  0.00     0.277 C 
ATOM     13  N   UNL A   1      32.242  21.367  26.244  1.00  0.00    -0.320 N 
ATOM     14  H   UNL A   1      31.462  21.060  26.759  1.00  0.00     0.170 HD
ATOM     15  O   UNL A   1      32.691  22.551  28.087  1.00  0.00    -0.267 OA
BRANCH  13  16
ATOM     16  C   UNL A   1      32.321  20.785  24.961  1.00  0.00     0.047 A 
ATOM     17  C   UNL A   1      32.832  18.471  26.008  1.00  0.00     0.046 C 
ATOM     18  C   UNL A   1      32.567  19.394  24.847  1.00  0.00    -0.027 A 
ATOM     19  C   UNL A   1      32.542  18.785  23.575  1.00  0.00     0.008 A 
ATOM     20  C   UNL A   1      32.292  19.531  22.431  1.00  0.00     0.039 A 
ATOM     21  C   UNL A   1      32.157  21.526  23.790  1.00  0.00     0.065 A 
ATOM     22  C   UNL A   1      32.123  20.898  22.549  1.00  0.00     0.125 A 
ATOM     23  F   UNL A   1      31.920  21.634  21.448  1.00  0.00    -0.207 F 
ENDBRANCH  13  16
ENDBRANCH   7  12
ENDBRANCH   4   6
ENDBRANCH   3   4
ENDBRANCH   2   3
ENDBRANCH   1   2
BRANCH   1  24
ATOM     24  O   UNL A   1      33.890  28.822  26.919  1.00  0.00    -0.458 OA
BRANCH  24  25
ATOM     25  C   UNL A   1      34.312  29.988  27.458  1.00  0.00     0.338 C 
ATOM     26  O   UNL A   1      33.663  31.011  27.555  1.00  0.00    -0.246 OA
BRANCH  25  27
ATOM     27  C   UNL A   1      35.704  29.921  27.934  1.00  0.00     0.060 A 
ATOM     28  C   UNL A   1      36.767  30.051  27.045  1.00  0.00     0.016 A 
ATOM     29  C   UNL A   1      35.933  29.472  29.238  1.00  0.00     0.016 A 
ATOM     30  C   UNL A   1      38.042  29.641  27.426  1.00  0.00     0.010 A 
ATOM     31  C   UNL A   1      37.226  29.122  29.641  1.00  0.00     0.010 A 
ATOM     32  C   UNL A   1      38.285  29.172  28.725  1.00  0.00    -0.014 A 
BRANCH  32  33
ATOM     33  C   UNL A   1      39.669  28.827  29.125  1.00  0.00     0.031 A 
ATOM     34  C   UNL A   1      40.510  29.747  29.963  1.00  0.00     0.074 A 
ATOM     35  C   UNL A   1      40.149  27.629  28.745  1.00  0.00     0.049 A 
ATOM     36  N   UNL A   1      41.755  29.610  30.341  1.00  0.00    -0.248 NA
ATOM     37  C   UNL A   1      39.877  30.985  30.439  1.00  0.00     0.031 C 
ATOM     38  C   UNL A   1      39.400  26.632  27.975  1.00  0.00     0.029 A 
ATOM     39  N   UNL A   1      41.360  27.035  28.974  1.00  0.00    -0.354 N 
ATOM     40  C   UNL A   1      42.065  30.751  31.073  1.00  0.00     0.074 A 
ATOM     41  C   UNL A   1      40.872  31.573  31.091  1.00  0.00     0.031 C 
ATOM     42  C   UNL A   1      40.151  25.532  27.837  1.00  0.00     0.029 A 
ATOM     43  C   UNL A   1      41.456  25.774  28.442  1.00  0.00     0.049 A 
ATOM     44  H   UNL A   1      42.091  27.470  29.471  1.00  0.00     0.167 HD
ATOM     45  C   UNL A   1      43.241  31.084  31.660  1.00  0.00     0.031 A 
ATOM     46  C   UNL A   1      42.487  24.911  28.413  1.00  0.00     0.031 A 
ATOM     47  C   UNL A   1      44.413  30.244  31.649  1.00  0.00     0.049 A 
ATOM     48  C   UNL A   1      43.786  25.316  29.033  1.00  0.00     0.074 A 
ATOM     49  C   UNL A   1      45.647  30.477  32.233  1.00  0.00     0.029 A 
ATOM     50  N   UNL A   1      44.496  29.008  31.025  1.00  0.00    -0.354 N 
ATOM     51  N   UNL A   1      44.078  26.425  29.670  1.00  0.00    -0.248 NA
ATOM     52  C   UNL A   1      44.897  24.367  28.912  1.00  0.00     0.031 C 
ATOM     53  C   UNL A   1      46.490  29.403  31.921  1.00  0.00     0.029 A 
ATOM     54  C   UNL A   1      45.768  28.480  31.181  1.00  0.00     0.049 A 
ATOM     55  H   UNL A   1      43.759  28.568  30.542  1.00  0.00     0.167 HD
ATOM     56  C   UNL A   1      45.417  26.317  30.014  1.00  0.00     0.074 A 
ATOM     57  C   UNL A   1      45.866  25.021  29.540  1.00  0.00     0.031 C 
ATOM     58  C   UNL A   1      46.205  27.213  30.657  1.00  0.00     0.031 A 
BRANCH  45  59
ATOM     59  C   UNL A   1      43.349  32.436  32.315  1.00  0.00    -0.014 A 
ATOM     60  C   UNL A   1      43.669  33.592  31.581  1.00  0.00     0.010 A 
ATOM     61  C   UNL A   1      43.049  32.559  33.685  1.00  0.00     0.010 A 
ATOM     62  C   UNL A   1      43.704  34.843  32.210  1.00  0.00     0.020 A 
ATOM     63  C   UNL A   1      43.066  33.808  34.313  1.00  0.00     0.020 A 
ATOM     64  C   UNL A   1      43.405  34.942  33.574  1.00  0.00     0.054 A 
BRANCH  64  65
ATOM     65  S   UNL A   1      43.413  36.577  34.362  1.00  0.00     0.124 S 
ATOM     66  O   UNL A   1      43.699  37.456  33.231  1.00  0.00    -0.237 OA
ATOM     67  O   UNL A   1      42.064  36.681  34.913  1.00  0.00    -0.237 OA
ATOM     68  O   UNL A   1      44.480  36.477  35.356  1.00  0.00    -0.744 OA
ENDBRANCH  64  65
ENDBRANCH  45  59
BRANCH  46  69
ATOM     69  C   UNL A   1      42.303  23.608  27.728  1.00  0.00    -0.014 A 
ATOM     70  C   UNL A   1      42.827  23.399  26.444  1.00  0.00     0.010 A 
ATOM     71  C   UNL A   1      41.728  22.527  28.424  1.00  0.00     0.010 A 
ATOM     72  C   UNL A   1      42.816  22.121  25.878  1.00  0.00     0.020 A 
ATOM     73  C   UNL A   1      41.735  21.245  27.871  1.00  0.00     0.020 A 
ATOM     74  C   UNL A   1      42.284  21.049  26.603  1.00  0.00     0.054 A 
BRANCH  74  75
ATOM     75  S   UNL A   1      42.422  19.369  25.932  1.00  0.00     0.124 S 
ATOM     76  O   UNL A   1      43.304  19.571  24.787  1.00  0.00    -0.237 OA
ATOM     77  O   UNL A   1      42.994  18.619  27.047  1.00  0.00    -0.237 OA
ATOM     78  O   UNL A   1      41.040  19.022  25.608  1.00  0.00    -0.744 OA
ENDBRANCH  74  75
ENDBRANCH  46  69
BRANCH  58  79
ATOM     79  C   UNL A   1      47.640  26.815  30.848  1.00  0.00    -0.014 A 
ATOM     80  C   UNL A   1      48.012  25.984  31.921  1.00  0.00     0.010 A 
ATOM     81  C   UNL A   1      48.626  27.294  29.969  1.00  0.00     0.010 A 
ATOM     82  C   UNL A   1      49.356  25.681  32.142  1.00  0.00     0.020 A 
ATOM     83  C   UNL A   1      49.970  26.975  30.176  1.00  0.00     0.020 A 
ATOM     84  C   UNL A   1      50.329  26.192  31.277  1.00  0.00     0.054 A 
BRANCH  84  85
ATOM     85  S   UNL A   1      52.072  25.808  31.593  1.00  0.00     0.124 S 
ATOM     86  O   UNL A   1      52.440  26.845  32.552  1.00  0.00    -0.237 OA
ATOM     87  O   UNL A   1      52.015  24.450  32.128  1.00  0.00    -0.237 OA
ATOM     88  O   UNL A   1      52.694  25.926  30.276  1.00  0.00    -0.744 OA
ENDBRANCH  84  85
ENDBRANCH  58  79
ENDBRANCH  32  33
ENDBRANCH  25  27
ENDBRANCH  24  25
ENDBRANCH   1  24
TORSDOF 16
ENDMDL
MODEL 3
REMARK VINA RESULT:     -10.7      4.936     11.985
REMARK SMILES Cc1ccc(F)cc1NC(=O)c1nn(C)cc1C(=O)OCCOC(=O)c1ccc(-c2c3nc(c(-c4ccc(S(=O)(=O)[O-])cc4)c4ccc([nH]4)c(-c4ccc(S(=O)(=O)[O-])cc4)c4nc(c(-c5ccc(S(=O)(=O)[O-])cc5)c5ccc2[nH]5)C=C4)C=C3)cc1
REMARK SMILES IDX 22 1 21 2 20 3 18 4 19 5 17 6 12 7 13 8 14 9 16 10 15 11
REMARK SMILES IDX 10 12 9 13 11 15 8 16 1 17 2 18 3 19 4 20 7 21 5 22 6 23
REMARK SMILES IDX 23 24 24 25 25 26 26 27 27 28 85 29 28 30 84 31 29 32 30 33
REMARK SMILES IDX 31 34 78 35 32 36 83 37 77 38 79 39 33 40 82 41 76 42 75 43
REMARK SMILES IDX 34 45 64 46 45 47 63 48 46 49 49 50 62 51 80 52 47 53 48 54
REMARK SMILES IDX 61 56 81 57 50 58 35 59 36 60 44 61 37 62 43 63 38 64 39 65
REMARK SMILES IDX 40 66 41 67 42 68 65 69 66 70 74 71 67 72 73 73 68 74 69 75
REMARK SMILES IDX 70 76 71 77 72 78 51 79 52 80 60 81 53 82 59 83 54 84 55 85
REMARK SMILES IDX 56 86 57 87 58 88
REMARK H PARENT 9 14 79 44 49 55
REMARK Flexibility Score: inf
ROOT
ATOM      1  C   UNL A   1      39.159  20.867  25.701  1.00  0.00     0.275 C 
ENDROOT
BRANCH   1   2
ATOM      2  C   UNL A   1      40.609  20.445  25.927  1.00  0.00     0.275 C 
BRANCH   2   3
ATOM      3  O   UNL A   1      41.552  21.511  25.682  1.00  0.00    -0.458 OA
BRANCH   3   4
ATOM      4  C   UNL A   1      42.850  21.223  25.979  1.00  0.00     0.342 C 
ATOM      5  O   UNL A   1      43.437  20.210  25.613  1.00  0.00    -0.246 OA
BRANCH   4   6
ATOM      6  C   UNL A   1      43.435  22.144  26.923  1.00  0.00     0.111 A 
ATOM      7  C   UNL A   1      44.676  22.852  26.899  1.00  0.00     0.165 A 
ATOM      8  N   UNL A   1      44.889  23.481  28.072  1.00  0.00    -0.167 NA
ATOM      9  N   UNL A   1      43.856  23.121  28.839  1.00  0.00    -0.274 N 
ATOM     10  C   UNL A   1      42.917  22.391  28.183  1.00  0.00     0.125 A 
ATOM     11  C   UNL A   1      43.883  23.440  30.245  1.00  0.00     0.173 C 
BRANCH   7  12
ATOM     12  C   UNL A   1      45.702  22.921  25.861  1.00  0.00     0.277 C 
ATOM     13  N   UNL A   1      46.065  24.116  25.274  1.00  0.00    -0.320 N 
ATOM     14  H   UNL A   1      46.725  24.006  24.552  1.00  0.00     0.170 HD
ATOM     15  O   UNL A   1      46.261  21.897  25.462  1.00  0.00    -0.267 OA
BRANCH  13  16
ATOM     16  C   UNL A   1      45.695  25.461  25.485  1.00  0.00     0.047 A 
ATOM     17  C   UNL A   1      48.041  25.992  26.445  1.00  0.00     0.046 C 
ATOM     18  C   UNL A   1      46.649  26.368  26.010  1.00  0.00    -0.027 A 
ATOM     19  C   UNL A   1      46.320  27.735  26.125  1.00  0.00     0.008 A 
ATOM     20  C   UNL A   1      45.071  28.204  25.740  1.00  0.00     0.039 A 
ATOM     21  C   UNL A   1      44.419  25.942  25.185  1.00  0.00     0.065 A 
ATOM     22  C   UNL A   1      44.126  27.298  25.293  1.00  0.00     0.125 A 
ATOM     23  F   UNL A   1      42.905  27.734  24.957  1.00  0.00    -0.207 F 
ENDBRANCH  13  16
ENDBRANCH   7  12
ENDBRANCH   4   6
ENDBRANCH   3   4
ENDBRANCH   2   3
ENDBRANCH   1   2
BRANCH   1  24
ATOM     24  O   UNL A   1      38.744  21.805  26.711  1.00  0.00    -0.458 OA
BRANCH  24  25
ATOM     25  C   UNL A   1      38.415  23.022  26.220  1.00  0.00     0.338 C 
ATOM     26  O   UNL A   1      37.618  23.246  25.331  1.00  0.00    -0.246 OA
BRANCH  25  27
ATOM     27  C   UNL A   1      39.152  24.115  26.878  1.00  0.00     0.060 A 
ATOM     28  C   UNL A   1      38.906  24.439  28.209  1.00  0.00     0.016 A 
ATOM     29  C   UNL A   1      39.905  24.977  26.075  1.00  0.00     0.016 A 
ATOM     30  C   UNL A   1      39.329  25.666  28.713  1.00  0.00     0.010 A 
ATOM     31  C   UNL A   1      40.386  26.181  26.600  1.00  0.00     0.010 A 
ATOM     32  C   UNL A   1      40.070  26.549  27.915  1.00  0.00    -0.014 A 
BRANCH  32  33
ATOM     33  C   UNL A   1      40.580  27.808  28.508  1.00  0.00     0.031 A 
ATOM     34  C   UNL A   1      42.026  27.989  28.872  1.00  0.00     0.074 A 
ATOM     35  C   UNL A   1      39.707  28.817  28.678  1.00  0.00     0.049 A 
ATOM     36  N   UNL A   1      42.608  29.008  29.452  1.00  0.00    -0.248 NA
ATOM     37  C   UNL A   1      42.942  26.887  28.548  1.00  0.00     0.031 C 
ATOM     38  C   UNL A   1      38.290  28.770  28.309  1.00  0.00     0.029 A 
ATOM     39  N   UNL A   1      39.882  30.080  29.175  1.00  0.00    -0.354 N 
ATOM     40  C   UNL A   1      43.948  28.661  29.590  1.00  0.00     0.074 A 
ATOM     41  C   UNL A   1      44.096  27.335  29.026  1.00  0.00     0.031 C 
ATOM     42  C   UNL A   1      37.736  29.965  28.547  1.00  0.00     0.029 A 
ATOM     43  C   UNL A   1      38.737  30.836  29.154  1.00  0.00     0.049 A 
ATOM     44  H   UNL A   1      40.744  30.413  29.514  1.00  0.00     0.167 HD
ATOM     45  C   UNL A   1      44.952  29.380  30.148  1.00  0.00     0.031 A 
ATOM     46  C   UNL A   1      38.502  32.082  29.597  1.00  0.00     0.031 A 
ATOM     47  C   UNL A   1      44.791  30.707  30.686  1.00  0.00     0.049 A 
ATOM     48  C   UNL A   1      39.615  32.841  30.244  1.00  0.00     0.074 A 
ATOM     49  C   UNL A   1      45.748  31.532  31.254  1.00  0.00     0.029 A 
ATOM     50  N   UNL A   1      43.593  31.408  30.722  1.00  0.00    -0.354 N 
ATOM     51  N   UNL A   1      40.863  32.474  30.418  1.00  0.00    -0.248 NA
ATOM     52  C   UNL A   1      39.288  34.169  30.773  1.00  0.00     0.031 C 
ATOM     53  C   UNL A   1      45.120  32.711  31.674  1.00  0.00     0.029 A 
ATOM     54  C   UNL A   1      43.780  32.639  31.330  1.00  0.00     0.049 A 
ATOM     55  H   UNL A   1      42.736  31.079  30.368  1.00  0.00     0.167 HD
ATOM     56  C   UNL A   1      41.471  33.521  31.095  1.00  0.00     0.074 A 
ATOM     57  C   UNL A   1      40.459  34.547  31.270  1.00  0.00     0.031 C 
ATOM     58  C   UNL A   1      42.747  33.620  31.538  1.00  0.00     0.031 A 
BRANCH  45  59
ATOM     59  C   UNL A   1      46.307  28.733  30.264  1.00  0.00    -0.014 A 
ATOM     60  C   UNL A   1      46.597  27.796  31.272  1.00  0.00     0.010 A 
ATOM     61  C   UNL A   1      47.288  29.017  29.294  1.00  0.00     0.010 A 
ATOM     62  C   UNL A   1      47.849  27.169  31.317  1.00  0.00     0.020 A 
ATOM     63  C   UNL A   1      48.532  28.380  29.326  1.00  0.00     0.020 A 
ATOM     64  C   UNL A   1      48.810  27.469  30.344  1.00  0.00     0.054 A 
BRANCH  64  65
ATOM     65  S   UNL A   1      50.411  26.614  30.393  1.00  0.00     0.124 S 
ATOM     66  O   UNL A   1      50.480  26.027  29.058  1.00  0.00    -0.237 OA
ATOM     67  O   UNL A   1      51.353  27.700  30.651  1.00  0.00    -0.237 OA
ATOM     68  O   UNL A   1      50.259  25.657  31.486  1.00  0.00    -0.744 OA
ENDBRANCH  64  65
ENDBRANCH  45  59
BRANCH  46  69
ATOM     69  C   UNL A   1      37.133  32.637  29.463  1.00  0.00    -0.014 A 
ATOM     70  C   UNL A   1      36.329  32.830  30.597  1.00  0.00     0.010 A 
ATOM     71  C   UNL A   1      36.688  33.110  28.213  1.00  0.00     0.010 A 
ATOM     72  C   UNL A   1      35.119  33.521  30.493  1.00  0.00     0.020 A 
ATOM     73  C   UNL A   1      35.490  33.820  28.109  1.00  0.00     0.020 A 
ATOM     74  C   UNL A   1      34.715  34.025  29.251  1.00  0.00     0.054 A 
BRANCH  74  75
ATOM     75  S   UNL A   1      33.228  35.061  29.155  1.00  0.00     0.124 S 
ATOM     76  O   UNL A   1      33.781  36.346  28.740  1.00  0.00    -0.237 OA
ATOM     77  O   UNL A   1      32.413  34.370  28.159  1.00  0.00    -0.237 OA
ATOM     78  O   UNL A   1      32.699  35.015  30.516  1.00  0.00    -0.744 OA
ENDBRANCH  74  75
ENDBRANCH  46  69
BRANCH  58  79
ATOM     79  C   UNL A   1      43.094  34.879  32.281  1.00  0.00    -0.014 A 
ATOM     80  C   UNL A   1      42.515  35.149  33.534  1.00  0.00     0.010 A 
ATOM     81  C   UNL A   1      43.983  35.808  31.714  1.00  0.00     0.010 A 
ATOM     82  C   UNL A   1      42.778  36.355  34.184  1.00  0.00     0.020 A 
ATOM     83  C   UNL A   1      44.263  37.007  32.372  1.00  0.00     0.020 A 
ATOM     84  C   UNL A   1      43.639  37.284  33.591  1.00  0.00     0.054 A 
BRANCH  84  85
ATOM     85  S   UNL A   1      43.950  38.857  34.439  1.00  0.00     0.124 S 
ATOM     86  O   UNL A   1      45.209  39.281  33.833  1.00  0.00    -0.237 OA
ATOM     87  O   UNL A   1      42.781  39.657  34.082  1.00  0.00    -0.237 OA
ATOM     88  O   UNL A   1      44.030  38.477  35.847  1.00  0.00    -0.744 OA
ENDBRANCH  84  85
ENDBRANCH  58  79
ENDBRANCH  32  33
ENDBRANCH  25  27
ENDBRANCH  24  25
ENDBRANCH   1  24
TORSDOF 16
ENDMDL
