MODEL 1
REMARK VINA RESULT:     -11.3      0.000      0.000
REMARK SMILES Cc1cccc(C)c1NC(=O)/C(C#N)=C/c1ccc(C(=O)OCCOC(=O)c2ccc(-c3c4nc(c(-c5ccc(S(=O)(=O)[O-])cc5)c5ccc([nH]5)c(-c5ccc(S(=O)(=O)[O-])cc5)c5nc(c(-c6ccc(S(=O)(=O)[O-])cc6)c6ccc3[nH]6)C=C5)C=C4)cc2)cc1
REMARK SMILES IDX 23 1 22 2 20 3 21 4 19 5 16 6 17 7 89 8 18 9 88 10 15 11
REMARK SMILES IDX 12 12 10 13 9 14 11 16 8 17 1 18 2 19 3 20 4 21 6 22 5 23
REMARK SMILES IDX 7 24 13 25 14 26 24 27 25 28 26 29 27 30 28 31 29 32 87 33
REMARK SMILES IDX 30 34 86 35 31 36 32 37 33 38 80 39 34 40 85 41 79 42 81 43
REMARK SMILES IDX 35 44 84 45 78 46 77 47 36 49 66 50 47 51 65 52 48 53 51 54
REMARK SMILES IDX 64 55 82 56 49 57 50 58 63 60 83 61 52 62 37 63 38 64 46 65
REMARK SMILES IDX 39 66 45 67 40 68 41 69 42 70 43 71 44 72 67 73 68 74 76 75
REMARK SMILES IDX 69 76 75 77 70 78 71 79 72 80 73 81 74 82 53 83 54 84 62 85
REMARK SMILES IDX 55 86 61 87 56 88 57 89 58 90 59 91 60 92
REMARK H PARENT 9 15 81 48 51 59
REMARK Flexibility Score: inf
ROOT
ATOM      1  C   UNL A   1      32.342  30.026  25.564  1.00  0.00     0.275 C 
ENDROOT
BRANCH   1   2
ATOM      2  O   UNL A   1      31.743  28.729  25.752  1.00  0.00    -0.458 OA
BRANCH   2   3
ATOM      3  C   UNL A   1      31.095  28.213  24.681  1.00  0.00     0.338 C 
ATOM      4  O   UNL A   1      30.661  28.844  23.730  1.00  0.00    -0.246 OA
BRANCH   3   5
ATOM      5  C   UNL A   1      31.030  26.728  24.755  1.00  0.00     0.060 A 
ATOM      6  C   UNL A   1      31.132  23.913  24.890  1.00  0.00    -0.024 A 
ATOM      7  C   UNL A   1      31.656  24.697  25.926  1.00  0.00     0.009 A 
ATOM      8  C   UNL A   1      30.460  24.553  23.843  1.00  0.00     0.009 A 
ATOM      9  C   UNL A   1      31.643  26.088  25.838  1.00  0.00     0.016 A 
ATOM     10  C   UNL A   1      30.412  25.954  23.771  1.00  0.00     0.016 A 
BRANCH   6  11
ATOM     11  C   UNL A   1      31.500  22.483  24.932  1.00  0.00     0.033 C 
ATOM     12  C   UNL A   1      32.586  21.921  24.355  1.00  0.00     0.118 C 
BRANCH  12  13
ATOM     13  C   UNL A   1      33.038  20.650  24.989  1.00  0.00     0.266 C 
ATOM     14  N   UNL A   1      34.284  20.521  25.554  1.00  0.00    -0.321 N 
ATOM     15  H   UNL A   1      34.481  19.612  25.878  1.00  0.00     0.170 HD
ATOM     16  O   UNL A   1      32.299  19.661  24.984  1.00  0.00    -0.268 OA
BRANCH  14  17
ATOM     17  C   UNL A   1      35.339  21.441  25.760  1.00  0.00     0.047 A 
ATOM     18  C   UNL A   1      36.909  19.736  24.671  1.00  0.00     0.046 C 
ATOM     19  C   UNL A   1      36.598  21.109  25.208  1.00  0.00    -0.027 A 
ATOM     20  C   UNL A   1      37.605  22.087  25.135  1.00  0.00     0.005 A 
ATOM     21  C   UNL A   1      37.397  23.355  25.661  1.00  0.00     0.001 A 
ATOM     22  C   UNL A   1      35.216  22.649  26.477  1.00  0.00    -0.027 A 
ATOM     23  C   UNL A   1      36.230  23.619  26.364  1.00  0.00     0.005 A 
ATOM     24  C   UNL A   1      34.195  22.869  27.563  1.00  0.00     0.046 C 
ENDBRANCH  14  17
ENDBRANCH  12  13
BRANCH  12  25
ATOM     25  C   UNL A   1      33.349  22.498  23.308  1.00  0.00     0.105 C 
ATOM     26  N   UNL A   1      33.937  23.001  22.438  1.00  0.00    -0.192 NA
ENDBRANCH  12  25
ENDBRANCH   6  11
ENDBRANCH   3   5
ENDBRANCH   2   3
ENDBRANCH   1   2
BRANCH   1  27
ATOM     27  C   UNL A   1      32.608  30.709  26.907  1.00  0.00     0.275 C 
BRANCH  27  28
ATOM     28  O   UNL A   1      33.572  29.975  27.687  1.00  0.00    -0.458 OA
BRANCH  28  29
ATOM     29  C   UNL A   1      34.484  30.746  28.320  1.00  0.00     0.338 C 
ATOM     30  O   UNL A   1      34.288  31.813  28.881  1.00  0.00    -0.246 OA
BRANCH  29  31
ATOM     31  C   UNL A   1      35.790  30.077  28.365  1.00  0.00     0.060 A 
ATOM     32  C   UNL A   1      36.244  29.655  29.607  1.00  0.00     0.016 A 
ATOM     33  C   UNL A   1      36.646  30.069  27.268  1.00  0.00     0.016 A 
ATOM     34  C   UNL A   1      37.586  29.355  29.804  1.00  0.00     0.010 A 
ATOM     35  C   UNL A   1      37.973  29.647  27.442  1.00  0.00     0.010 A 
ATOM     36  C   UNL A   1      38.473  29.333  28.722  1.00  0.00    -0.014 A 
BRANCH  36  37
ATOM     37  C   UNL A   1      39.916  29.025  28.946  1.00  0.00     0.031 A 
ATOM     38  C   UNL A   1      40.841  30.076  29.508  1.00  0.00     0.074 A 
ATOM     39  C   UNL A   1      40.397  27.794  28.671  1.00  0.00     0.049 A 
ATOM     40  N   UNL A   1      42.145  30.049  29.632  1.00  0.00    -0.248 NA
ATOM     41  C   UNL A   1      40.226  31.330  29.976  1.00  0.00     0.031 C 
ATOM     42  C   UNL A   1      39.608  26.661  28.177  1.00  0.00     0.029 A 
ATOM     43  N   UNL A   1      41.668  27.281  28.776  1.00  0.00    -0.354 N 
ATOM     44  C   UNL A   1      42.508  31.296  30.135  1.00  0.00     0.074 A 
ATOM     45  C   UNL A   1      41.290  32.061  30.276  1.00  0.00     0.031 C 
ATOM     46  C   UNL A   1      40.398  25.584  28.063  1.00  0.00     0.029 A 
ATOM     47  C   UNL A   1      41.769  25.971  28.369  1.00  0.00     0.049 A 
ATOM     48  H   UNL A   1      42.434  27.802  29.109  1.00  0.00     0.167 HD
ATOM     49  C   UNL A   1      43.743  31.757  30.450  1.00  0.00     0.031 A 
ATOM     50  C   UNL A   1      42.844  25.175  28.207  1.00  0.00     0.031 A 
ATOM     51  C   UNL A   1      44.948  30.975  30.333  1.00  0.00     0.049 A 
ATOM     52  C   UNL A   1      44.208  25.729  28.502  1.00  0.00     0.074 A 
ATOM     53  C   UNL A   1      46.246  31.344  30.641  1.00  0.00     0.029 A 
ATOM     54  N   UNL A   1      45.004  29.665  29.880  1.00  0.00    -0.354 N 
ATOM     55  N   UNL A   1      44.534  26.921  28.943  1.00  0.00    -0.248 NA
ATOM     56  C   UNL A   1      45.350  24.834  28.273  1.00  0.00     0.031 C 
ATOM     57  C   UNL A   1      47.094  30.283  30.311  1.00  0.00     0.029 A 
ATOM     58  C   UNL A   1      46.316  29.221  29.876  1.00  0.00     0.049 A 
ATOM     59  H   UNL A   1      44.226  29.129  29.602  1.00  0.00     0.167 HD
ATOM     60  C   UNL A   1      45.918  26.908  29.076  1.00  0.00     0.074 A 
ATOM     61  C   UNL A   1      46.362  25.584  28.685  1.00  0.00     0.031 C 
ATOM     62  C   UNL A   1      46.745  27.900  29.488  1.00  0.00     0.031 A 
BRANCH  49  63
ATOM     63  C   UNL A   1      43.867  33.191  30.907  1.00  0.00    -0.014 A 
ATOM     64  C   UNL A   1      43.989  34.254  29.993  1.00  0.00     0.010 A 
ATOM     65  C   UNL A   1      43.808  33.484  32.284  1.00  0.00     0.010 A 
ATOM     66  C   UNL A   1      44.091  35.572  30.448  1.00  0.00     0.020 A 
ATOM     67  C   UNL A   1      43.874  34.803  32.741  1.00  0.00     0.020 A 
ATOM     68  C   UNL A   1      44.033  35.839  31.820  1.00  0.00     0.054 A 
BRANCH  68  69
ATOM     69  S   UNL A   1      44.139  37.562  32.378  1.00  0.00     0.124 S 
ATOM     70  O   UNL A   1      45.525  37.648  32.829  1.00  0.00    -0.237 OA
ATOM     71  O   UNL A   1      43.826  38.310  31.164  1.00  0.00    -0.237 OA
ATOM     72  O   UNL A   1      43.135  37.647  33.436  1.00  0.00    -0.744 OA
ENDBRANCH  68  69
ENDBRANCH  49  63
BRANCH  50  73
ATOM     73  C   UNL A   1      42.673  23.786  27.693  1.00  0.00    -0.014 A 
ATOM     74  C   UNL A   1      42.240  22.751  28.540  1.00  0.00     0.010 A 
ATOM     75  C   UNL A   1      42.938  23.491  26.341  1.00  0.00     0.010 A 
ATOM     76  C   UNL A   1      42.096  21.449  28.052  1.00  0.00     0.020 A 
ATOM     77  C   UNL A   1      42.756  22.200  25.839  1.00  0.00     0.020 A 
ATOM     78  C   UNL A   1      42.350  21.183  26.704  1.00  0.00     0.054 A 
BRANCH  78  79
ATOM     79  S   UNL A   1      42.111  19.495  26.084  1.00  0.00     0.124 S 
ATOM     80  O   UNL A   1      42.594  18.691  27.202  1.00  0.00    -0.237 OA
ATOM     81  O   UNL A   1      40.670  19.450  25.846  1.00  0.00    -0.237 OA
ATOM     82  O   UNL A   1      42.935  19.452  24.879  1.00  0.00    -0.744 OA
ENDBRANCH  78  79
ENDBRANCH  50  73
BRANCH  62  83
ATOM     83  C   UNL A   1      48.212  27.575  29.598  1.00  0.00    -0.014 A 
ATOM     84  C   UNL A   1      48.737  26.891  30.709  1.00  0.00     0.010 A 
ATOM     85  C   UNL A   1      49.075  27.935  28.545  1.00  0.00     0.010 A 
ATOM     86  C   UNL A   1      50.105  26.613  30.784  1.00  0.00     0.020 A 
ATOM     87  C   UNL A   1      50.435  27.626  28.599  1.00  0.00     0.020 A 
ATOM     88  C   UNL A   1      50.944  26.983  29.729  1.00  0.00     0.054 A 
BRANCH  88  89
ATOM     89  S   UNL A   1      52.709  26.581  29.836  1.00  0.00     0.124 S 
ATOM     90  O   UNL A   1      52.953  25.937  28.548  1.00  0.00    -0.237 OA
ATOM     91  O   UNL A   1      53.325  27.894  30.009  1.00  0.00    -0.237 OA
ATOM     92  O   UNL A   1      52.795  25.700  30.998  1.00  0.00    -0.744 OA
ENDBRANCH  88  89
ENDBRANCH  62  83
ENDBRANCH  36  37
ENDBRANCH  29  31
ENDBRANCH  28  29
ENDBRANCH  27  28
ENDBRANCH   1  27
TORSDOF 18
ENDMDL
MODEL 2
REMARK VINA RESULT:     -11.1      4.923      9.988
REMARK SMILES Cc1cccc(C)c1NC(=O)/C(C#N)=C/c1ccc(C(=O)OCCOC(=O)c2ccc(-c3c4nc(c(-c5ccc(S(=O)(=O)[O-])cc5)c5ccc([nH]5)c(-c5ccc(S(=O)(=O)[O-])cc5)c5nc(c(-c6ccc(S(=O)(=O)[O-])cc6)c6ccc3[nH]6)C=C5)C=C4)cc2)cc1
REMARK SMILES IDX 23 1 22 2 20 3 21 4 19 5 16 6 17 7 89 8 18 9 88 10 15 11
REMARK SMILES IDX 12 12 10 13 9 14 11 16 8 17 1 18 2 19 3 20 4 21 6 22 5 23
REMARK SMILES IDX 7 24 13 25 14 26 24 27 25 28 26 29 27 30 28 31 29 32 87 33
REMARK SMILES IDX 30 34 86 35 31 36 32 37 33 38 80 39 34 40 85 41 79 42 81 43
REMARK SMILES IDX 35 44 84 45 78 46 77 47 36 49 66 50 47 51 65 52 48 53 51 54
REMARK SMILES IDX 64 55 82 56 49 57 50 58 63 60 83 61 52 62 37 63 38 64 46 65
REMARK SMILES IDX 39 66 45 67 40 68 41 69 42 70 43 71 44 72 67 73 68 74 76 75
REMARK SMILES IDX 69 76 75 77 70 78 71 79 72 80 73 81 74 82 53 83 54 84 62 85
REMARK SMILES IDX 55 86 61 87 56 88 57 89 58 90 59 91 60 92
REMARK H PARENT 9 15 81 48 51 59
REMARK Flexibility Score: inf
ROOT
ATOM      1  C   UNL A   1      40.715  21.695  26.153  1.00  0.00     0.275 C 
ENDROOT
BRANCH   1   2
ATOM      2  O   UNL A   1      39.318  21.834  26.482  1.00  0.00    -0.458 OA
BRANCH   2   3
ATOM      3  C   UNL A   1      38.446  21.225  25.644  1.00  0.00     0.338 C 
ATOM      4  O   UNL A   1      38.655  20.204  25.006  1.00  0.00    -0.246 OA
BRANCH   3   5
ATOM      5  C   UNL A   1      37.130  21.918  25.639  1.00  0.00     0.060 A 
ATOM      6  C   UNL A   1      34.689  23.317  25.831  1.00  0.00    -0.024 A 
ATOM      7  C   UNL A   1      35.905  24.009  25.753  1.00  0.00     0.009 A 
ATOM      8  C   UNL A   1      34.704  21.925  25.700  1.00  0.00     0.009 A 
ATOM      9  C   UNL A   1      37.112  23.316  25.702  1.00  0.00     0.016 A 
ATOM     10  C   UNL A   1      35.917  21.226  25.609  1.00  0.00     0.016 A 
BRANCH   6  11
ATOM     11  C   UNL A   1      33.522  24.136  26.219  1.00  0.00     0.033 C 
ATOM     12  C   UNL A   1      32.340  24.202  25.565  1.00  0.00     0.118 C 
BRANCH  12  13
ATOM     13  C   UNL A   1      31.183  24.607  26.412  1.00  0.00     0.266 C 
ATOM     14  N   UNL A   1      30.655  25.875  26.366  1.00  0.00    -0.321 N 
ATOM     15  H   UNL A   1      29.938  26.030  27.023  1.00  0.00     0.170 HD
ATOM     16  O   UNL A   1      30.693  23.803  27.211  1.00  0.00    -0.268 OA
BRANCH  14  17
ATOM     17  C   UNL A   1      30.944  27.000  25.559  1.00  0.00     0.047 A 
ATOM     18  C   UNL A   1      29.316  26.054  23.824  1.00  0.00     0.046 C 
ATOM     19  C   UNL A   1      30.188  27.153  24.373  1.00  0.00    -0.027 A 
ATOM     20  C   UNL A   1      30.227  28.371  23.676  1.00  0.00     0.005 A 
ATOM     21  C   UNL A   1      31.052  29.403  24.102  1.00  0.00     0.001 A 
ATOM     22  C   UNL A   1      31.931  27.963  25.856  1.00  0.00    -0.027 A 
ATOM     23  C   UNL A   1      31.928  29.185  25.157  1.00  0.00     0.005 A 
ATOM     24  C   UNL A   1      33.149  27.672  26.693  1.00  0.00     0.046 C 
ENDBRANCH  14  17
ENDBRANCH  12  13
BRANCH  12  25
ATOM     25  C   UNL A   1      32.128  23.820  24.216  1.00  0.00     0.105 C 
ATOM     26  N   UNL A   1      31.913  23.484  23.122  1.00  0.00    -0.192 NA
ENDBRANCH  12  25
ENDBRANCH   6  11
ENDBRANCH   3   5
ENDBRANCH   2   3
ENDBRANCH   1   2
BRANCH   1  27
ATOM     27  C   UNL A   1      41.447  23.032  26.290  1.00  0.00     0.275 C 
BRANCH  27  28
ATOM     28  O   UNL A   1      40.529  24.106  26.577  1.00  0.00    -0.458 OA
BRANCH  28  29
ATOM     29  C   UNL A   1      41.017  25.341  26.325  1.00  0.00     0.338 C 
ATOM     30  O   UNL A   1      41.658  25.698  25.349  1.00  0.00    -0.246 OA
BRANCH  29  31
ATOM     31  C   UNL A   1      40.574  26.294  27.350  1.00  0.00     0.060 A 
ATOM     32  C   UNL A   1      41.243  27.509  27.418  1.00  0.00     0.016 A 
ATOM     33  C   UNL A   1      39.693  25.925  28.361  1.00  0.00     0.016 A 
ATOM     34  C   UNL A   1      41.151  28.303  28.553  1.00  0.00     0.010 A 
ATOM     35  C   UNL A   1      39.506  26.787  29.452  1.00  0.00     0.010 A 
ATOM     36  C   UNL A   1      40.270  27.963  29.586  1.00  0.00    -0.014 A 
BRANCH  36  37
ATOM     37  C   UNL A   1      40.190  28.815  30.810  1.00  0.00     0.031 A 
ATOM     38  C   UNL A   1      39.154  29.907  30.910  1.00  0.00     0.074 A 
ATOM     39  C   UNL A   1      41.029  28.596  31.845  1.00  0.00     0.049 A 
ATOM     40  N   UNL A   1      39.024  30.842  31.818  1.00  0.00    -0.248 NA
ATOM     41  C   UNL A   1      38.141  29.970  29.843  1.00  0.00     0.031 C 
ATOM     42  C   UNL A   1      42.043  27.539  31.912  1.00  0.00     0.029 A 
ATOM     43  N   UNL A   1      41.159  29.245  33.050  1.00  0.00    -0.354 N 
ATOM     44  C   UNL A   1      37.957  31.634  31.403  1.00  0.00     0.074 A 
ATOM     45  C   UNL A   1      37.486  31.081  30.153  1.00  0.00     0.031 C 
ATOM     46  C   UNL A   1      42.657  27.586  33.102  1.00  0.00     0.029 A 
ATOM     47  C   UNL A   1      42.161  28.738  33.843  1.00  0.00     0.049 A 
ATOM     48  H   UNL A   1      40.589  30.002  33.318  1.00  0.00     0.167 HD
ATOM     49  C   UNL A   1      37.420  32.722  32.009  1.00  0.00     0.031 A 
ATOM     50  C   UNL A   1      42.669  29.173  35.013  1.00  0.00     0.031 A 
ATOM     51  C   UNL A   1      37.879  33.247  33.270  1.00  0.00     0.049 A 
ATOM     52  C   UNL A   1      42.099  30.417  35.633  1.00  0.00     0.074 A 
ATOM     53  C   UNL A   1      37.392  34.334  33.976  1.00  0.00     0.029 A 
ATOM     54  N   UNL A   1      38.922  32.722  34.018  1.00  0.00    -0.354 N 
ATOM     55  N   UNL A   1      41.114  31.171  35.208  1.00  0.00    -0.248 NA
ATOM     56  C   UNL A   1      42.712  30.870  36.888  1.00  0.00     0.031 C 
ATOM     57  C   UNL A   1      38.184  34.507  35.115  1.00  0.00     0.029 A 
ATOM     58  C   UNL A   1      39.111  33.478  35.163  1.00  0.00     0.049 A 
ATOM     59  H   UNL A   1      39.451  31.929  33.771  1.00  0.00     0.167 HD
ATOM     60  C   UNL A   1      40.967  32.172  36.162  1.00  0.00     0.074 A 
ATOM     61  C   UNL A   1      41.954  31.913  37.192  1.00  0.00     0.031 C 
ATOM     62  C   UNL A   1      40.094  33.208  36.183  1.00  0.00     0.031 A 
BRANCH  49  63
ATOM     63  C   UNL A   1      36.306  33.451  31.296  1.00  0.00    -0.014 A 
ATOM     64  C   UNL A   1      35.103  33.784  31.944  1.00  0.00     0.010 A 
ATOM     65  C   UNL A   1      36.491  33.855  29.959  1.00  0.00     0.010 A 
ATOM     66  C   UNL A   1      34.094  34.468  31.259  1.00  0.00     0.020 A 
ATOM     67  C   UNL A   1      35.500  34.569  29.281  1.00  0.00     0.020 A 
ATOM     68  C   UNL A   1      34.299  34.858  29.931  1.00  0.00     0.054 A 
BRANCH  68  69
ATOM     69  S   UNL A   1      32.984  35.769  29.077  1.00  0.00     0.124 S 
ATOM     70  O   UNL A   1      33.740  36.798  28.368  1.00  0.00    -0.237 OA
ATOM     71  O   UNL A   1      32.380  34.742  28.234  1.00  0.00    -0.237 OA
ATOM     72  O   UNL A   1      32.137  36.258  30.163  1.00  0.00    -0.744 OA
ENDBRANCH  68  69
ENDBRANCH  49  63
BRANCH  50  73
ATOM     73  C   UNL A   1      43.811  28.453  35.645  1.00  0.00    -0.014 A 
ATOM     74  C   UNL A   1      45.139  28.788  35.329  1.00  0.00     0.010 A 
ATOM     75  C   UNL A   1      43.574  27.425  36.579  1.00  0.00     0.010 A 
ATOM     76  C   UNL A   1      46.204  28.099  35.916  1.00  0.00     0.020 A 
ATOM     77  C   UNL A   1      44.635  26.762  37.200  1.00  0.00     0.020 A 
ATOM     78  C   UNL A   1      45.945  27.094  36.852  1.00  0.00     0.054 A 
BRANCH  78  79
ATOM     79  S   UNL A   1      47.344  26.245  37.635  1.00  0.00     0.124 S 
ATOM     80  O   UNL A   1      48.272  26.097  36.519  1.00  0.00    -0.237 OA
ATOM     81  O   UNL A   1      47.745  27.194  38.671  1.00  0.00    -0.237 OA
ATOM     82  O   UNL A   1      46.758  25.003  38.132  1.00  0.00    -0.744 OA
ENDBRANCH  78  79
ENDBRANCH  50  73
BRANCH  62  83
ATOM     83  C   UNL A   1      40.120  34.108  37.392  1.00  0.00    -0.014 A 
ATOM     84  C   UNL A   1      39.371  33.820  38.546  1.00  0.00     0.010 A 
ATOM     85  C   UNL A   1      40.942  35.251  37.377  1.00  0.00     0.010 A 
ATOM     86  C   UNL A   1      39.411  34.681  39.646  1.00  0.00     0.020 A 
ATOM     87  C   UNL A   1      41.014  36.093  38.489  1.00  0.00     0.020 A 
ATOM     88  C   UNL A   1      40.232  35.811  39.610  1.00  0.00     0.054 A 
BRANCH  88  89
ATOM     89  S   UNL A   1      40.291  36.894  41.063  1.00  0.00     0.124 S 
ATOM     90  O   UNL A   1      41.482  37.696  40.796  1.00  0.00    -0.237 OA
ATOM     91  O   UNL A   1      39.020  37.610  40.979  1.00  0.00    -0.237 OA
ATOM     92  O   UNL A   1      40.404  35.965  42.185  1.00  0.00    -0.744 OA
ENDBRANCH  88  89
ENDBRANCH  62  83
ENDBRANCH  36  37
ENDBRANCH  29  31
ENDBRANCH  28  29
ENDBRANCH  27  28
ENDBRANCH   1  27
TORSDOF 18
ENDMDL
MODEL 3
REMARK VINA RESULT:     -11.0      2.284      3.029
REMARK SMILES Cc1cccc(C)c1NC(=O)/C(C#N)=C/c1ccc(C(=O)OCCOC(=O)c2ccc(-c3c4nc(c(-c5ccc(S(=O)(=O)[O-])cc5)c5ccc([nH]5)c(-c5ccc(S(=O)(=O)[O-])cc5)c5nc(c(-c6ccc(S(=O)(=O)[O-])cc6)c6ccc3[nH]6)C=C5)C=C4)cc2)cc1
REMARK SMILES IDX 23 1 22 2 20 3 21 4 19 5 16 6 17 7 89 8 18 9 88 10 15 11
REMARK SMILES IDX 12 12 10 13 9 14 11 16 8 17 1 18 2 19 3 20 4 21 6 22 5 23
REMARK SMILES IDX 7 24 13 25 14 26 24 27 25 28 26 29 27 30 28 31 29 32 87 33
REMARK SMILES IDX 30 34 86 35 31 36 32 37 33 38 80 39 34 40 85 41 79 42 81 43
REMARK SMILES IDX 35 44 84 45 78 46 77 47 36 49 66 50 47 51 65 52 48 53 51 54
REMARK SMILES IDX 64 55 82 56 49 57 50 58 63 60 83 61 52 62 37 63 38 64 46 65
REMARK SMILES IDX 39 66 45 67 40 68 41 69 42 70 43 71 44 72 67 73 68 74 76 75
REMARK SMILES IDX 69 76 75 77 70 78 71 79 72 80 73 81 74 82 53 83 54 84 62 85
REMARK SMILES IDX 55 86 61 87 56 88 57 89 58 90 59 91 60 92
REMARK H PARENT 9 15 81 48 51 59
REMARK Flexibility Score: inf
ROOT
ATOM      1  C   UNL A   1      33.425  30.022  27.181  1.00  0.00     0.275 C 
ENDROOT
BRANCH   1   2
ATOM      2  O   UNL A   1      32.294  29.128  27.154  1.00  0.00    -0.458 OA
BRANCH   2   3
ATOM      3  C   UNL A   1      31.798  28.836  25.928  1.00  0.00     0.338 C 
ATOM      4  O   UNL A   1      31.383  29.642  25.109  1.00  0.00    -0.246 OA
BRANCH   3   5
ATOM      5  C   UNL A   1      31.882  27.377  25.647  1.00  0.00     0.060 A 
ATOM      6  C   UNL A   1      31.963  24.577  25.321  1.00  0.00    -0.024 A 
ATOM      7  C   UNL A   1      30.743  25.240  25.508  1.00  0.00     0.009 A 
ATOM      8  C   UNL A   1      33.126  25.344  25.188  1.00  0.00     0.009 A 
ATOM      9  C   UNL A   1      30.708  26.618  25.712  1.00  0.00     0.016 A 
ATOM     10  C   UNL A   1      33.088  26.738  25.355  1.00  0.00     0.016 A 
BRANCH   6  11
ATOM     11  C   UNL A   1      31.910  23.107  25.455  1.00  0.00     0.033 C 
ATOM     12  C   UNL A   1      32.429  22.207  24.589  1.00  0.00     0.118 C 
BRANCH  12  13
ATOM     13  C   UNL A   1      32.753  20.882  25.191  1.00  0.00     0.266 C 
ATOM     14  N   UNL A   1      34.011  20.583  25.657  1.00  0.00    -0.321 N 
ATOM     15  H   UNL A   1      34.107  19.654  25.968  1.00  0.00     0.170 HD
ATOM     16  O   UNL A   1      31.889  20.003  25.248  1.00  0.00    -0.268 OA
BRANCH  14  17
ATOM     17  C   UNL A   1      35.193  21.350  25.775  1.00  0.00     0.047 A 
ATOM     18  C   UNL A   1      36.441  19.427  24.636  1.00  0.00     0.046 C 
ATOM     19  C   UNL A   1      36.357  20.838  25.156  1.00  0.00    -0.027 A 
ATOM     20  C   UNL A   1      37.482  21.665  24.998  1.00  0.00     0.005 A 
ATOM     21  C   UNL A   1      37.485  22.958  25.504  1.00  0.00     0.001 A 
ATOM     22  C   UNL A   1      35.284  22.575  26.468  1.00  0.00    -0.027 A 
ATOM     23  C   UNL A   1      36.412  23.393  26.270  1.00  0.00     0.005 A 
ATOM     24  C   UNL A   1      34.374  22.953  27.608  1.00  0.00     0.046 C 
ENDBRANCH  14  17
ENDBRANCH  12  13
BRANCH  12  25
ATOM     25  C   UNL A   1      32.770  22.472  23.239  1.00  0.00     0.105 C 
ATOM     26  N   UNL A   1      33.033  22.646  22.118  1.00  0.00    -0.192 NA
ENDBRANCH  12  25
ENDBRANCH   6  11
ENDBRANCH   3   5
ENDBRANCH   2   3
ENDBRANCH   1   2
BRANCH   1  27
ATOM     27  C   UNL A   1      34.689  29.293  27.642  1.00  0.00     0.275 C 
BRANCH  27  28
ATOM     28  O   UNL A   1      35.700  30.221  28.082  1.00  0.00    -0.458 OA
BRANCH  28  29
ATOM     29  C   UNL A   1      36.314  29.875  29.235  1.00  0.00     0.338 C 
ATOM     30  O   UNL A   1      35.786  29.522  30.277  1.00  0.00    -0.246 OA
BRANCH  29  31
ATOM     31  C   UNL A   1      37.772  29.856  29.063  1.00  0.00     0.060 A 
ATOM     32  C   UNL A   1      38.257  29.746  27.766  1.00  0.00     0.016 A 
ATOM     33  C   UNL A   1      38.635  29.716  30.145  1.00  0.00     0.016 A 
ATOM     34  C   UNL A   1      39.570  29.359  27.534  1.00  0.00     0.010 A 
ATOM     35  C   UNL A   1      39.990  29.445  29.906  1.00  0.00     0.010 A 
ATOM     36  C   UNL A   1      40.465  29.214  28.600  1.00  0.00    -0.014 A 
BRANCH  36  37
ATOM     37  C   UNL A   1      41.870  28.782  28.341  1.00  0.00     0.031 A 
ATOM     38  C   UNL A   1      42.999  29.782  28.405  1.00  0.00     0.074 A 
ATOM     39  C   UNL A   1      42.144  27.487  28.073  1.00  0.00     0.049 A 
ATOM     40  N   UNL A   1      44.255  29.633  28.067  1.00  0.00    -0.248 NA
ATOM     41  C   UNL A   1      42.671  31.131  28.897  1.00  0.00     0.031 C 
ATOM     42  C   UNL A   1      41.161  26.399  28.034  1.00  0.00     0.029 A 
ATOM     43  N   UNL A   1      43.333  26.859  27.789  1.00  0.00    -0.354 N 
ATOM     44  C   UNL A   1      44.851  30.879  28.248  1.00  0.00     0.074 A 
ATOM     45  C   UNL A   1      43.815  31.775  28.710  1.00  0.00     0.031 C 
ATOM     46  C   UNL A   1      41.790  25.241  27.788  1.00  0.00     0.029 A 
ATOM     47  C   UNL A   1      43.200  25.512  27.543  1.00  0.00     0.049 A 
ATOM     48  H   UNL A   1      44.197  27.329  27.764  1.00  0.00     0.167 HD
ATOM     49  C   UNL A   1      46.142  31.239  28.049  1.00  0.00     0.031 A 
ATOM     50  C   UNL A   1      44.093  24.599  27.115  1.00  0.00     0.031 A 
ATOM     51  C   UNL A   1      47.173  30.330  27.616  1.00  0.00     0.049 A 
ATOM     52  C   UNL A   1      45.503  25.036  26.840  1.00  0.00     0.074 A 
ATOM     53  C   UNL A   1      48.515  30.592  27.400  1.00  0.00     0.029 A 
ATOM     54  N   UNL A   1      46.982  28.984  27.342  1.00  0.00    -0.354 N 
ATOM     55  N   UNL A   1      46.039  26.225  26.985  1.00  0.00    -0.248 NA
ATOM     56  C   UNL A   1      46.429  24.011  26.341  1.00  0.00     0.031 C 
ATOM     57  C   UNL A   1      49.121  29.422  26.931  1.00  0.00     0.029 A 
ATOM     58  C   UNL A   1      48.175  28.409  26.934  1.00  0.00     0.049 A 
ATOM     59  H   UNL A   1      46.125  28.506  27.425  1.00  0.00     0.167 HD
ATOM     60  C   UNL A   1      47.374  26.083  26.625  1.00  0.00     0.074 A 
ATOM     61  C   UNL A   1      47.565  24.690  26.273  1.00  0.00     0.031 C 
ATOM     62  C   UNL A   1      48.353  27.020  26.591  1.00  0.00     0.031 A 
BRANCH  49  63
ATOM     63  C   UNL A   1      46.510  32.690  28.248  1.00  0.00    -0.014 A 
ATOM     64  C   UNL A   1      47.092  33.151  29.443  1.00  0.00     0.010 A 
ATOM     65  C   UNL A   1      46.313  33.603  27.193  1.00  0.00     0.010 A 
ATOM     66  C   UNL A   1      47.430  34.500  29.592  1.00  0.00     0.020 A 
ATOM     67  C   UNL A   1      46.682  34.944  27.326  1.00  0.00     0.020 A 
ATOM     68  C   UNL A   1      47.224  35.389  28.532  1.00  0.00     0.054 A 
BRANCH  68  69
ATOM     69  S   UNL A   1      47.699  37.126  28.746  1.00  0.00     0.124 S 
ATOM     70  O   UNL A   1      48.732  37.284  27.726  1.00  0.00    -0.237 OA
ATOM     71  O   UNL A   1      46.448  37.833  28.487  1.00  0.00    -0.237 OA
ATOM     72  O   UNL A   1      48.173  37.190  30.126  1.00  0.00    -0.744 OA
ENDBRANCH  68  69
ENDBRANCH  49  63
BRANCH  50  73
ATOM     73  C   UNL A   1      43.664  23.191  26.874  1.00  0.00    -0.014 A 
ATOM     74  C   UNL A   1      43.907  22.566  25.639  1.00  0.00     0.010 A 
ATOM     75  C   UNL A   1      43.013  22.463  27.888  1.00  0.00     0.010 A 
ATOM     76  C   UNL A   1      43.490  21.250  25.417  1.00  0.00     0.020 A 
ATOM     77  C   UNL A   1      42.631  21.135  27.685  1.00  0.00     0.020 A 
ATOM     78  C   UNL A   1      42.859  20.541  26.443  1.00  0.00     0.054 A 
BRANCH  78  79
ATOM     79  S   UNL A   1      42.368  18.820  26.146  1.00  0.00     0.124 S 
ATOM     80  O   UNL A   1      42.552  18.221  27.465  1.00  0.00    -0.237 OA
ATOM     81  O   UNL A   1      40.984  18.961  25.702  1.00  0.00    -0.237 OA
ATOM     82  O   UNL A   1      43.302  18.370  25.117  1.00  0.00    -0.744 OA
ENDBRANCH  78  79
ENDBRANCH  50  73
BRANCH  62  83
ATOM     83  C   UNL A   1      49.738  26.558  26.219  1.00  0.00    -0.014 A 
ATOM     84  C   UNL A   1      50.247  26.714  24.918  1.00  0.00     0.010 A 
ATOM     85  C   UNL A   1      50.557  25.984  27.210  1.00  0.00     0.010 A 
ATOM     86  C   UNL A   1      51.533  26.266  24.604  1.00  0.00     0.020 A 
ATOM     87  C   UNL A   1      51.857  25.570  26.910  1.00  0.00     0.020 A 
ATOM     88  C   UNL A   1      52.329  25.697  25.603  1.00  0.00     0.054 A 
BRANCH  88  89
ATOM     89  S   UNL A   1      54.006  25.153  25.178  1.00  0.00     0.124 S 
ATOM     90  O   UNL A   1      53.812  23.724  24.949  1.00  0.00    -0.237 OA
ATOM     91  O   UNL A   1      54.306  25.945  23.988  1.00  0.00    -0.237 OA
ATOM     92  O   UNL A   1      54.792  25.493  26.362  1.00  0.00    -0.744 OA
ENDBRANCH  88  89
ENDBRANCH  62  83
ENDBRANCH  36  37
ENDBRANCH  29  31
ENDBRANCH  28  29
ENDBRANCH  27  28
ENDBRANCH   1  27
TORSDOF 18
ENDMDL
