MODEL 1
REMARK VINA RESULT:     -10.9      0.000      0.000
REMARK SMILES CCOc1cc(/C=C2/SC(=S)N([C@H](CC)C(=O)OCCOC(=O)c3ccc(-c4c5nc(c(-c6ccc(S(=O)(=O)[O-])cc6)c6ccc([nH]6)c(-c6ccc(S(=O)(=O)[O-])cc6)c6nc(c(-c7ccc(S(=O)(=O)[O-])cc7)c7ccc4[nH]7)C=C6)C=C5)cc3)C2=O)ccc1O
REMARK SMILES IDX 19 1 18 2 16 3 17 4 13 5 12 6 7 7 8 8 9 9 84 10 10 11 85 12
REMARK SMILES IDX 11 13 6 14 4 15 5 16 88 17 87 18 86 19 3 20 2 21 1 22 89 23
REMARK SMILES IDX 14 25 15 26 20 27 21 28 22 29 23 30 24 31 25 32 83 33 26 34
REMARK SMILES IDX 82 35 27 36 28 37 29 38 76 39 30 40 81 41 75 42 77 43 31 44
REMARK SMILES IDX 80 45 74 46 73 47 32 49 62 50 43 51 61 52 44 53 47 54 60 55
REMARK SMILES IDX 78 56 45 57 46 58 59 60 79 61 48 62 33 63 34 64 42 65 35 66
REMARK SMILES IDX 41 67 36 68 37 69 38 70 39 71 40 72 63 73 64 74 72 75 65 76
REMARK SMILES IDX 71 77 66 78 67 79 68 80 69 81 70 82 49 83 50 84 58 85 51 86
REMARK SMILES IDX 57 87 52 88 53 89 54 90 55 91 56 92
REMARK H PARENT 89 24 77 48 47 59
REMARK Flexibility Score: inf
ROOT
ATOM      1  C   UNL A   1      37.722  22.694  26.031  1.00  0.00     0.274 C 
ENDROOT
BRANCH   1   2
ATOM      2  O   UNL A   1      36.288  22.799  26.065  1.00  0.00    -0.461 OA
BRANCH   2   3
ATOM      3  C   UNL A   1      35.599  22.162  25.082  1.00  0.00     0.329 C 
ATOM      4  O   UNL A   1      35.763  20.988  24.764  1.00  0.00    -0.250 OA
BRANCH   3   5
ATOM      5  C   UNL A   1      34.534  23.060  24.437  1.00  0.00     0.201 C 
BRANCH   5   6
ATOM      6  N   UNL A   1      33.237  22.993  25.134  1.00  0.00    -0.278 N 
ATOM      7  C   UNL A   1      30.497  24.992  26.281  1.00  0.00     0.029 C 
ATOM      8  C   UNL A   1      31.385  23.993  26.178  1.00  0.00     0.081 C 
ATOM      9  S   UNL A   1      30.937  22.333  26.100  1.00  0.00    -0.054 SA
ATOM     10  C   UNL A   1      32.822  24.127  25.817  1.00  0.00     0.266 C 
ATOM     11  C   UNL A   1      32.334  21.954  25.081  1.00  0.00     0.149 C 
ATOM     12  O   UNL A   1      33.502  25.108  26.056  1.00  0.00    -0.268 OA
ATOM     13  S   UNL A   1      32.424  20.536  24.207  1.00  0.00    -0.052 S 
BRANCH   7  14
ATOM     14  C   UNL A   1      30.791  26.364  25.854  1.00  0.00    -0.020 A 
ATOM     15  C   UNL A   1      31.679  28.606  26.255  1.00  0.00     0.161 A 
ATOM     16  C   UNL A   1      31.401  27.298  26.696  1.00  0.00     0.058 A 
ATOM     17  C   UNL A   1      31.318  28.958  24.951  1.00  0.00     0.157 A 
ATOM     18  C   UNL A   1      30.732  28.025  24.096  1.00  0.00     0.051 A 
ATOM     19  C   UNL A   1      30.454  26.738  24.548  1.00  0.00     0.012 A 
BRANCH  15  20
ATOM     20  O   UNL A   1      32.277  29.364  27.219  1.00  0.00    -0.490 OA
BRANCH  20  21
ATOM     21  C   UNL A   1      33.592  29.111  27.701  1.00  0.00     0.226 C 
ATOM     22  C   UNL A   1      34.659  29.119  26.622  1.00  0.00     0.049 C 
ENDBRANCH  20  21
ENDBRANCH  15  20
BRANCH  17  23
ATOM     23  O   UNL A   1      31.450  30.205  24.414  1.00  0.00    -0.504 OA
ATOM     24  H   UNL A   1      30.948  30.919  24.756  1.00  0.00     0.293 HD
ENDBRANCH  17  23
ENDBRANCH   7  14
ENDBRANCH   5   6
BRANCH   5  25
ATOM     25  C   UNL A   1      34.409  23.050  22.903  1.00  0.00     0.034 C 
ATOM     26  C   UNL A   1      33.350  24.041  22.416  1.00  0.00     0.007 C 
ENDBRANCH   5  25
ENDBRANCH   3   5
ENDBRANCH   2   3
ENDBRANCH   1   2
BRANCH   1  27
ATOM     27  C   UNL A   1      38.370  24.082  25.984  1.00  0.00     0.275 C 
BRANCH  27  28
ATOM     28  O   UNL A   1      39.651  24.108  26.645  1.00  0.00    -0.458 OA
BRANCH  28  29
ATOM     29  C   UNL A   1      40.424  25.180  26.348  1.00  0.00     0.338 C 
ATOM     30  O   UNL A   1      40.884  25.470  25.255  1.00  0.00    -0.246 OA
BRANCH  29  31
ATOM     31  C   UNL A   1      40.529  26.080  27.509  1.00  0.00     0.060 A 
ATOM     32  C   UNL A   1      39.598  25.908  28.532  1.00  0.00     0.016 A 
ATOM     33  C   UNL A   1      41.437  27.138  27.558  1.00  0.00     0.016 A 
ATOM     34  C   UNL A   1      39.544  26.794  29.597  1.00  0.00     0.010 A 
ATOM     35  C   UNL A   1      41.395  28.027  28.644  1.00  0.00     0.010 A 
ATOM     36  C   UNL A   1      40.438  27.866  29.663  1.00  0.00    -0.014 A 
BRANCH  36  37
ATOM     37  C   UNL A   1      40.318  28.808  30.801  1.00  0.00     0.031 A 
ATOM     38  C   UNL A   1      41.239  28.693  31.983  1.00  0.00     0.074 A 
ATOM     39  C   UNL A   1      39.428  29.817  30.728  1.00  0.00     0.049 A 
ATOM     40  N   UNL A   1      41.296  29.439  33.057  1.00  0.00    -0.248 NA
ATOM     41  C   UNL A   1      42.226  27.602  31.957  1.00  0.00     0.031 C 
ATOM     42  C   UNL A   1      38.506  30.051  29.613  1.00  0.00     0.029 A 
ATOM     43  N   UNL A   1      39.167  30.846  31.597  1.00  0.00    -0.354 N 
ATOM     44  C   UNL A   1      42.296  28.890  33.849  1.00  0.00     0.074 A 
ATOM     45  C   UNL A   1      42.819  27.744  33.136  1.00  0.00     0.031 C 
ATOM     46  C   UNL A   1      37.794  31.163  29.858  1.00  0.00     0.029 A 
ATOM     47  C   UNL A   1      38.178  31.695  31.162  1.00  0.00     0.049 A 
ATOM     48  H   UNL A   1      39.644  30.966  32.450  1.00  0.00     0.167 HD
ATOM     49  C   UNL A   1      42.734  29.303  35.062  1.00  0.00     0.031 A 
ATOM     50  C   UNL A   1      37.625  32.772  31.754  1.00  0.00     0.031 A 
ATOM     51  C   UNL A   1      42.232  30.462  35.754  1.00  0.00     0.049 A 
ATOM     52  C   UNL A   1      38.130  33.202  33.102  1.00  0.00     0.074 A 
ATOM     53  C   UNL A   1      42.641  30.981  36.970  1.00  0.00     0.029 A 
ATOM     54  N   UNL A   1      41.212  31.280  35.293  1.00  0.00    -0.354 N 
ATOM     55  N   UNL A   1      39.088  32.678  33.828  1.00  0.00    -0.248 NA
ATOM     56  C   UNL A   1      37.479  34.370  33.709  1.00  0.00     0.031 C 
ATOM     57  C   UNL A   1      41.838  32.088  37.267  1.00  0.00     0.029 A 
ATOM     58  C   UNL A   1      40.960  32.284  36.213  1.00  0.00     0.049 A 
ATOM     59  H   UNL A   1      40.736  31.165  34.438  1.00  0.00     0.167 HD
ATOM     60  C   UNL A   1      39.157  33.455  34.978  1.00  0.00     0.074 A 
ATOM     61  C   UNL A   1      38.167  34.503  34.835  1.00  0.00     0.031 C 
ATOM     62  C   UNL A   1      39.962  33.311  36.060  1.00  0.00     0.031 A 
BRANCH  49  63
ATOM     63  C   UNL A   1      43.788  28.477  35.747  1.00  0.00    -0.014 A 
ATOM     64  C   UNL A   1      45.157  28.756  35.592  1.00  0.00     0.010 A 
ATOM     65  C   UNL A   1      43.393  27.443  36.617  1.00  0.00     0.010 A 
ATOM     66  C   UNL A   1      46.113  28.005  36.282  1.00  0.00     0.020 A 
ATOM     67  C   UNL A   1      44.343  26.703  37.323  1.00  0.00     0.020 A 
ATOM     68  C   UNL A   1      45.700  26.982  37.144  1.00  0.00     0.054 A 
BRANCH  68  69
ATOM     69  S   UNL A   1      46.956  26.054  38.066  1.00  0.00     0.124 S 
ATOM     70  O   UNL A   1      46.237  25.706  39.289  1.00  0.00    -0.237 OA
ATOM     71  O   UNL A   1      47.251  24.936  37.174  1.00  0.00    -0.237 OA
ATOM     72  O   UNL A   1      48.043  27.015  38.235  1.00  0.00    -0.744 OA
ENDBRANCH  68  69
ENDBRANCH  49  63
BRANCH  50  73
ATOM     73  C   UNL A   1      36.498  33.485  31.095  1.00  0.00    -0.014 A 
ATOM     74  C   UNL A   1      36.627  34.001  29.795  1.00  0.00     0.010 A 
ATOM     75  C   UNL A   1      35.282  33.655  31.783  1.00  0.00     0.010 A 
ATOM     76  C   UNL A   1      35.569  34.698  29.203  1.00  0.00     0.020 A 
ATOM     77  C   UNL A   1      34.213  34.325  31.184  1.00  0.00     0.020 A 
ATOM     78  C   UNL A   1      34.369  34.858  29.904  1.00  0.00     0.054 A 
BRANCH  78  79
ATOM     79  S   UNL A   1      32.990  35.731  29.110  1.00  0.00     0.124 S 
ATOM     80  O   UNL A   1      32.387  34.673  28.306  1.00  0.00    -0.237 OA
ATOM     81  O   UNL A   1      32.201  36.188  30.250  1.00  0.00    -0.237 OA
ATOM     82  O   UNL A   1      33.653  36.794  28.355  1.00  0.00    -0.744 OA
ENDBRANCH  78  79
ENDBRANCH  50  73
BRANCH  62  83
ATOM     83  C   UNL A   1      39.804  34.318  37.164  1.00  0.00    -0.014 A 
ATOM     84  C   UNL A   1      39.012  34.037  38.291  1.00  0.00     0.010 A 
ATOM     85  C   UNL A   1      40.467  35.556  37.080  1.00  0.00     0.010 A 
ATOM     86  C   UNL A   1      38.848  34.994  39.295  1.00  0.00     0.020 A 
ATOM     87  C   UNL A   1      40.325  36.506  38.095  1.00  0.00     0.020 A 
ATOM     88  C   UNL A   1      39.499  36.227  39.185  1.00  0.00     0.054 A 
BRANCH  88  89
ATOM     89  S   UNL A   1      39.283  37.453  40.505  1.00  0.00     0.124 S 
ATOM     90  O   UNL A   1      40.619  38.036  40.596  1.00  0.00    -0.237 OA
ATOM     91  O   UNL A   1      38.249  38.333  39.966  1.00  0.00    -0.237 OA
ATOM     92  O   UNL A   1      38.872  36.652  41.655  1.00  0.00    -0.744 OA
ENDBRANCH  88  89
ENDBRANCH  62  83
ENDBRANCH  36  37
ENDBRANCH  29  31
ENDBRANCH  28  29
ENDBRANCH  27  28
ENDBRANCH   1  27
TORSDOF 20
ENDMDL
MODEL 2
REMARK VINA RESULT:     -10.8      6.602     12.260
REMARK SMILES CCOc1cc(/C=C2/SC(=S)N([C@H](CC)C(=O)OCCOC(=O)c3ccc(-c4c5nc(c(-c6ccc(S(=O)(=O)[O-])cc6)c6ccc([nH]6)c(-c6ccc(S(=O)(=O)[O-])cc6)c6nc(c(-c7ccc(S(=O)(=O)[O-])cc7)c7ccc4[nH]7)C=C6)C=C5)cc3)C2=O)ccc1O
REMARK SMILES IDX 19 1 18 2 16 3 17 4 13 5 12 6 7 7 8 8 9 9 84 10 10 11 85 12
REMARK SMILES IDX 11 13 6 14 4 15 5 16 88 17 87 18 86 19 3 20 2 21 1 22 89 23
REMARK SMILES IDX 14 25 15 26 20 27 21 28 22 29 23 30 24 31 25 32 83 33 26 34
REMARK SMILES IDX 82 35 27 36 28 37 29 38 76 39 30 40 81 41 75 42 77 43 31 44
REMARK SMILES IDX 80 45 74 46 73 47 32 49 62 50 43 51 61 52 44 53 47 54 60 55
REMARK SMILES IDX 78 56 45 57 46 58 59 60 79 61 48 62 33 63 34 64 42 65 35 66
REMARK SMILES IDX 41 67 36 68 37 69 38 70 39 71 40 72 63 73 64 74 72 75 65 76
REMARK SMILES IDX 71 77 66 78 67 79 68 80 69 81 70 82 49 83 50 84 58 85 51 86
REMARK SMILES IDX 57 87 52 88 53 89 54 90 55 91 56 92
REMARK H PARENT 89 24 77 48 47 59
REMARK Flexibility Score: inf
ROOT
ATOM      1  C   UNL A   1      34.397  28.766  26.948  1.00  0.00     0.274 C 
ENDROOT
BRANCH   1   2
ATOM      2  O   UNL A   1      33.787  29.122  25.695  1.00  0.00    -0.461 OA
BRANCH   2   3
ATOM      3  C   UNL A   1      32.460  28.862  25.559  1.00  0.00     0.329 C 
ATOM      4  O   UNL A   1      31.585  29.720  25.490  1.00  0.00    -0.250 OA
BRANCH   3   5
ATOM      5  C   UNL A   1      32.167  27.361  25.440  1.00  0.00     0.201 C 
BRANCH   5   6
ATOM      6  N   UNL A   1      32.281  26.868  24.055  1.00  0.00    -0.278 N 
ATOM      7  C   UNL A   1      33.505  24.146  22.076  1.00  0.00     0.029 C 
ATOM      8  C   UNL A   1      33.112  25.374  22.442  1.00  0.00     0.081 C 
ATOM      9  S   UNL A   1      31.967  26.306  21.556  1.00  0.00    -0.054 SA
ATOM     10  C   UNL A   1      33.334  26.010  23.769  1.00  0.00     0.266 C 
ATOM     11  C   UNL A   1      31.380  27.080  23.035  1.00  0.00     0.149 C 
ATOM     12  O   UNL A   1      34.279  25.769  24.498  1.00  0.00    -0.268 OA
ATOM     13  S   UNL A   1      29.923  27.892  23.082  1.00  0.00    -0.052 S 
BRANCH   7  14
ATOM     14  C   UNL A   1      34.052  23.171  23.025  1.00  0.00    -0.020 A 
ATOM     15  C   UNL A   1      33.795  21.377  24.666  1.00  0.00     0.161 A 
ATOM     16  C   UNL A   1      33.240  22.310  23.769  1.00  0.00     0.058 A 
ATOM     17  C   UNL A   1      35.186  21.337  24.807  1.00  0.00     0.157 A 
ATOM     18  C   UNL A   1      36.004  22.174  24.049  1.00  0.00     0.051 A 
ATOM     19  C   UNL A   1      35.442  23.099  23.174  1.00  0.00     0.012 A 
BRANCH  15  20
ATOM     20  O   UNL A   1      32.842  20.630  25.294  1.00  0.00    -0.490 OA
BRANCH  20  21
ATOM     21  C   UNL A   1      32.683  19.232  25.076  1.00  0.00     0.226 C 
ATOM     22  C   UNL A   1      32.626  18.837  23.611  1.00  0.00     0.049 C 
ENDBRANCH  20  21
ENDBRANCH  15  20
BRANCH  17  23
ATOM     23  O   UNL A   1      35.858  20.547  25.692  1.00  0.00    -0.504 OA
ATOM     24  H   UNL A   1      36.081  20.877  26.540  1.00  0.00     0.293 HD
ENDBRANCH  17  23
ENDBRANCH   7  14
ENDBRANCH   5   6
BRANCH   5  25
ATOM     25  C   UNL A   1      30.950  26.797  26.194  1.00  0.00     0.034 C 
ATOM     26  C   UNL A   1      31.048  25.280  26.370  1.00  0.00     0.007 C 
ENDBRANCH   5  25
ENDBRANCH   3   5
ENDBRANCH   2   3
ENDBRANCH   1   2
BRANCH   1  27
ATOM     27  C   UNL A   1      34.836  30.017  27.717  1.00  0.00     0.275 C 
BRANCH  27  28
ATOM     28  O   UNL A   1      35.565  29.690  28.917  1.00  0.00    -0.458 OA
BRANCH  28  29
ATOM     29  C   UNL A   1      36.572  30.544  29.222  1.00  0.00     0.338 C 
ATOM     30  O   UNL A   1      36.482  31.586  29.852  1.00  0.00    -0.246 OA
BRANCH  29  31
ATOM     31  C   UNL A   1      37.871  29.977  28.822  1.00  0.00     0.060 A 
ATOM     32  C   UNL A   1      38.826  29.808  29.823  1.00  0.00     0.016 A 
ATOM     33  C   UNL A   1      38.198  29.718  27.490  1.00  0.00     0.016 A 
ATOM     34  C   UNL A   1      40.115  29.403  29.512  1.00  0.00     0.010 A 
ATOM     35  C   UNL A   1      39.498  29.292  27.175  1.00  0.00     0.010 A 
ATOM     36  C   UNL A   1      40.467  29.146  28.184  1.00  0.00    -0.014 A 
BRANCH  36  37
ATOM     37  C   UNL A   1      41.867  28.753  27.896  1.00  0.00     0.031 A 
ATOM     38  C   UNL A   1      42.968  29.774  27.943  1.00  0.00     0.074 A 
ATOM     39  C   UNL A   1      42.153  27.455  27.672  1.00  0.00     0.049 A 
ATOM     40  N   UNL A   1      44.251  29.611  27.741  1.00  0.00    -0.248 NA
ATOM     41  C   UNL A   1      42.582  31.159  28.257  1.00  0.00     0.031 C 
ATOM     42  C   UNL A   1      41.171  26.368  27.640  1.00  0.00     0.029 A 
ATOM     43  N   UNL A   1      43.352  26.827  27.451  1.00  0.00    -0.354 N 
ATOM     44  C   UNL A   1      44.820  30.872  27.869  1.00  0.00     0.074 A 
ATOM     45  C   UNL A   1      43.744  31.794  28.162  1.00  0.00     0.031 C 
ATOM     46  C   UNL A   1      41.810  25.206  27.429  1.00  0.00     0.029 A 
ATOM     47  C   UNL A   1      43.236  25.469  27.271  1.00  0.00     0.049 A 
ATOM     48  H   UNL A   1      44.213  27.303  27.425  1.00  0.00     0.167 HD
ATOM     49  C   UNL A   1      46.122  31.226  27.749  1.00  0.00     0.031 A 
ATOM     50  C   UNL A   1      44.170  24.541  26.990  1.00  0.00     0.031 A 
ATOM     51  C   UNL A   1      47.193  30.300  27.488  1.00  0.00     0.049 A 
ATOM     52  C   UNL A   1      45.606  24.966  26.859  1.00  0.00     0.074 A 
ATOM     53  C   UNL A   1      48.549  30.561  27.389  1.00  0.00     0.029 A 
ATOM     54  N   UNL A   1      47.033  28.938  27.286  1.00  0.00    -0.354 N 
ATOM     55  N   UNL A   1      46.125  26.162  26.998  1.00  0.00    -0.248 NA
ATOM     56  C   UNL A   1      46.579  23.916  26.532  1.00  0.00     0.031 C 
ATOM     57  C   UNL A   1      49.204  29.363  27.081  1.00  0.00     0.029 A 
ATOM     58  C   UNL A   1      48.261  28.350  27.036  1.00  0.00     0.049 A 
ATOM     59  H   UNL A   1      46.173  28.459  27.316  1.00  0.00     0.167 HD
ATOM     60  C   UNL A   1      47.489  26.008  26.780  1.00  0.00     0.074 A 
ATOM     61  C   UNL A   1      47.717  24.598  26.532  1.00  0.00     0.031 C 
ATOM     62  C   UNL A   1      48.466  26.948  26.778  1.00  0.00     0.031 A 
BRANCH  49  63
ATOM     63  C   UNL A   1      46.465  32.686  27.860  1.00  0.00    -0.014 A 
ATOM     64  C   UNL A   1      46.930  33.244  29.064  1.00  0.00     0.010 A 
ATOM     65  C   UNL A   1      46.384  33.499  26.714  1.00  0.00     0.010 A 
ATOM     66  C   UNL A   1      47.291  34.592  29.123  1.00  0.00     0.020 A 
ATOM     67  C   UNL A   1      46.763  34.843  26.764  1.00  0.00     0.020 A 
ATOM     68  C   UNL A   1      47.205  35.384  27.972  1.00  0.00     0.054 A 
BRANCH  68  69
ATOM     69  S   UNL A   1      47.727  37.119  28.062  1.00  0.00     0.124 S 
ATOM     70  O   UNL A   1      48.659  37.095  29.187  1.00  0.00    -0.237 OA
ATOM     71  O   UNL A   1      48.332  37.343  26.752  1.00  0.00    -0.237 OA
ATOM     72  O   UNL A   1      46.481  37.844  28.301  1.00  0.00    -0.744 OA
ENDBRANCH  68  69
ENDBRANCH  49  63
BRANCH  50  73
ATOM     73  C   UNL A   1      43.768  23.127  26.765  1.00  0.00    -0.014 A 
ATOM     74  C   UNL A   1      43.958  22.508  25.517  1.00  0.00     0.010 A 
ATOM     75  C   UNL A   1      43.179  22.393  27.811  1.00  0.00     0.010 A 
ATOM     76  C   UNL A   1      43.544  21.188  25.313  1.00  0.00     0.020 A 
ATOM     77  C   UNL A   1      42.790  21.065  27.619  1.00  0.00     0.020 A 
ATOM     78  C   UNL A   1      42.959  20.476  26.366  1.00  0.00     0.054 A 
BRANCH  78  79
ATOM     79  S   UNL A   1      42.460  18.752  26.098  1.00  0.00     0.124 S 
ATOM     80  O   UNL A   1      41.068  18.902  25.685  1.00  0.00    -0.237 OA
ATOM     81  O   UNL A   1      43.385  18.308  25.059  1.00  0.00    -0.237 OA
ATOM     82  O   UNL A   1      42.664  18.134  27.408  1.00  0.00    -0.744 OA
ENDBRANCH  78  79
ENDBRANCH  50  73
BRANCH  62  83
ATOM     83  C   UNL A   1      49.866  26.473  26.505  1.00  0.00    -0.014 A 
ATOM     84  C   UNL A   1      50.681  25.992  27.546  1.00  0.00     0.010 A 
ATOM     85  C   UNL A   1      50.368  26.494  25.192  1.00  0.00     0.010 A 
ATOM     86  C   UNL A   1      51.991  25.584  27.285  1.00  0.00     0.020 A 
ATOM     87  C   UNL A   1      51.670  26.063  24.924  1.00  0.00     0.020 A 
ATOM     88  C   UNL A   1      52.480  25.631  25.976  1.00  0.00     0.054 A 
BRANCH  88  89
ATOM     89  S   UNL A   1      54.179  25.085  25.654  1.00  0.00     0.124 S 
ATOM     90  O   UNL A   1      53.964  23.812  24.971  1.00  0.00    -0.237 OA
ATOM     91  O   UNL A   1      54.715  26.160  24.823  1.00  0.00    -0.237 OA
ATOM     92  O   UNL A   1      54.767  24.986  26.987  1.00  0.00    -0.744 OA
ENDBRANCH  88  89
ENDBRANCH  62  83
ENDBRANCH  36  37
ENDBRANCH  29  31
ENDBRANCH  28  29
ENDBRANCH  27  28
ENDBRANCH   1  27
TORSDOF 20
ENDMDL
MODEL 3
REMARK VINA RESULT:     -10.5      6.615     11.646
REMARK SMILES CCOc1cc(/C=C2/SC(=S)N([C@H](CC)C(=O)OCCOC(=O)c3ccc(-c4c5nc(c(-c6ccc(S(=O)(=O)[O-])cc6)c6ccc([nH]6)c(-c6ccc(S(=O)(=O)[O-])cc6)c6nc(c(-c7ccc(S(=O)(=O)[O-])cc7)c7ccc4[nH]7)C=C6)C=C5)cc3)C2=O)ccc1O
REMARK SMILES IDX 19 1 18 2 16 3 17 4 13 5 12 6 7 7 8 8 9 9 84 10 10 11 85 12
REMARK SMILES IDX 11 13 6 14 4 15 5 16 88 17 87 18 86 19 3 20 2 21 1 22 89 23
REMARK SMILES IDX 14 25 15 26 20 27 21 28 22 29 23 30 24 31 25 32 83 33 26 34
REMARK SMILES IDX 82 35 27 36 28 37 29 38 76 39 30 40 81 41 75 42 77 43 31 44
REMARK SMILES IDX 80 45 74 46 73 47 32 49 62 50 43 51 61 52 44 53 47 54 60 55
REMARK SMILES IDX 78 56 45 57 46 58 59 60 79 61 48 62 33 63 34 64 42 65 35 66
REMARK SMILES IDX 41 67 36 68 37 69 38 70 39 71 40 72 63 73 64 74 72 75 65 76
REMARK SMILES IDX 71 77 66 78 67 79 68 80 69 81 70 82 49 83 50 84 58 85 51 86
REMARK SMILES IDX 57 87 52 88 53 89 54 90 55 91 56 92
REMARK H PARENT 89 24 77 48 47 59
REMARK Flexibility Score: inf
ROOT
ATOM      1  C   UNL A   1      33.748  28.907  27.041  1.00  0.00     0.274 C 
ENDROOT
BRANCH   1   2
ATOM      2  O   UNL A   1      33.301  29.380  25.758  1.00  0.00    -0.461 OA
BRANCH   2   3
ATOM      3  C   UNL A   1      32.079  28.961  25.337  1.00  0.00     0.329 C 
ATOM      4  O   UNL A   1      31.169  29.707  24.989  1.00  0.00    -0.250 OA
BRANCH   3   5
ATOM      5  C   UNL A   1      31.969  27.431  25.287  1.00  0.00     0.201 C 
BRANCH   5   6
ATOM      6  N   UNL A   1      32.120  26.896  23.921  1.00  0.00    -0.278 N 
ATOM      7  C   UNL A   1      33.444  24.143  22.055  1.00  0.00     0.029 C 
ATOM      8  C   UNL A   1      33.015  25.371  22.374  1.00  0.00     0.081 C 
ATOM      9  S   UNL A   1      31.863  26.244  21.438  1.00  0.00    -0.054 SA
ATOM     10  C   UNL A   1      33.198  26.056  23.682  1.00  0.00     0.266 C 
ATOM     11  C   UNL A   1      31.231  27.051  22.880  1.00  0.00     0.149 C 
ATOM     12  O   UNL A   1      34.136  25.864  24.433  1.00  0.00    -0.268 OA
ATOM     13  S   UNL A   1      29.753  27.827  22.876  1.00  0.00    -0.052 S 
BRANCH   7  14
ATOM     14  C   UNL A   1      34.000  23.213  23.045  1.00  0.00    -0.020 A 
ATOM     15  C   UNL A   1      35.871  22.248  24.287  1.00  0.00     0.161 A 
ATOM     16  C   UNL A   1      35.367  23.144  23.325  1.00  0.00     0.058 A 
ATOM     17  C   UNL A   1      34.969  21.413  24.954  1.00  0.00     0.157 A 
ATOM     18  C   UNL A   1      33.600  21.494  24.699  1.00  0.00     0.051 A 
ATOM     19  C   UNL A   1      33.117  22.377  23.738  1.00  0.00     0.012 A 
BRANCH  15  20
ATOM     20  O   UNL A   1      37.226  22.332  24.416  1.00  0.00    -0.490 OA
BRANCH  20  21
ATOM     21  C   UNL A   1      37.864  22.911  25.550  1.00  0.00     0.226 C 
ATOM     22  C   UNL A   1      38.992  22.071  26.122  1.00  0.00     0.049 C 
ENDBRANCH  20  21
ENDBRANCH  15  20
BRANCH  17  23
ATOM     23  O   UNL A   1      35.316  20.444  25.848  1.00  0.00    -0.504 OA
ATOM     24  H   UNL A   1      34.671  20.087  26.427  1.00  0.00     0.293 HD
ENDBRANCH  17  23
ENDBRANCH   7  14
ENDBRANCH   5   6
BRANCH   5  25
ATOM     25  C   UNL A   1      30.842  26.758  26.090  1.00  0.00     0.034 C 
ATOM     26  C   UNL A   1      31.042  25.243  26.183  1.00  0.00     0.007 C 
ENDBRANCH   5  25
ENDBRANCH   3   5
ENDBRANCH   2   3
ENDBRANCH   1   2
BRANCH   1  27
ATOM     27  C   UNL A   1      34.772  29.870  27.651  1.00  0.00     0.275 C 
BRANCH  27  28
ATOM     28  O   UNL A   1      35.876  29.174  28.265  1.00  0.00    -0.458 OA
BRANCH  28  29
ATOM     29  C   UNL A   1      36.551  29.886  29.199  1.00  0.00     0.338 C 
ATOM     30  O   UNL A   1      36.071  30.494  30.143  1.00  0.00    -0.246 OA
BRANCH  29  31
ATOM     31  C   UNL A   1      38.004  29.717  29.030  1.00  0.00     0.060 A 
ATOM     32  C   UNL A   1      38.484  29.618  27.725  1.00  0.00     0.016 A 
ATOM     33  C   UNL A   1      38.870  29.547  30.111  1.00  0.00     0.016 A 
ATOM     34  C   UNL A   1      39.818  29.327  27.482  1.00  0.00     0.010 A 
ATOM     35  C   UNL A   1      40.223  29.269  29.866  1.00  0.00     0.010 A 
ATOM     36  C   UNL A   1      40.701  29.145  28.548  1.00  0.00    -0.014 A 
BRANCH  36  37
ATOM     37  C   UNL A   1      42.109  28.799  28.239  1.00  0.00     0.031 A 
ATOM     38  C   UNL A   1      42.477  27.397  27.842  1.00  0.00     0.074 A 
ATOM     39  C   UNL A   1      43.041  29.772  28.238  1.00  0.00     0.049 A 
ATOM     40  N   UNL A   1      43.650  26.916  27.516  1.00  0.00    -0.248 NA
ATOM     41  C   UNL A   1      41.391  26.405  27.805  1.00  0.00     0.031 C 
ATOM     42  C   UNL A   1      42.793  31.178  28.570  1.00  0.00     0.029 A 
ATOM     43  N   UNL A   1      44.376  29.734  27.928  1.00  0.00    -0.354 N 
ATOM     44  C   UNL A   1      43.451  25.563  27.269  1.00  0.00     0.074 A 
ATOM     45  C   UNL A   1      42.046  25.296  27.487  1.00  0.00     0.031 C 
ATOM     46  C   UNL A   1      43.935  31.870  28.429  1.00  0.00     0.029 A 
ATOM     47  C   UNL A   1      45.001  30.953  28.039  1.00  0.00     0.049 A 
ATOM     48  H   UNL A   1      44.842  28.912  27.651  1.00  0.00     0.167 HD
ATOM     49  C   UNL A   1      44.360  24.630  26.898  1.00  0.00     0.031 A 
ATOM     50  C   UNL A   1      46.293  31.294  27.864  1.00  0.00     0.031 A 
ATOM     51  C   UNL A   1      45.751  24.907  26.652  1.00  0.00     0.049 A 
ATOM     52  C   UNL A   1      47.278  30.235  27.457  1.00  0.00     0.074 A 
ATOM     53  C   UNL A   1      46.740  24.033  26.235  1.00  0.00     0.029 A 
ATOM     54  N   UNL A   1      46.351  26.148  26.801  1.00  0.00    -0.354 N 
ATOM     55  N   UNL A   1      47.067  28.964  27.214  1.00  0.00    -0.248 NA
ATOM     56  C   UNL A   1      48.676  30.658  27.301  1.00  0.00     0.031 C 
ATOM     57  C   UNL A   1      47.949  24.736  26.174  1.00  0.00     0.029 A 
ATOM     58  C   UNL A   1      47.702  26.058  26.509  1.00  0.00     0.049 A 
ATOM     59  H   UNL A   1      45.886  26.972  27.073  1.00  0.00     0.167 HD
ATOM     60  C   UNL A   1      48.305  28.434  26.872  1.00  0.00     0.074 A 
ATOM     61  C   UNL A   1      49.253  29.530  26.908  1.00  0.00     0.031 C 
ATOM     62  C   UNL A   1      48.632  27.156  26.563  1.00  0.00     0.031 A 
BRANCH  49  63
ATOM     63  C   UNL A   1      43.892  23.206  26.770  1.00  0.00    -0.014 A 
ATOM     64  C   UNL A   1      43.198  22.564  27.811  1.00  0.00     0.010 A 
ATOM     65  C   UNL A   1      44.094  22.523  25.557  1.00  0.00     0.010 A 
ATOM     66  C   UNL A   1      42.729  21.258  27.645  1.00  0.00     0.020 A 
ATOM     67  C   UNL A   1      43.610  21.225  25.380  1.00  0.00     0.020 A 
ATOM     68  C   UNL A   1      42.939  20.595  26.429  1.00  0.00     0.054 A 
BRANCH  68  69
ATOM     69  S   UNL A   1      42.278  18.919  26.221  1.00  0.00     0.124 S 
ATOM     70  O   UNL A   1      42.416  18.371  27.568  1.00  0.00    -0.237 OA
ATOM     71  O   UNL A   1      40.906  19.165  25.782  1.00  0.00    -0.237 OA
ATOM     72  O   UNL A   1      43.153  18.324  25.214  1.00  0.00    -0.744 OA
ENDBRANCH  68  69
ENDBRANCH  49  63
BRANCH  50  73
ATOM     73  C   UNL A   1      46.734  32.690  28.124  1.00  0.00    -0.014 A 
ATOM     74  C   UNL A   1      46.666  33.671  27.120  1.00  0.00     0.010 A 
ATOM     75  C   UNL A   1      47.236  33.040  29.391  1.00  0.00     0.010 A 
ATOM     76  C   UNL A   1      47.116  34.971  27.372  1.00  0.00     0.020 A 
ATOM     77  C   UNL A   1      47.660  34.345  29.655  1.00  0.00     0.020 A 
ATOM     78  C   UNL A   1      47.613  35.299  28.637  1.00  0.00     0.054 A 
BRANCH  78  79
ATOM     79  S   UNL A   1      48.159  36.998  28.961  1.00  0.00     0.124 S 
ATOM     80  O   UNL A   1      46.967  37.768  28.618  1.00  0.00    -0.237 OA
ATOM     81  O   UNL A   1      48.500  36.961  30.381  1.00  0.00    -0.237 OA
ATOM     82  O   UNL A   1      49.297  37.166  28.059  1.00  0.00    -0.744 OA
ENDBRANCH  78  79
ENDBRANCH  50  73
BRANCH  62  83
ATOM     83  C   UNL A   1      50.073  26.883  26.233  1.00  0.00    -0.014 A 
ATOM     84  C   UNL A   1      50.540  26.974  24.909  1.00  0.00     0.010 A 
ATOM     85  C   UNL A   1      50.973  26.546  27.259  1.00  0.00     0.010 A 
ATOM     86  C   UNL A   1      51.875  26.686  24.611  1.00  0.00     0.020 A 
ATOM     87  C   UNL A   1      52.314  26.283  26.967  1.00  0.00     0.020 A 
ATOM     88  C   UNL A   1      52.751  26.334  25.642  1.00  0.00     0.054 A 
BRANCH  88  89
ATOM     89  S   UNL A   1      54.482  25.976  25.237  1.00  0.00     0.124 S 
ATOM     90  O   UNL A   1      54.432  24.550  24.928  1.00  0.00    -0.237 OA
ATOM     91  O   UNL A   1      54.740  26.857  24.101  1.00  0.00    -0.237 OA
ATOM     92  O   UNL A   1      55.200  26.324  26.461  1.00  0.00    -0.744 OA
ENDBRANCH  88  89
ENDBRANCH  62  83
ENDBRANCH  36  37
ENDBRANCH  29  31
ENDBRANCH  28  29
ENDBRANCH  27  28
ENDBRANCH   1  27
TORSDOF 20
ENDMDL
