MODEL 1
REMARK VINA RESULT:     -10.0      0.000      0.000
REMARK SMILES CC[C@@H](C)[C@@H](C(=O)OCCOC(=O)c1ccc(-c2c3nc(c(-c4ccc(S(=O)(=O)[O-])cc4)c4ccc([nH]4)c(-c4ccc(S(=O)(=O)[O-])cc4)c4nc(c(-c5ccc(S(=O)(=O)[O-])cc5)c5ccc2[nH]5)C=C4)C=C3)cc1)S(=O)(=O)c1ccc(OC)cc1
REMARK SMILES IDX 9 1 8 2 6 3 7 4 5 5 3 6 4 7 2 8 1 9 74 10 75 11 76 12 77 13
REMARK SMILES IDX 78 14 84 15 79 16 83 17 80 18 81 19 82 20 10 21 11 22 12 23
REMARK SMILES IDX 13 24 14 25 15 26 73 27 16 28 72 29 17 30 18 31 19 32 66 33
REMARK SMILES IDX 20 34 71 35 65 36 67 37 21 38 70 39 64 40 63 41 22 43 52 44
REMARK SMILES IDX 33 45 51 46 34 47 37 48 50 49 68 50 35 51 36 52 49 54 69 55
REMARK SMILES IDX 38 56 23 57 24 58 32 59 25 60 31 61 26 62 27 63 28 64 29 65
REMARK SMILES IDX 30 66 53 67 54 68 62 69 55 70 61 71 56 72 57 73 58 74 59 75
REMARK SMILES IDX 60 76 39 77 40 78 48 79 41 80 47 81 42 82 43 83 44 84 45 85
REMARK SMILES IDX 46 86
REMARK H PARENT 67 42 37 53
REMARK Flexibility Score: inf
ROOT
ATOM      1  C   UNL A   1      37.052  21.251  24.695  1.00  0.00     0.274 C 
ENDROOT
BRANCH   1   2
ATOM      2  O   UNL A   1      35.867  20.452  24.951  1.00  0.00    -0.461 OA
BRANCH   2   3
ATOM      3  C   UNL A   1      34.773  21.128  25.396  1.00  0.00     0.325 C 
ATOM      4  O   UNL A   1      34.437  21.152  26.575  1.00  0.00    -0.251 OA
BRANCH   3   5
ATOM      5  C   UNL A   1      33.926  21.730  24.291  1.00  0.00     0.225 C 
BRANCH   5   6
ATOM      6  C   UNL A   1      33.814  23.275  24.242  1.00  0.00     0.015 C 
ATOM      7  C   UNL A   1      34.699  23.864  23.124  1.00  0.00     0.009 C 
BRANCH   6   8
ATOM      8  C   UNL A   1      34.192  23.973  25.571  1.00  0.00     0.002 C 
ATOM      9  C   UNL A   1      33.129  24.986  26.000  1.00  0.00     0.004 C 
ENDBRANCH   6   8
ENDBRANCH   5   6
BRANCH   5  10
ATOM     10  S   UNL A   1      32.390  20.818  24.176  1.00  0.00     0.192 S 
ATOM     11  O   UNL A   1      31.522  21.231  25.265  1.00  0.00    -0.223 OA
ATOM     12  O   UNL A   1      31.887  20.970  22.821  1.00  0.00    -0.223 OA
BRANCH  10  13
ATOM     13  C   UNL A   1      32.666  19.069  24.412  1.00  0.00     0.068 A 
ATOM     14  C   UNL A   1      32.496  18.394  25.618  1.00  0.00     0.024 A 
ATOM     15  C   UNL A   1      33.051  18.332  23.301  1.00  0.00     0.024 A 
ATOM     16  C   UNL A   1      32.859  17.043  25.737  1.00  0.00     0.048 A 
ATOM     17  C   UNL A   1      33.431  16.994  23.433  1.00  0.00     0.048 A 
ATOM     18  C   UNL A   1      33.367  16.341  24.650  1.00  0.00     0.118 A 
BRANCH  18  19
ATOM     19  O   UNL A   1      33.742  15.047  24.873  1.00  0.00    -0.497 OA
ATOM     20  C   UNL A   1      32.823  14.233  25.602  1.00  0.00     0.278 C 
ENDBRANCH  18  19
ENDBRANCH  10  13
ENDBRANCH   5  10
ENDBRANCH   3   5
ENDBRANCH   2   3
ENDBRANCH   1   2
BRANCH   1  21
ATOM     21  C   UNL A   1      37.961  21.311  25.916  1.00  0.00     0.275 C 
BRANCH  21  22
ATOM     22  O   UNL A   1      38.933  22.354  25.736  1.00  0.00    -0.458 OA
BRANCH  22  23
ATOM     23  C   UNL A   1      38.421  23.600  25.803  1.00  0.00     0.338 C 
ATOM     24  O   UNL A   1      37.424  24.011  25.219  1.00  0.00    -0.246 OA
BRANCH  23  25
ATOM     25  C   UNL A   1      39.191  24.435  26.733  1.00  0.00     0.060 A 
ATOM     26  C   UNL A   1      38.834  24.463  28.081  1.00  0.00     0.016 A 
ATOM     27  C   UNL A   1      40.079  25.383  26.218  1.00  0.00     0.016 A 
ATOM     28  C   UNL A   1      39.270  25.526  28.881  1.00  0.00     0.010 A 
ATOM     29  C   UNL A   1      40.556  26.413  27.041  1.00  0.00     0.010 A 
ATOM     30  C   UNL A   1      40.114  26.530  28.369  1.00  0.00    -0.014 A 
BRANCH  30  31
ATOM     31  C   UNL A   1      40.552  27.690  29.193  1.00  0.00     0.031 A 
ATOM     32  C   UNL A   1      41.817  27.656  30.006  1.00  0.00     0.074 A 
ATOM     33  C   UNL A   1      39.817  28.810  29.248  1.00  0.00     0.049 A 
ATOM     34  N   UNL A   1      42.052  28.089  31.217  1.00  0.00    -0.248 NA
ATOM     35  C   UNL A   1      42.982  27.046  29.370  1.00  0.00     0.031 C 
ATOM     36  C   UNL A   1      38.645  29.106  28.428  1.00  0.00     0.029 A 
ATOM     37  N   UNL A   1      39.960  29.907  30.054  1.00  0.00    -0.354 N 
ATOM     38  C   UNL A   1      43.335  27.641  31.537  1.00  0.00     0.074 A 
ATOM     39  C   UNL A   1      43.833  26.929  30.383  1.00  0.00     0.031 C 
ATOM     40  C   UNL A   1      38.176  30.316  28.766  1.00  0.00     0.029 A 
ATOM     41  C   UNL A   1      38.937  30.806  29.908  1.00  0.00     0.049 A 
ATOM     42  H   UNL A   1      40.716  30.035  30.672  1.00  0.00     0.167 HD
ATOM     43  C   UNL A   1      44.034  27.858  32.679  1.00  0.00     0.031 A 
ATOM     44  C   UNL A   1      38.594  31.857  30.672  1.00  0.00     0.031 A 
ATOM     45  C   UNL A   1      43.642  28.861  33.637  1.00  0.00     0.049 A 
ATOM     46  C   UNL A   1      39.396  32.152  31.903  1.00  0.00     0.074 A 
ATOM     47  C   UNL A   1      44.244  29.214  34.832  1.00  0.00     0.029 A 
ATOM     48  N   UNL A   1      42.616  29.771  33.423  1.00  0.00    -0.354 N 
ATOM     49  N   UNL A   1      40.399  31.474  32.413  1.00  0.00    -0.248 NA
ATOM     50  C   UNL A   1      39.014  33.343  32.667  1.00  0.00     0.031 C 
ATOM     51  C   UNL A   1      43.605  30.363  35.317  1.00  0.00     0.029 A 
ATOM     52  C   UNL A   1      42.618  30.729  34.415  1.00  0.00     0.049 A 
ATOM     53  H   UNL A   1      41.979  29.736  32.673  1.00  0.00     0.167 HD
ATOM     54  C   UNL A   1      40.780  32.169  33.554  1.00  0.00     0.074 A 
ATOM     55  C   UNL A   1      39.906  33.324  33.648  1.00  0.00     0.031 C 
ATOM     56  C   UNL A   1      41.755  31.880  34.451  1.00  0.00     0.031 A 
BRANCH  43  57
ATOM     57  C   UNL A   1      45.269  27.036  32.967  1.00  0.00    -0.014 A 
ATOM     58  C   UNL A   1      46.559  27.418  32.562  1.00  0.00     0.010 A 
ATOM     59  C   UNL A   1      45.130  25.874  33.756  1.00  0.00     0.010 A 
ATOM     60  C   UNL A   1      47.675  26.638  32.903  1.00  0.00     0.020 A 
ATOM     61  C   UNL A   1      46.243  25.110  34.127  1.00  0.00     0.020 A 
ATOM     62  C   UNL A   1      47.509  25.487  33.681  1.00  0.00     0.054 A 
BRANCH  62  63
ATOM     63  S   UNL A   1      48.968  24.515  34.156  1.00  0.00     0.124 S 
ATOM     64  O   UNL A   1      49.844  24.702  33.001  1.00  0.00    -0.237 OA
ATOM     65  O   UNL A   1      49.409  25.166  35.388  1.00  0.00    -0.237 OA
ATOM     66  O   UNL A   1      48.442  23.163  34.326  1.00  0.00    -0.744 OA
ENDBRANCH  62  63
ENDBRANCH  43  57
BRANCH  44  67
ATOM     67  C   UNL A   1      37.382  32.629  30.309  1.00  0.00    -0.014 A 
ATOM     68  C   UNL A   1      37.449  33.643  29.341  1.00  0.00     0.010 A 
ATOM     69  C   UNL A   1      36.134  32.271  30.851  1.00  0.00     0.010 A 
ATOM     70  C   UNL A   1      36.283  34.285  28.918  1.00  0.00     0.020 A 
ATOM     71  C   UNL A   1      34.964  32.888  30.407  1.00  0.00     0.020 A 
ATOM     72  C   UNL A   1      35.047  33.898  29.448  1.00  0.00     0.054 A 
BRANCH  72  73
ATOM     73  S   UNL A   1      33.535  34.672  28.814  1.00  0.00     0.124 S 
ATOM     74  O   UNL A   1      34.048  35.919  28.256  1.00  0.00    -0.237 OA
ATOM     75  O   UNL A   1      33.055  33.692  27.843  1.00  0.00    -0.237 OA
ATOM     76  O   UNL A   1      32.702  34.814  30.006  1.00  0.00    -0.744 OA
ENDBRANCH  72  73
ENDBRANCH  44  67
BRANCH  56  77
ATOM     77  C   UNL A   1      41.973  32.869  35.556  1.00  0.00    -0.014 A 
ATOM     78  C   UNL A   1      42.830  33.968  35.379  1.00  0.00     0.010 A 
ATOM     79  C   UNL A   1      41.268  32.720  36.763  1.00  0.00     0.010 A 
ATOM     80  C   UNL A   1      42.999  34.894  36.410  1.00  0.00     0.020 A 
ATOM     81  C   UNL A   1      41.423  33.654  37.789  1.00  0.00     0.020 A 
ATOM     82  C   UNL A   1      42.297  34.729  37.608  1.00  0.00     0.054 A 
BRANCH  82  83
ATOM     83  S   UNL A   1      42.499  35.970  38.914  1.00  0.00     0.124 S 
ATOM     84  O   UNL A   1      42.822  37.169  38.144  1.00  0.00    -0.237 OA
ATOM     85  O   UNL A   1      41.189  35.972  39.561  1.00  0.00    -0.237 OA
ATOM     86  O   UNL A   1      43.590  35.441  39.729  1.00  0.00    -0.744 OA
ENDBRANCH  82  83
ENDBRANCH  56  77
ENDBRANCH  30  31
ENDBRANCH  23  25
ENDBRANCH  22  23
ENDBRANCH  21  22
ENDBRANCH   1  21
TORSDOF 19
ENDMDL
MODEL 2
REMARK VINA RESULT:      -9.7      1.739      3.831
REMARK SMILES CC[C@@H](C)[C@@H](C(=O)OCCOC(=O)c1ccc(-c2c3nc(c(-c4ccc(S(=O)(=O)[O-])cc4)c4ccc([nH]4)c(-c4ccc(S(=O)(=O)[O-])cc4)c4nc(c(-c5ccc(S(=O)(=O)[O-])cc5)c5ccc2[nH]5)C=C4)C=C3)cc1)S(=O)(=O)c1ccc(OC)cc1
REMARK SMILES IDX 9 1 8 2 6 3 7 4 5 5 3 6 4 7 2 8 1 9 74 10 75 11 76 12 77 13
REMARK SMILES IDX 78 14 84 15 79 16 83 17 80 18 81 19 82 20 10 21 11 22 12 23
REMARK SMILES IDX 13 24 14 25 15 26 73 27 16 28 72 29 17 30 18 31 19 32 66 33
REMARK SMILES IDX 20 34 71 35 65 36 67 37 21 38 70 39 64 40 63 41 22 43 52 44
REMARK SMILES IDX 33 45 51 46 34 47 37 48 50 49 68 50 35 51 36 52 49 54 69 55
REMARK SMILES IDX 38 56 23 57 24 58 32 59 25 60 31 61 26 62 27 63 28 64 29 65
REMARK SMILES IDX 30 66 53 67 54 68 62 69 55 70 61 71 56 72 57 73 58 74 59 75
REMARK SMILES IDX 60 76 39 77 40 78 48 79 41 80 47 81 42 82 43 83 44 84 45 85
REMARK SMILES IDX 46 86
REMARK H PARENT 67 42 37 53
REMARK Flexibility Score: inf
ROOT
ATOM      1  C   UNL A   1      36.729  21.546  24.868  1.00  0.00     0.274 C 
ENDROOT
BRANCH   1   2
ATOM      2  O   UNL A   1      35.592  21.934  25.682  1.00  0.00    -0.461 OA
BRANCH   2   3
ATOM      3  C   UNL A   1      34.973  23.095  25.335  1.00  0.00     0.325 C 
ATOM      4  O   UNL A   1      35.478  24.199  25.508  1.00  0.00    -0.251 OA
BRANCH   3   5
ATOM      5  C   UNL A   1      33.549  22.914  24.846  1.00  0.00     0.225 C 
BRANCH   5   6
ATOM      6  C   UNL A   1      32.796  21.637  25.303  1.00  0.00     0.015 C 
ATOM      7  C   UNL A   1      32.945  20.503  24.269  1.00  0.00     0.009 C 
BRANCH   6   8
ATOM      8  C   UNL A   1      31.286  21.859  25.559  1.00  0.00     0.002 C 
ATOM      9  C   UNL A   1      31.014  23.224  26.194  1.00  0.00     0.004 C 
ENDBRANCH   6   8
ENDBRANCH   5   6
BRANCH   5  10
ATOM     10  S   UNL A   1      33.483  23.292  23.098  1.00  0.00     0.192 S 
ATOM     11  O   UNL A   1      34.834  23.273  22.567  1.00  0.00    -0.223 OA
ATOM     12  O   UNL A   1      32.509  22.400  22.490  1.00  0.00    -0.223 OA
BRANCH  10  13
ATOM     13  C   UNL A   1      32.877  24.950  22.825  1.00  0.00     0.068 A 
ATOM     14  C   UNL A   1      33.657  26.017  22.387  1.00  0.00     0.024 A 
ATOM     15  C   UNL A   1      31.525  25.176  23.041  1.00  0.00     0.024 A 
ATOM     16  C   UNL A   1      33.121  27.314  22.322  1.00  0.00     0.048 A 
ATOM     17  C   UNL A   1      31.005  26.472  22.996  1.00  0.00     0.048 A 
ATOM     18  C   UNL A   1      31.796  27.557  22.665  1.00  0.00     0.118 A 
BRANCH  18  19
ATOM     19  O   UNL A   1      31.378  28.855  22.622  1.00  0.00    -0.497 OA
ATOM     20  C   UNL A   1      30.005  29.095  22.933  1.00  0.00     0.278 C 
ENDBRANCH  18  19
ENDBRANCH  10  13
ENDBRANCH   5  10
ENDBRANCH   3   5
ENDBRANCH   2   3
ENDBRANCH   1   2
BRANCH   1  21
ATOM     21  C   UNL A   1      37.871  22.547  24.988  1.00  0.00     0.275 C 
BRANCH  21  22
ATOM     22  O   UNL A   1      38.570  22.327  26.224  1.00  0.00    -0.458 OA
BRANCH  22  23
ATOM     23  C   UNL A   1      39.806  22.864  26.261  1.00  0.00     0.338 C 
ATOM     24  O   UNL A   1      40.839  22.347  25.849  1.00  0.00    -0.246 OA
BRANCH  23  25
ATOM     25  C   UNL A   1      39.773  24.220  26.825  1.00  0.00     0.060 A 
ATOM     26  C   UNL A   1      40.707  25.162  26.393  1.00  0.00     0.016 A 
ATOM     27  C   UNL A   1      39.000  24.463  27.963  1.00  0.00     0.016 A 
ATOM     28  C   UNL A   1      40.954  26.291  27.183  1.00  0.00     0.010 A 
ATOM     29  C   UNL A   1      39.215  25.624  28.718  1.00  0.00     0.010 A 
ATOM     30  C   UNL A   1      40.233  26.526  28.369  1.00  0.00    -0.014 A 
BRANCH  30  31
ATOM     31  C   UNL A   1      40.512  27.699  29.243  1.00  0.00     0.031 A 
ATOM     32  C   UNL A   1      41.687  27.733  30.180  1.00  0.00     0.074 A 
ATOM     33  C   UNL A   1      39.706  28.771  29.230  1.00  0.00     0.049 A 
ATOM     34  N   UNL A   1      41.770  28.162  31.412  1.00  0.00    -0.248 NA
ATOM     35  C   UNL A   1      42.946  27.204  29.662  1.00  0.00     0.031 C 
ATOM     36  C   UNL A   1      38.606  29.006  28.297  1.00  0.00     0.029 A 
ATOM     37  N   UNL A   1      39.698  29.864  30.054  1.00  0.00    -0.354 N 
ATOM     38  C   UNL A   1      43.040  27.790  31.858  1.00  0.00     0.074 A 
ATOM     39  C   UNL A   1      43.696  27.126  30.756  1.00  0.00     0.031 C 
ATOM     40  C   UNL A   1      38.032  30.180  28.594  1.00  0.00     0.029 A 
ATOM     41  C   UNL A   1      38.641  30.701  29.811  1.00  0.00     0.049 A 
ATOM     42  H   UNL A   1      40.378  30.030  30.747  1.00  0.00     0.167 HD
ATOM     43  C   UNL A   1      43.604  28.034  33.067  1.00  0.00     0.031 A 
ATOM     44  C   UNL A   1      38.157  31.718  30.543  1.00  0.00     0.031 A 
ATOM     45  C   UNL A   1      43.055  28.998  33.987  1.00  0.00     0.049 A 
ATOM     46  C   UNL A   1      38.810  32.045  31.852  1.00  0.00     0.074 A 
ATOM     47  C   UNL A   1      43.510  29.372  35.240  1.00  0.00     0.029 A 
ATOM     48  N   UNL A   1      42.001  29.846  33.676  1.00  0.00    -0.354 N 
ATOM     49  N   UNL A   1      39.796  31.423  32.457  1.00  0.00    -0.248 NA
ATOM     50  C   UNL A   1      38.278  33.200  32.581  1.00  0.00     0.031 C 
ATOM     51  C   UNL A   1      42.754  30.473  35.665  1.00  0.00     0.029 A 
ATOM     52  C   UNL A   1      41.842  30.790  34.670  1.00  0.00     0.049 A 
ATOM     53  H   UNL A   1      41.447  29.783  32.864  1.00  0.00     0.167 HD
ATOM     54  C   UNL A   1      40.014  32.125  33.635  1.00  0.00     0.074 A 
ATOM     55  C   UNL A   1      39.066  33.222  33.648  1.00  0.00     0.031 C 
ATOM     56  C   UNL A   1      40.910  31.885  34.625  1.00  0.00     0.031 A 
BRANCH  43  57
ATOM     57  C   UNL A   1      44.853  27.287  33.474  1.00  0.00    -0.014 A 
ATOM     58  C   UNL A   1      44.828  26.082  34.196  1.00  0.00     0.010 A 
ATOM     59  C   UNL A   1      46.101  27.778  33.032  1.00  0.00     0.010 A 
ATOM     60  C   UNL A   1      46.020  25.408  34.502  1.00  0.00     0.020 A 
ATOM     61  C   UNL A   1      47.290  27.093  33.306  1.00  0.00     0.020 A 
ATOM     62  C   UNL A   1      47.244  25.920  34.059  1.00  0.00     0.054 A 
BRANCH  62  63
ATOM     63  S   UNL A   1      48.774  25.010  34.420  1.00  0.00     0.124 S 
ATOM     64  O   UNL A   1      48.311  23.624  34.406  1.00  0.00    -0.237 OA
ATOM     65  O   UNL A   1      49.649  25.389  33.313  1.00  0.00    -0.237 OA
ATOM     66  O   UNL A   1      49.178  25.518  35.728  1.00  0.00    -0.744 OA
ENDBRANCH  62  63
ENDBRANCH  43  57
BRANCH  44  67
ATOM     67  C   UNL A   1      36.941  32.419  30.064  1.00  0.00    -0.014 A 
ATOM     68  C   UNL A   1      35.683  32.106  30.599  1.00  0.00     0.010 A 
ATOM     69  C   UNL A   1      37.060  33.484  29.151  1.00  0.00     0.010 A 
ATOM     70  C   UNL A   1      34.560  32.851  30.231  1.00  0.00     0.020 A 
ATOM     71  C   UNL A   1      35.947  34.250  28.806  1.00  0.00     0.020 A 
ATOM     72  C   UNL A   1      34.701  33.923  29.343  1.00  0.00     0.054 A 
BRANCH  72  73
ATOM     73  S   UNL A   1      33.252  34.941  28.953  1.00  0.00     0.124 S 
ATOM     74  O   UNL A   1      32.606  35.054  30.257  1.00  0.00    -0.237 OA
ATOM     75  O   UNL A   1      33.852  36.168  28.434  1.00  0.00    -0.237 OA
ATOM     76  O   UNL A   1      32.533  34.142  27.963  1.00  0.00    -0.744 OA
ENDBRANCH  72  73
ENDBRANCH  44  67
BRANCH  56  77
ATOM     77  C   UNL A   1      40.952  32.871  35.753  1.00  0.00    -0.014 A 
ATOM     78  C   UNL A   1      40.082  32.748  36.849  1.00  0.00     0.010 A 
ATOM     79  C   UNL A   1      41.910  33.899  35.735  1.00  0.00     0.010 A 
ATOM     80  C   UNL A   1      40.155  33.659  37.904  1.00  0.00     0.020 A 
ATOM     81  C   UNL A   1      41.995  34.801  36.796  1.00  0.00     0.020 A 
ATOM     82  C   UNL A   1      41.109  34.681  37.868  1.00  0.00     0.054 A 
BRANCH  82  83
ATOM     83  S   UNL A   1      41.213  35.824  39.272  1.00  0.00     0.124 S 
ATOM     84  O   UNL A   1      40.024  35.467  40.042  1.00  0.00    -0.237 OA
ATOM     85  O   UNL A   1      42.490  35.464  39.886  1.00  0.00    -0.237 OA
ATOM     86  O   UNL A   1      41.179  37.144  38.647  1.00  0.00    -0.744 OA
ENDBRANCH  82  83
ENDBRANCH  56  77
ENDBRANCH  30  31
ENDBRANCH  23  25
ENDBRANCH  22  23
ENDBRANCH  21  22
ENDBRANCH   1  21
TORSDOF 19
ENDMDL
MODEL 3
REMARK VINA RESULT:      -9.5      2.614      7.150
REMARK SMILES CC[C@@H](C)[C@@H](C(=O)OCCOC(=O)c1ccc(-c2c3nc(c(-c4ccc(S(=O)(=O)[O-])cc4)c4ccc([nH]4)c(-c4ccc(S(=O)(=O)[O-])cc4)c4nc(c(-c5ccc(S(=O)(=O)[O-])cc5)c5ccc2[nH]5)C=C4)C=C3)cc1)S(=O)(=O)c1ccc(OC)cc1
REMARK SMILES IDX 9 1 8 2 6 3 7 4 5 5 3 6 4 7 2 8 1 9 74 10 75 11 76 12 77 13
REMARK SMILES IDX 78 14 84 15 79 16 83 17 80 18 81 19 82 20 10 21 11 22 12 23
REMARK SMILES IDX 13 24 14 25 15 26 73 27 16 28 72 29 17 30 18 31 19 32 66 33
REMARK SMILES IDX 20 34 71 35 65 36 67 37 21 38 70 39 64 40 63 41 22 43 52 44
REMARK SMILES IDX 33 45 51 46 34 47 37 48 50 49 68 50 35 51 36 52 49 54 69 55
REMARK SMILES IDX 38 56 23 57 24 58 32 59 25 60 31 61 26 62 27 63 28 64 29 65
REMARK SMILES IDX 30 66 53 67 54 68 62 69 55 70 61 71 56 72 57 73 58 74 59 75
REMARK SMILES IDX 60 76 39 77 40 78 48 79 41 80 47 81 42 82 43 83 44 84 45 85
REMARK SMILES IDX 46 86
REMARK H PARENT 67 42 37 53
REMARK Flexibility Score: inf
ROOT
ATOM      1  C   UNL A   1      33.039  27.878  25.726  1.00  0.00     0.274 C 
ENDROOT
BRANCH   1   2
ATOM      2  O   UNL A   1      34.128  26.956  25.463  1.00  0.00    -0.461 OA
BRANCH   2   3
ATOM      3  C   UNL A   1      33.800  25.814  24.799  1.00  0.00     0.325 C 
ATOM      4  O   UNL A   1      33.257  25.813  23.699  1.00  0.00    -0.251 OA
BRANCH   3   5
ATOM      5  C   UNL A   1      34.034  24.546  25.597  1.00  0.00     0.225 C 
BRANCH   5   6
ATOM      6  C   UNL A   1      35.208  23.633  25.155  1.00  0.00     0.015 C 
ATOM      7  C   UNL A   1      36.488  23.943  25.958  1.00  0.00     0.009 C 
BRANCH   6   8
ATOM      8  C   UNL A   1      35.549  23.738  23.649  1.00  0.00     0.002 C 
ATOM      9  C   UNL A   1      36.598  22.704  23.234  1.00  0.00     0.004 C 
ENDBRANCH   6   8
ENDBRANCH   5   6
BRANCH   5  10
ATOM     10  S   UNL A   1      32.462  23.738  25.877  1.00  0.00     0.192 S 
ATOM     11  O   UNL A   1      32.414  23.278  27.254  1.00  0.00    -0.223 OA
ATOM     12  O   UNL A   1      31.415  24.644  25.434  1.00  0.00    -0.223 OA
BRANCH  10  13
ATOM     13  C   UNL A   1      32.310  22.270  24.870  1.00  0.00     0.068 A 
ATOM     14  C   UNL A   1      32.442  20.967  25.342  1.00  0.00     0.024 A 
ATOM     15  C   UNL A   1      32.010  22.450  23.527  1.00  0.00     0.024 A 
ATOM     16  C   UNL A   1      32.431  19.881  24.452  1.00  0.00     0.048 A 
ATOM     17  C   UNL A   1      32.024  21.367  22.644  1.00  0.00     0.048 A 
ATOM     18  C   UNL A   1      32.260  20.078  23.087  1.00  0.00     0.118 A 
BRANCH  18  19
ATOM     19  O   UNL A   1      32.316  18.969  22.293  1.00  0.00    -0.497 OA
ATOM     20  C   UNL A   1      32.779  17.766  22.906  1.00  0.00     0.278 C 
ENDBRANCH  18  19
ENDBRANCH  10  13
ENDBRANCH   5  10
ENDBRANCH   3   5
ENDBRANCH   2   3
ENDBRANCH   1   2
BRANCH   1  21
ATOM     21  C   UNL A   1      33.174  28.528  27.097  1.00  0.00     0.275 C 
BRANCH  21  22
ATOM     22  O   UNL A   1      34.541  28.921  27.305  1.00  0.00    -0.458 OA
BRANCH  22  23
ATOM     23  C   UNL A   1      34.691  30.198  27.710  1.00  0.00     0.338 C 
ATOM     24  O   UNL A   1      33.943  31.136  27.457  1.00  0.00    -0.246 OA
BRANCH  23  25
ATOM     25  C   UNL A   1      35.873  30.342  28.569  1.00  0.00     0.060 A 
ATOM     26  C   UNL A   1      36.822  31.319  28.267  1.00  0.00     0.016 A 
ATOM     27  C   UNL A   1      36.163  29.340  29.498  1.00  0.00     0.016 A 
ATOM     28  C   UNL A   1      38.111  31.208  28.804  1.00  0.00     0.010 A 
ATOM     29  C   UNL A   1      37.439  29.269  30.074  1.00  0.00     0.010 A 
ATOM     30  C   UNL A   1      38.447  30.169  29.693  1.00  0.00    -0.014 A 
BRANCH  30  31
ATOM     31  C   UNL A   1      39.823  30.012  30.239  1.00  0.00     0.031 A 
ATOM     32  C   UNL A   1      40.782  28.987  29.701  1.00  0.00     0.074 A 
ATOM     33  C   UNL A   1      40.251  30.782  31.250  1.00  0.00     0.049 A 
ATOM     34  N   UNL A   1      41.607  28.193  30.330  1.00  0.00    -0.248 NA
ATOM     35  C   UNL A   1      40.817  28.831  28.248  1.00  0.00     0.031 C 
ATOM     36  C   UNL A   1      39.542  31.927  31.816  1.00  0.00     0.029 A 
ATOM     37  N   UNL A   1      41.401  30.691  31.987  1.00  0.00    -0.354 N 
ATOM     38  C   UNL A   1      42.118  27.330  29.358  1.00  0.00     0.074 A 
ATOM     39  C   UNL A   1      41.530  27.720  28.098  1.00  0.00     0.031 C 
ATOM     40  C   UNL A   1      40.278  32.444  32.809  1.00  0.00     0.029 A 
ATOM     41  C   UNL A   1      41.435  31.584  33.026  1.00  0.00     0.049 A 
ATOM     42  H   UNL A   1      42.126  30.054  31.791  1.00  0.00     0.167 HD
ATOM     43  C   UNL A   1      43.032  26.341  29.518  1.00  0.00     0.031 A 
ATOM     44  C   UNL A   1      42.252  31.641  34.091  1.00  0.00     0.031 A 
ATOM     45  C   UNL A   1      43.843  26.232  30.705  1.00  0.00     0.049 A 
ATOM     46  C   UNL A   1      43.312  30.593  34.249  1.00  0.00     0.074 A 
ATOM     47  C   UNL A   1      44.819  25.302  31.017  1.00  0.00     0.029 A 
ATOM     48  N   UNL A   1      43.862  27.186  31.713  1.00  0.00    -0.354 N 
ATOM     49  N   UNL A   1      43.542  29.538  33.503  1.00  0.00    -0.248 NA
ATOM     50  C   UNL A   1      44.212  30.737  35.397  1.00  0.00     0.031 C 
ATOM     51  C   UNL A   1      45.453  25.718  32.195  1.00  0.00     0.029 A 
ATOM     52  C   UNL A   1      44.881  26.913  32.603  1.00  0.00     0.049 A 
ATOM     53  H   UNL A   1      43.239  27.944  31.784  1.00  0.00     0.167 HD
ATOM     54  C   UNL A   1      44.629  28.897  34.085  1.00  0.00     0.074 A 
ATOM     55  C   UNL A   1      45.014  29.693  35.235  1.00  0.00     0.031 C 
ATOM     56  C   UNL A   1      45.251  27.751  33.713  1.00  0.00     0.031 A 
BRANCH  43  57
ATOM     57  C   UNL A   1      43.224  25.317  28.423  1.00  0.00    -0.014 A 
ATOM     58  C   UNL A   1      44.216  25.424  27.434  1.00  0.00     0.010 A 
ATOM     59  C   UNL A   1      42.425  24.153  28.448  1.00  0.00     0.010 A 
ATOM     60  C   UNL A   1      44.378  24.415  26.473  1.00  0.00     0.020 A 
ATOM     61  C   UNL A   1      42.605  23.129  27.511  1.00  0.00     0.020 A 
ATOM     62  C   UNL A   1      43.569  23.275  26.515  1.00  0.00     0.054 A 
BRANCH  62  63
ATOM     63  S   UNL A   1      43.824  21.955  25.294  1.00  0.00     0.124 S 
ATOM     64  O   UNL A   1      45.168  21.490  25.630  1.00  0.00    -0.237 OA
ATOM     65  O   UNL A   1      42.744  21.018  25.595  1.00  0.00    -0.237 OA
ATOM     66  O   UNL A   1      43.706  22.643  24.011  1.00  0.00    -0.744 OA
ENDBRANCH  62  63
ENDBRANCH  43  57
BRANCH  44  67
ATOM     67  C   UNL A   1      42.014  32.691  35.110  1.00  0.00    -0.014 A 
ATOM     68  C   UNL A   1      42.708  33.909  35.050  1.00  0.00     0.010 A 
ATOM     69  C   UNL A   1      41.005  32.516  36.075  1.00  0.00     0.010 A 
ATOM     70  C   UNL A   1      42.394  34.939  35.940  1.00  0.00     0.020 A 
ATOM     71  C   UNL A   1      40.667  33.554  36.944  1.00  0.00     0.020 A 
ATOM     72  C   UNL A   1      41.370  34.757  36.876  1.00  0.00     0.054 A 
BRANCH  72  73
ATOM     73  S   UNL A   1      40.909  36.138  37.956  1.00  0.00     0.124 S 
ATOM     74  O   UNL A   1      42.107  36.970  37.908  1.00  0.00    -0.237 OA
ATOM     75  O   UNL A   1      39.729  36.686  37.291  1.00  0.00    -0.237 OA
ATOM     76  O   UNL A   1      40.645  35.491  39.239  1.00  0.00    -0.744 OA
ENDBRANCH  72  73
ENDBRANCH  44  67
BRANCH  56  77
ATOM     77  C   UNL A   1      46.453  27.344  34.511  1.00  0.00    -0.014 A 
ATOM     78  C   UNL A   1      46.328  26.481  35.611  1.00  0.00     0.010 A 
ATOM     79  C   UNL A   1      47.726  27.794  34.118  1.00  0.00     0.010 A 
ATOM     80  C   UNL A   1      47.462  26.090  36.325  1.00  0.00     0.020 A 
ATOM     81  C   UNL A   1      48.863  27.392  34.820  1.00  0.00     0.020 A 
ATOM     82  C   UNL A   1      48.721  26.551  35.926  1.00  0.00     0.054 A 
BRANCH  82  83
ATOM     83  S   UNL A   1      50.183  25.993  36.842  1.00  0.00     0.124 S 
ATOM     84  O   UNL A   1      50.832  27.258  37.176  1.00  0.00    -0.237 OA
ATOM     85  O   UNL A   1      49.599  25.270  37.970  1.00  0.00    -0.237 OA
ATOM     86  O   UNL A   1      50.898  25.160  35.878  1.00  0.00    -0.744 OA
ENDBRANCH  82  83
ENDBRANCH  56  77
ENDBRANCH  30  31
ENDBRANCH  23  25
ENDBRANCH  22  23
ENDBRANCH  21  22
ENDBRANCH   1  21
TORSDOF 19
ENDMDL
