MODEL 1
REMARK VINA RESULT:     -11.5      0.000      0.000
REMARK SMILES Cc1nc(-c2cccc(N3C[C@H](C(=O)OCCOC(=O)c4ccc(-c5c6nc(c(-c7ccc(S(=O)(=O)[O-])cc7)c7ccc([nH]7)c(-c7ccc(S(=O)(=O)[O-])cc7)c7nc(c(-c8ccc(S(=O)(=O)[O-])cc8)c8ccc5[nH]8)C=C7)C=C6)cc4)CC3=O)c2)no1
REMARK SMILES IDX 17 1 16 2 15 3 13 4 14 5 12 6 10 7 11 8 82 9 81 10 83 11
REMARK SMILES IDX 9 12 5 13 6 14 84 15 7 16 8 17 4 18 1 19 2 20 3 21 86 22
REMARK SMILES IDX 85 23 18 24 19 25 20 26 21 27 22 28 80 29 23 30 79 31 24 32
REMARK SMILES IDX 25 33 26 34 73 35 27 36 78 37 72 38 74 39 28 40 77 41 71 42
REMARK SMILES IDX 70 43 29 45 59 46 40 47 58 48 41 49 44 50 57 51 75 52 42 53
REMARK SMILES IDX 43 54 56 56 76 57 45 58 30 59 31 60 39 61 32 62 38 63 33 64
REMARK SMILES IDX 34 65 35 66 36 67 37 68 60 69 61 70 69 71 62 72 68 73 63 74
REMARK SMILES IDX 64 75 65 76 66 77 67 78 46 79 47 80 55 81 48 82 54 83 49 84
REMARK SMILES IDX 50 85 51 86 52 87 53 88
REMARK H PARENT 74 44 44 55
REMARK Flexibility Score: inf
ROOT
ATOM      1  C   UNL A   1      32.371  28.475  27.560  1.00  0.00     0.275 C 
ENDROOT
BRANCH   1   2
ATOM      2  C   UNL A   1      31.709  27.819  26.348  1.00  0.00     0.274 C 
BRANCH   2   3
ATOM      3  O   UNL A   1      31.514  26.399  26.514  1.00  0.00    -0.462 OA
BRANCH   3   4
ATOM      4  C   UNL A   1      31.810  25.639  25.424  1.00  0.00     0.311 C 
ATOM      5  O   UNL A   1      31.154  24.675  25.055  1.00  0.00    -0.252 OA
BRANCH   4   6
ATOM      6  C   UNL A   1      33.111  26.080  24.780  1.00  0.00     0.128 C 
ATOM      7  N   UNL A   1      34.289  24.141  24.206  1.00  0.00    -0.312 N 
ATOM      8  C   UNL A   1      34.221  25.151  25.232  1.00  0.00     0.141 C 
ATOM      9  C   UNL A   1      33.787  24.620  22.996  1.00  0.00     0.227 C 
ATOM     10  C   UNL A   1      33.128  25.961  23.263  1.00  0.00     0.117 C 
ATOM     11  O   UNL A   1      33.794  24.083  21.899  1.00  0.00    -0.274 OA
BRANCH   7  12
ATOM     12  C   UNL A   1      34.812  22.845  24.428  1.00  0.00     0.044 A 
ATOM     13  C   UNL A   1      34.510  20.454  24.824  1.00  0.00     0.025 A 
ATOM     14  C   UNL A   1      35.900  20.294  24.902  1.00  0.00     0.012 A 
ATOM     15  C   UNL A   1      33.974  21.739  24.622  1.00  0.00     0.038 A 
ATOM     16  C   UNL A   1      36.742  21.390  24.734  1.00  0.00     0.003 A 
ATOM     17  C   UNL A   1      36.200  22.650  24.480  1.00  0.00     0.026 A 
BRANCH  13  18
ATOM     18  C   UNL A   1      33.640  19.288  24.882  1.00  0.00     0.202 A 
ATOM     19  C   UNL A   1      32.916  15.811  25.066  1.00  0.00     0.114 C 
ATOM     20  C   UNL A   1      33.061  17.274  24.992  1.00  0.00     0.223 A 
ATOM     21  N   UNL A   1      34.131  18.002  24.772  1.00  0.00    -0.191 NA
ATOM     22  O   UNL A   1      31.939  18.011  25.221  1.00  0.00    -0.339 OA
ATOM     23  N   UNL A   1      32.328  19.345  25.167  1.00  0.00    -0.057 NA
ENDBRANCH  13  18
ENDBRANCH   7  12
ENDBRANCH   4   6
ENDBRANCH   3   4
ENDBRANCH   2   3
ENDBRANCH   1   2
BRANCH   1  24
ATOM     24  O   UNL A   1      33.770  28.716  27.333  1.00  0.00    -0.458 OA
BRANCH  24  25
ATOM     25  C   UNL A   1      34.191  29.954  27.683  1.00  0.00     0.338 C 
ATOM     26  O   UNL A   1      33.523  30.973  27.727  1.00  0.00    -0.246 OA
BRANCH  25  27
ATOM     27  C   UNL A   1      35.589  29.899  28.127  1.00  0.00     0.060 A 
ATOM     28  C   UNL A   1      36.578  30.104  27.171  1.00  0.00     0.016 A 
ATOM     29  C   UNL A   1      35.926  29.499  29.418  1.00  0.00     0.016 A 
ATOM     30  C   UNL A   1      37.908  29.836  27.466  1.00  0.00     0.010 A 
ATOM     31  C   UNL A   1      37.275  29.293  29.737  1.00  0.00     0.010 A 
ATOM     32  C   UNL A   1      38.274  29.427  28.754  1.00  0.00    -0.014 A 
BRANCH  32  33
ATOM     33  C   UNL A   1      39.694  29.095  29.042  1.00  0.00     0.031 A 
ATOM     34  C   UNL A   1      40.581  30.103  29.722  1.00  0.00     0.074 A 
ATOM     35  C   UNL A   1      40.177  27.875  28.737  1.00  0.00     0.049 A 
ATOM     36  N   UNL A   1      41.870  30.052  29.943  1.00  0.00    -0.248 NA
ATOM     37  C   UNL A   1      39.934  31.331  30.211  1.00  0.00     0.031 C 
ATOM     38  C   UNL A   1      39.406  26.781  28.141  1.00  0.00     0.029 A 
ATOM     39  N   UNL A   1      41.432  27.344  28.902  1.00  0.00    -0.354 N 
ATOM     40  C   UNL A   1      42.196  31.256  30.559  1.00  0.00     0.074 A 
ATOM     41  C   UNL A   1      40.971  32.019  30.669  1.00  0.00     0.031 C 
ATOM     42  C   UNL A   1      40.195  25.702  28.021  1.00  0.00     0.029 A 
ATOM     43  C   UNL A   1      41.543  26.047  28.462  1.00  0.00     0.049 A 
ATOM     44  H   UNL A   1      42.181  27.845  29.299  1.00  0.00     0.167 HD
ATOM     45  C   UNL A   1      43.407  31.685  30.991  1.00  0.00     0.031 A 
ATOM     46  C   UNL A   1      42.613  25.234  28.387  1.00  0.00     0.031 A 
ATOM     47  C   UNL A   1      44.616  30.908  30.906  1.00  0.00     0.049 A 
ATOM     48  C   UNL A   1      43.953  25.744  28.834  1.00  0.00     0.074 A 
ATOM     49  C   UNL A   1      45.896  31.262  31.297  1.00  0.00     0.029 A 
ATOM     50  N   UNL A   1      44.692  29.615  30.414  1.00  0.00    -0.354 N 
ATOM     51  N   UNL A   1      44.261  26.915  29.341  1.00  0.00    -0.248 NA
ATOM     52  C   UNL A   1      45.095  24.831  28.684  1.00  0.00     0.031 C 
ATOM     53  C   UNL A   1      46.753  30.193  31.009  1.00  0.00     0.029 A 
ATOM     54  C   UNL A   1      45.998  29.158  30.480  1.00  0.00     0.049 A 
ATOM     55  H   UNL A   1      43.929  29.096  30.068  1.00  0.00     0.167 HD
ATOM     56  C   UNL A   1      45.630  26.878  29.572  1.00  0.00     0.074 A 
ATOM     57  C   UNL A   1      46.088  25.563  29.172  1.00  0.00     0.031 C 
ATOM     58  C   UNL A   1      46.437  27.849  30.068  1.00  0.00     0.031 A 
BRANCH  45  59
ATOM     59  C   UNL A   1      43.487  33.080  31.549  1.00  0.00    -0.014 A 
ATOM     60  C   UNL A   1      43.641  34.199  30.712  1.00  0.00     0.010 A 
ATOM     61  C   UNL A   1      43.386  33.273  32.940  1.00  0.00     0.010 A 
ATOM     62  C   UNL A   1      43.735  35.483  31.259  1.00  0.00     0.020 A 
ATOM     63  C   UNL A   1      43.457  34.555  33.489  1.00  0.00     0.020 A 
ATOM     64  C   UNL A   1      43.652  35.652  32.646  1.00  0.00     0.054 A 
BRANCH  64  65
ATOM     65  S   UNL A   1      43.771  37.326  33.335  1.00  0.00     0.124 S 
ATOM     66  O   UNL A   1      43.900  38.139  32.129  1.00  0.00    -0.237 OA
ATOM     67  O   UNL A   1      42.509  37.472  34.057  1.00  0.00    -0.237 OA
ATOM     68  O   UNL A   1      44.963  37.270  34.178  1.00  0.00    -0.744 OA
ENDBRANCH  64  65
ENDBRANCH  45  59
BRANCH  46  69
ATOM     69  C   UNL A   1      42.461  23.871  27.813  1.00  0.00    -0.014 A 
ATOM     70  C   UNL A   1      42.624  23.646  26.436  1.00  0.00     0.010 A 
ATOM     71  C   UNL A   1      42.185  22.779  28.657  1.00  0.00     0.010 A 
ATOM     72  C   UNL A   1      42.509  22.353  25.912  1.00  0.00     0.020 A 
ATOM     73  C   UNL A   1      42.095  21.483  28.142  1.00  0.00     0.020 A 
ATOM     74  C   UNL A   1      42.248  21.280  26.769  1.00  0.00     0.054 A 
BRANCH  74  75
ATOM     75  S   UNL A   1      42.173  19.599  26.088  1.00  0.00     0.124 S 
ATOM     76  O   UNL A   1      43.139  19.670  24.996  1.00  0.00    -0.237 OA
ATOM     77  O   UNL A   1      42.565  18.771  27.226  1.00  0.00    -0.237 OA
ATOM     78  O   UNL A   1      40.776  19.458  25.682  1.00  0.00    -0.744 OA
ENDBRANCH  74  75
ENDBRANCH  46  69
BRANCH  58  79
ATOM     79  C   UNL A   1      47.896  27.519  30.214  1.00  0.00    -0.014 A 
ATOM     80  C   UNL A   1      48.801  27.768  29.168  1.00  0.00     0.010 A 
ATOM     81  C   UNL A   1      48.374  26.996  31.429  1.00  0.00     0.010 A 
ATOM     82  C   UNL A   1      50.158  27.473  29.326  1.00  0.00     0.020 A 
ATOM     83  C   UNL A   1      49.732  26.719  31.597  1.00  0.00     0.020 A 
ATOM     84  C   UNL A   1      50.615  26.947  30.538  1.00  0.00     0.054 A 
BRANCH  84  85
ATOM     85  S   UNL A   1      52.386  26.609  30.736  1.00  0.00     0.124 S 
ATOM     86  O   UNL A   1      52.375  25.374  31.514  1.00  0.00    -0.237 OA
ATOM     87  O   UNL A   1      52.848  26.478  29.356  1.00  0.00    -0.237 OA
ATOM     88  O   UNL A   1      52.886  27.787  31.442  1.00  0.00    -0.744 OA
ENDBRANCH  84  85
ENDBRANCH  58  79
ENDBRANCH  32  33
ENDBRANCH  25  27
ENDBRANCH  24  25
ENDBRANCH   1  24
TORSDOF 16
ENDMDL
MODEL 2
REMARK VINA RESULT:     -11.2      3.036      9.651
REMARK SMILES Cc1nc(-c2cccc(N3C[C@H](C(=O)OCCOC(=O)c4ccc(-c5c6nc(c(-c7ccc(S(=O)(=O)[O-])cc7)c7ccc([nH]7)c(-c7ccc(S(=O)(=O)[O-])cc7)c7nc(c(-c8ccc(S(=O)(=O)[O-])cc8)c8ccc5[nH]8)C=C7)C=C6)cc4)CC3=O)c2)no1
REMARK SMILES IDX 17 1 16 2 15 3 13 4 14 5 12 6 10 7 11 8 82 9 81 10 83 11
REMARK SMILES IDX 9 12 5 13 6 14 84 15 7 16 8 17 4 18 1 19 2 20 3 21 86 22
REMARK SMILES IDX 85 23 18 24 19 25 20 26 21 27 22 28 80 29 23 30 79 31 24 32
REMARK SMILES IDX 25 33 26 34 73 35 27 36 78 37 72 38 74 39 28 40 77 41 71 42
REMARK SMILES IDX 70 43 29 45 59 46 40 47 58 48 41 49 44 50 57 51 75 52 42 53
REMARK SMILES IDX 43 54 56 56 76 57 45 58 30 59 31 60 39 61 32 62 38 63 33 64
REMARK SMILES IDX 34 65 35 66 36 67 37 68 60 69 61 70 69 71 62 72 68 73 63 74
REMARK SMILES IDX 64 75 65 76 66 77 67 78 46 79 47 80 55 81 48 82 54 83 49 84
REMARK SMILES IDX 50 85 51 86 52 87 53 88
REMARK H PARENT 74 44 44 55
REMARK Flexibility Score: inf
ROOT
ATOM      1  C   UNL A   1      36.903  23.002  24.253  1.00  0.00     0.275 C 
ENDROOT
BRANCH   1   2
ATOM      2  C   UNL A   1      35.426  22.622  24.354  1.00  0.00     0.274 C 
BRANCH   2   3
ATOM      3  O   UNL A   1      34.544  23.668  23.894  1.00  0.00    -0.462 OA
BRANCH   3   4
ATOM      4  C   UNL A   1      33.247  23.552  24.291  1.00  0.00     0.311 C 
ATOM      5  O   UNL A   1      32.305  23.376  23.532  1.00  0.00    -0.252 OA
BRANCH   4   6
ATOM      6  C   UNL A   1      33.106  23.766  25.787  1.00  0.00     0.128 C 
ATOM      7  N   UNL A   1      32.040  25.827  26.091  1.00  0.00    -0.312 N 
ATOM      8  C   UNL A   1      33.352  25.230  26.098  1.00  0.00     0.141 C 
ATOM      9  C   UNL A   1      31.054  24.878  26.360  1.00  0.00     0.227 C 
ATOM     10  C   UNL A   1      31.706  23.507  26.324  1.00  0.00     0.117 C 
ATOM     11  O   UNL A   1      29.859  25.048  26.543  1.00  0.00    -0.274 OA
BRANCH   7  12
ATOM     12  C   UNL A   1      31.818  27.203  25.850  1.00  0.00     0.044 A 
ATOM     13  C   UNL A   1      30.951  29.022  24.469  1.00  0.00     0.025 A 
ATOM     14  C   UNL A   1      31.430  29.954  25.401  1.00  0.00     0.012 A 
ATOM     15  C   UNL A   1      31.181  27.651  24.685  1.00  0.00     0.038 A 
ATOM     16  C   UNL A   1      32.084  29.522  26.551  1.00  0.00     0.003 A 
ATOM     17  C   UNL A   1      32.258  28.157  26.781  1.00  0.00     0.026 A 
BRANCH  13  18
ATOM     18  C   UNL A   1      30.165  29.472  23.330  1.00  0.00     0.202 A 
ATOM     19  C   UNL A   1      28.122  31.752  21.520  1.00  0.00     0.114 C 
ATOM     20  C   UNL A   1      28.959  30.714  22.144  1.00  0.00     0.223 A 
ATOM     21  N   UNL A   1      29.388  30.613  23.381  1.00  0.00    -0.191 NA
ATOM     22  O   UNL A   1      29.402  29.717  21.330  1.00  0.00    -0.339 OA
ATOM     23  N   UNL A   1      30.216  28.905  22.113  1.00  0.00    -0.057 NA
ENDBRANCH  13  18
ENDBRANCH   7  12
ENDBRANCH   4   6
ENDBRANCH   3   4
ENDBRANCH   2   3
ENDBRANCH   1   2
BRANCH   1  24
ATOM     24  O   UNL A   1      37.343  23.730  25.412  1.00  0.00    -0.458 OA
BRANCH  24  25
ATOM     25  C   UNL A   1      38.444  23.222  26.011  1.00  0.00     0.338 C 
ATOM     26  O   UNL A   1      38.859  22.078  25.939  1.00  0.00    -0.246 OA
BRANCH  25  27
ATOM     27  C   UNL A   1      39.175  24.290  26.703  1.00  0.00     0.060 A 
ATOM     28  C   UNL A   1      38.929  24.466  28.060  1.00  0.00     0.016 A 
ATOM     29  C   UNL A   1      39.964  25.202  26.004  1.00  0.00     0.016 A 
ATOM     30  C   UNL A   1      39.400  25.593  28.720  1.00  0.00     0.010 A 
ATOM     31  C   UNL A   1      40.495  26.306  26.685  1.00  0.00     0.010 A 
ATOM     32  C   UNL A   1      40.190  26.528  28.041  1.00  0.00    -0.014 A 
BRANCH  32  33
ATOM     33  C   UNL A   1      40.643  27.755  28.746  1.00  0.00     0.031 A 
ATOM     34  C   UNL A   1      42.053  27.849  29.264  1.00  0.00     0.074 A 
ATOM     35  C   UNL A   1      39.809  28.804  28.882  1.00  0.00     0.049 A 
ATOM     36  N   UNL A   1      42.598  28.775  30.011  1.00  0.00    -0.248 NA
ATOM     37  C   UNL A   1      42.967  26.755  28.900  1.00  0.00     0.031 C 
ATOM     38  C   UNL A   1      38.440  28.872  28.364  1.00  0.00     0.029 A 
ATOM     39  N   UNL A   1      39.996  30.022  29.485  1.00  0.00    -0.354 N 
ATOM     40  C   UNL A   1      43.905  28.356  30.241  1.00  0.00     0.074 A 
ATOM     41  C   UNL A   1      44.067  27.090  29.560  1.00  0.00     0.031 C 
ATOM     42  C   UNL A   1      37.924  30.079  28.643  1.00  0.00     0.029 A 
ATOM     43  C   UNL A   1      38.895  30.843  29.420  1.00  0.00     0.049 A 
ATOM     44  H   UNL A   1      40.838  30.285  29.921  1.00  0.00     0.167 HD
ATOM     45  C   UNL A   1      44.878  28.972  30.956  1.00  0.00     0.031 A 
ATOM     46  C   UNL A   1      38.674  32.059  29.954  1.00  0.00     0.031 A 
ATOM     47  C   UNL A   1      44.720  30.247  31.605  1.00  0.00     0.049 A 
ATOM     48  C   UNL A   1      39.752  32.705  30.777  1.00  0.00     0.074 A 
ATOM     49  C   UNL A   1      45.638  30.944  32.370  1.00  0.00     0.029 A 
ATOM     50  N   UNL A   1      43.573  31.024  31.550  1.00  0.00    -0.354 N 
ATOM     51  N   UNL A   1      40.955  32.260  31.051  1.00  0.00    -0.248 NA
ATOM     52  C   UNL A   1      39.438  34.009  31.375  1.00  0.00     0.031 C 
ATOM     53  C   UNL A   1      45.035  32.130  32.806  1.00  0.00     0.029 A 
ATOM     54  C   UNL A   1      43.756  32.190  32.276  1.00  0.00     0.049 A 
ATOM     55  H   UNL A   1      42.750  30.784  31.066  1.00  0.00     0.167 HD
ATOM     56  C   UNL A   1      41.543  33.230  31.853  1.00  0.00     0.074 A 
ATOM     57  C   UNL A   1      40.572  34.296  32.001  1.00  0.00     0.031 C 
ATOM     58  C   UNL A   1      42.775  33.235  32.420  1.00  0.00     0.031 A 
BRANCH  45  59
ATOM     59  C   UNL A   1      46.186  28.245  31.111  1.00  0.00    -0.014 A 
ATOM     60  C   UNL A   1      47.280  28.512  30.269  1.00  0.00     0.010 A 
ATOM     61  C   UNL A   1      46.326  27.287  32.133  1.00  0.00     0.010 A 
ATOM     62  C   UNL A   1      48.477  27.805  30.420  1.00  0.00     0.020 A 
ATOM     63  C   UNL A   1      47.527  26.594  32.302  1.00  0.00     0.020 A 
ATOM     64  C   UNL A   1      48.590  26.843  31.431  1.00  0.00     0.054 A 
BRANCH  64  65
ATOM     65  S   UNL A   1      50.153  25.940  31.613  1.00  0.00     0.124 S 
ATOM     66  O   UNL A   1      51.028  26.964  32.177  1.00  0.00    -0.237 OA
ATOM     67  O   UNL A   1      49.796  24.852  32.521  1.00  0.00    -0.237 OA
ATOM     68  O   UNL A   1      50.477  25.528  30.250  1.00  0.00    -0.744 OA
ENDBRANCH  64  65
ENDBRANCH  45  59
BRANCH  46  69
ATOM     69  C   UNL A   1      37.351  32.713  29.769  1.00  0.00    -0.014 A 
ATOM     70  C   UNL A   1      36.353  32.613  30.752  1.00  0.00     0.010 A 
ATOM     71  C   UNL A   1      37.099  33.475  28.612  1.00  0.00     0.010 A 
ATOM     72  C   UNL A   1      35.123  33.258  30.580  1.00  0.00     0.020 A 
ATOM     73  C   UNL A   1      35.883  34.142  28.448  1.00  0.00     0.020 A 
ATOM     74  C   UNL A   1      34.897  34.021  29.429  1.00  0.00     0.054 A 
BRANCH  74  75
ATOM     75  S   UNL A   1      33.327  34.913  29.252  1.00  0.00     0.124 S 
ATOM     76  O   UNL A   1      32.656  34.142  28.210  1.00  0.00    -0.237 OA
ATOM     77  O   UNL A   1      32.744  34.813  30.588  1.00  0.00    -0.237 OA
ATOM     78  O   UNL A   1      33.742  36.260  28.865  1.00  0.00    -0.744 OA
ENDBRANCH  74  75
ENDBRANCH  46  69
BRANCH  58  79
ATOM     79  C   UNL A   1      43.145  34.437  33.243  1.00  0.00    -0.014 A 
ATOM     80  C   UNL A   1      42.860  34.486  34.619  1.00  0.00     0.010 A 
ATOM     81  C   UNL A   1      43.826  35.511  32.642  1.00  0.00     0.010 A 
ATOM     82  C   UNL A   1      43.227  35.602  35.375  1.00  0.00     0.020 A 
ATOM     83  C   UNL A   1      44.212  36.620  33.399  1.00  0.00     0.020 A 
ATOM     84  C   UNL A   1      43.898  36.664  34.760  1.00  0.00     0.054 A 
BRANCH  84  85
ATOM     85  S   UNL A   1      44.401  38.086  35.768  1.00  0.00     0.124 S 
ATOM     86  O   UNL A   1      45.856  37.967  35.755  1.00  0.00    -0.237 OA
ATOM     87  O   UNL A   1      43.856  39.220  35.025  1.00  0.00    -0.237 OA
ATOM     88  O   UNL A   1      43.766  37.835  37.061  1.00  0.00    -0.744 OA
ENDBRANCH  84  85
ENDBRANCH  58  79
ENDBRANCH  32  33
ENDBRANCH  25  27
ENDBRANCH  24  25
ENDBRANCH   1  24
TORSDOF 16
ENDMDL
MODEL 3
REMARK VINA RESULT:     -11.0      1.360      2.446
REMARK SMILES Cc1nc(-c2cccc(N3C[C@H](C(=O)OCCOC(=O)c4ccc(-c5c6nc(c(-c7ccc(S(=O)(=O)[O-])cc7)c7ccc([nH]7)c(-c7ccc(S(=O)(=O)[O-])cc7)c7nc(c(-c8ccc(S(=O)(=O)[O-])cc8)c8ccc5[nH]8)C=C7)C=C6)cc4)CC3=O)c2)no1
REMARK SMILES IDX 17 1 16 2 15 3 13 4 14 5 12 6 10 7 11 8 82 9 81 10 83 11
REMARK SMILES IDX 9 12 5 13 6 14 84 15 7 16 8 17 4 18 1 19 2 20 3 21 86 22
REMARK SMILES IDX 85 23 18 24 19 25 20 26 21 27 22 28 80 29 23 30 79 31 24 32
REMARK SMILES IDX 25 33 26 34 73 35 27 36 78 37 72 38 74 39 28 40 77 41 71 42
REMARK SMILES IDX 70 43 29 45 59 46 40 47 58 48 41 49 44 50 57 51 75 52 42 53
REMARK SMILES IDX 43 54 56 56 76 57 45 58 30 59 31 60 39 61 32 62 38 63 33 64
REMARK SMILES IDX 34 65 35 66 36 67 37 68 60 69 61 70 69 71 62 72 68 73 63 74
REMARK SMILES IDX 64 75 65 76 66 77 67 78 46 79 47 80 55 81 48 82 54 83 49 84
REMARK SMILES IDX 50 85 51 86 52 87 53 88
REMARK H PARENT 74 44 44 55
REMARK Flexibility Score: inf
ROOT
ATOM      1  C   UNL A   1      32.864  29.201  25.881  1.00  0.00     0.275 C 
ENDROOT
BRANCH   1   2
ATOM      2  C   UNL A   1      32.744  28.158  24.770  1.00  0.00     0.274 C 
BRANCH   2   3
ATOM      3  O   UNL A   1      31.793  27.117  25.077  1.00  0.00    -0.462 OA
BRANCH   3   4
ATOM      4  C   UNL A   1      31.646  26.162  24.118  1.00  0.00     0.311 C 
ATOM      5  O   UNL A   1      32.292  26.118  23.081  1.00  0.00    -0.252 OA
BRANCH   4   6
ATOM      6  C   UNL A   1      30.512  25.213  24.455  1.00  0.00     0.128 C 
ATOM      7  N   UNL A   1      31.481  23.196  25.142  1.00  0.00    -0.312 N 
ATOM      8  C   UNL A   1      30.884  23.818  23.987  1.00  0.00     0.141 C 
ATOM      9  C   UNL A   1      31.035  23.792  26.322  1.00  0.00     0.227 C 
ATOM     10  C   UNL A   1      30.262  25.044  25.947  1.00  0.00     0.117 C 
ATOM     11  O   UNL A   1      31.241  23.451  27.476  1.00  0.00    -0.274 OA
BRANCH   7  12
ATOM     12  C   UNL A   1      32.390  22.115  25.056  1.00  0.00     0.044 A 
ATOM     13  C   UNL A   1      34.667  21.231  25.011  1.00  0.00     0.025 A 
ATOM     14  C   UNL A   1      34.158  19.936  24.845  1.00  0.00     0.012 A 
ATOM     15  C   UNL A   1      33.776  22.319  25.079  1.00  0.00     0.038 A 
ATOM     16  C   UNL A   1      32.783  19.725  24.797  1.00  0.00     0.003 A 
ATOM     17  C   UNL A   1      31.908  20.804  24.921  1.00  0.00     0.026 A 
BRANCH  13  18
ATOM     18  C   UNL A   1      36.099  21.434  25.179  1.00  0.00     0.202 A 
ATOM     19  C   UNL A   1      38.998  23.082  26.412  1.00  0.00     0.114 C 
ATOM     20  C   UNL A   1      37.895  22.298  25.834  1.00  0.00     0.223 A 
ATOM     21  N   UNL A   1      36.611  22.567  25.780  1.00  0.00    -0.191 NA
ATOM     22  O   UNL A   1      38.221  21.087  25.304  1.00  0.00    -0.339 OA
ATOM     23  N   UNL A   1      37.027  20.507  24.887  1.00  0.00    -0.057 NA
ENDBRANCH  13  18
ENDBRANCH   7  12
ENDBRANCH   4   6
ENDBRANCH   3   4
ENDBRANCH   2   3
ENDBRANCH   1   2
BRANCH   1  24
ATOM     24  O   UNL A   1      34.167  29.182  26.488  1.00  0.00    -0.458 OA
BRANCH  24  25
ATOM     25  C   UNL A   1      34.348  30.106  27.460  1.00  0.00     0.338 C 
ATOM     26  O   UNL A   1      33.508  30.852  27.932  1.00  0.00    -0.246 OA
BRANCH  25  27
ATOM     27  C   UNL A   1      35.719  30.023  27.977  1.00  0.00     0.060 A 
ATOM     28  C   UNL A   1      36.761  30.256  27.085  1.00  0.00     0.016 A 
ATOM     29  C   UNL A   1      35.983  29.572  29.269  1.00  0.00     0.016 A 
ATOM     30  C   UNL A   1      38.071  29.966  27.443  1.00  0.00     0.010 A 
ATOM     31  C   UNL A   1      37.311  29.342  29.653  1.00  0.00     0.010 A 
ATOM     32  C   UNL A   1      38.363  29.506  28.732  1.00  0.00    -0.014 A 
BRANCH  32  33
ATOM     33  C   UNL A   1      39.763  29.152  29.085  1.00  0.00     0.031 A 
ATOM     34  C   UNL A   1      40.627  30.137  29.824  1.00  0.00     0.074 A 
ATOM     35  C   UNL A   1      40.246  27.930  28.786  1.00  0.00     0.049 A 
ATOM     36  N   UNL A   1      41.903  30.067  30.108  1.00  0.00    -0.248 NA
ATOM     37  C   UNL A   1      39.972  31.366  30.299  1.00  0.00     0.031 C 
ATOM     38  C   UNL A   1      39.493  26.855  28.135  1.00  0.00     0.029 A 
ATOM     39  N   UNL A   1      41.485  27.381  29.004  1.00  0.00    -0.354 N 
ATOM     40  C   UNL A   1      42.213  31.257  30.757  1.00  0.00     0.074 A 
ATOM     41  C   UNL A   1      40.993  32.034  30.819  1.00  0.00     0.031 C 
ATOM     42  C   UNL A   1      40.274  25.768  28.037  1.00  0.00     0.029 A 
ATOM     43  C   UNL A   1      41.602  26.089  28.549  1.00  0.00     0.049 A 
ATOM     44  H   UNL A   1      42.220  27.865  29.445  1.00  0.00     0.167 HD
ATOM     45  C   UNL A   1      43.406  31.664  31.255  1.00  0.00     0.031 A 
ATOM     46  C   UNL A   1      42.665  25.264  28.515  1.00  0.00     0.031 A 
ATOM     47  C   UNL A   1      44.608  30.874  31.219  1.00  0.00     0.049 A 
ATOM     48  C   UNL A   1      43.987  25.750  29.035  1.00  0.00     0.074 A 
ATOM     49  C   UNL A   1      45.872  31.205  31.677  1.00  0.00     0.029 A 
ATOM     50  N   UNL A   1      44.693  29.587  30.710  1.00  0.00    -0.354 N 
ATOM     51  N   UNL A   1      44.283  26.908  29.575  1.00  0.00    -0.248 NA
ATOM     52  C   UNL A   1      45.123  24.824  28.928  1.00  0.00     0.031 C 
ATOM     53  C   UNL A   1      46.729  30.129  31.415  1.00  0.00     0.029 A 
ATOM     54  C   UNL A   1      45.988  29.112  30.834  1.00  0.00     0.049 A 
ATOM     55  H   UNL A   1      43.942  29.083  30.319  1.00  0.00     0.167 HD
ATOM     56  C   UNL A   1      45.639  26.851  29.873  1.00  0.00     0.074 A 
ATOM     57  C   UNL A   1      46.100  25.536  29.475  1.00  0.00     0.031 C 
ATOM     58  C   UNL A   1      46.431  27.804  30.423  1.00  0.00     0.031 A 
BRANCH  45  59
ATOM     59  C   UNL A   1      43.474  33.049  31.838  1.00  0.00    -0.014 A 
ATOM     60  C   UNL A   1      43.759  34.170  31.039  1.00  0.00     0.010 A 
ATOM     61  C   UNL A   1      43.231  33.232  33.213  1.00  0.00     0.010 A 
ATOM     62  C   UNL A   1      43.838  35.444  31.611  1.00  0.00     0.020 A 
ATOM     63  C   UNL A   1      43.288  34.505  33.784  1.00  0.00     0.020 A 
ATOM     64  C   UNL A   1      43.611  35.602  32.983  1.00  0.00     0.054 A 
BRANCH  64  65
ATOM     65  S   UNL A   1      43.716  37.264  33.705  1.00  0.00     0.124 S 
ATOM     66  O   UNL A   1      44.843  37.122  34.622  1.00  0.00    -0.237 OA
ATOM     67  O   UNL A   1      43.959  38.110  32.539  1.00  0.00    -0.237 OA
ATOM     68  O   UNL A   1      42.415  37.447  34.342  1.00  0.00    -0.744 OA
ENDBRANCH  64  65
ENDBRANCH  45  59
BRANCH  46  69
ATOM     69  C   UNL A   1      42.525  23.911  27.913  1.00  0.00    -0.014 A 
ATOM     70  C   UNL A   1      42.707  23.713  26.534  1.00  0.00     0.010 A 
ATOM     71  C   UNL A   1      42.242  22.802  28.732  1.00  0.00     0.010 A 
ATOM     72  C   UNL A   1      42.603  22.431  25.984  1.00  0.00     0.020 A 
ATOM     73  C   UNL A   1      42.164  21.516  28.191  1.00  0.00     0.020 A 
ATOM     74  C   UNL A   1      42.335  21.340  26.817  1.00  0.00     0.054 A 
BRANCH  74  75
ATOM     75  S   UNL A   1      42.275  19.672  26.103  1.00  0.00     0.124 S 
ATOM     76  O   UNL A   1      42.621  18.838  27.249  1.00  0.00    -0.237 OA
ATOM     77  O   UNL A   1      40.894  19.568  25.639  1.00  0.00    -0.237 OA
ATOM     78  O   UNL A   1      43.276  19.722  25.039  1.00  0.00    -0.744 OA
ENDBRANCH  74  75
ENDBRANCH  46  69
BRANCH  58  79
ATOM     79  C   UNL A   1      47.877  27.454  30.636  1.00  0.00    -0.014 A 
ATOM     80  C   UNL A   1      48.284  26.718  31.763  1.00  0.00     0.010 A 
ATOM     81  C   UNL A   1      48.834  27.825  29.675  1.00  0.00     0.010 A 
ATOM     82  C   UNL A   1      49.628  26.383  31.939  1.00  0.00     0.020 A 
ATOM     83  C   UNL A   1      50.176  27.475  29.837  1.00  0.00     0.020 A 
ATOM     84  C   UNL A   1      50.568  26.767  30.976  1.00  0.00     0.054 A 
BRANCH  84  85
ATOM     85  S   UNL A   1      52.302  26.287  31.203  1.00  0.00     0.124 S 
ATOM     86  O   UNL A   1      52.755  26.123  29.824  1.00  0.00    -0.237 OA
ATOM     87  O   UNL A   1      52.865  27.431  31.917  1.00  0.00    -0.237 OA
ATOM     88  O   UNL A   1      52.221  25.053  31.984  1.00  0.00    -0.744 OA
ENDBRANCH  84  85
ENDBRANCH  58  79
ENDBRANCH  32  33
ENDBRANCH  25  27
ENDBRANCH  24  25
ENDBRANCH   1  24
TORSDOF 16
ENDMDL
