MODEL 1
REMARK VINA RESULT:     -10.6      0.000      0.000
REMARK SMILES O=C(OCCOC(=O)[C@@H]1CN(c2ncccn2)CCN1C(=O)C1CCOCC1)c1ccc(-c2c3nc(c(-c4ccc(S(=O)(=O)[O-])cc4)c4ccc([nH]4)c(-c4ccc(S(=O)(=O)[O-])cc4)c4nc(c(-c5ccc(S(=O)(=O)[O-])cc5)c5ccc2[nH]5)C=C4)C=C3)cc1
REMARK SMILES IDX 4 1 3 2 2 3 1 4 29 5 30 6 88 7 31 8 87 9 32 10 33 11 34 12
REMARK SMILES IDX 81 13 35 14 86 15 80 16 82 17 36 18 85 19 79 20 78 21 37 23
REMARK SMILES IDX 67 24 48 25 66 26 49 27 52 28 65 29 83 30 50 31 51 32 64 34
REMARK SMILES IDX 84 35 53 36 38 37 39 38 47 39 40 40 46 41 41 42 42 43 43 44
REMARK SMILES IDX 44 45 45 46 68 47 69 48 77 49 70 50 76 51 71 52 72 53 73 54
REMARK SMILES IDX 74 55 75 56 54 57 55 58 63 59 56 60 62 61 57 62 58 63 59 64
REMARK SMILES IDX 60 65 61 66 5 67 6 68 7 69 8 70 9 71 10 72 20 73 11 74 19 75
REMARK SMILES IDX 18 76 21 77 22 78 23 79 24 80 28 81 25 82 27 83 26 84 12 85
REMARK SMILES IDX 13 86 17 87 14 88 16 89 15 90
REMARK H PARENT 82 22 52 33
REMARK Flexibility Score: inf
ROOT
ATOM      1  C   UNL A   1      33.372  29.056  26.478  1.00  0.00     0.275 C 
ENDROOT
BRANCH   1   2
ATOM      2  O   UNL A   1      33.529  29.885  27.635  1.00  0.00    -0.458 OA
BRANCH   2   3
ATOM      3  C   UNL A   1      34.551  30.738  27.896  1.00  0.00     0.338 C 
ATOM      4  O   UNL A   1      34.422  31.951  27.768  1.00  0.00    -0.246 OA
BRANCH   3   5
ATOM      5  C   UNL A   1      35.894  30.168  28.144  1.00  0.00     0.060 A 
ATOM      6  C   UNL A   1      36.890  30.087  27.169  1.00  0.00     0.016 A 
ATOM      7  C   UNL A   1      36.164  29.734  29.443  1.00  0.00     0.016 A 
ATOM      8  C   UNL A   1      38.192  29.737  27.517  1.00  0.00     0.010 A 
ATOM      9  C   UNL A   1      37.459  29.351  29.783  1.00  0.00     0.010 A 
ATOM     10  C   UNL A   1      38.493  29.384  28.832  1.00  0.00    -0.014 A 
BRANCH  10  11
ATOM     11  C   UNL A   1      39.838  28.856  29.149  1.00  0.00     0.031 A 
ATOM     12  C   UNL A   1      40.806  29.815  29.779  1.00  0.00     0.074 A 
ATOM     13  C   UNL A   1      40.173  27.570  28.914  1.00  0.00     0.049 A 
ATOM     14  N   UNL A   1      42.030  29.611  30.182  1.00  0.00    -0.248 NA
ATOM     15  C   UNL A   1      40.336  31.201  29.971  1.00  0.00     0.031 C 
ATOM     16  C   UNL A   1      39.331  26.566  28.252  1.00  0.00     0.029 A 
ATOM     17  N   UNL A   1      41.341  26.891  29.163  1.00  0.00    -0.354 N 
ATOM     18  C   UNL A   1      42.434  30.819  30.736  1.00  0.00     0.074 A 
ATOM     19  C   UNL A   1      41.411  31.794  30.457  1.00  0.00     0.031 C 
ATOM     20  C   UNL A   1      40.045  25.440  28.059  1.00  0.00     0.029 A 
ATOM     21  C   UNL A   1      41.369  25.617  28.636  1.00  0.00     0.049 A 
ATOM     22  H   UNL A   1      42.090  27.279  29.671  1.00  0.00     0.167 HD
ATOM     23  C   UNL A   1      43.508  31.070  31.515  1.00  0.00     0.031 A 
ATOM     24  C   UNL A   1      42.365  24.707  28.624  1.00  0.00     0.031 A 
ATOM     25  C   UNL A   1      44.512  30.090  31.796  1.00  0.00     0.049 A 
ATOM     26  C   UNL A   1      43.619  25.037  29.392  1.00  0.00     0.074 A 
ATOM     27  C   UNL A   1      45.644  30.206  32.576  1.00  0.00     0.029 A 
ATOM     28  N   UNL A   1      44.487  28.794  31.299  1.00  0.00    -0.354 N 
ATOM     29  N   UNL A   1      43.945  26.161  29.992  1.00  0.00    -0.248 NA
ATOM     30  C   UNL A   1      44.611  23.965  29.540  1.00  0.00     0.031 C 
ATOM     31  C   UNL A   1      46.328  28.987  32.517  1.00  0.00     0.029 A 
ATOM     32  C   UNL A   1      45.593  28.100  31.742  1.00  0.00     0.049 A 
ATOM     33  H   UNL A   1      43.783  28.426  30.716  1.00  0.00     0.167 HD
ATOM     34  C   UNL A   1      45.143  25.906  30.648  1.00  0.00     0.074 A 
ATOM     35  C   UNL A   1      45.490  24.528  30.357  1.00  0.00     0.031 C 
ATOM     36  C   UNL A   1      45.885  26.723  31.436  1.00  0.00     0.031 A 
BRANCH  23  37
ATOM     37  C   UNL A   1      43.572  32.434  32.144  1.00  0.00    -0.014 A 
ATOM     38  C   UNL A   1      42.824  32.709  33.308  1.00  0.00     0.010 A 
ATOM     39  C   UNL A   1      44.318  33.464  31.550  1.00  0.00     0.010 A 
ATOM     40  C   UNL A   1      42.767  34.003  33.827  1.00  0.00     0.020 A 
ATOM     41  C   UNL A   1      44.289  34.756  32.088  1.00  0.00     0.020 A 
ATOM     42  C   UNL A   1      43.496  35.021  33.208  1.00  0.00     0.054 A 
BRANCH  42  43
ATOM     43  S   UNL A   1      43.400  36.693  33.901  1.00  0.00     0.124 S 
ATOM     44  O   UNL A   1      43.502  37.522  32.703  1.00  0.00    -0.237 OA
ATOM     45  O   UNL A   1      42.094  36.693  34.555  1.00  0.00    -0.237 OA
ATOM     46  O   UNL A   1      44.545  36.758  34.804  1.00  0.00    -0.744 OA
ENDBRANCH  42  43
ENDBRANCH  23  37
BRANCH  24  47
ATOM     47  C   UNL A   1      42.225  23.403  27.912  1.00  0.00    -0.014 A 
ATOM     48  C   UNL A   1      41.561  22.315  28.509  1.00  0.00     0.010 A 
ATOM     49  C   UNL A   1      42.817  23.219  26.648  1.00  0.00     0.010 A 
ATOM     50  C   UNL A   1      41.540  21.060  27.887  1.00  0.00     0.020 A 
ATOM     51  C   UNL A   1      42.782  21.970  26.012  1.00  0.00     0.020 A 
ATOM     52  C   UNL A   1      42.159  20.892  26.646  1.00  0.00     0.054 A 
BRANCH  52  53
ATOM     53  S   UNL A   1      42.131  19.249  25.868  1.00  0.00     0.124 S 
ATOM     54  O   UNL A   1      42.692  18.406  26.919  1.00  0.00    -0.237 OA
ATOM     55  O   UNL A   1      40.708  19.058  25.596  1.00  0.00    -0.237 OA
ATOM     56  O   UNL A   1      42.969  19.413  24.684  1.00  0.00    -0.744 OA
ENDBRANCH  52  53
ENDBRANCH  24  47
BRANCH  36  57
ATOM     57  C   UNL A   1      47.100  26.127  32.086  1.00  0.00    -0.014 A 
ATOM     58  C   UNL A   1      47.021  25.490  33.335  1.00  0.00     0.010 A 
ATOM     59  C   UNL A   1      48.324  26.150  31.392  1.00  0.00     0.010 A 
ATOM     60  C   UNL A   1      48.159  24.909  33.895  1.00  0.00     0.020 A 
ATOM     61  C   UNL A   1      49.455  25.541  31.934  1.00  0.00     0.020 A 
ATOM     62  C   UNL A   1      49.368  24.937  33.190  1.00  0.00     0.054 A 
BRANCH  62  63
ATOM     63  S   UNL A   1      50.817  24.127  33.915  1.00  0.00     0.124 S 
ATOM     64  O   UNL A   1      50.212  22.999  34.617  1.00  0.00    -0.237 OA
ATOM     65  O   UNL A   1      51.613  23.784  32.739  1.00  0.00    -0.237 OA
ATOM     66  O   UNL A   1      51.396  25.158  34.772  1.00  0.00    -0.744 OA
ENDBRANCH  62  63
ENDBRANCH  36  57
ENDBRANCH  10  11
ENDBRANCH   3   5
ENDBRANCH   2   3
ENDBRANCH   1   2
BRANCH   1  67
ATOM     67  C   UNL A   1      33.449  27.512  26.543  1.00  0.00     0.274 C 
BRANCH  67  68
ATOM     68  O   UNL A   1      32.684  26.579  25.750  1.00  0.00    -0.460 OA
BRANCH  68  69
ATOM     69  C   UNL A   1      32.252  25.400  26.266  1.00  0.00     0.330 C 
ATOM     70  O   UNL A   1      31.627  25.298  27.308  1.00  0.00    -0.250 OA
BRANCH  69  71
ATOM     71  C   UNL A   1      32.560  24.210  25.341  1.00  0.00     0.214 C 
ATOM     72  C   UNL A   1      34.067  23.971  25.635  1.00  0.00     0.157 C 
ATOM     73  N   UNL A   1      32.299  24.382  23.857  1.00  0.00    -0.325 N 
ATOM     74  N   UNL A   1      34.713  23.022  24.736  1.00  0.00    -0.336 N 
ATOM     75  C   UNL A   1      33.118  23.480  23.001  1.00  0.00     0.142 C 
ATOM     76  C   UNL A   1      34.609  23.427  23.348  1.00  0.00     0.141 C 
BRANCH  73  77
ATOM     77  C   UNL A   1      31.161  24.864  23.214  1.00  0.00     0.226 C 
ATOM     78  O   UNL A   1      30.248  24.077  22.909  1.00  0.00    -0.275 OA
BRANCH  77  79
ATOM     79  C   UNL A   1      30.940  26.309  22.753  1.00  0.00     0.083 C 
ATOM     80  C   UNL A   1      32.256  27.053  22.497  1.00  0.00     0.042 C 
ATOM     81  C   UNL A   1      29.815  27.063  23.451  1.00  0.00     0.042 C 
ATOM     82  C   UNL A   1      32.189  28.571  22.627  1.00  0.00     0.161 C 
ATOM     83  C   UNL A   1      29.888  28.548  23.162  1.00  0.00     0.161 C 
ATOM     84  O   UNL A   1      31.174  29.034  23.513  1.00  0.00    -0.381 OA
ENDBRANCH  77  79
ENDBRANCH  73  77
BRANCH  74  85
ATOM     85  C   UNL A   1      36.001  22.680  25.137  1.00  0.00     0.225 A 
ATOM     86  N   UNL A   1      36.489  21.460  24.844  1.00  0.00    -0.221 NA
ATOM     87  N   UNL A   1      36.709  23.626  25.763  1.00  0.00    -0.221 NA
ATOM     88  C   UNL A   1      37.778  21.222  25.179  1.00  0.00     0.117 A 
ATOM     89  C   UNL A   1      37.990  23.339  26.075  1.00  0.00     0.117 A 
ATOM     90  C   UNL A   1      38.591  22.140  25.792  1.00  0.00     0.040 A 
ENDBRANCH  74  85
ENDBRANCH  69  71
ENDBRANCH  68  69
ENDBRANCH  67  68
ENDBRANCH   1  67
TORSDOF 17
ENDMDL
MODEL 2
REMARK VINA RESULT:     -10.5      2.993      9.116
REMARK SMILES O=C(OCCOC(=O)[C@@H]1CN(c2ncccn2)CCN1C(=O)C1CCOCC1)c1ccc(-c2c3nc(c(-c4ccc(S(=O)(=O)[O-])cc4)c4ccc([nH]4)c(-c4ccc(S(=O)(=O)[O-])cc4)c4nc(c(-c5ccc(S(=O)(=O)[O-])cc5)c5ccc2[nH]5)C=C4)C=C3)cc1
REMARK SMILES IDX 4 1 3 2 2 3 1 4 29 5 30 6 88 7 31 8 87 9 32 10 33 11 34 12
REMARK SMILES IDX 81 13 35 14 86 15 80 16 82 17 36 18 85 19 79 20 78 21 37 23
REMARK SMILES IDX 67 24 48 25 66 26 49 27 52 28 65 29 83 30 50 31 51 32 64 34
REMARK SMILES IDX 84 35 53 36 38 37 39 38 47 39 40 40 46 41 41 42 42 43 43 44
REMARK SMILES IDX 44 45 45 46 68 47 69 48 77 49 70 50 76 51 71 52 72 53 73 54
REMARK SMILES IDX 74 55 75 56 54 57 55 58 63 59 56 60 62 61 57 62 58 63 59 64
REMARK SMILES IDX 60 65 61 66 5 67 6 68 7 69 8 70 9 71 10 72 20 73 11 74 19 75
REMARK SMILES IDX 18 76 21 77 22 78 23 79 24 80 28 81 25 82 27 83 26 84 12 85
REMARK SMILES IDX 13 86 17 87 14 88 16 89 15 90
REMARK H PARENT 82 22 52 33
REMARK Flexibility Score: inf
ROOT
ATOM      1  C   UNL A   1      37.334  21.988  24.713  1.00  0.00     0.275 C 
ENDROOT
BRANCH   1   2
ATOM      2  O   UNL A   1      37.904  22.439  25.947  1.00  0.00    -0.458 OA
BRANCH   2   3
ATOM      3  C   UNL A   1      39.185  22.832  26.159  1.00  0.00     0.338 C 
ATOM      4  O   UNL A   1      40.130  22.079  25.949  1.00  0.00    -0.246 OA
BRANCH   3   5
ATOM      5  C   UNL A   1      39.417  24.123  26.844  1.00  0.00     0.060 A 
ATOM      6  C   UNL A   1      38.867  24.448  28.085  1.00  0.00     0.016 A 
ATOM      7  C   UNL A   1      40.272  25.027  26.211  1.00  0.00     0.016 A 
ATOM      8  C   UNL A   1      39.289  25.584  28.770  1.00  0.00     0.010 A 
ATOM      9  C   UNL A   1      40.668  26.181  26.882  1.00  0.00     0.010 A 
ATOM     10  C   UNL A   1      40.209  26.452  28.182  1.00  0.00    -0.014 A 
BRANCH  10  11
ATOM     11  C   UNL A   1      40.520  27.735  28.849  1.00  0.00     0.031 A 
ATOM     12  C   UNL A   1      41.833  27.817  29.572  1.00  0.00     0.074 A 
ATOM     13  C   UNL A   1      39.682  28.792  28.789  1.00  0.00     0.049 A 
ATOM     14  N   UNL A   1      42.365  28.823  30.211  1.00  0.00    -0.248 NA
ATOM     15  C   UNL A   1      42.659  26.594  29.587  1.00  0.00     0.031 C 
ATOM     16  C   UNL A   1      38.353  28.806  28.164  1.00  0.00     0.029 A 
ATOM     17  N   UNL A   1      39.802  30.059  29.306  1.00  0.00    -0.354 N 
ATOM     18  C   UNL A   1      43.608  28.367  30.631  1.00  0.00     0.074 A 
ATOM     19  C   UNL A   1      43.678  26.957  30.344  1.00  0.00     0.031 C 
ATOM     20  C   UNL A   1      37.749  29.980  28.424  1.00  0.00     0.029 A 
ATOM     21  C   UNL A   1      38.664  30.826  29.176  1.00  0.00     0.049 A 
ATOM     22  H   UNL A   1      40.627  30.389  29.731  1.00  0.00     0.167 HD
ATOM     23  C   UNL A   1      44.650  29.082  31.108  1.00  0.00     0.031 A 
ATOM     24  C   UNL A   1      38.402  32.070  29.626  1.00  0.00     0.031 A 
ATOM     25  C   UNL A   1      44.572  30.484  31.379  1.00  0.00     0.049 A 
ATOM     26  C   UNL A   1      39.533  32.829  30.273  1.00  0.00     0.074 A 
ATOM     27  C   UNL A   1      45.551  31.333  31.852  1.00  0.00     0.029 A 
ATOM     28  N   UNL A   1      43.428  31.246  31.185  1.00  0.00    -0.354 N 
ATOM     29  N   UNL A   1      40.739  32.404  30.580  1.00  0.00    -0.248 NA
ATOM     30  C   UNL A   1      39.297  34.246  30.575  1.00  0.00     0.031 C 
ATOM     31  C   UNL A   1      44.985  32.606  31.984  1.00  0.00     0.029 A 
ATOM     32  C   UNL A   1      43.669  32.556  31.544  1.00  0.00     0.049 A 
ATOM     33  H   UNL A   1      42.570  30.902  30.842  1.00  0.00     0.167 HD
ATOM     34  C   UNL A   1      41.426  33.520  31.043  1.00  0.00     0.074 A 
ATOM     35  C   UNL A   1      40.495  34.631  30.990  1.00  0.00     0.031 C 
ATOM     36  C   UNL A   1      42.713  33.629  31.457  1.00  0.00     0.031 A 
BRANCH  23  37
ATOM     37  C   UNL A   1      45.944  28.339  31.283  1.00  0.00    -0.014 A 
ATOM     38  C   UNL A   1      46.259  27.755  32.529  1.00  0.00     0.010 A 
ATOM     39  C   UNL A   1      46.881  28.273  30.240  1.00  0.00     0.010 A 
ATOM     40  C   UNL A   1      47.511  27.179  32.747  1.00  0.00     0.020 A 
ATOM     41  C   UNL A   1      48.126  27.668  30.447  1.00  0.00     0.020 A 
ATOM     42  C   UNL A   1      48.440  27.145  31.705  1.00  0.00     0.054 A 
BRANCH  42  43
ATOM     43  S   UNL A   1      50.060  26.395  32.019  1.00  0.00     0.124 S 
ATOM     44  O   UNL A   1      50.879  26.998  30.971  1.00  0.00    -0.237 OA
ATOM     45  O   UNL A   1      50.357  26.835  33.379  1.00  0.00    -0.237 OA
ATOM     46  O   UNL A   1      49.812  24.964  31.871  1.00  0.00    -0.744 OA
ENDBRANCH  42  43
ENDBRANCH  23  37
BRANCH  24  47
ATOM     47  C   UNL A   1      37.057  32.696  29.460  1.00  0.00    -0.014 A 
ATOM     48  C   UNL A   1      36.711  33.371  28.274  1.00  0.00     0.010 A 
ATOM     49  C   UNL A   1      36.132  32.678  30.520  1.00  0.00     0.010 A 
ATOM     50  C   UNL A   1      35.494  34.059  28.172  1.00  0.00     0.020 A 
ATOM     51  C   UNL A   1      34.905  33.349  30.416  1.00  0.00     0.020 A 
ATOM     52  C   UNL A   1      34.603  34.053  29.248  1.00  0.00     0.054 A 
BRANCH  52  53
ATOM     53  S   UNL A   1      33.040  34.967  29.094  1.00  0.00     0.124 S 
ATOM     54  O   UNL A   1      33.497  36.278  28.643  1.00  0.00    -0.237 OA
ATOM     55  O   UNL A   1      32.312  34.177  28.104  1.00  0.00    -0.237 OA
ATOM     56  O   UNL A   1      32.484  34.929  30.444  1.00  0.00    -0.744 OA
ENDBRANCH  52  53
ENDBRANCH  24  47
BRANCH  36  57
ATOM     57  C   UNL A   1      43.199  35.003  31.820  1.00  0.00    -0.014 A 
ATOM     58  C   UNL A   1      43.758  35.856  30.854  1.00  0.00     0.010 A 
ATOM     59  C   UNL A   1      43.026  35.461  33.138  1.00  0.00     0.010 A 
ATOM     60  C   UNL A   1      44.164  37.142  31.212  1.00  0.00     0.020 A 
ATOM     61  C   UNL A   1      43.400  36.758  33.490  1.00  0.00     0.020 A 
ATOM     62  C   UNL A   1      43.980  37.585  32.527  1.00  0.00     0.054 A 
BRANCH  62  63
ATOM     63  S   UNL A   1      44.465  39.278  32.951  1.00  0.00     0.124 S 
ATOM     64  O   UNL A   1      44.378  39.261  34.408  1.00  0.00    -0.237 OA
ATOM     65  O   UNL A   1      45.815  39.371  32.401  1.00  0.00    -0.237 OA
ATOM     66  O   UNL A   1      43.466  40.103  32.276  1.00  0.00    -0.744 OA
ENDBRANCH  62  63
ENDBRANCH  36  57
ENDBRANCH  10  11
ENDBRANCH   3   5
ENDBRANCH   2   3
ENDBRANCH   1   2
BRANCH   1  67
ATOM     67  C   UNL A   1      36.633  22.944  23.720  1.00  0.00     0.274 C 
BRANCH  67  68
ATOM     68  O   UNL A   1      35.328  23.542  23.878  1.00  0.00    -0.460 OA
BRANCH  68  69
ATOM     69  C   UNL A   1      34.526  23.224  24.926  1.00  0.00     0.330 C 
ATOM     70  O   UNL A   1      34.782  23.489  26.089  1.00  0.00    -0.250 OA
BRANCH  69  71
ATOM     71  C   UNL A   1      33.208  22.570  24.475  1.00  0.00     0.214 C 
ATOM     72  C   UNL A   1      33.548  21.060  24.614  1.00  0.00     0.157 C 
ATOM     73  N   UNL A   1      32.692  22.903  23.088  1.00  0.00    -0.325 N 
ATOM     74  N   UNL A   1      32.547  20.163  24.048  1.00  0.00    -0.336 N 
ATOM     75  C   UNL A   1      31.799  21.856  22.519  1.00  0.00     0.142 C 
ATOM     76  C   UNL A   1      32.318  20.419  22.640  1.00  0.00     0.141 C 
BRANCH  73  77
ATOM     77  C   UNL A   1      32.531  24.149  22.485  1.00  0.00     0.226 C 
ATOM     78  O   UNL A   1      33.129  24.399  21.425  1.00  0.00    -0.275 OA
BRANCH  77  79
ATOM     79  C   UNL A   1      31.725  25.320  23.057  1.00  0.00     0.083 C 
ATOM     80  C   UNL A   1      32.599  26.315  23.830  1.00  0.00     0.042 C 
ATOM     81  C   UNL A   1      30.360  24.967  23.635  1.00  0.00     0.042 C 
ATOM     82  C   UNL A   1      31.879  27.133  24.898  1.00  0.00     0.161 C 
ATOM     83  C   UNL A   1      29.796  26.113  24.449  1.00  0.00     0.161 C 
ATOM     84  O   UNL A   1      30.733  26.490  25.446  1.00  0.00    -0.381 OA
ENDBRANCH  77  79
ENDBRANCH  73  77
BRANCH  74  85
ATOM     85  C   UNL A   1      32.778  18.826  24.355  1.00  0.00     0.225 A 
ATOM     86  N   UNL A   1      32.447  18.354  25.572  1.00  0.00    -0.221 NA
ATOM     87  N   UNL A   1      33.283  18.061  23.382  1.00  0.00    -0.221 NA
ATOM     88  C   UNL A   1      32.609  17.026  25.777  1.00  0.00     0.117 A 
ATOM     89  C   UNL A   1      33.425  16.743  23.637  1.00  0.00     0.117 A 
ATOM     90  C   UNL A   1      33.088  16.160  24.830  1.00  0.00     0.040 A 
ENDBRANCH  74  85
ENDBRANCH  69  71
ENDBRANCH  68  69
ENDBRANCH  67  68
ENDBRANCH   1  67
TORSDOF 17
ENDMDL
MODEL 3
REMARK VINA RESULT:     -10.5      3.077      5.094
REMARK SMILES O=C(OCCOC(=O)[C@@H]1CN(c2ncccn2)CCN1C(=O)C1CCOCC1)c1ccc(-c2c3nc(c(-c4ccc(S(=O)(=O)[O-])cc4)c4ccc([nH]4)c(-c4ccc(S(=O)(=O)[O-])cc4)c4nc(c(-c5ccc(S(=O)(=O)[O-])cc5)c5ccc2[nH]5)C=C4)C=C3)cc1
REMARK SMILES IDX 4 1 3 2 2 3 1 4 29 5 30 6 88 7 31 8 87 9 32 10 33 11 34 12
REMARK SMILES IDX 81 13 35 14 86 15 80 16 82 17 36 18 85 19 79 20 78 21 37 23
REMARK SMILES IDX 67 24 48 25 66 26 49 27 52 28 65 29 83 30 50 31 51 32 64 34
REMARK SMILES IDX 84 35 53 36 38 37 39 38 47 39 40 40 46 41 41 42 42 43 43 44
REMARK SMILES IDX 44 45 45 46 68 47 69 48 77 49 70 50 76 51 71 52 72 53 73 54
REMARK SMILES IDX 74 55 75 56 54 57 55 58 63 59 56 60 62 61 57 62 58 63 59 64
REMARK SMILES IDX 60 65 61 66 5 67 6 68 7 69 8 70 9 71 10 72 20 73 11 74 19 75
REMARK SMILES IDX 18 76 21 77 22 78 23 79 24 80 28 81 25 82 27 83 26 84 12 85
REMARK SMILES IDX 13 86 17 87 14 88 16 89 15 90
REMARK H PARENT 82 22 52 33
REMARK Flexibility Score: inf
ROOT
ATOM      1  C   UNL A   1      33.332  30.408  26.546  1.00  0.00     0.275 C 
ENDROOT
BRANCH   1   2
ATOM      2  O   UNL A   1      33.449  31.241  27.704  1.00  0.00    -0.458 OA
BRANCH   2   3
ATOM      3  C   UNL A   1      34.449  32.112  27.986  1.00  0.00     0.338 C 
ATOM      4  O   UNL A   1      34.382  33.292  27.657  1.00  0.00    -0.246 OA
BRANCH   3   5
ATOM      5  C   UNL A   1      35.718  31.574  28.521  1.00  0.00     0.060 A 
ATOM      6  C   UNL A   1      36.953  32.206  28.360  1.00  0.00     0.016 A 
ATOM      7  C   UNL A   1      35.641  30.391  29.258  1.00  0.00     0.016 A 
ATOM      8  C   UNL A   1      38.071  31.761  29.061  1.00  0.00     0.010 A 
ATOM      9  C   UNL A   1      36.767  29.928  29.932  1.00  0.00     0.010 A 
ATOM     10  C   UNL A   1      37.984  30.628  29.869  1.00  0.00    -0.014 A 
BRANCH  10  11
ATOM     11  C   UNL A   1      39.215  30.075  30.474  1.00  0.00     0.031 A 
ATOM     12  C   UNL A   1      39.688  30.716  31.747  1.00  0.00     0.074 A 
ATOM     13  C   UNL A   1      39.869  29.027  29.928  1.00  0.00     0.049 A 
ATOM     14  N   UNL A   1      40.712  30.413  32.496  1.00  0.00    -0.248 NA
ATOM     15  C   UNL A   1      38.905  31.867  32.239  1.00  0.00     0.031 C 
ATOM     16  C   UNL A   1      39.533  28.365  28.662  1.00  0.00     0.029 A 
ATOM     17  N   UNL A   1      40.993  28.358  30.348  1.00  0.00    -0.354 N 
ATOM     18  C   UNL A   1      40.641  31.286  33.573  1.00  0.00     0.074 A 
ATOM     19  C   UNL A   1      39.600  32.242  33.297  1.00  0.00     0.031 C 
ATOM     20  C   UNL A   1      40.484  27.460  28.364  1.00  0.00     0.029 A 
ATOM     21  C   UNL A   1      41.463  27.432  29.441  1.00  0.00     0.049 A 
ATOM     22  H   UNL A   1      41.424  28.525  31.218  1.00  0.00     0.167 HD
ATOM     23  C   UNL A   1      41.306  31.229  34.748  1.00  0.00     0.031 A 
ATOM     24  C   UNL A   1      42.566  26.658  29.488  1.00  0.00     0.031 A 
ATOM     25  C   UNL A   1      42.330  30.267  35.017  1.00  0.00     0.049 A 
ATOM     26  C   UNL A   1      43.383  26.684  30.755  1.00  0.00     0.074 A 
ATOM     27  C   UNL A   1      43.075  30.089  36.164  1.00  0.00     0.029 A 
ATOM     28  N   UNL A   1      42.746  29.306  34.105  1.00  0.00    -0.354 N 
ATOM     29  N   UNL A   1      43.243  27.459  31.807  1.00  0.00    -0.248 NA
ATOM     30  C   UNL A   1      44.461  25.695  30.872  1.00  0.00     0.031 C 
ATOM     31  C   UNL A   1      43.973  29.042  35.931  1.00  0.00     0.029 A 
ATOM     32  C   UNL A   1      43.750  28.539  34.656  1.00  0.00     0.049 A 
ATOM     33  H   UNL A   1      42.378  29.191  33.198  1.00  0.00     0.167 HD
ATOM     34  C   UNL A   1      44.166  27.001  32.739  1.00  0.00     0.074 A 
ATOM     35  C   UNL A   1      44.868  25.895  32.117  1.00  0.00     0.031 C 
ATOM     36  C   UNL A   1      44.406  27.436  34.001  1.00  0.00     0.031 A 
BRANCH  23  37
ATOM     37  C   UNL A   1      40.867  32.196  35.811  1.00  0.00    -0.014 A 
ATOM     38  C   UNL A   1      41.599  33.383  36.030  1.00  0.00     0.010 A 
ATOM     39  C   UNL A   1      39.772  31.905  36.640  1.00  0.00     0.010 A 
ATOM     40  C   UNL A   1      41.285  34.224  37.097  1.00  0.00     0.020 A 
ATOM     41  C   UNL A   1      39.435  32.765  37.692  1.00  0.00     0.020 A 
ATOM     42  C   UNL A   1      40.208  33.905  37.927  1.00  0.00     0.054 A 
BRANCH  42  43
ATOM     43  S   UNL A   1      39.826  35.015  39.309  1.00  0.00     0.124 S 
ATOM     44  O   UNL A   1      38.797  34.263  40.022  1.00  0.00    -0.237 OA
ATOM     45  O   UNL A   1      41.111  35.125  39.993  1.00  0.00    -0.237 OA
ATOM     46  O   UNL A   1      39.365  36.236  38.654  1.00  0.00    -0.744 OA
ENDBRANCH  42  43
ENDBRANCH  23  37
BRANCH  24  47
ATOM     47  C   UNL A   1      42.953  25.776  28.347  1.00  0.00    -0.014 A 
ATOM     48  C   UNL A   1      42.627  24.407  28.343  1.00  0.00     0.010 A 
ATOM     49  C   UNL A   1      43.712  26.291  27.279  1.00  0.00     0.010 A 
ATOM     50  C   UNL A   1      43.097  23.562  27.329  1.00  0.00     0.020 A 
ATOM     51  C   UNL A   1      44.169  25.453  26.252  1.00  0.00     0.020 A 
ATOM     52  C   UNL A   1      43.875  24.089  26.294  1.00  0.00     0.054 A 
BRANCH  52  53
ATOM     53  S   UNL A   1      44.485  22.967  25.001  1.00  0.00     0.124 S 
ATOM     54  O   UNL A   1      45.416  23.823  24.271  1.00  0.00    -0.237 OA
ATOM     55  O   UNL A   1      45.094  21.893  25.782  1.00  0.00    -0.237 OA
ATOM     56  O   UNL A   1      43.278  22.592  24.271  1.00  0.00    -0.744 OA
ENDBRANCH  52  53
ENDBRANCH  24  47
BRANCH  36  57
ATOM     57  C   UNL A   1      45.419  26.674  34.806  1.00  0.00    -0.014 A 
ATOM     58  C   UNL A   1      46.767  27.064  34.837  1.00  0.00     0.010 A 
ATOM     59  C   UNL A   1      44.988  25.593  35.596  1.00  0.00     0.010 A 
ATOM     60  C   UNL A   1      47.679  26.362  35.626  1.00  0.00     0.020 A 
ATOM     61  C   UNL A   1      45.890  24.910  36.411  1.00  0.00     0.020 A 
ATOM     62  C   UNL A   1      47.233  25.291  36.410  1.00  0.00     0.054 A 
BRANCH  62  63
ATOM     63  S   UNL A   1      48.426  24.431  37.468  1.00  0.00     0.124 S 
ATOM     64  O   UNL A   1      49.700  24.879  36.912  1.00  0.00    -0.237 OA
ATOM     65  O   UNL A   1      48.103  24.945  38.797  1.00  0.00    -0.237 OA
ATOM     66  O   UNL A   1      48.116  23.019  37.260  1.00  0.00    -0.744 OA
ENDBRANCH  62  63
ENDBRANCH  36  57
ENDBRANCH  10  11
ENDBRANCH   3   5
ENDBRANCH   2   3
ENDBRANCH   1   2
BRANCH   1  67
ATOM     67  C   UNL A   1      33.883  28.963  26.499  1.00  0.00     0.274 C 
BRANCH  67  68
ATOM     68  O   UNL A   1      33.188  27.764  26.901  1.00  0.00    -0.460 OA
BRANCH  68  69
ATOM     69  C   UNL A   1      32.059  27.354  26.268  1.00  0.00     0.330 C 
ATOM     70  O   UNL A   1      31.059  26.959  26.842  1.00  0.00    -0.250 OA
BRANCH  69  71
ATOM     71  C   UNL A   1      32.149  27.528  24.742  1.00  0.00     0.214 C 
ATOM     72  C   UNL A   1      30.962  28.494  24.471  1.00  0.00     0.157 C 
ATOM     73  N   UNL A   1      32.064  26.281  23.882  1.00  0.00    -0.325 N 
ATOM     74  N   UNL A   1      30.652  28.686  23.059  1.00  0.00    -0.336 N 
ATOM     75  C   UNL A   1      31.586  26.546  22.496  1.00  0.00     0.142 C 
ATOM     76  C   UNL A   1      30.342  27.435  22.394  1.00  0.00     0.141 C 
BRANCH  73  77
ATOM     77  C   UNL A   1      32.761  25.081  24.002  1.00  0.00     0.226 C 
ATOM     78  O   UNL A   1      33.694  24.832  23.219  1.00  0.00    -0.275 OA
BRANCH  77  79
ATOM     79  C   UNL A   1      32.433  23.952  24.986  1.00  0.00     0.083 C 
ATOM     80  C   UNL A   1      30.924  23.757  25.176  1.00  0.00     0.042 C 
ATOM     81  C   UNL A   1      33.327  23.865  26.217  1.00  0.00     0.042 C 
ATOM     82  C   UNL A   1      30.504  23.131  26.503  1.00  0.00     0.161 C 
ATOM     83  C   UNL A   1      32.734  22.944  27.262  1.00  0.00     0.161 C 
ATOM     84  O   UNL A   1      31.415  23.369  27.571  1.00  0.00    -0.381 OA
ENDBRANCH  77  79
ENDBRANCH  73  77
BRANCH  74  85
ATOM     85  C   UNL A   1      29.722  29.696  22.836  1.00  0.00     0.225 A 
ATOM     86  N   UNL A   1      29.493  30.615  23.793  1.00  0.00    -0.221 NA
ATOM     87  N   UNL A   1      29.132  29.720  21.637  1.00  0.00    -0.221 NA
ATOM     88  C   UNL A   1      28.648  31.625  23.482  1.00  0.00     0.117 A 
ATOM     89  C   UNL A   1      28.297  30.748  21.375  1.00  0.00     0.117 A 
ATOM     90  C   UNL A   1      28.023  31.750  22.269  1.00  0.00     0.040 A 
ENDBRANCH  74  85
ENDBRANCH  69  71
ENDBRANCH  68  69
ENDBRANCH  67  68
ENDBRANCH   1  67
TORSDOF 17
ENDMDL
