MODEL 1
REMARK VINA RESULT:     -12.6      0.000      0.000
REMARK SMILES O=C(OCCOC(=O)c1ccc(-c2c3nc(c(-c4ccc(S(=O)(=O)[O-])cc4)c4ccc([nH]4)c(-c4ccc(S(=O)(=O)[O-])cc4)c4nc(c(-c5ccc(S(=O)(=O)[O-])cc5)c5ccc2[nH]5)C=C4)C=C3)cc1)C1=NN(c2ccc(S(=O)(=O)[O-])cc2)C(=O)/C1=C\Nc1ccccc1
REMARK SMILES IDX 5 1 4 2 3 3 2 4 1 5 69 6 70 7 84 8 71 9 82 10 85 11 83 12
REMARK SMILES IDX 72 13 73 14 81 15 74 16 80 17 75 18 76 19 77 20 78 21 79 22
REMARK SMILES IDX 86 23 87 25 88 26 92 27 89 28 91 29 90 30 6 31 7 32 8 33
REMARK SMILES IDX 9 34 10 35 68 36 11 37 67 38 12 39 13 40 14 41 61 42 15 43
REMARK SMILES IDX 66 44 60 45 62 46 16 47 65 48 59 49 58 50 17 52 47 53 28 54
REMARK SMILES IDX 46 55 29 56 32 57 45 58 63 59 30 60 31 61 44 63 64 64 33 65
REMARK SMILES IDX 18 66 19 67 27 68 20 69 26 70 21 71 22 72 23 73 24 74 25 75
REMARK SMILES IDX 48 76 49 77 57 78 50 79 56 80 51 81 52 82 53 83 54 84 55 85
REMARK SMILES IDX 34 86 35 87 43 88 36 89 42 90 37 91 38 92 39 93 40 94 41 95
REMARK H PARENT 86 24 62 51 32 62
REMARK Flexibility Score: inf
ROOT
ATOM      1  C   UNL A   1      40.882  21.843  26.096  1.00  0.00     0.275 C 
ENDROOT
BRANCH   1   2
ATOM      2  C   UNL A   1      39.442  21.263  26.239  1.00  0.00     0.275 C 
BRANCH   2   3
ATOM      3  O   UNL A   1      38.511  21.720  25.257  1.00  0.00    -0.457 OA
BRANCH   3   4
ATOM      4  C   UNL A   1      37.646  22.656  25.656  1.00  0.00     0.359 C 
ATOM      5  O   UNL A   1      37.913  23.462  26.537  1.00  0.00    -0.244 OA
BRANCH   4   6
ATOM      6  C   UNL A   1      36.356  22.788  24.871  1.00  0.00     0.183 C 
ATOM      7  N   UNL A   1      36.046  23.998  24.478  1.00  0.00    -0.157 NA
ATOM      8  C   UNL A   1      35.252  21.823  24.572  1.00  0.00     0.093 C 
ATOM      9  N   UNL A   1      34.785  23.899  23.975  1.00  0.00    -0.196 N 
ATOM     10  C   UNL A   1      34.289  22.621  23.809  1.00  0.00     0.282 C 
ATOM     11  C   UNL A   1      34.811  20.606  24.925  1.00  0.00     0.099 C 
ATOM     12  O   UNL A   1      33.282  22.213  23.254  1.00  0.00    -0.267 OA
BRANCH   9  13
ATOM     13  C   UNL A   1      34.003  25.037  23.894  1.00  0.00     0.069 A 
ATOM     14  C   UNL A   1      33.743  25.615  22.657  1.00  0.00     0.030 A 
ATOM     15  C   UNL A   1      33.434  25.525  25.080  1.00  0.00     0.030 A 
ATOM     16  C   UNL A   1      32.687  26.492  22.581  1.00  0.00     0.021 A 
ATOM     17  C   UNL A   1      32.413  26.428  25.019  1.00  0.00     0.021 A 
ATOM     18  C   UNL A   1      31.984  26.794  23.755  1.00  0.00     0.054 A 
BRANCH  18  19
ATOM     19  S   UNL A   1      30.470  27.651  23.625  1.00  0.00     0.124 S 
ATOM     20  O   UNL A   1      29.512  26.702  24.106  1.00  0.00    -0.237 OA
ATOM     21  O   UNL A   1      30.690  28.960  24.205  1.00  0.00    -0.237 OA
ATOM     22  O   UNL A   1      30.302  27.828  22.023  1.00  0.00    -0.744 OA
ENDBRANCH  18  19
ENDBRANCH   9  13
BRANCH  11  23
ATOM     23  N   UNL A   1      33.637  19.967  24.590  1.00  0.00    -0.361 N 
ATOM     24  H   UNL A   1      32.883  20.534  24.307  1.00  0.00     0.166 HD
BRANCH  23  25
ATOM     25  C   UNL A   1      33.419  18.584  24.614  1.00  0.00     0.038 A 
ATOM     26  C   UNL A   1      34.059  17.784  23.664  1.00  0.00     0.026 A 
ATOM     27  C   UNL A   1      32.685  17.963  25.635  1.00  0.00     0.026 A 
ATOM     28  C   UNL A   1      34.007  16.393  23.756  1.00  0.00     0.002 A 
ATOM     29  C   UNL A   1      32.609  16.572  25.713  1.00  0.00     0.002 A 
ATOM     30  C   UNL A   1      33.287  15.787  24.784  1.00  0.00     0.000 A 
ENDBRANCH  23  25
ENDBRANCH  11  23
ENDBRANCH   4   6
ENDBRANCH   3   4
ENDBRANCH   2   3
ENDBRANCH   1   2
BRANCH   1  31
ATOM     31  O   UNL A   1      41.084  22.997  26.971  1.00  0.00    -0.458 OA
BRANCH  31  32
ATOM     32  C   UNL A   1      41.723  24.103  26.510  1.00  0.00     0.338 C 
ATOM     33  O   UNL A   1      42.475  24.124  25.552  1.00  0.00    -0.246 OA
BRANCH  32  34
ATOM     34  C   UNL A   1      41.302  25.320  27.293  1.00  0.00     0.060 A 
ATOM     35  C   UNL A   1      42.006  26.524  27.141  1.00  0.00     0.016 A 
ATOM     36  C   UNL A   1      40.273  25.284  28.236  1.00  0.00     0.016 A 
ATOM     37  C   UNL A   1      41.727  27.659  27.954  1.00  0.00     0.010 A 
ATOM     38  C   UNL A   1      39.989  26.427  29.034  1.00  0.00     0.010 A 
ATOM     39  C   UNL A   1      40.734  27.631  28.946  1.00  0.00    -0.014 A 
BRANCH  39  40
ATOM     40  C   UNL A   1      40.576  28.721  30.014  1.00  0.00     0.031 A 
ATOM     41  C   UNL A   1      41.418  28.596  31.282  1.00  0.00     0.074 A 
ATOM     42  C   UNL A   1      39.766  29.815  29.937  1.00  0.00     0.049 A 
ATOM     43  N   UNL A   1      41.380  29.301  32.389  1.00  0.00    -0.248 NA
ATOM     44  C   UNL A   1      42.453  27.546  31.289  1.00  0.00     0.031 C 
ATOM     45  C   UNL A   1      39.000  30.240  28.770  1.00  0.00     0.029 A 
ATOM     46  N   UNL A   1      39.421  30.774  30.892  1.00  0.00    -0.354 N 
ATOM     47  C   UNL A   1      42.395  28.800  33.203  1.00  0.00     0.074 A 
ATOM     48  C   UNL A   1      42.968  27.671  32.503  1.00  0.00     0.031 C 
ATOM     49  C   UNL A   1      38.228  31.301  29.092  1.00  0.00     0.029 A 
ATOM     50  C   UNL A   1      38.416  31.652  30.499  1.00  0.00     0.049 A 
ATOM     51  H   UNL A   1      39.856  30.825  31.773  1.00  0.00     0.167 HD
ATOM     52  C   UNL A   1      42.852  29.251  34.399  1.00  0.00     0.031 A 
ATOM     53  C   UNL A   1      37.687  32.569  31.197  1.00  0.00     0.031 A 
ATOM     54  C   UNL A   1      42.301  30.369  35.116  1.00  0.00     0.049 A 
ATOM     55  C   UNL A   1      38.032  32.851  32.636  1.00  0.00     0.074 A 
ATOM     56  C   UNL A   1      42.763  30.956  36.284  1.00  0.00     0.029 A 
ATOM     57  N   UNL A   1      41.152  31.050  34.758  1.00  0.00    -0.354 N 
ATOM     58  N   UNL A   1      38.936  32.287  33.394  1.00  0.00    -0.248 NA
ATOM     59  C   UNL A   1      37.265  33.922  33.300  1.00  0.00     0.031 C 
ATOM     60  C   UNL A   1      41.843  31.931  36.680  1.00  0.00     0.029 A 
ATOM     61  C   UNL A   1      40.857  32.009  35.713  1.00  0.00     0.049 A 
ATOM     62  H   UNL A   1      40.622  30.879  33.947  1.00  0.00     0.167 HD
ATOM     63  C   UNL A   1      38.890  32.984  34.598  1.00  0.00     0.074 A 
ATOM     64  C   UNL A   1      37.812  33.942  34.504  1.00  0.00     0.031 C 
ATOM     65  C   UNL A   1      39.731  32.899  35.653  1.00  0.00     0.031 A 
BRANCH  52  66
ATOM     66  C   UNL A   1      44.014  28.520  35.030  1.00  0.00    -0.014 A 
ATOM     67  C   UNL A   1      43.816  27.404  35.865  1.00  0.00     0.010 A 
ATOM     68  C   UNL A   1      45.330  28.933  34.749  1.00  0.00     0.010 A 
ATOM     69  C   UNL A   1      44.904  26.767  36.467  1.00  0.00     0.020 A 
ATOM     70  C   UNL A   1      46.423  28.275  35.320  1.00  0.00     0.020 A 
ATOM     71  C   UNL A   1      46.201  27.215  36.200  1.00  0.00     0.054 A 
BRANCH  71  72
ATOM     72  S   UNL A   1      47.594  26.393  37.022  1.00  0.00     0.124 S 
ATOM     73  O   UNL A   1      48.664  26.571  36.044  1.00  0.00    -0.237 OA
ATOM     74  O   UNL A   1      47.736  27.162  38.256  1.00  0.00    -0.237 OA
ATOM     75  O   UNL A   1      47.133  25.018  37.196  1.00  0.00    -0.744 OA
ENDBRANCH  71  72
ENDBRANCH  52  66
BRANCH  53  76
ATOM     76  C   UNL A   1      36.447  33.238  30.653  1.00  0.00    -0.014 A 
ATOM     77  C   UNL A   1      35.243  33.313  31.364  1.00  0.00     0.010 A 
ATOM     78  C   UNL A   1      36.485  33.822  29.360  1.00  0.00     0.010 A 
ATOM     79  C   UNL A   1      34.181  34.099  30.884  1.00  0.00     0.020 A 
ATOM     80  C   UNL A   1      35.437  34.625  28.884  1.00  0.00     0.020 A 
ATOM     81  C   UNL A   1      34.311  34.805  29.682  1.00  0.00     0.054 A 
BRANCH  81  82
ATOM     82  S   UNL A   1      33.133  36.129  29.263  1.00  0.00     0.124 S 
ATOM     83  O   UNL A   1      32.638  36.530  30.576  1.00  0.00    -0.237 OA
ATOM     84  O   UNL A   1      33.965  37.120  28.581  1.00  0.00    -0.237 OA
ATOM     85  O   UNL A   1      32.159  35.457  28.405  1.00  0.00    -0.744 OA
ENDBRANCH  81  82
ENDBRANCH  53  76
BRANCH  65  86
ATOM     86  C   UNL A   1      39.555  33.909  36.753  1.00  0.00    -0.014 A 
ATOM     87  C   UNL A   1      38.953  33.582  37.979  1.00  0.00     0.010 A 
ATOM     88  C   UNL A   1      40.021  35.221  36.540  1.00  0.00     0.010 A 
ATOM     89  C   UNL A   1      38.811  34.556  38.972  1.00  0.00     0.020 A 
ATOM     90  C   UNL A   1      39.908  36.187  37.540  1.00  0.00     0.020 A 
ATOM     91  C   UNL A   1      39.297  35.850  38.748  1.00  0.00     0.054 A 
BRANCH  91  92
ATOM     92  S   UNL A   1      39.166  37.076  40.077  1.00  0.00     0.124 S 
ATOM     93  O   UNL A   1      40.567  37.334  40.393  1.00  0.00    -0.237 OA
ATOM     94  O   UNL A   1      38.455  38.174  39.427  1.00  0.00    -0.237 OA
ATOM     95  O   UNL A   1      38.409  36.383  41.116  1.00  0.00    -0.744 OA
ENDBRANCH  91  92
ENDBRANCH  65  86
ENDBRANCH  39  40
ENDBRANCH  32  34
ENDBRANCH  31  32
ENDBRANCH   1  31
TORSDOF 18
ENDMDL
MODEL 2
REMARK VINA RESULT:     -12.2      1.428      2.049
REMARK SMILES O=C(OCCOC(=O)c1ccc(-c2c3nc(c(-c4ccc(S(=O)(=O)[O-])cc4)c4ccc([nH]4)c(-c4ccc(S(=O)(=O)[O-])cc4)c4nc(c(-c5ccc(S(=O)(=O)[O-])cc5)c5ccc2[nH]5)C=C4)C=C3)cc1)C1=NN(c2ccc(S(=O)(=O)[O-])cc2)C(=O)/C1=C\Nc1ccccc1
REMARK SMILES IDX 5 1 4 2 3 3 2 4 1 5 69 6 70 7 84 8 71 9 82 10 85 11 83 12
REMARK SMILES IDX 72 13 73 14 81 15 74 16 80 17 75 18 76 19 77 20 78 21 79 22
REMARK SMILES IDX 86 23 87 25 88 26 92 27 89 28 91 29 90 30 6 31 7 32 8 33
REMARK SMILES IDX 9 34 10 35 68 36 11 37 67 38 12 39 13 40 14 41 61 42 15 43
REMARK SMILES IDX 66 44 60 45 62 46 16 47 65 48 59 49 58 50 17 52 47 53 28 54
REMARK SMILES IDX 46 55 29 56 32 57 45 58 63 59 30 60 31 61 44 63 64 64 33 65
REMARK SMILES IDX 18 66 19 67 27 68 20 69 26 70 21 71 22 72 23 73 24 74 25 75
REMARK SMILES IDX 48 76 49 77 57 78 50 79 56 80 51 81 52 82 53 83 54 84 55 85
REMARK SMILES IDX 34 86 35 87 43 88 36 89 42 90 37 91 38 92 39 93 40 94 41 95
REMARK H PARENT 86 24 62 51 32 62
REMARK Flexibility Score: inf
ROOT
ATOM      1  C   UNL A   1      40.640  23.503  26.740  1.00  0.00     0.275 C 
ENDROOT
BRANCH   1   2
ATOM      2  C   UNL A   1      39.123  23.536  27.096  1.00  0.00     0.275 C 
BRANCH   2   3
ATOM      3  O   UNL A   1      38.248  23.705  25.979  1.00  0.00    -0.457 OA
BRANCH   3   4
ATOM      4  C   UNL A   1      37.706  22.591  25.482  1.00  0.00     0.359 C 
ATOM      5  O   UNL A   1      38.177  21.482  25.694  1.00  0.00    -0.244 OA
BRANCH   4   6
ATOM      6  C   UNL A   1      36.382  22.728  24.757  1.00  0.00     0.183 C 
ATOM      7  N   UNL A   1      36.075  23.933  24.347  1.00  0.00    -0.157 NA
ATOM      8  C   UNL A   1      35.249  21.775  24.535  1.00  0.00     0.093 C 
ATOM      9  N   UNL A   1      34.789  23.844  23.908  1.00  0.00    -0.196 N 
ATOM     10  C   UNL A   1      34.264  22.572  23.799  1.00  0.00     0.282 C 
ATOM     11  C   UNL A   1      34.804  20.576  24.941  1.00  0.00     0.099 C 
ATOM     12  O   UNL A   1      33.224  22.168  23.303  1.00  0.00    -0.267 OA
BRANCH   9  13
ATOM     13  C   UNL A   1      34.024  24.994  23.835  1.00  0.00     0.069 A 
ATOM     14  C   UNL A   1      33.727  25.554  22.598  1.00  0.00     0.030 A 
ATOM     15  C   UNL A   1      33.508  25.513  25.032  1.00  0.00     0.030 A 
ATOM     16  C   UNL A   1      32.683  26.447  22.544  1.00  0.00     0.021 A 
ATOM     17  C   UNL A   1      32.501  26.433  24.992  1.00  0.00     0.021 A 
ATOM     18  C   UNL A   1      32.031  26.783  23.739  1.00  0.00     0.054 A 
BRANCH  18  19
ATOM     19  S   UNL A   1      30.528  27.664  23.649  1.00  0.00     0.124 S 
ATOM     20  O   UNL A   1      29.565  26.722  24.136  1.00  0.00    -0.237 OA
ATOM     21  O   UNL A   1      30.778  28.962  24.242  1.00  0.00    -0.237 OA
ATOM     22  O   UNL A   1      30.331  27.865  22.053  1.00  0.00    -0.744 OA
ENDBRANCH  18  19
ENDBRANCH   9  13
BRANCH  11  23
ATOM     23  N   UNL A   1      33.604  19.951  24.678  1.00  0.00    -0.361 N 
ATOM     24  H   UNL A   1      32.831  20.528  24.486  1.00  0.00     0.166 HD
BRANCH  23  25
ATOM     25  C   UNL A   1      33.387  18.568  24.660  1.00  0.00     0.038 A 
ATOM     26  C   UNL A   1      33.918  17.816  23.610  1.00  0.00     0.026 A 
ATOM     27  C   UNL A   1      32.765  17.897  25.723  1.00  0.00     0.026 A 
ATOM     28  C   UNL A   1      33.872  16.421  23.640  1.00  0.00     0.002 A 
ATOM     29  C   UNL A   1      32.693  16.503  25.743  1.00  0.00     0.002 A 
ATOM     30  C   UNL A   1      33.265  15.766  24.710  1.00  0.00     0.000 A 
ENDBRANCH  23  25
ENDBRANCH  11  23
ENDBRANCH   4   6
ENDBRANCH   3   4
ENDBRANCH   2   3
ENDBRANCH   1   2
BRANCH   1  31
ATOM     31  O   UNL A   1      41.317  24.726  27.171  1.00  0.00    -0.458 OA
BRANCH  31  32
ATOM     32  C   UNL A   1      40.991  25.921  26.614  1.00  0.00     0.338 C 
ATOM     33  O   UNL A   1      40.891  26.129  25.418  1.00  0.00    -0.246 OA
BRANCH  32  34
ATOM     34  C   UNL A   1      40.681  26.935  27.686  1.00  0.00     0.060 A 
ATOM     35  C   UNL A   1      41.276  28.204  27.638  1.00  0.00     0.016 A 
ATOM     36  C   UNL A   1      39.871  26.638  28.784  1.00  0.00     0.016 A 
ATOM     37  C   UNL A   1      41.115  29.144  28.695  1.00  0.00     0.010 A 
ATOM     38  C   UNL A   1      39.702  27.588  29.830  1.00  0.00     0.010 A 
ATOM     39  C   UNL A   1      40.351  28.849  29.836  1.00  0.00    -0.014 A 
BRANCH  39  40
ATOM     40  C   UNL A   1      40.362  29.709  31.106  1.00  0.00     0.031 A 
ATOM     41  C   UNL A   1      41.408  29.383  32.171  1.00  0.00     0.074 A 
ATOM     42  C   UNL A   1      39.538  30.761  31.376  1.00  0.00     0.049 A 
ATOM     43  N   UNL A   1      41.549  29.865  33.385  1.00  0.00    -0.248 NA
ATOM     44  C   UNL A   1      42.442  28.398  31.806  1.00  0.00     0.031 C 
ATOM     45  C   UNL A   1      38.581  31.364  30.455  1.00  0.00     0.029 A 
ATOM     46  N   UNL A   1      39.349  31.506  32.541  1.00  0.00    -0.354 N 
ATOM     47  C   UNL A   1      42.692  29.264  33.909  1.00  0.00     0.074 A 
ATOM     48  C   UNL A   1      43.153  28.314  32.920  1.00  0.00     0.031 C 
ATOM     49  C   UNL A   1      37.863  32.310  31.098  1.00  0.00     0.029 A 
ATOM     50  C   UNL A   1      38.281  32.397  32.496  1.00  0.00     0.049 A 
ATOM     51  H   UNL A   1      39.925  31.409  33.333  1.00  0.00     0.167 HD
ATOM     52  C   UNL A   1      43.339  29.500  35.078  1.00  0.00     0.031 A 
ATOM     53  C   UNL A   1      37.670  33.133  33.468  1.00  0.00     0.031 A 
ATOM     54  C   UNL A   1      42.904  30.437  36.080  1.00  0.00     0.049 A 
ATOM     55  C   UNL A   1      38.249  33.153  34.859  1.00  0.00     0.074 A 
ATOM     56  C   UNL A   1      43.550  30.813  37.247  1.00  0.00     0.029 A 
ATOM     57  N   UNL A   1      41.704  31.122  36.053  1.00  0.00    -0.354 N 
ATOM     58  N   UNL A   1      39.275  32.496  35.335  1.00  0.00    -0.248 NA
ATOM     59  C   UNL A   1      37.593  34.043  35.833  1.00  0.00     0.031 C 
ATOM     60  C   UNL A   1      42.698  31.654  37.969  1.00  0.00     0.029 A 
ATOM     61  C   UNL A   1      41.563  31.869  37.210  1.00  0.00     0.049 A 
ATOM     62  H   UNL A   1      41.046  31.084  35.321  1.00  0.00     0.167 HD
ATOM     63  C   UNL A   1      39.424  32.950  36.642  1.00  0.00     0.074 A 
ATOM     64  C   UNL A   1      38.335  33.859  36.913  1.00  0.00     0.031 C 
ATOM     65  C   UNL A   1      40.432  32.704  37.509  1.00  0.00     0.031 A 
BRANCH  52  66
ATOM     66  C   UNL A   1      44.600  28.715  35.358  1.00  0.00    -0.014 A 
ATOM     67  C   UNL A   1      45.864  29.184  34.955  1.00  0.00     0.010 A 
ATOM     68  C   UNL A   1      44.520  27.505  36.072  1.00  0.00     0.010 A 
ATOM     69  C   UNL A   1      47.012  28.422  35.192  1.00  0.00     0.020 A 
ATOM     70  C   UNL A   1      45.670  26.757  36.343  1.00  0.00     0.020 A 
ATOM     71  C   UNL A   1      46.905  27.207  35.874  1.00  0.00     0.054 A 
BRANCH  71  72
ATOM     72  S   UNL A   1      48.405  26.221  36.136  1.00  0.00     0.124 S 
ATOM     73  O   UNL A   1      48.130  25.600  37.430  1.00  0.00    -0.237 OA
ATOM     74  O   UNL A   1      48.397  25.315  34.991  1.00  0.00    -0.237 OA
ATOM     75  O   UNL A   1      49.478  27.212  36.138  1.00  0.00    -0.744 OA
ENDBRANCH  71  72
ENDBRANCH  52  66
BRANCH  53  76
ATOM     76  C   UNL A   1      36.347  33.837  33.274  1.00  0.00    -0.014 A 
ATOM     77  C   UNL A   1      36.241  35.215  33.046  1.00  0.00     0.010 A 
ATOM     78  C   UNL A   1      35.146  33.083  33.321  1.00  0.00     0.010 A 
ATOM     79  C   UNL A   1      35.003  35.784  32.696  1.00  0.00     0.020 A 
ATOM     80  C   UNL A   1      33.912  33.640  32.954  1.00  0.00     0.020 A 
ATOM     81  C   UNL A   1      33.862  34.981  32.585  1.00  0.00     0.054 A 
BRANCH  81  82
ATOM     82  S   UNL A   1      32.375  35.612  31.745  1.00  0.00     0.124 S 
ATOM     83  O   UNL A   1      31.299  35.058  32.562  1.00  0.00    -0.237 OA
ATOM     84  O   UNL A   1      32.531  37.064  31.821  1.00  0.00    -0.237 OA
ATOM     85  O   UNL A   1      32.486  35.057  30.397  1.00  0.00    -0.744 OA
ENDBRANCH  81  82
ENDBRANCH  53  76
BRANCH  65  86
ATOM     86  C   UNL A   1      40.432  33.479  38.797  1.00  0.00    -0.014 A 
ATOM     87  C   UNL A   1      39.702  33.061  39.921  1.00  0.00     0.010 A 
ATOM     88  C   UNL A   1      41.201  34.656  38.872  1.00  0.00     0.010 A 
ATOM     89  C   UNL A   1      39.732  33.815  41.098  1.00  0.00     0.020 A 
ATOM     90  C   UNL A   1      41.258  35.396  40.054  1.00  0.00     0.020 A 
ATOM     91  C   UNL A   1      40.517  34.973  41.158  1.00  0.00     0.054 A 
BRANCH  91  92
ATOM     92  S   UNL A   1      40.598  35.896  42.717  1.00  0.00     0.124 S 
ATOM     93  O   UNL A   1      39.217  36.340  42.881  1.00  0.00    -0.237 OA
ATOM     94  O   UNL A   1      41.048  34.879  43.664  1.00  0.00    -0.237 OA
ATOM     95  O   UNL A   1      41.565  36.956  42.443  1.00  0.00    -0.744 OA
ENDBRANCH  91  92
ENDBRANCH  65  86
ENDBRANCH  39  40
ENDBRANCH  32  34
ENDBRANCH  31  32
ENDBRANCH   1  31
TORSDOF 18
ENDMDL
MODEL 3
REMARK VINA RESULT:     -12.1      6.907      9.890
REMARK SMILES O=C(OCCOC(=O)c1ccc(-c2c3nc(c(-c4ccc(S(=O)(=O)[O-])cc4)c4ccc([nH]4)c(-c4ccc(S(=O)(=O)[O-])cc4)c4nc(c(-c5ccc(S(=O)(=O)[O-])cc5)c5ccc2[nH]5)C=C4)C=C3)cc1)C1=NN(c2ccc(S(=O)(=O)[O-])cc2)C(=O)/C1=C\Nc1ccccc1
REMARK SMILES IDX 5 1 4 2 3 3 2 4 1 5 69 6 70 7 84 8 71 9 82 10 85 11 83 12
REMARK SMILES IDX 72 13 73 14 81 15 74 16 80 17 75 18 76 19 77 20 78 21 79 22
REMARK SMILES IDX 86 23 87 25 88 26 92 27 89 28 91 29 90 30 6 31 7 32 8 33
REMARK SMILES IDX 9 34 10 35 68 36 11 37 67 38 12 39 13 40 14 41 61 42 15 43
REMARK SMILES IDX 66 44 60 45 62 46 16 47 65 48 59 49 58 50 17 52 47 53 28 54
REMARK SMILES IDX 46 55 29 56 32 57 45 58 63 59 30 60 31 61 44 63 64 64 33 65
REMARK SMILES IDX 18 66 19 67 27 68 20 69 26 70 21 71 22 72 23 73 24 74 25 75
REMARK SMILES IDX 48 76 49 77 57 78 50 79 56 80 51 81 52 82 53 83 54 84 55 85
REMARK SMILES IDX 34 86 35 87 43 88 36 89 42 90 37 91 38 92 39 93 40 94 41 95
REMARK H PARENT 86 24 62 51 32 62
REMARK Flexibility Score: inf
ROOT
ATOM      1  C   UNL A   1      43.923  22.749  25.213  1.00  0.00     0.275 C 
ENDROOT
BRANCH   1   2
ATOM      2  C   UNL A   1      43.517  21.398  25.876  1.00  0.00     0.275 C 
BRANCH   2   3
ATOM      3  O   UNL A   1      42.310  20.822  25.375  1.00  0.00    -0.457 OA
BRANCH   3   4
ATOM      4  C   UNL A   1      41.377  20.528  26.284  1.00  0.00     0.359 C 
ATOM      5  O   UNL A   1      41.521  19.632  27.104  1.00  0.00    -0.244 OA
BRANCH   4   6
ATOM      6  C   UNL A   1      40.175  21.447  26.367  1.00  0.00     0.183 C 
ATOM      7  N   UNL A   1      39.056  20.974  25.878  1.00  0.00    -0.157 NA
ATOM      8  C   UNL A   1      40.026  22.882  26.766  1.00  0.00     0.093 C 
ATOM      9  N   UNL A   1      38.189  22.023  25.890  1.00  0.00    -0.196 N 
ATOM     10  C   UNL A   1      38.600  23.153  26.568  1.00  0.00     0.282 C 
ATOM     11  C   UNL A   1      40.766  23.968  27.037  1.00  0.00     0.099 C 
ATOM     12  O   UNL A   1      38.001  24.170  26.878  1.00  0.00    -0.267 OA
BRANCH   9  13
ATOM     13  C   UNL A   1      37.093  21.996  25.046  1.00  0.00     0.069 A 
ATOM     14  C   UNL A   1      35.990  21.212  25.365  1.00  0.00     0.030 A 
ATOM     15  C   UNL A   1      37.112  22.836  23.922  1.00  0.00     0.030 A 
ATOM     16  C   UNL A   1      34.808  21.496  24.722  1.00  0.00     0.021 A 
ATOM     17  C   UNL A   1      35.952  23.091  23.249  1.00  0.00     0.021 A 
ATOM     18  C   UNL A   1      34.803  22.505  23.749  1.00  0.00     0.054 A 
BRANCH  18  19
ATOM     19  S   UNL A   1      33.269  23.082  23.153  1.00  0.00     0.124 S 
ATOM     20  O   UNL A   1      32.655  21.901  22.626  1.00  0.00    -0.237 OA
ATOM     21  O   UNL A   1      32.702  23.901  24.205  1.00  0.00    -0.237 OA
ATOM     22  O   UNL A   1      33.707  24.056  21.934  1.00  0.00    -0.744 OA
ENDBRANCH  18  19
ENDBRANCH   9  13
BRANCH  11  23
ATOM     23  N   UNL A   1      40.368  25.269  27.255  1.00  0.00    -0.361 N 
ATOM     24  H   UNL A   1      39.685  25.419  27.948  1.00  0.00     0.166 HD
BRANCH  23  25
ATOM     25  C   UNL A   1      40.847  26.398  26.578  1.00  0.00     0.038 A 
ATOM     26  C   UNL A   1      40.301  27.648  26.883  1.00  0.00     0.026 A 
ATOM     27  C   UNL A   1      41.940  26.335  25.702  1.00  0.00     0.026 A 
ATOM     28  C   UNL A   1      40.862  28.814  26.361  1.00  0.00     0.002 A 
ATOM     29  C   UNL A   1      42.486  27.498  25.157  1.00  0.00     0.002 A 
ATOM     30  C   UNL A   1      41.958  28.738  25.503  1.00  0.00     0.000 A 
ENDBRANCH  23  25
ENDBRANCH  11  23
ENDBRANCH   4   6
ENDBRANCH   3   4
ENDBRANCH   2   3
ENDBRANCH   1   2
BRANCH   1  31
ATOM     31  O   UNL A   1      44.651  23.606  26.149  1.00  0.00    -0.458 OA
BRANCH  31  32
ATOM     32  C   UNL A   1      45.928  23.984  25.880  1.00  0.00     0.338 C 
ATOM     33  O   UNL A   1      46.761  23.284  25.333  1.00  0.00    -0.246 OA
BRANCH  32  34
ATOM     34  C   UNL A   1      46.145  25.424  26.272  1.00  0.00     0.060 A 
ATOM     35  C   UNL A   1      46.466  25.743  27.599  1.00  0.00     0.016 A 
ATOM     36  C   UNL A   1      45.964  26.478  25.375  1.00  0.00     0.016 A 
ATOM     37  C   UNL A   1      46.552  27.094  28.042  1.00  0.00     0.010 A 
ATOM     38  C   UNL A   1      46.066  27.826  25.820  1.00  0.00     0.010 A 
ATOM     39  C   UNL A   1      46.321  28.172  27.172  1.00  0.00    -0.014 A 
BRANCH  39  40
ATOM     40  C   UNL A   1      46.139  29.619  27.649  1.00  0.00     0.031 A 
ATOM     41  C   UNL A   1      44.806  29.987  28.299  1.00  0.00     0.074 A 
ATOM     42  C   UNL A   1      47.065  30.617  27.571  1.00  0.00     0.049 A 
ATOM     43  N   UNL A   1      44.347  31.161  28.666  1.00  0.00    -0.248 NA
ATOM     44  C   UNL A   1      43.881  28.877  28.589  1.00  0.00     0.031 C 
ATOM     45  C   UNL A   1      48.454  30.472  27.151  1.00  0.00     0.029 A 
ATOM     46  N   UNL A   1      46.964  31.987  27.820  1.00  0.00    -0.354 N 
ATOM     47  C   UNL A   1      43.103  30.925  29.249  1.00  0.00     0.074 A 
ATOM     48  C   UNL A   1      42.837  29.511  29.101  1.00  0.00     0.031 C 
ATOM     49  C   UNL A   1      49.042  31.687  27.091  1.00  0.00     0.029 A 
ATOM     50  C   UNL A   1      48.083  32.729  27.456  1.00  0.00     0.049 A 
ATOM     51  H   UNL A   1      46.164  32.396  28.221  1.00  0.00     0.167 HD
ATOM     52  C   UNL A   1      42.268  31.780  29.891  1.00  0.00     0.031 A 
ATOM     53  C   UNL A   1      48.289  34.073  27.357  1.00  0.00     0.031 A 
ATOM     54  C   UNL A   1      42.506  33.190  30.052  1.00  0.00     0.049 A 
ATOM     55  C   UNL A   1      47.215  35.025  27.816  1.00  0.00     0.074 A 
ATOM     56  C   UNL A   1      41.765  34.113  30.774  1.00  0.00     0.029 A 
ATOM     57  N   UNL A   1      43.543  33.889  29.461  1.00  0.00    -0.354 N 
ATOM     58  N   UNL A   1      46.018  34.760  28.271  1.00  0.00    -0.248 NA
ATOM     59  C   UNL A   1      47.543  36.461  27.769  1.00  0.00     0.031 C 
ATOM     60  C   UNL A   1      42.301  35.383  30.543  1.00  0.00     0.029 A 
ATOM     61  C   UNL A   1      43.425  35.238  29.751  1.00  0.00     0.049 A 
ATOM     62  H   UNL A   1      44.257  33.489  28.915  1.00  0.00     0.167 HD
ATOM     63  C   UNL A   1      45.482  35.994  28.628  1.00  0.00     0.074 A 
ATOM     64  C   UNL A   1      46.439  37.008  28.251  1.00  0.00     0.031 C 
ATOM     65  C   UNL A   1      44.335  36.252  29.297  1.00  0.00     0.031 A 
BRANCH  52  66
ATOM     66  C   UNL A   1      40.990  31.218  30.469  1.00  0.00    -0.014 A 
ATOM     67  C   UNL A   1      39.847  31.019  29.673  1.00  0.00     0.010 A 
ATOM     68  C   UNL A   1      40.947  30.844  31.825  1.00  0.00     0.010 A 
ATOM     69  C   UNL A   1      38.665  30.531  30.237  1.00  0.00     0.020 A 
ATOM     70  C   UNL A   1      39.778  30.322  32.386  1.00  0.00     0.020 A 
ATOM     71  C   UNL A   1      38.635  30.197  31.594  1.00  0.00     0.054 A 
BRANCH  71  72
ATOM     72  S   UNL A   1      37.078  29.601  32.310  1.00  0.00     0.124 S 
ATOM     73  O   UNL A   1      36.640  30.764  33.078  1.00  0.00    -0.237 OA
ATOM     74  O   UNL A   1      36.279  29.292  31.128  1.00  0.00    -0.237 OA
ATOM     75  O   UNL A   1      37.482  28.446  33.107  1.00  0.00    -0.744 OA
ENDBRANCH  71  72
ENDBRANCH  52  66
BRANCH  53  76
ATOM     76  C   UNL A   1      49.494  34.685  26.681  1.00  0.00    -0.014 A 
ATOM     77  C   UNL A   1      50.687  34.971  27.356  1.00  0.00     0.010 A 
ATOM     78  C   UNL A   1      49.431  34.991  25.297  1.00  0.00     0.010 A 
ATOM     79  C   UNL A   1      51.830  35.372  26.641  1.00  0.00     0.020 A 
ATOM     80  C   UNL A   1      50.571  35.372  24.574  1.00  0.00     0.020 A 
ATOM     81  C   UNL A   1      51.783  35.503  25.248  1.00  0.00     0.054 A 
BRANCH  81  82
ATOM     82  S   UNL A   1      53.324  35.612  24.284  1.00  0.00     0.124 S 
ATOM     83  O   UNL A   1      53.474  37.052  24.100  1.00  0.00    -0.237 OA
ATOM     84  O   UNL A   1      54.316  34.988  25.158  1.00  0.00    -0.237 OA
ATOM     85  O   UNL A   1      53.018  34.855  23.071  1.00  0.00    -0.744 OA
ENDBRANCH  81  82
ENDBRANCH  53  76
BRANCH  65  86
ATOM     86  C   UNL A   1      44.093  37.676  29.715  1.00  0.00    -0.014 A 
ATOM     87  C   UNL A   1      43.319  38.560  28.946  1.00  0.00     0.010 A 
ATOM     88  C   UNL A   1      44.656  38.125  30.925  1.00  0.00     0.010 A 
ATOM     89  C   UNL A   1      43.121  39.875  29.377  1.00  0.00     0.020 A 
ATOM     90  C   UNL A   1      44.437  39.428  31.372  1.00  0.00     0.020 A 
ATOM     91  C   UNL A   1      43.675  40.298  30.591  1.00  0.00     0.054 A 
BRANCH  91  92
ATOM     92  S   UNL A   1      43.346  41.986  31.164  1.00  0.00     0.124 S 
ATOM     93  O   UNL A   1      41.918  42.126  30.895  1.00  0.00    -0.237 OA
ATOM     94  O   UNL A   1      43.717  41.920  32.575  1.00  0.00    -0.237 OA
ATOM     95  O   UNL A   1      44.220  42.811  30.334  1.00  0.00    -0.744 OA
ENDBRANCH  91  92
ENDBRANCH  65  86
ENDBRANCH  39  40
ENDBRANCH  32  34
ENDBRANCH  31  32
ENDBRANCH   1  31
TORSDOF 18
ENDMDL
