MODEL 1
REMARK VINA RESULT:     -11.1      0.000      0.000
REMARK SMILES C[C@@H]1CN(C(=O)NC[C@@H]2CC[C@H](C(=O)OCCOC(=O)c3ccc(-c4c5nc(c(-c6ccc(S(=O)(=O)[O-])cc6)c6ccc([nH]6)c(-c6ccc(S(=O)(=O)[O-])cc6)c6nc(c(-c7ccc(S(=O)(=O)[O-])cc7)c7ccc4[nH]7)C=C6)C=C5)cc3)O2)CC(C)(C)O1
REMARK SMILES IDX 16 1 15 2 13 3 14 4 12 5 9 6 10 7 81 8 11 9 8 10 7 11 5 12
REMARK SMILES IDX 6 13 4 15 1 16 2 17 3 18 86 19 83 20 82 21 84 22 85 23 17 24
REMARK SMILES IDX 18 25 19 26 20 27 21 28 22 29 80 30 23 31 79 32 24 33 25 34
REMARK SMILES IDX 26 35 73 36 27 37 78 38 72 39 74 40 28 41 77 42 71 43 70 44
REMARK SMILES IDX 29 46 59 47 40 48 58 49 41 50 44 51 57 52 75 53 42 54 43 55
REMARK SMILES IDX 56 57 76 58 45 59 30 60 31 61 39 62 32 63 38 64 33 65 34 66
REMARK SMILES IDX 35 67 36 68 37 69 60 70 61 71 69 72 62 73 68 74 63 75 64 76
REMARK SMILES IDX 65 77 66 78 67 79 46 80 47 81 55 82 48 83 54 84 49 85 50 86
REMARK SMILES IDX 51 87 52 88 53 89
REMARK H PARENT 7 14 74 45 44 56
REMARK Flexibility Score: inf
ROOT
ATOM      1  C   UNL A   1      38.497  22.062  25.802  1.00  0.00     0.274 C 
ENDROOT
BRANCH   1   2
ATOM      2  O   UNL A   1      37.190  22.660  25.920  1.00  0.00    -0.460 OA
BRANCH   2   3
ATOM      3  C   UNL A   1      36.334  22.434  24.881  1.00  0.00     0.335 C 
ATOM      4  O   UNL A   1      36.460  22.922  23.764  1.00  0.00    -0.249 OA
BRANCH   3   5
ATOM      5  C   UNL A   1      35.179  21.487  25.260  1.00  0.00     0.228 C 
ATOM      6  C   UNL A   1      33.010  22.354  25.228  1.00  0.00     0.138 C 
ATOM      7  C   UNL A   1      33.588  22.595  26.617  1.00  0.00     0.037 C 
ATOM      8  O   UNL A   1      34.010  21.664  24.459  1.00  0.00    -0.361 OA
ATOM      9  C   UNL A   1      34.717  21.599  26.701  1.00  0.00     0.047 C 
BRANCH   6  10
ATOM     10  C   UNL A   1      32.556  23.647  24.529  1.00  0.00     0.149 C 
BRANCH  10  11
ATOM     11  N   UNL A   1      31.700  24.490  25.345  1.00  0.00    -0.335 N 
ATOM     12  C   UNL A   1      31.652  25.786  25.693  1.00  0.00     0.317 C 
ATOM     13  O   UNL A   1      30.663  26.101  26.364  1.00  0.00    -0.249 OA
ATOM     14  H   UNL A   1      30.963  23.978  25.749  1.00  0.00     0.165 HD
BRANCH  12  15
ATOM     15  N   UNL A   1      32.569  26.712  25.300  1.00  0.00    -0.319 N 
ATOM     16  C   UNL A   1      30.989  29.259  24.276  1.00  0.00     0.040 C 
ATOM     17  C   UNL A   1      32.470  28.904  24.197  1.00  0.00     0.135 C 
ATOM     18  C   UNL A   1      32.747  27.398  24.027  1.00  0.00     0.153 C 
ATOM     19  O   UNL A   1      33.206  29.486  25.289  1.00  0.00    -0.369 OA
ATOM     20  C   UNL A   1      33.255  28.742  26.529  1.00  0.00     0.081 C 
ATOM     21  C   UNL A   1      33.507  27.231  26.300  1.00  0.00     0.156 C 
ATOM     22  C   UNL A   1      31.989  28.974  27.366  1.00  0.00     0.044 C 
ATOM     23  C   UNL A   1      34.443  29.342  27.297  1.00  0.00     0.044 C 
ENDBRANCH  12  15
ENDBRANCH  10  11
ENDBRANCH   6  10
ENDBRANCH   3   5
ENDBRANCH   2   3
ENDBRANCH   1   2
BRANCH   1  24
ATOM     24  C   UNL A   1      39.583  22.898  26.487  1.00  0.00     0.275 C 
BRANCH  24  25
ATOM     25  O   UNL A   1      39.209  24.285  26.581  1.00  0.00    -0.458 OA
BRANCH  25  26
ATOM     26  C   UNL A   1      40.219  25.167  26.408  1.00  0.00     0.338 C 
ATOM     27  O   UNL A   1      40.881  25.340  25.394  1.00  0.00    -0.246 OA
BRANCH  26  28
ATOM     28  C   UNL A   1      40.337  26.034  27.588  1.00  0.00     0.060 A 
ATOM     29  C   UNL A   1      39.355  25.924  28.575  1.00  0.00     0.016 A 
ATOM     30  C   UNL A   1      41.329  27.011  27.681  1.00  0.00     0.016 A 
ATOM     31  C   UNL A   1      39.350  26.795  29.658  1.00  0.00     0.010 A 
ATOM     32  C   UNL A   1      41.323  27.889  28.772  1.00  0.00     0.010 A 
ATOM     33  C   UNL A   1      40.323  27.798  29.757  1.00  0.00    -0.014 A 
BRANCH  33  34
ATOM     34  C   UNL A   1      40.225  28.784  30.858  1.00  0.00     0.031 A 
ATOM     35  C   UNL A   1      41.183  28.708  32.015  1.00  0.00     0.074 A 
ATOM     36  C   UNL A   1      39.331  29.788  30.785  1.00  0.00     0.049 A 
ATOM     37  N   UNL A   1      41.267  29.478  33.068  1.00  0.00    -0.248 NA
ATOM     38  C   UNL A   1      42.179  27.625  31.978  1.00  0.00     0.031 C 
ATOM     39  C   UNL A   1      38.386  30.000  29.687  1.00  0.00     0.029 A 
ATOM     40  N   UNL A   1      39.084  30.827  31.646  1.00  0.00    -0.354 N 
ATOM     41  C   UNL A   1      42.311  28.967  33.829  1.00  0.00     0.074 A 
ATOM     42  C   UNL A   1      42.822  27.811  33.122  1.00  0.00     0.031 C 
ATOM     43  C   UNL A   1      37.672  31.110  29.935  1.00  0.00     0.029 A 
ATOM     44  C   UNL A   1      38.082  31.666  31.223  1.00  0.00     0.049 A 
ATOM     45  H   UNL A   1      39.579  30.959  32.488  1.00  0.00     0.167 HD
ATOM     46  C   UNL A   1      42.801  29.418  35.008  1.00  0.00     0.031 A 
ATOM     47  C   UNL A   1      37.545  32.751  31.811  1.00  0.00     0.031 A 
ATOM     48  C   UNL A   1      42.294  30.567  35.710  1.00  0.00     0.049 A 
ATOM     49  C   UNL A   1      38.071  33.202  33.145  1.00  0.00     0.074 A 
ATOM     50  C   UNL A   1      42.724  31.101  36.913  1.00  0.00     0.029 A 
ATOM     51  N   UNL A   1      41.244  31.359  35.274  1.00  0.00    -0.354 N 
ATOM     52  N   UNL A   1      39.052  32.698  33.857  1.00  0.00    -0.248 NA
ATOM     53  C   UNL A   1      37.417  34.366  33.758  1.00  0.00     0.031 C 
ATOM     54  C   UNL A   1      41.908  32.196  37.221  1.00  0.00     0.029 A 
ATOM     55  C   UNL A   1      40.998  32.367  36.191  1.00  0.00     0.049 A 
ATOM     56  H   UNL A   1      40.746  31.225  34.434  1.00  0.00     0.167 HD
ATOM     57  C   UNL A   1      39.137  33.489  34.997  1.00  0.00     0.074 A 
ATOM     58  C   UNL A   1      38.123  34.517  34.870  1.00  0.00     0.031 C 
ATOM     59  C   UNL A   1      39.976  33.373  36.054  1.00  0.00     0.031 A 
BRANCH  46  60
ATOM     60  C   UNL A   1      43.925  28.635  35.630  1.00  0.00    -0.014 A 
ATOM     61  C   UNL A   1      45.267  29.001  35.424  1.00  0.00     0.010 A 
ATOM     62  C   UNL A   1      43.630  27.527  36.444  1.00  0.00     0.010 A 
ATOM     63  C   UNL A   1      46.298  28.245  35.991  1.00  0.00     0.020 A 
ATOM     64  C   UNL A   1      44.658  26.781  37.028  1.00  0.00     0.020 A 
ATOM     65  C   UNL A   1      45.986  27.134  36.782  1.00  0.00     0.054 A 
BRANCH  65  66
ATOM     66  S   UNL A   1      47.340  26.170  37.508  1.00  0.00     0.124 S 
ATOM     67  O   UNL A   1      46.679  24.902  37.807  1.00  0.00    -0.237 OA
ATOM     68  O   UNL A   1      48.323  26.125  36.428  1.00  0.00    -0.237 OA
ATOM     69  O   UNL A   1      47.737  26.955  38.675  1.00  0.00    -0.744 OA
ENDBRANCH  65  66
ENDBRANCH  46  60
BRANCH  47  70
ATOM     70  C   UNL A   1      36.422  33.471  31.152  1.00  0.00    -0.014 A 
ATOM     71  C   UNL A   1      35.243  33.761  31.857  1.00  0.00     0.010 A 
ATOM     72  C   UNL A   1      36.538  33.879  29.811  1.00  0.00     0.010 A 
ATOM     73  C   UNL A   1      34.194  34.440  31.231  1.00  0.00     0.020 A 
ATOM     74  C   UNL A   1      35.501  34.578  29.188  1.00  0.00     0.020 A 
ATOM     75  C   UNL A   1      34.329  34.845  29.899  1.00  0.00     0.054 A 
BRANCH  75  76
ATOM     76  S   UNL A   1      32.983  35.777  29.119  1.00  0.00     0.124 S 
ATOM     77  O   UNL A   1      32.420  34.788  28.205  1.00  0.00    -0.237 OA
ATOM     78  O   UNL A   1      32.141  36.139  30.257  1.00  0.00    -0.237 OA
ATOM     79  O   UNL A   1      33.671  36.899  28.483  1.00  0.00    -0.744 OA
ENDBRANCH  75  76
ENDBRANCH  47  70
BRANCH  59  80
ATOM     80  C   UNL A   1      39.837  34.389  37.154  1.00  0.00    -0.014 A 
ATOM     81  C   UNL A   1      40.446  35.652  37.052  1.00  0.00     0.010 A 
ATOM     82  C   UNL A   1      39.058  34.090  38.286  1.00  0.00     0.010 A 
ATOM     83  C   UNL A   1      40.304  36.589  38.078  1.00  0.00     0.020 A 
ATOM     84  C   UNL A   1      38.898  35.033  39.305  1.00  0.00     0.020 A 
ATOM     85  C   UNL A   1      39.536  36.271  39.201  1.00  0.00     0.054 A 
BRANCH  85  86
ATOM     86  S   UNL A   1      39.335  37.514  40.508  1.00  0.00     0.124 S 
ATOM     87  O   UNL A   1      40.662  38.120  40.555  1.00  0.00    -0.237 OA
ATOM     88  O   UNL A   1      38.271  38.368  39.986  1.00  0.00    -0.237 OA
ATOM     89  O   UNL A   1      38.969  36.723  41.681  1.00  0.00    -0.744 OA
ENDBRANCH  85  86
ENDBRANCH  59  80
ENDBRANCH  33  34
ENDBRANCH  26  28
ENDBRANCH  25  26
ENDBRANCH  24  25
ENDBRANCH   1  24
TORSDOF 17
ENDMDL
MODEL 2
REMARK VINA RESULT:     -11.0      1.723      2.485
REMARK SMILES C[C@@H]1CN(C(=O)NC[C@@H]2CC[C@H](C(=O)OCCOC(=O)c3ccc(-c4c5nc(c(-c6ccc(S(=O)(=O)[O-])cc6)c6ccc([nH]6)c(-c6ccc(S(=O)(=O)[O-])cc6)c6nc(c(-c7ccc(S(=O)(=O)[O-])cc7)c7ccc4[nH]7)C=C6)C=C5)cc3)O2)CC(C)(C)O1
REMARK SMILES IDX 16 1 15 2 13 3 14 4 12 5 9 6 10 7 81 8 11 9 8 10 7 11 5 12
REMARK SMILES IDX 6 13 4 15 1 16 2 17 3 18 86 19 83 20 82 21 84 22 85 23 17 24
REMARK SMILES IDX 18 25 19 26 20 27 21 28 22 29 80 30 23 31 79 32 24 33 25 34
REMARK SMILES IDX 26 35 73 36 27 37 78 38 72 39 74 40 28 41 77 42 71 43 70 44
REMARK SMILES IDX 29 46 59 47 40 48 58 49 41 50 44 51 57 52 75 53 42 54 43 55
REMARK SMILES IDX 56 57 76 58 45 59 30 60 31 61 39 62 32 63 38 64 33 65 34 66
REMARK SMILES IDX 35 67 36 68 37 69 60 70 61 71 69 72 62 73 68 74 63 75 64 76
REMARK SMILES IDX 65 77 66 78 67 79 46 80 47 81 55 82 48 83 54 84 49 85 50 86
REMARK SMILES IDX 51 87 52 88 53 89
REMARK H PARENT 7 14 74 45 44 56
REMARK Flexibility Score: inf
ROOT
ATOM      1  C   UNL A   1      38.180  22.699  25.879  1.00  0.00     0.274 C 
ENDROOT
BRANCH   1   2
ATOM      2  O   UNL A   1      37.047  23.528  25.551  1.00  0.00    -0.460 OA
BRANCH   2   3
ATOM      3  C   UNL A   1      35.819  22.961  25.736  1.00  0.00     0.335 C 
ATOM      4  O   UNL A   1      35.092  23.186  26.697  1.00  0.00    -0.249 OA
BRANCH   3   5
ATOM      5  C   UNL A   1      35.431  22.000  24.596  1.00  0.00     0.228 C 
ATOM      6  C   UNL A   1      33.189  21.363  24.429  1.00  0.00     0.138 C 
ATOM      7  C   UNL A   1      33.888  20.372  25.351  1.00  0.00     0.037 C 
ATOM      8  O   UNL A   1      34.176  22.312  23.989  1.00  0.00    -0.361 OA
ATOM      9  C   UNL A   1      35.345  20.540  25.001  1.00  0.00     0.047 C 
BRANCH   6  10
ATOM     10  C   UNL A   1      31.991  22.065  25.092  1.00  0.00     0.149 C 
BRANCH  10  11
ATOM     11  N   UNL A   1      32.282  23.404  25.572  1.00  0.00    -0.335 N 
ATOM     12  C   UNL A   1      32.014  24.660  25.181  1.00  0.00     0.317 C 
ATOM     13  O   UNL A   1      32.400  25.535  25.966  1.00  0.00    -0.249 OA
ATOM     14  H   UNL A   1      32.815  23.386  26.399  1.00  0.00     0.165 HD
BRANCH  12  15
ATOM     15  N   UNL A   1      31.320  24.973  24.053  1.00  0.00    -0.319 N 
ATOM     16  C   UNL A   1      30.947  28.117  23.992  1.00  0.00     0.040 C 
ATOM     17  C   UNL A   1      30.336  27.022  23.123  1.00  0.00     0.135 C 
ATOM     18  C   UNL A   1      30.072  25.701  23.872  1.00  0.00     0.153 C 
ATOM     19  O   UNL A   1      31.092  26.834  21.912  1.00  0.00    -0.369 OA
ATOM     20  C   UNL A   1      32.227  25.939  21.968  1.00  0.00     0.081 C 
ATOM     21  C   UNL A   1      31.916  24.642  22.756  1.00  0.00     0.156 C 
ATOM     22  C   UNL A   1      33.465  26.649  22.533  1.00  0.00     0.044 C 
ATOM     23  C   UNL A   1      32.516  25.583  20.501  1.00  0.00     0.044 C 
ENDBRANCH  12  15
ENDBRANCH  10  11
ENDBRANCH   6  10
ENDBRANCH   3   5
ENDBRANCH   2   3
ENDBRANCH   1   2
BRANCH   1  24
ATOM     24  C   UNL A   1      39.285  23.484  26.596  1.00  0.00     0.275 C 
BRANCH  24  25
ATOM     25  O   UNL A   1      38.889  24.841  26.862  1.00  0.00    -0.458 OA
BRANCH  25  26
ATOM     26  C   UNL A   1      39.898  25.741  26.891  1.00  0.00     0.338 C 
ATOM     27  O   UNL A   1      40.754  25.916  26.034  1.00  0.00    -0.246 OA
BRANCH  26  28
ATOM     28  C   UNL A   1      39.752  26.623  28.057  1.00  0.00     0.060 A 
ATOM     29  C   UNL A   1      40.487  27.810  28.068  1.00  0.00     0.016 A 
ATOM     30  C   UNL A   1      38.993  26.248  29.166  1.00  0.00     0.016 A 
ATOM     31  C   UNL A   1      40.477  28.629  29.191  1.00  0.00     0.010 A 
ATOM     32  C   UNL A   1      38.983  27.073  30.298  1.00  0.00     0.010 A 
ATOM     33  C   UNL A   1      39.741  28.259  30.323  1.00  0.00    -0.014 A 
BRANCH  33  34
ATOM     34  C   UNL A   1      39.841  29.089  31.546  1.00  0.00     0.031 A 
ATOM     35  C   UNL A   1      40.991  28.885  32.494  1.00  0.00     0.074 A 
ATOM     36  C   UNL A   1      38.948  30.071  31.768  1.00  0.00     0.049 A 
ATOM     37  N   UNL A   1      41.261  29.512  33.610  1.00  0.00    -0.248 NA
ATOM     38  C   UNL A   1      41.965  27.842  32.136  1.00  0.00     0.031 C 
ATOM     39  C   UNL A   1      37.821  30.402  30.893  1.00  0.00     0.029 A 
ATOM     40  N   UNL A   1      38.858  30.981  32.790  1.00  0.00    -0.354 N 
ATOM     41  C   UNL A   1      42.425  28.931  34.098  1.00  0.00     0.074 A 
ATOM     42  C   UNL A   1      42.802  27.891  33.163  1.00  0.00     0.031 C 
ATOM     43  C   UNL A   1      37.162  31.452  31.411  1.00  0.00     0.029 A 
ATOM     44  C   UNL A   1      37.795  31.843  32.668  1.00  0.00     0.049 A 
ATOM     45  H   UNL A   1      39.495  31.014  33.541  1.00  0.00     0.167 HD
ATOM     46  C   UNL A   1      43.118  29.236  35.220  1.00  0.00     0.031 A 
ATOM     47  C   UNL A   1      37.371  32.828  33.482  1.00  0.00     0.031 A 
ATOM     48  C   UNL A   1      42.744  30.269  36.149  1.00  0.00     0.049 A 
ATOM     49  C   UNL A   1      38.127  33.113  34.750  1.00  0.00     0.074 A 
ATOM     50  C   UNL A   1      43.382  30.651  37.317  1.00  0.00     0.029 A 
ATOM     51  N   UNL A   1      41.632  31.085  36.016  1.00  0.00    -0.354 N 
ATOM     52  N   UNL A   1      39.220  32.544  35.202  1.00  0.00    -0.248 NA
ATOM     53  C   UNL A   1      37.591  34.169  35.619  1.00  0.00     0.031 C 
ATOM     54  C   UNL A   1      42.633  31.675  37.909  1.00  0.00     0.029 A 
ATOM     55  C   UNL A   1      41.553  31.958  37.088  1.00  0.00     0.049 A 
ATOM     56  H   UNL A   1      40.992  31.051  35.267  1.00  0.00     0.167 HD
ATOM     57  C   UNL A   1      39.507  33.180  36.405  1.00  0.00     0.074 A 
ATOM     58  C   UNL A   1      38.485  34.190  36.599  1.00  0.00     0.031 C 
ATOM     59  C   UNL A   1      40.522  32.947  37.271  1.00  0.00     0.031 A 
BRANCH  46  60
ATOM     60  C   UNL A   1      44.336  28.406  35.523  1.00  0.00    -0.014 A 
ATOM     61  C   UNL A   1      44.240  27.217  36.266  1.00  0.00     0.010 A 
ATOM     62  C   UNL A   1      45.592  28.818  35.042  1.00  0.00     0.010 A 
ATOM     63  C   UNL A   1      45.388  26.474  36.558  1.00  0.00     0.020 A 
ATOM     64  C   UNL A   1      46.739  28.068  35.316  1.00  0.00     0.020 A 
ATOM     65  C   UNL A   1      46.631  26.910  36.088  1.00  0.00     0.054 A 
BRANCH  65  66
ATOM     66  S   UNL A   1      48.107  25.929  36.478  1.00  0.00     0.124 S 
ATOM     67  O   UNL A   1      49.171  26.742  35.895  1.00  0.00    -0.237 OA
ATOM     68  O   UNL A   1      48.086  25.876  37.938  1.00  0.00    -0.237 OA
ATOM     69  O   UNL A   1      47.861  24.653  35.809  1.00  0.00    -0.744 OA
ENDBRANCH  65  66
ENDBRANCH  46  60
BRANCH  47  70
ATOM     70  C   UNL A   1      36.147  33.600  33.134  1.00  0.00    -0.014 A 
ATOM     71  C   UNL A   1      34.871  33.091  33.428  1.00  0.00     0.010 A 
ATOM     72  C   UNL A   1      36.259  34.857  32.515  1.00  0.00     0.010 A 
ATOM     73  C   UNL A   1      33.727  33.824  33.100  1.00  0.00     0.020 A 
ATOM     74  C   UNL A   1      35.119  35.603  32.206  1.00  0.00     0.020 A 
ATOM     75  C   UNL A   1      33.858  35.076  32.492  1.00  0.00     0.054 A 
BRANCH  75  76
ATOM     76  S   UNL A   1      32.365  36.040  32.126  1.00  0.00     0.124 S 
ATOM     77  O   UNL A   1      31.304  35.108  32.496  1.00  0.00    -0.237 OA
ATOM     78  O   UNL A   1      32.515  37.205  32.995  1.00  0.00    -0.237 OA
ATOM     79  O   UNL A   1      32.484  36.321  30.697  1.00  0.00    -0.744 OA
ENDBRANCH  75  76
ENDBRANCH  47  70
BRANCH  59  80
ATOM     80  C   UNL A   1      40.581  33.806  38.504  1.00  0.00    -0.014 A 
ATOM     81  C   UNL A   1      39.977  33.391  39.703  1.00  0.00     0.010 A 
ATOM     82  C   UNL A   1      41.281  35.025  38.472  1.00  0.00     0.010 A 
ATOM     83  C   UNL A   1      40.044  34.195  40.843  1.00  0.00     0.020 A 
ATOM     84  C   UNL A   1      41.367  35.823  39.616  1.00  0.00     0.020 A 
ATOM     85  C   UNL A   1      40.734  35.410  40.791  1.00  0.00     0.054 A 
BRANCH  85  86
ATOM     86  S   UNL A   1      40.839  36.425  42.291  1.00  0.00     0.124 S 
ATOM     87  O   UNL A   1      39.636  37.245  42.186  1.00  0.00    -0.237 OA
ATOM     88  O   UNL A   1      40.831  35.429  43.360  1.00  0.00    -0.237 OA
ATOM     89  O   UNL A   1      42.101  37.144  42.131  1.00  0.00    -0.744 OA
ENDBRANCH  85  86
ENDBRANCH  59  80
ENDBRANCH  33  34
ENDBRANCH  26  28
ENDBRANCH  25  26
ENDBRANCH  24  25
ENDBRANCH   1  24
TORSDOF 17
ENDMDL
MODEL 3
REMARK VINA RESULT:     -11.0      4.113     10.348
REMARK SMILES C[C@@H]1CN(C(=O)NC[C@@H]2CC[C@H](C(=O)OCCOC(=O)c3ccc(-c4c5nc(c(-c6ccc(S(=O)(=O)[O-])cc6)c6ccc([nH]6)c(-c6ccc(S(=O)(=O)[O-])cc6)c6nc(c(-c7ccc(S(=O)(=O)[O-])cc7)c7ccc4[nH]7)C=C6)C=C5)cc3)O2)CC(C)(C)O1
REMARK SMILES IDX 16 1 15 2 13 3 14 4 12 5 9 6 10 7 81 8 11 9 8 10 7 11 5 12
REMARK SMILES IDX 6 13 4 15 1 16 2 17 3 18 86 19 83 20 82 21 84 22 85 23 17 24
REMARK SMILES IDX 18 25 19 26 20 27 21 28 22 29 80 30 23 31 79 32 24 33 25 34
REMARK SMILES IDX 26 35 73 36 27 37 78 38 72 39 74 40 28 41 77 42 71 43 70 44
REMARK SMILES IDX 29 46 59 47 40 48 58 49 41 50 44 51 57 52 75 53 42 54 43 55
REMARK SMILES IDX 56 57 76 58 45 59 30 60 31 61 39 62 32 63 38 64 33 65 34 66
REMARK SMILES IDX 35 67 36 68 37 69 60 70 61 71 69 72 62 73 68 74 63 75 64 76
REMARK SMILES IDX 65 77 66 78 67 79 46 80 47 81 55 82 48 83 54 84 49 85 50 86
REMARK SMILES IDX 51 87 52 88 53 89
REMARK H PARENT 7 14 74 45 44 56
REMARK Flexibility Score: inf
ROOT
ATOM      1  C   UNL A   1      31.948  30.112  25.459  1.00  0.00     0.274 C 
ENDROOT
BRANCH   1   2
ATOM      2  O   UNL A   1      32.706  29.188  24.653  1.00  0.00    -0.460 OA
BRANCH   2   3
ATOM      3  C   UNL A   1      32.373  27.871  24.783  1.00  0.00     0.335 C 
ATOM      4  O   UNL A   1      33.169  26.982  25.062  1.00  0.00    -0.249 OA
BRANCH   3   5
ATOM      5  C   UNL A   1      30.873  27.611  24.546  1.00  0.00     0.228 C 
ATOM      6  C   UNL A   1      30.226  25.441  23.969  1.00  0.00     0.138 C 
ATOM      7  C   UNL A   1      30.548  26.190  22.681  1.00  0.00     0.037 C 
ATOM      8  O   UNL A   1      30.424  26.357  25.060  1.00  0.00    -0.361 OA
ATOM      9  C   UNL A   1      30.450  27.638  23.088  1.00  0.00     0.047 C 
BRANCH   6  10
ATOM     10  C   UNL A   1      31.063  24.163  24.150  1.00  0.00     0.149 C 
BRANCH  10  11
ATOM     11  N   UNL A   1      32.265  24.123  23.336  1.00  0.00    -0.335 N 
ATOM     12  C   UNL A   1      33.569  23.874  23.534  1.00  0.00     0.317 C 
ATOM     13  O   UNL A   1      34.253  23.868  22.504  1.00  0.00    -0.249 OA
ATOM     14  H   UNL A   1      32.075  24.335  22.394  1.00  0.00     0.165 HD
BRANCH  12  15
ATOM     15  N   UNL A   1      34.111  23.585  24.749  1.00  0.00    -0.319 N 
ATOM     16  C   UNL A   1      34.590  20.457  24.872  1.00  0.00     0.040 C 
ATOM     17  C   UNL A   1      34.687  21.526  25.957  1.00  0.00     0.135 C 
ATOM     18  C   UNL A   1      33.672  22.675  25.797  1.00  0.00     0.153 C 
ATOM     19  O   UNL A   1      36.040  21.994  26.109  1.00  0.00    -0.369 OA
ATOM     20  C   UNL A   1      36.477  23.062  25.237  1.00  0.00     0.081 C 
ATOM     21  C   UNL A   1      35.410  24.176  25.089  1.00  0.00     0.156 C 
ATOM     22  C   UNL A   1      36.906  22.519  23.867  1.00  0.00     0.044 C 
ATOM     23  C   UNL A   1      37.722  23.643  25.924  1.00  0.00     0.044 C 
ENDBRANCH  12  15
ENDBRANCH  10  11
ENDBRANCH   6  10
ENDBRANCH   3   5
ENDBRANCH   2   3
ENDBRANCH   1   2
BRANCH   1  24
ATOM     24  C   UNL A   1      32.499  30.226  26.885  1.00  0.00     0.275 C 
BRANCH  24  25
ATOM     25  O   UNL A   1      33.928  30.058  26.920  1.00  0.00    -0.458 OA
BRANCH  25  26
ATOM     26  C   UNL A   1      34.561  30.712  27.919  1.00  0.00     0.338 C 
ATOM     27  O   UNL A   1      34.092  31.576  28.648  1.00  0.00    -0.246 OA
BRANCH  26  28
ATOM     28  C   UNL A   1      35.894  30.133  28.134  1.00  0.00     0.060 A 
ATOM     29  C   UNL A   1      36.195  29.654  29.411  1.00  0.00     0.016 A 
ATOM     30  C   UNL A   1      36.869  30.153  27.136  1.00  0.00     0.016 A 
ATOM     31  C   UNL A   1      37.476  29.200  29.704  1.00  0.00     0.010 A 
ATOM     32  C   UNL A   1      38.159  29.695  27.431  1.00  0.00     0.010 A 
ATOM     33  C   UNL A   1      38.474  29.234  28.722  1.00  0.00    -0.014 A 
BRANCH  33  34
ATOM     34  C   UNL A   1      39.857  28.854  29.094  1.00  0.00     0.031 A 
ATOM     35  C   UNL A   1      40.701  29.804  29.898  1.00  0.00     0.074 A 
ATOM     36  C   UNL A   1      40.328  27.633  28.777  1.00  0.00     0.049 A 
ATOM     37  N   UNL A   1      41.927  29.655  30.328  1.00  0.00    -0.248 NA
ATOM     38  C   UNL A   1      40.082  31.086  30.269  1.00  0.00     0.031 C 
ATOM     39  C   UNL A   1      39.585  26.604  28.047  1.00  0.00     0.029 A 
ATOM     40  N   UNL A   1      41.540  27.048  29.042  1.00  0.00    -0.354 N 
ATOM     41  C   UNL A   1      42.235  30.828  31.007  1.00  0.00     0.074 A 
ATOM     42  C   UNL A   1      41.071  31.685  30.919  1.00  0.00     0.031 C 
ATOM     43  C   UNL A   1      40.353  25.508  27.936  1.00  0.00     0.029 A 
ATOM     44  C   UNL A   1      41.652  25.768  28.553  1.00  0.00     0.049 A 
ATOM     45  H   UNL A   1      42.261  27.501  29.536  1.00  0.00     0.167 HD
ATOM     46  C   UNL A   1      43.381  31.162  31.645  1.00  0.00     0.031 A 
ATOM     47  C   UNL A   1      42.687  24.908  28.585  1.00  0.00     0.031 A 
ATOM     48  C   UNL A   1      44.538  30.311  31.734  1.00  0.00     0.049 A 
ATOM     49  C   UNL A   1      43.968  25.322  29.255  1.00  0.00     0.074 A 
ATOM     50  C   UNL A   1      45.748  30.563  32.358  1.00  0.00     0.029 A 
ATOM     51  N   UNL A   1      44.630  29.044  31.181  1.00  0.00    -0.354 N 
ATOM     52  N   UNL A   1      44.245  26.442  29.880  1.00  0.00    -0.248 NA
ATOM     53  C   UNL A   1      45.076  24.359  29.220  1.00  0.00     0.031 C 
ATOM     54  C   UNL A   1      46.585  29.460  32.150  1.00  0.00     0.029 A 
ATOM     55  C   UNL A   1      45.881  28.506  31.432  1.00  0.00     0.049 A 
ATOM     56  H   UNL A   1      43.911  28.591  30.683  1.00  0.00     0.167 HD
ATOM     57  C   UNL A   1      45.557  26.314  30.321  1.00  0.00     0.074 A 
ATOM     58  C   UNL A   1      46.011  25.000  29.909  1.00  0.00     0.031 C 
ATOM     59  C   UNL A   1      46.319  27.203  31.003  1.00  0.00     0.031 A 
BRANCH  46  60
ATOM     60  C   UNL A   1      43.448  32.530  32.268  1.00  0.00    -0.014 A 
ATOM     61  C   UNL A   1      43.055  32.743  33.600  1.00  0.00     0.010 A 
ATOM     62  C   UNL A   1      43.927  33.614  31.509  1.00  0.00     0.010 A 
ATOM     63  C   UNL A   1      43.101  34.028  34.152  1.00  0.00     0.020 A 
ATOM     64  C   UNL A   1      43.992  34.895  32.064  1.00  0.00     0.020 A 
ATOM     65  C   UNL A   1      43.561  35.097  33.376  1.00  0.00     0.054 A 
BRANCH  65  66
ATOM     66  S   UNL A   1      43.614  36.754  34.113  1.00  0.00     0.124 S 
ATOM     67  O   UNL A   1      44.949  36.777  34.704  1.00  0.00    -0.237 OA
ATOM     68  O   UNL A   1      43.424  37.629  32.958  1.00  0.00    -0.237 OA
ATOM     69  O   UNL A   1      42.509  36.742  35.069  1.00  0.00    -0.744 OA
ENDBRANCH  65  66
ENDBRANCH  46  60
BRANCH  47  70
ATOM     70  C   UNL A   1      42.562  23.576  27.935  1.00  0.00    -0.014 A 
ATOM     71  C   UNL A   1      43.045  23.366  26.632  1.00  0.00     0.010 A 
ATOM     72  C   UNL A   1      41.967  22.507  28.627  1.00  0.00     0.010 A 
ATOM     73  C   UNL A   1      42.926  22.110  26.030  1.00  0.00     0.020 A 
ATOM     74  C   UNL A   1      41.867  21.245  28.037  1.00  0.00     0.020 A 
ATOM     75  C   UNL A   1      42.338  21.057  26.736  1.00  0.00     0.054 A 
BRANCH  75  76
ATOM     76  S   UNL A   1      42.246  19.418  25.962  1.00  0.00     0.124 S 
ATOM     77  O   UNL A   1      43.084  19.593  24.780  1.00  0.00    -0.237 OA
ATOM     78  O   UNL A   1      42.787  18.543  26.999  1.00  0.00    -0.237 OA
ATOM     79  O   UNL A   1      40.818  19.248  25.699  1.00  0.00    -0.744 OA
ENDBRANCH  75  76
ENDBRANCH  47  70
BRANCH  59  80
ATOM     80  C   UNL A   1      47.720  26.780  31.352  1.00  0.00    -0.014 A 
ATOM     81  C   UNL A   1      48.812  27.182  30.564  1.00  0.00     0.010 A 
ATOM     82  C   UNL A   1      47.948  26.003  32.501  1.00  0.00     0.010 A 
ATOM     83  C   UNL A   1      50.109  26.788  30.903  1.00  0.00     0.020 A 
ATOM     84  C   UNL A   1      49.246  25.623  32.853  1.00  0.00     0.020 A 
ATOM     85  C   UNL A   1      50.317  26.006  32.042  1.00  0.00     0.054 A 
BRANCH  85  86
ATOM     86  S   UNL A   1      52.012  25.532  32.484  1.00  0.00     0.124 S 
ATOM     87  O   UNL A   1      51.812  24.211  33.074  1.00  0.00    -0.237 OA
ATOM     88  O   UNL A   1      52.701  25.548  31.197  1.00  0.00    -0.237 OA
ATOM     89  O   UNL A   1      52.428  26.576  33.418  1.00  0.00    -0.744 OA
ENDBRANCH  85  86
ENDBRANCH  59  80
ENDBRANCH  33  34
ENDBRANCH  26  28
ENDBRANCH  25  26
ENDBRANCH  24  25
ENDBRANCH   1  24
TORSDOF 17
ENDMDL
