MODEL 1
REMARK VINA RESULT:     -10.7      0.000      0.000
REMARK SMILES CC(C)(C)OC(=O)N[C@H](Cc1ccc(N=[N+]=[N-])cc1)C(=O)OCCOC(=O)c1ccc(-c2c3nc(c(-c4ccc(S(=O)(=O)[O-])cc4)c4ccc([nH]4)c(-c4ccc(S(=O)(=O)[O-])cc4)c4nc(c(-c5ccc(S(=O)(=O)[O-])cc5)c5ccc2[nH]5)C=C4)C=C3)cc1
REMARK SMILES IDX 23 1 22 2 20 3 21 4 9 5 8 6 6 7 7 8 5 10 2 11 1 12 3 13 4 14
REMARK SMILES IDX 10 15 11 16 12 17 19 18 13 19 18 20 14 21 15 22 16 23 17 24
REMARK SMILES IDX 24 25 25 26 26 27 27 28 28 29 29 30 87 31 30 32 86 33 31 34
REMARK SMILES IDX 32 35 33 36 80 37 34 38 85 39 79 40 81 41 35 42 84 43 78 44
REMARK SMILES IDX 77 45 36 47 66 48 47 49 65 50 48 51 51 52 64 53 82 54 49 55
REMARK SMILES IDX 50 56 63 58 83 59 52 60 37 61 38 62 46 63 39 64 45 65 40 66
REMARK SMILES IDX 41 67 42 68 43 69 44 70 67 71 68 72 76 73 69 74 75 75 70 76
REMARK SMILES IDX 71 77 72 78 73 79 74 80 53 81 54 82 62 83 55 84 61 85 56 86
REMARK SMILES IDX 57 87 58 88 59 89 60 90
REMARK H PARENT 8 9 81 46 51 57
REMARK Flexibility Score: inf
ROOT
ATOM      1  C   UNL A   1      32.448  28.908  25.549  1.00  0.00     0.274 C 
ENDROOT
BRANCH   1   2
ATOM      2  O   UNL A   1      32.086  27.551  25.216  1.00  0.00    -0.461 OA
BRANCH   2   3
ATOM      3  C   UNL A   1      31.053  27.036  25.929  1.00  0.00     0.329 C 
ATOM      4  O   UNL A   1      31.014  27.014  27.158  1.00  0.00    -0.250 OA
BRANCH   3   5
ATOM      5  C   UNL A   1      29.966  26.349  25.088  1.00  0.00     0.199 C 
BRANCH   5   6
ATOM      6  N   UNL A   1      30.018  24.962  25.567  1.00  0.00    -0.308 N 
ATOM      7  C   UNL A   1      30.844  23.974  25.146  1.00  0.00     0.408 C 
ATOM      8  O   UNL A   1      30.731  22.836  25.574  1.00  0.00    -0.225 OA
ATOM      9  H   UNL A   1      29.379  24.722  26.276  1.00  0.00     0.168 HD
BRANCH   7  10
ATOM     10  O   UNL A   1      31.781  24.419  24.282  1.00  0.00    -0.444 OA
BRANCH  10  11
ATOM     11  C   UNL A   1      33.173  24.080  24.486  1.00  0.00     0.106 C 
ATOM     12  C   UNL A   1      33.389  24.217  26.000  1.00  0.00     0.056 C 
ATOM     13  C   UNL A   1      34.102  25.057  23.760  1.00  0.00     0.056 C 
ATOM     14  C   UNL A   1      33.437  22.621  24.089  1.00  0.00     0.056 C 
ENDBRANCH  10  11
ENDBRANCH   7  10
ENDBRANCH   5   6
BRANCH   5  15
ATOM     15  C   UNL A   1      30.093  26.507  23.560  1.00  0.00     0.072 C 
BRANCH  15  16
ATOM     16  C   UNL A   1      29.555  27.813  23.002  1.00  0.00    -0.045 A 
ATOM     17  C   UNL A   1      30.382  28.749  22.366  1.00  0.00     0.004 A 
ATOM     18  C   UNL A   1      28.206  28.142  23.176  1.00  0.00     0.004 A 
ATOM     19  C   UNL A   1      29.856  29.953  21.874  1.00  0.00     0.010 A 
ATOM     20  C   UNL A   1      27.686  29.350  22.689  1.00  0.00     0.010 A 
ATOM     21  C   UNL A   1      28.500  30.268  22.014  1.00  0.00     0.038 A 
BRANCH  21  22
ATOM     22  N   UNL A   1      28.069  31.507  21.498  1.00  0.00    -0.061 NA
ATOM     23  N   UNL A   1      28.330  32.507  22.186  1.00  0.00     0.005 N 
ATOM     24  N   UNL A   1      28.580  33.437  22.805  1.00  0.00    -0.003 NA
ENDBRANCH  21  22
ENDBRANCH  15  16
ENDBRANCH   5  15
ENDBRANCH   3   5
ENDBRANCH   2   3
ENDBRANCH   1   2
BRANCH   1  25
ATOM     25  C   UNL A   1      33.871  28.966  26.097  1.00  0.00     0.275 C 
BRANCH  25  26
ATOM     26  O   UNL A   1      33.845  29.259  27.507  1.00  0.00    -0.458 OA
BRANCH  26  27
ATOM     27  C   UNL A   1      34.506  30.388  27.848  1.00  0.00     0.338 C 
ATOM     28  O   UNL A   1      34.058  31.521  27.852  1.00  0.00    -0.246 OA
BRANCH  27  29
ATOM     29  C   UNL A   1      35.892  30.093  28.220  1.00  0.00     0.060 A 
ATOM     30  C   UNL A   1      36.928  30.233  27.293  1.00  0.00     0.016 A 
ATOM     31  C   UNL A   1      36.136  29.541  29.475  1.00  0.00     0.016 A 
ATOM     32  C   UNL A   1      38.207  29.783  27.605  1.00  0.00     0.010 A 
ATOM     33  C   UNL A   1      37.435  29.166  29.816  1.00  0.00     0.010 A 
ATOM     34  C   UNL A   1      38.480  29.282  28.884  1.00  0.00    -0.014 A 
BRANCH  34  35
ATOM     35  C   UNL A   1      39.870  28.966  29.292  1.00  0.00     0.031 A 
ATOM     36  C   UNL A   1      40.746  30.017  29.910  1.00  0.00     0.074 A 
ATOM     37  C   UNL A   1      40.355  27.738  29.025  1.00  0.00     0.049 A 
ATOM     38  N   UNL A   1      42.029  29.975  30.155  1.00  0.00    -0.248 NA
ATOM     39  C   UNL A   1      40.099  31.282  30.292  1.00  0.00     0.031 C 
ATOM     40  C   UNL A   1      39.586  26.629  28.451  1.00  0.00     0.029 A 
ATOM     41  N   UNL A   1      41.614  27.218  29.181  1.00  0.00    -0.354 N 
ATOM     42  C   UNL A   1      42.354  31.215  30.693  1.00  0.00     0.074 A 
ATOM     43  C   UNL A   1      41.133  31.992  30.726  1.00  0.00     0.031 C 
ATOM     44  C   UNL A   1      40.385  25.563  28.310  1.00  0.00     0.029 A 
ATOM     45  C   UNL A   1      41.738  25.935  28.702  1.00  0.00     0.049 A 
ATOM     46  H   UNL A   1      42.358  27.714  29.596  1.00  0.00     0.167 HD
ATOM     47  C   UNL A   1      43.564  31.658  31.113  1.00  0.00     0.031 A 
ATOM     48  C   UNL A   1      42.826  25.159  28.541  1.00  0.00     0.031 A 
ATOM     49  C   UNL A   1      44.770  30.870  31.059  1.00  0.00     0.049 A 
ATOM     50  C   UNL A   1      44.166  25.706  28.935  1.00  0.00     0.074 A 
ATOM     51  C   UNL A   1      46.043  31.216  31.480  1.00  0.00     0.029 A 
ATOM     52  N   UNL A   1      44.859  29.585  30.542  1.00  0.00    -0.354 N 
ATOM     53  N   UNL A   1      44.456  26.873  29.461  1.00  0.00    -0.248 NA
ATOM     54  C   UNL A   1      45.328  24.837  28.709  1.00  0.00     0.031 C 
ATOM     55  C   UNL A   1      46.911  30.169  31.154  1.00  0.00     0.029 A 
ATOM     56  C   UNL A   1      46.169  29.140  30.596  1.00  0.00     0.049 A 
ATOM     57  H   UNL A   1      44.100  29.066  30.187  1.00  0.00     0.167 HD
ATOM     58  C   UNL A   1      45.833  26.871  29.646  1.00  0.00     0.074 A 
ATOM     59  C   UNL A   1      46.312  25.578  29.199  1.00  0.00     0.031 C 
ATOM     60  C   UNL A   1      46.630  27.853  30.135  1.00  0.00     0.031 A 
BRANCH  47  61
ATOM     61  C   UNL A   1      43.657  33.072  31.628  1.00  0.00    -0.014 A 
ATOM     62  C   UNL A   1      43.818  34.163  30.755  1.00  0.00     0.010 A 
ATOM     63  C   UNL A   1      43.527  33.319  33.008  1.00  0.00     0.010 A 
ATOM     64  C   UNL A   1      43.883  35.468  31.256  1.00  0.00     0.020 A 
ATOM     65  C   UNL A   1      43.561  34.623  33.510  1.00  0.00     0.020 A 
ATOM     66  C   UNL A   1      43.754  35.689  32.631  1.00  0.00     0.054 A 
BRANCH  66  67
ATOM     67  S   UNL A   1      43.814  37.394  33.247  1.00  0.00     0.124 S 
ATOM     68  O   UNL A   1      43.737  38.166  32.008  1.00  0.00    -0.237 OA
ATOM     69  O   UNL A   1      42.634  37.466  34.105  1.00  0.00    -0.237 OA
ATOM     70  O   UNL A   1      45.094  37.468  33.946  1.00  0.00    -0.744 OA
ENDBRANCH  66  67
ENDBRANCH  47  61
BRANCH  48  71
ATOM     71  C   UNL A   1      42.687  23.804  27.940  1.00  0.00    -0.014 A 
ATOM     72  C   UNL A   1      42.446  22.684  28.752  1.00  0.00     0.010 A 
ATOM     73  C   UNL A   1      42.775  23.631  26.545  1.00  0.00     0.010 A 
ATOM     74  C   UNL A   1      42.311  21.415  28.184  1.00  0.00     0.020 A 
ATOM     75  C   UNL A   1      42.605  22.369  25.970  1.00  0.00     0.020 A 
ATOM     76  C   UNL A   1      42.387  21.266  26.795  1.00  0.00     0.054 A 
BRANCH  76  77
ATOM     77  S   UNL A   1      42.160  19.614  26.081  1.00  0.00     0.124 S 
ATOM     78  O   UNL A   1      43.076  19.646  24.946  1.00  0.00    -0.237 OA
ATOM     79  O   UNL A   1      42.548  18.739  27.184  1.00  0.00    -0.237 OA
ATOM     80  O   UNL A   1      40.739  19.582  25.739  1.00  0.00    -0.744 OA
ENDBRANCH  76  77
ENDBRANCH  48  71
BRANCH  60  81
ATOM     81  C   UNL A   1      48.103  27.556  30.231  1.00  0.00    -0.014 A 
ATOM     82  C   UNL A   1      48.648  26.943  31.374  1.00  0.00     0.010 A 
ATOM     83  C   UNL A   1      48.945  27.849  29.143  1.00  0.00     0.010 A 
ATOM     84  C   UNL A   1      50.015  26.659  31.438  1.00  0.00     0.020 A 
ATOM     85  C   UNL A   1      50.305  27.536  29.190  1.00  0.00     0.020 A 
ATOM     86  C   UNL A   1      50.833  26.952  30.343  1.00  0.00     0.054 A 
BRANCH  86  87
ATOM     87  S   UNL A   1      52.593  26.523  30.434  1.00  0.00     0.124 S 
ATOM     88  O   UNL A   1      52.908  26.228  29.039  1.00  0.00    -0.237 OA
ATOM     89  O   UNL A   1      53.190  27.744  30.970  1.00  0.00    -0.237 OA
ATOM     90  O   UNL A   1      52.623  25.374  31.335  1.00  0.00    -0.744 OA
ENDBRANCH  86  87
ENDBRANCH  60  81
ENDBRANCH  34  35
ENDBRANCH  27  29
ENDBRANCH  26  27
ENDBRANCH  25  26
ENDBRANCH   1  25
TORSDOF 20
ENDMDL
MODEL 2
REMARK VINA RESULT:     -10.4      3.244      8.618
REMARK SMILES CC(C)(C)OC(=O)N[C@H](Cc1ccc(N=[N+]=[N-])cc1)C(=O)OCCOC(=O)c1ccc(-c2c3nc(c(-c4ccc(S(=O)(=O)[O-])cc4)c4ccc([nH]4)c(-c4ccc(S(=O)(=O)[O-])cc4)c4nc(c(-c5ccc(S(=O)(=O)[O-])cc5)c5ccc2[nH]5)C=C4)C=C3)cc1
REMARK SMILES IDX 23 1 22 2 20 3 21 4 9 5 8 6 6 7 7 8 5 10 2 11 1 12 3 13 4 14
REMARK SMILES IDX 10 15 11 16 12 17 19 18 13 19 18 20 14 21 15 22 16 23 17 24
REMARK SMILES IDX 24 25 25 26 26 27 27 28 28 29 29 30 87 31 30 32 86 33 31 34
REMARK SMILES IDX 32 35 33 36 80 37 34 38 85 39 79 40 81 41 35 42 84 43 78 44
REMARK SMILES IDX 77 45 36 47 66 48 47 49 65 50 48 51 51 52 64 53 82 54 49 55
REMARK SMILES IDX 50 56 63 58 83 59 52 60 37 61 38 62 46 63 39 64 45 65 40 66
REMARK SMILES IDX 41 67 42 68 43 69 44 70 67 71 68 72 76 73 69 74 75 75 70 76
REMARK SMILES IDX 71 77 72 78 73 79 74 80 53 81 54 82 62 83 55 84 61 85 56 86
REMARK SMILES IDX 57 87 58 88 59 89 60 90
REMARK H PARENT 8 9 81 46 51 57
REMARK Flexibility Score: inf
ROOT
ATOM      1  C   UNL A   1      31.730  28.922  27.253  1.00  0.00     0.274 C 
ENDROOT
BRANCH   1   2
ATOM      2  O   UNL A   1      32.532  27.778  26.893  1.00  0.00    -0.461 OA
BRANCH   2   3
ATOM      3  C   UNL A   1      32.182  27.168  25.732  1.00  0.00     0.329 C 
ATOM      4  O   UNL A   1      32.956  26.989  24.793  1.00  0.00    -0.250 OA
BRANCH   3   5
ATOM      5  C   UNL A   1      30.690  26.823  25.609  1.00  0.00     0.199 C 
BRANCH   5   6
ATOM      6  N   UNL A   1      30.536  25.713  26.558  1.00  0.00    -0.308 N 
ATOM      7  C   UNL A   1      30.658  24.388  26.304  1.00  0.00     0.408 C 
ATOM      8  O   UNL A   1      30.426  23.559  27.171  1.00  0.00    -0.225 OA
ATOM      9  H   UNL A   1      30.322  25.960  27.486  1.00  0.00     0.168 HD
BRANCH   7  10
ATOM     10  O   UNL A   1      31.094  24.141  25.051  1.00  0.00    -0.444 OA
BRANCH  10  11
ATOM     11  C   UNL A   1      32.286  23.349  24.842  1.00  0.00     0.106 C 
ATOM     12  C   UNL A   1      32.819  23.801  23.475  1.00  0.00     0.056 C 
ATOM     13  C   UNL A   1      31.964  21.853  24.781  1.00  0.00     0.056 C 
ATOM     14  C   UNL A   1      33.343  23.674  25.907  1.00  0.00     0.056 C 
ENDBRANCH  10  11
ENDBRANCH   7  10
ENDBRANCH   5   6
BRANCH   5  15
ATOM     15  C   UNL A   1      30.180  26.527  24.185  1.00  0.00     0.072 C 
BRANCH  15  16
ATOM     16  C   UNL A   1      29.624  27.727  23.439  1.00  0.00    -0.045 A 
ATOM     17  C   UNL A   1      28.253  28.017  23.409  1.00  0.00     0.004 A 
ATOM     18  C   UNL A   1      30.483  28.544  22.696  1.00  0.00     0.004 A 
ATOM     19  C   UNL A   1      27.770  29.126  22.697  1.00  0.00     0.010 A 
ATOM     20  C   UNL A   1      29.995  29.647  21.980  1.00  0.00     0.010 A 
ATOM     21  C   UNL A   1      28.631  29.966  21.984  1.00  0.00     0.038 A 
BRANCH  21  22
ATOM     22  N   UNL A   1      28.050  31.047  21.291  1.00  0.00    -0.061 NA
ATOM     23  N   UNL A   1      28.230  32.173  21.786  1.00  0.00     0.005 N 
ATOM     24  N   UNL A   1      28.403  33.215  22.225  1.00  0.00    -0.003 NA
ENDBRANCH  21  22
ENDBRANCH  15  16
ENDBRANCH   5  15
ENDBRANCH   3   5
ENDBRANCH   2   3
ENDBRANCH   1   2
BRANCH   1  25
ATOM     25  C   UNL A   1      32.354  30.207  26.716  1.00  0.00     0.275 C 
BRANCH  25  26
ATOM     26  O   UNL A   1      33.783  30.169  26.884  1.00  0.00    -0.458 OA
BRANCH  26  27
ATOM     27  C   UNL A   1      34.290  31.238  27.540  1.00  0.00     0.338 C 
ATOM     28  O   UNL A   1      33.804  32.354  27.599  1.00  0.00    -0.246 OA
BRANCH  27  29
ATOM     29  C   UNL A   1      35.556  30.900  28.196  1.00  0.00     0.060 A 
ATOM     30  C   UNL A   1      35.683  29.731  28.948  1.00  0.00     0.016 A 
ATOM     31  C   UNL A   1      36.586  31.837  28.166  1.00  0.00     0.016 A 
ATOM     32  C   UNL A   1      36.828  29.511  29.707  1.00  0.00     0.010 A 
ATOM     33  C   UNL A   1      37.767  31.578  28.861  1.00  0.00     0.010 A 
ATOM     34  C   UNL A   1      37.897  30.415  29.639  1.00  0.00    -0.014 A 
BRANCH  34  35
ATOM     35  C   UNL A   1      39.190  30.109  30.296  1.00  0.00     0.031 A 
ATOM     36  C   UNL A   1      40.056  28.986  29.801  1.00  0.00     0.074 A 
ATOM     37  C   UNL A   1      39.534  30.808  31.395  1.00  0.00     0.049 A 
ATOM     38  N   UNL A   1      41.115  28.461  30.358  1.00  0.00    -0.248 NA
ATOM     39  C   UNL A   1      39.677  28.368  28.521  1.00  0.00     0.031 C 
ATOM     40  C   UNL A   1      38.782  31.939  31.950  1.00  0.00     0.029 A 
ATOM     41  N   UNL A   1      40.592  30.664  32.255  1.00  0.00    -0.354 N 
ATOM     42  C   UNL A   1      41.517  27.431  29.515  1.00  0.00     0.074 A 
ATOM     43  C   UNL A   1      40.576  27.398  28.415  1.00  0.00     0.031 C 
ATOM     44  C   UNL A   1      39.404  32.386  33.049  1.00  0.00     0.029 A 
ATOM     45  C   UNL A   1      40.547  31.526  33.325  1.00  0.00     0.049 A 
ATOM     46  H   UNL A   1      41.314  30.007  32.120  1.00  0.00     0.167 HD
ATOM     47  C   UNL A   1      42.570  26.591  29.657  1.00  0.00     0.031 A 
ATOM     48  C   UNL A   1      41.305  31.588  34.436  1.00  0.00     0.031 A 
ATOM     49  C   UNL A   1      43.487  26.634  30.769  1.00  0.00     0.049 A 
ATOM     50  C   UNL A   1      42.412  30.590  34.608  1.00  0.00     0.074 A 
ATOM     51  C   UNL A   1      44.601  25.843  30.996  1.00  0.00     0.029 A 
ATOM     52  N   UNL A   1      43.391  27.505  31.846  1.00  0.00    -0.354 N 
ATOM     53  N   UNL A   1      42.793  29.634  33.794  1.00  0.00    -0.248 NA
ATOM     54  C   UNL A   1      43.190  30.674  35.851  1.00  0.00     0.031 C 
ATOM     55  C   UNL A   1      45.135  26.189  32.242  1.00  0.00     0.029 A 
ATOM     56  C   UNL A   1      44.399  27.245  32.759  1.00  0.00     0.049 A 
ATOM     57  H   UNL A   1      42.705  28.204  31.946  1.00  0.00     0.167 HD
ATOM     58  C   UNL A   1      43.867  29.013  34.419  1.00  0.00     0.074 A 
ATOM     59  C   UNL A   1      44.090  29.718  35.665  1.00  0.00     0.031 C 
ATOM     60  C   UNL A   1      44.599  27.950  34.001  1.00  0.00     0.031 A 
BRANCH  47  61
ATOM     61  C   UNL A   1      42.767  25.525  28.610  1.00  0.00    -0.014 A 
ATOM     62  C   UNL A   1      42.224  24.236  28.761  1.00  0.00     0.010 A 
ATOM     63  C   UNL A   1      43.465  25.834  27.426  1.00  0.00     0.010 A 
ATOM     64  C   UNL A   1      42.405  23.269  27.766  1.00  0.00     0.020 A 
ATOM     65  C   UNL A   1      43.623  24.880  26.417  1.00  0.00     0.020 A 
ATOM     66  C   UNL A   1      43.104  23.598  26.600  1.00  0.00     0.054 A 
BRANCH  66  67
ATOM     67  S   UNL A   1      43.298  22.330  25.317  1.00  0.00     0.124 S 
ATOM     68  O   UNL A   1      44.438  21.565  25.817  1.00  0.00    -0.237 OA
ATOM     69  O   UNL A   1      42.012  21.638  25.355  1.00  0.00    -0.237 OA
ATOM     70  O   UNL A   1      43.551  23.100  24.102  1.00  0.00    -0.744 OA
ENDBRANCH  66  67
ENDBRANCH  47  61
BRANCH  48  71
ATOM     71  C   UNL A   1      41.005  32.603  35.482  1.00  0.00    -0.014 A 
ATOM     72  C   UNL A   1      40.062  32.334  36.487  1.00  0.00     0.010 A 
ATOM     73  C   UNL A   1      41.681  33.839  35.491  1.00  0.00     0.010 A 
ATOM     74  C   UNL A   1      39.787  33.287  37.471  1.00  0.00     0.020 A 
ATOM     75  C   UNL A   1      41.434  34.779  36.494  1.00  0.00     0.020 A 
ATOM     76  C   UNL A   1      40.479  34.503  37.471  1.00  0.00     0.054 A 
BRANCH  76  77
ATOM     77  S   UNL A   1      40.136  35.702  38.788  1.00  0.00     0.124 S 
ATOM     78  O   UNL A   1      39.646  36.850  38.033  1.00  0.00    -0.237 OA
ATOM     79  O   UNL A   1      39.141  35.004  39.598  1.00  0.00    -0.237 OA
ATOM     80  O   UNL A   1      41.437  35.884  39.430  1.00  0.00    -0.744 OA
ENDBRANCH  76  77
ENDBRANCH  48  71
BRANCH  60  81
ATOM     81  C   UNL A   1      45.724  27.500  34.895  1.00  0.00    -0.014 A 
ATOM     82  C   UNL A   1      47.008  28.064  34.786  1.00  0.00     0.010 A 
ATOM     83  C   UNL A   1      45.481  26.534  35.889  1.00  0.00     0.010 A 
ATOM     84  C   UNL A   1      48.036  27.646  35.637  1.00  0.00     0.020 A 
ATOM     85  C   UNL A   1      46.497  26.139  36.761  1.00  0.00     0.020 A 
ATOM     86  C   UNL A   1      47.772  26.691  36.622  1.00  0.00     0.054 A 
BRANCH  86  87
ATOM     87  S   UNL A   1      49.112  26.207  37.745  1.00  0.00     0.124 S 
ATOM     88  O   UNL A   1      48.398  26.009  39.003  1.00  0.00    -0.237 OA
ATOM     89  O   UNL A   1      49.630  24.994  37.117  1.00  0.00    -0.237 OA
ATOM     90  O   UNL A   1      50.018  27.353  37.717  1.00  0.00    -0.744 OA
ENDBRANCH  86  87
ENDBRANCH  60  81
ENDBRANCH  34  35
ENDBRANCH  27  29
ENDBRANCH  26  27
ENDBRANCH  25  26
ENDBRANCH   1  25
TORSDOF 20
ENDMDL
MODEL 3
REMARK VINA RESULT:     -10.3      2.477      3.268
REMARK SMILES CC(C)(C)OC(=O)N[C@H](Cc1ccc(N=[N+]=[N-])cc1)C(=O)OCCOC(=O)c1ccc(-c2c3nc(c(-c4ccc(S(=O)(=O)[O-])cc4)c4ccc([nH]4)c(-c4ccc(S(=O)(=O)[O-])cc4)c4nc(c(-c5ccc(S(=O)(=O)[O-])cc5)c5ccc2[nH]5)C=C4)C=C3)cc1
REMARK SMILES IDX 23 1 22 2 20 3 21 4 9 5 8 6 6 7 7 8 5 10 2 11 1 12 3 13 4 14
REMARK SMILES IDX 10 15 11 16 12 17 19 18 13 19 18 20 14 21 15 22 16 23 17 24
REMARK SMILES IDX 24 25 25 26 26 27 27 28 28 29 29 30 87 31 30 32 86 33 31 34
REMARK SMILES IDX 32 35 33 36 80 37 34 38 85 39 79 40 81 41 35 42 84 43 78 44
REMARK SMILES IDX 77 45 36 47 66 48 47 49 65 50 48 51 51 52 64 53 82 54 49 55
REMARK SMILES IDX 50 56 63 58 83 59 52 60 37 61 38 62 46 63 39 64 45 65 40 66
REMARK SMILES IDX 41 67 42 68 43 69 44 70 67 71 68 72 76 73 69 74 75 75 70 76
REMARK SMILES IDX 71 77 72 78 73 79 74 80 53 81 54 82 62 83 55 84 61 85 56 86
REMARK SMILES IDX 57 87 58 88 59 89 60 90
REMARK H PARENT 8 9 81 46 51 57
REMARK Flexibility Score: inf
ROOT
ATOM      1  C   UNL A   1      33.072  29.418  27.063  1.00  0.00     0.274 C 
ENDROOT
BRANCH   1   2
ATOM      2  O   UNL A   1      33.367  28.321  26.173  1.00  0.00    -0.461 OA
BRANCH   2   3
ATOM      3  C   UNL A   1      32.435  27.335  26.140  1.00  0.00     0.329 C 
ATOM      4  O   UNL A   1      31.583  27.171  27.011  1.00  0.00    -0.250 OA
BRANCH   3   5
ATOM      5  C   UNL A   1      32.596  26.332  24.987  1.00  0.00     0.199 C 
BRANCH   5   6
ATOM      6  N   UNL A   1      33.965  25.839  25.178  1.00  0.00    -0.308 N 
ATOM      7  C   UNL A   1      34.363  24.556  25.357  1.00  0.00     0.408 C 
ATOM      8  O   UNL A   1      35.532  24.287  25.584  1.00  0.00    -0.225 OA
ATOM      9  H   UNL A   1      34.678  26.518  25.173  1.00  0.00     0.168 HD
BRANCH   7  10
ATOM     10  O   UNL A   1      33.350  23.677  25.206  1.00  0.00    -0.444 OA
BRANCH  10  11
ATOM     11  C   UNL A   1      33.336  22.777  24.074  1.00  0.00     0.106 C 
ATOM     12  C   UNL A   1      34.308  21.652  24.459  1.00  0.00     0.056 C 
ATOM     13  C   UNL A   1      33.846  23.463  22.804  1.00  0.00     0.056 C 
ATOM     14  C   UNL A   1      31.940  22.168  23.886  1.00  0.00     0.056 C 
ENDBRANCH  10  11
ENDBRANCH   7  10
ENDBRANCH   5   6
BRANCH   5  15
ATOM     15  C   UNL A   1      32.297  26.872  23.575  1.00  0.00     0.072 C 
BRANCH  15  16
ATOM     16  C   UNL A   1      31.043  27.721  23.463  1.00  0.00    -0.045 A 
ATOM     17  C   UNL A   1      29.778  27.156  23.244  1.00  0.00     0.004 A 
ATOM     18  C   UNL A   1      31.138  29.116  23.511  1.00  0.00     0.004 A 
ATOM     19  C   UNL A   1      28.640  27.969  23.130  1.00  0.00     0.010 A 
ATOM     20  C   UNL A   1      29.999  29.925  23.389  1.00  0.00     0.010 A 
ATOM     21  C   UNL A   1      28.728  29.363  23.214  1.00  0.00     0.038 A 
BRANCH  21  22
ATOM     22  N   UNL A   1      27.531  30.094  23.077  1.00  0.00    -0.061 NA
ATOM     23  N   UNL A   1      27.651  31.273  22.702  1.00  0.00     0.005 N 
ATOM     24  N   UNL A   1      27.749  32.354  22.342  1.00  0.00    -0.003 NA
ENDBRANCH  21  22
ENDBRANCH  15  16
ENDBRANCH   5  15
ENDBRANCH   3   5
ENDBRANCH   2   3
ENDBRANCH   1   2
BRANCH   1  25
ATOM     25  C   UNL A   1      34.331  30.228  27.354  1.00  0.00     0.275 C 
BRANCH  25  26
ATOM     26  O   UNL A   1      35.318  29.396  27.992  1.00  0.00    -0.458 OA
BRANCH  26  27
ATOM     27  C   UNL A   1      36.058  30.035  28.927  1.00  0.00     0.338 C 
ATOM     28  O   UNL A   1      35.660  30.857  29.733  1.00  0.00    -0.246 OA
BRANCH  27  29
ATOM     29  C   UNL A   1      37.463  29.623  28.856  1.00  0.00     0.060 A 
ATOM     30  C   UNL A   1      38.152  29.228  30.005  1.00  0.00     0.016 A 
ATOM     31  C   UNL A   1      38.132  29.765  27.643  1.00  0.00     0.016 A 
ATOM     32  C   UNL A   1      39.525  29.011  29.953  1.00  0.00     0.010 A 
ATOM     33  C   UNL A   1      39.493  29.468  27.575  1.00  0.00     0.010 A 
ATOM     34  C   UNL A   1      40.201  29.090  28.728  1.00  0.00    -0.014 A 
BRANCH  34  35
ATOM     35  C   UNL A   1      41.623  28.688  28.621  1.00  0.00     0.031 A 
ATOM     36  C   UNL A   1      42.718  29.711  28.707  1.00  0.00     0.074 A 
ATOM     37  C   UNL A   1      41.909  27.396  28.367  1.00  0.00     0.049 A 
ATOM     38  N   UNL A   1      43.993  29.572  28.453  1.00  0.00    -0.248 NA
ATOM     39  C   UNL A   1      42.330  31.068  29.123  1.00  0.00     0.031 C 
ATOM     40  C   UNL A   1      40.926  26.310  28.289  1.00  0.00     0.029 A 
ATOM     41  N   UNL A   1      43.104  26.776  28.107  1.00  0.00    -0.354 N 
ATOM     42  C   UNL A   1      44.559  30.826  28.648  1.00  0.00     0.074 A 
ATOM     43  C   UNL A   1      43.484  31.718  29.029  1.00  0.00     0.031 C 
ATOM     44  C   UNL A   1      41.557  25.162  28.007  1.00  0.00     0.029 A 
ATOM     45  C   UNL A   1      42.971  25.442  27.803  1.00  0.00     0.049 A 
ATOM     46  H   UNL A   1      43.972  27.241  28.136  1.00  0.00     0.167 HD
ATOM     47  C   UNL A   1      45.856  31.193  28.512  1.00  0.00     0.031 A 
ATOM     48  C   UNL A   1      43.875  24.550  27.354  1.00  0.00     0.031 A 
ATOM     49  C   UNL A   1      46.909  30.291  28.118  1.00  0.00     0.049 A 
ATOM     50  C   UNL A   1      45.287  25.005  27.131  1.00  0.00     0.074 A 
ATOM     51  C   UNL A   1      48.260  30.556  27.974  1.00  0.00     0.029 A 
ATOM     52  N   UNL A   1      46.730  28.953  27.792  1.00  0.00    -0.354 N 
ATOM     53  N   UNL A   1      45.813  26.189  27.338  1.00  0.00    -0.248 NA
ATOM     54  C   UNL A   1      46.228  24.006  26.608  1.00  0.00     0.031 C 
ATOM     55  C   UNL A   1      48.884  29.398  27.495  1.00  0.00     0.029 A 
ATOM     56  C   UNL A   1      47.936  28.391  27.409  1.00  0.00     0.049 A 
ATOM     57  H   UNL A   1      45.869  28.474  27.828  1.00  0.00     0.167 HD
ATOM     58  C   UNL A   1      47.152  26.073  26.987  1.00  0.00     0.074 A 
ATOM     59  C   UNL A   1      47.359  24.698  26.580  1.00  0.00     0.031 C 
ATOM     60  C   UNL A   1      48.121  27.021  26.996  1.00  0.00     0.031 A 
BRANCH  47  61
ATOM     61  C   UNL A   1      46.208  32.640  28.749  1.00  0.00    -0.014 A 
ATOM     62  C   UNL A   1      46.128  33.595  27.718  1.00  0.00     0.010 A 
ATOM     63  C   UNL A   1      46.574  33.064  30.040  1.00  0.00     0.010 A 
ATOM     64  C   UNL A   1      46.441  34.935  27.967  1.00  0.00     0.020 A 
ATOM     65  C   UNL A   1      46.860  34.407  30.301  1.00  0.00     0.020 A 
ATOM     66  C   UNL A   1      46.806  35.333  29.258  1.00  0.00     0.054 A 
BRANCH  66  67
ATOM     67  S   UNL A   1      47.179  37.083  29.555  1.00  0.00     0.124 S 
ATOM     68  O   UNL A   1      46.632  37.285  30.895  1.00  0.00    -0.237 OA
ATOM     69  O   UNL A   1      48.637  37.118  29.461  1.00  0.00    -0.237 OA
ATOM     70  O   UNL A   1      46.472  37.778  28.484  1.00  0.00    -0.744 OA
ENDBRANCH  66  67
ENDBRANCH  47  61
BRANCH  48  71
ATOM     71  C   UNL A   1      43.451  23.157  27.047  1.00  0.00    -0.014 A 
ATOM     72  C   UNL A   1      43.584  22.640  25.748  1.00  0.00     0.010 A 
ATOM     73  C   UNL A   1      42.930  22.330  28.061  1.00  0.00     0.010 A 
ATOM     74  C   UNL A   1      43.190  21.330  25.464  1.00  0.00     0.020 A 
ATOM     75  C   UNL A   1      42.569  21.008  27.789  1.00  0.00     0.020 A 
ATOM     76  C   UNL A   1      42.689  20.521  26.488  1.00  0.00     0.054 A 
BRANCH  76  77
ATOM     77  S   UNL A   1      42.230  18.809  26.101  1.00  0.00     0.124 S 
ATOM     78  O   UNL A   1      40.818  18.943  25.760  1.00  0.00    -0.237 OA
ATOM     79  O   UNL A   1      43.123  18.487  24.991  1.00  0.00    -0.237 OA
ATOM     80  O   UNL A   1      42.508  18.092  27.344  1.00  0.00    -0.744 OA
ENDBRANCH  76  77
ENDBRANCH  48  71
BRANCH  60  81
ATOM     81  C   UNL A   1      49.500  26.594  26.568  1.00  0.00    -0.014 A 
ATOM     82  C   UNL A   1      49.925  26.739  25.235  1.00  0.00     0.010 A 
ATOM     83  C   UNL A   1      50.400  26.085  27.523  1.00  0.00     0.010 A 
ATOM     84  C   UNL A   1      51.215  26.353  24.860  1.00  0.00     0.020 A 
ATOM     85  C   UNL A   1      51.700  25.731  27.159  1.00  0.00     0.020 A 
ATOM     86  C   UNL A   1      52.095  25.856  25.826  1.00  0.00     0.054 A 
BRANCH  86  87
ATOM     87  S   UNL A   1      53.780  25.414  25.320  1.00  0.00     0.124 S 
ATOM     88  O   UNL A   1      53.534  24.448  24.253  1.00  0.00    -0.237 OA
ATOM     89  O   UNL A   1      54.331  26.698  24.892  1.00  0.00    -0.237 OA
ATOM     90  O   UNL A   1      54.374  24.861  26.535  1.00  0.00    -0.744 OA
ENDBRANCH  86  87
ENDBRANCH  60  81
ENDBRANCH  34  35
ENDBRANCH  27  29
ENDBRANCH  26  27
ENDBRANCH  25  26
ENDBRANCH   1  25
TORSDOF 20
ENDMDL
