MODEL 1
REMARK VINA RESULT:     -11.3      0.000      0.000
REMARK SMILES Cc1ccc(C(=O)N2C[C@H](C(=O)OCCOC(=O)c3ccc(-c4c5nc(c(-c6ccc(S(=O)(=O)[O-])cc6)c6ccc([nH]6)c(-c6ccc(S(=O)(=O)[O-])cc6)c6nc(c(-c7ccc(S(=O)(=O)[O-])cc7)c7ccc4[nH]7)C=C6)C=C5)cc3)Oc3ccccc32)o1
REMARK SMILES IDX 15 1 14 2 13 3 11 4 12 5 10 6 8 7 9 8 85 9 80 10 84 11 79 12
REMARK SMILES IDX 81 13 83 14 82 15 6 16 7 17 5 18 1 19 2 20 3 21 86 22 4 23
REMARK SMILES IDX 16 24 17 25 18 26 19 27 20 28 78 29 21 30 77 31 22 32 23 33
REMARK SMILES IDX 24 34 71 35 25 36 76 37 70 38 72 39 26 40 75 41 69 42 68 43
REMARK SMILES IDX 27 45 57 46 38 47 56 48 39 49 42 50 55 51 73 52 40 53 41 54
REMARK SMILES IDX 54 56 74 57 43 58 28 59 29 60 37 61 30 62 36 63 31 64 32 65
REMARK SMILES IDX 33 66 34 67 35 68 58 69 59 70 67 71 60 72 66 73 61 74 62 75
REMARK SMILES IDX 63 76 64 77 65 78 44 79 45 80 53 81 46 82 52 83 47 84 48 85
REMARK SMILES IDX 49 86 50 87 51 88
REMARK H PARENT 72 44 42 55
REMARK Flexibility Score: inf
ROOT
ATOM      1  C   UNL A   1      35.823  22.786  25.719  1.00  0.00     0.275 C 
ENDROOT
BRANCH   1   2
ATOM      2  C   UNL A   1      34.636  23.324  26.528  1.00  0.00     0.274 C 
BRANCH   2   3
ATOM      3  O   UNL A   1      33.448  23.501  25.726  1.00  0.00    -0.459 OA
BRANCH   3   4
ATOM      4  C   UNL A   1      32.409  24.118  26.353  1.00  0.00     0.349 C 
ATOM      5  O   UNL A   1      31.728  23.594  27.229  1.00  0.00    -0.248 OA
BRANCH   4   6
ATOM      6  C   UNL A   1      32.136  25.524  25.843  1.00  0.00     0.302 C 
ATOM      7  N   UNL A   1      30.831  27.039  24.435  1.00  0.00    -0.298 N 
ATOM      8  C   UNL A   1      30.893  25.668  24.970  1.00  0.00     0.183 C 
ATOM      9  C   UNL A   1      31.341  28.061  25.300  1.00  0.00     0.087 A 
ATOM     10  C   UNL A   1      31.895  27.708  26.546  1.00  0.00     0.144 A 
ATOM     11  C   UNL A   1      31.261  29.421  24.975  1.00  0.00     0.030 A 
ATOM     12  O   UNL A   1      32.043  26.405  26.967  1.00  0.00    -0.475 OA
ATOM     13  C   UNL A   1      32.339  28.685  27.440  1.00  0.00     0.049 A 
ATOM     14  C   UNL A   1      31.726  30.398  25.861  1.00  0.00     0.002 A 
ATOM     15  C   UNL A   1      32.262  30.031  27.092  1.00  0.00     0.004 A 
BRANCH   7  16
ATOM     16  C   UNL A   1      30.490  27.299  23.099  1.00  0.00     0.294 C 
ATOM     17  O   UNL A   1      31.231  26.948  22.178  1.00  0.00    -0.265 OA
BRANCH  16  18
ATOM     18  C   UNL A   1      29.279  28.067  22.849  1.00  0.00     0.192 A 
ATOM     19  C   UNL A   1      28.132  31.002  21.139  1.00  0.00     0.087 C 
ATOM     20  C   UNL A   1      28.196  29.790  21.980  1.00  0.00     0.101 A 
ATOM     21  C   UNL A   1      27.303  29.157  22.813  1.00  0.00     0.046 A 
ATOM     22  O   UNL A   1      29.384  29.132  21.988  1.00  0.00    -0.456 OA
ATOM     23  C   UNL A   1      27.997  28.054  23.373  1.00  0.00     0.056 A 
ENDBRANCH  16  18
ENDBRANCH   7  16
ENDBRANCH   4   6
ENDBRANCH   3   4
ENDBRANCH   2   3
ENDBRANCH   1   2
BRANCH   1  24
ATOM     24  O   UNL A   1      36.898  23.738  25.607  1.00  0.00    -0.458 OA
BRANCH  24  25
ATOM     25  C   UNL A   1      38.105  23.269  26.006  1.00  0.00     0.338 C 
ATOM     26  O   UNL A   1      38.590  22.186  25.726  1.00  0.00    -0.246 OA
BRANCH  25  27
ATOM     27  C   UNL A   1      38.861  24.308  26.724  1.00  0.00     0.060 A 
ATOM     28  C   UNL A   1      38.569  24.504  28.077  1.00  0.00     0.016 A 
ATOM     29  C   UNL A   1      39.745  25.159  26.059  1.00  0.00     0.016 A 
ATOM     30  C   UNL A   1      39.136  25.571  28.767  1.00  0.00     0.010 A 
ATOM     31  C   UNL A   1      40.312  26.234  26.753  1.00  0.00     0.010 A 
ATOM     32  C   UNL A   1      39.988  26.460  28.104  1.00  0.00    -0.014 A 
BRANCH  32  33
ATOM     33  C   UNL A   1      40.449  27.679  28.808  1.00  0.00     0.031 A 
ATOM     34  C   UNL A   1      41.854  27.739  29.341  1.00  0.00     0.074 A 
ATOM     35  C   UNL A   1      39.637  28.746  28.917  1.00  0.00     0.049 A 
ATOM     36  N   UNL A   1      42.446  28.699  30.005  1.00  0.00    -0.248 NA
ATOM     37  C   UNL A   1      42.705  26.564  29.092  1.00  0.00     0.031 C 
ATOM     38  C   UNL A   1      38.273  28.828  28.393  1.00  0.00     0.029 A 
ATOM     39  N   UNL A   1      39.846  29.970  29.501  1.00  0.00    -0.354 N 
ATOM     40  C   UNL A   1      43.730  28.238  30.270  1.00  0.00     0.074 A 
ATOM     41  C   UNL A   1      43.827  26.907  29.709  1.00  0.00     0.031 C 
ATOM     42  C   UNL A   1      37.771  30.042  28.671  1.00  0.00     0.029 A 
ATOM     43  C   UNL A   1      38.761  30.809  29.423  1.00  0.00     0.049 A 
ATOM     44  H   UNL A   1      40.694  30.222  29.934  1.00  0.00     0.167 HD
ATOM     45  C   UNL A   1      44.739  28.867  30.918  1.00  0.00     0.031 A 
ATOM     46  C   UNL A   1      38.582  32.050  29.916  1.00  0.00     0.031 A 
ATOM     47  C   UNL A   1      44.643  30.192  31.470  1.00  0.00     0.049 A 
ATOM     48  C   UNL A   1      39.703  32.713  30.668  1.00  0.00     0.074 A 
ATOM     49  C   UNL A   1      45.606  30.913  32.155  1.00  0.00     0.029 A 
ATOM     50  N   UNL A   1      43.517  30.999  31.395  1.00  0.00    -0.354 N 
ATOM     51  N   UNL A   1      40.904  32.256  30.929  1.00  0.00    -0.248 NA
ATOM     52  C   UNL A   1      39.444  34.062  31.192  1.00  0.00     0.031 C 
ATOM     53  C   UNL A   1      45.051  32.144  32.524  1.00  0.00     0.029 A 
ATOM     54  C   UNL A   1      43.757  32.206  32.030  1.00  0.00     0.049 A 
ATOM     55  H   UNL A   1      42.674  30.751  30.954  1.00  0.00     0.167 HD
ATOM     56  C   UNL A   1      41.552  33.267  31.627  1.00  0.00     0.074 A 
ATOM     57  C   UNL A   1      40.613  34.366  31.739  1.00  0.00     0.031 C 
ATOM     58  C   UNL A   1      42.811  33.287  32.130  1.00  0.00     0.031 A 
BRANCH  45  59
ATOM     59  C   UNL A   1      46.023  28.104  31.101  1.00  0.00    -0.014 A 
ATOM     60  C   UNL A   1      47.092  28.250  30.199  1.00  0.00     0.010 A 
ATOM     61  C   UNL A   1      46.164  27.238  32.200  1.00  0.00     0.010 A 
ATOM     62  C   UNL A   1      48.266  27.510  30.372  1.00  0.00     0.020 A 
ATOM     63  C   UNL A   1      47.344  26.514  32.387  1.00  0.00     0.020 A 
ATOM     64  C   UNL A   1      48.381  26.640  31.460  1.00  0.00     0.054 A 
BRANCH  64  65
ATOM     65  S   UNL A   1      49.913  25.691  31.666  1.00  0.00     0.124 S 
ATOM     66  O   UNL A   1      50.890  26.747  31.923  1.00  0.00    -0.237 OA
ATOM     67  O   UNL A   1      49.610  24.827  32.805  1.00  0.00    -0.237 OA
ATOM     68  O   UNL A   1      50.067  25.000  30.389  1.00  0.00    -0.744 OA
ENDBRANCH  64  65
ENDBRANCH  45  59
BRANCH  46  69
ATOM     69  C   UNL A   1      37.277  32.739  29.725  1.00  0.00    -0.014 A 
ATOM     70  C   UNL A   1      36.381  32.889  30.797  1.00  0.00     0.010 A 
ATOM     71  C   UNL A   1      36.932  33.259  28.465  1.00  0.00     0.010 A 
ATOM     72  C   UNL A   1      35.156  33.536  30.609  1.00  0.00     0.020 A 
ATOM     73  C   UNL A   1      35.720  33.927  28.279  1.00  0.00     0.020 A 
ATOM     74  C   UNL A   1      34.833  34.052  29.350  1.00  0.00     0.054 A 
BRANCH  74  75
ATOM     75  S   UNL A   1      33.265  34.940  29.136  1.00  0.00     0.124 S 
ATOM     76  O   UNL A   1      32.590  34.124  28.132  1.00  0.00    -0.237 OA
ATOM     77  O   UNL A   1      32.689  34.899  30.478  1.00  0.00    -0.237 OA
ATOM     78  O   UNL A   1      33.684  36.267  28.689  1.00  0.00    -0.744 OA
ENDBRANCH  74  75
ENDBRANCH  46  69
BRANCH  58  79
ATOM     79  C   UNL A   1      43.259  34.547  32.819  1.00  0.00    -0.014 A 
ATOM     80  C   UNL A   1      43.863  35.593  32.100  1.00  0.00     0.010 A 
ATOM     81  C   UNL A   1      43.026  34.704  34.197  1.00  0.00     0.010 A 
ATOM     82  C   UNL A   1      44.254  36.764  32.754  1.00  0.00     0.020 A 
ATOM     83  C   UNL A   1      43.396  35.882  34.851  1.00  0.00     0.020 A 
ATOM     84  C   UNL A   1      44.022  36.900  34.127  1.00  0.00     0.054 A 
BRANCH  84  85
ATOM     85  S   UNL A   1      44.500  38.444  34.950  1.00  0.00     0.124 S 
ATOM     86  O   UNL A   1      44.246  38.131  36.354  1.00  0.00    -0.237 OA
ATOM     87  O   UNL A   1      45.907  38.585  34.584  1.00  0.00    -0.237 OA
ATOM     88  O   UNL A   1      43.608  39.440  34.361  1.00  0.00    -0.744 OA
ENDBRANCH  84  85
ENDBRANCH  58  79
ENDBRANCH  32  33
ENDBRANCH  25  27
ENDBRANCH  24  25
ENDBRANCH   1  24
TORSDOF 16
ENDMDL
MODEL 2
REMARK VINA RESULT:     -11.2      5.452      8.041
REMARK SMILES Cc1ccc(C(=O)N2C[C@H](C(=O)OCCOC(=O)c3ccc(-c4c5nc(c(-c6ccc(S(=O)(=O)[O-])cc6)c6ccc([nH]6)c(-c6ccc(S(=O)(=O)[O-])cc6)c6nc(c(-c7ccc(S(=O)(=O)[O-])cc7)c7ccc4[nH]7)C=C6)C=C5)cc3)Oc3ccccc32)o1
REMARK SMILES IDX 15 1 14 2 13 3 11 4 12 5 10 6 8 7 9 8 85 9 80 10 84 11 79 12
REMARK SMILES IDX 81 13 83 14 82 15 6 16 7 17 5 18 1 19 2 20 3 21 86 22 4 23
REMARK SMILES IDX 16 24 17 25 18 26 19 27 20 28 78 29 21 30 77 31 22 32 23 33
REMARK SMILES IDX 24 34 71 35 25 36 76 37 70 38 72 39 26 40 75 41 69 42 68 43
REMARK SMILES IDX 27 45 57 46 38 47 56 48 39 49 42 50 55 51 73 52 40 53 41 54
REMARK SMILES IDX 54 56 74 57 43 58 28 59 29 60 37 61 30 62 36 63 31 64 32 65
REMARK SMILES IDX 33 66 34 67 35 68 58 69 59 70 67 71 60 72 66 73 61 74 62 75
REMARK SMILES IDX 63 76 64 77 65 78 44 79 45 80 53 81 46 82 52 83 47 84 48 85
REMARK SMILES IDX 49 86 50 87 51 88
REMARK H PARENT 72 44 42 55
REMARK Flexibility Score: inf
ROOT
ATOM      1  C   UNL A   1      42.860  26.520  25.223  1.00  0.00     0.275 C 
ENDROOT
BRANCH   1   2
ATOM      2  C   UNL A   1      43.931  26.618  26.318  1.00  0.00     0.274 C 
BRANCH   2   3
ATOM      3  O   UNL A   1      44.660  25.384  26.496  1.00  0.00    -0.459 OA
BRANCH   3   4
ATOM      4  C   UNL A   1      44.249  24.612  27.539  1.00  0.00     0.349 C 
ATOM      5  O   UNL A   1      44.259  24.979  28.711  1.00  0.00    -0.248 OA
BRANCH   4   6
ATOM      6  C   UNL A   1      43.800  23.219  27.130  1.00  0.00     0.302 C 
ATOM      7  N   UNL A   1      42.000  21.679  26.518  1.00  0.00    -0.298 N 
ATOM      8  C   UNL A   1      42.326  23.097  26.753  1.00  0.00     0.183 C 
ATOM      9  C   UNL A   1      43.054  20.892  25.949  1.00  0.00     0.087 A 
ATOM     10  C   UNL A   1      44.309  21.482  25.700  1.00  0.00     0.144 A 
ATOM     11  C   UNL A   1      42.868  19.555  25.576  1.00  0.00     0.030 A 
ATOM     12  O   UNL A   1      44.616  22.781  26.039  1.00  0.00    -0.475 OA
ATOM     13  C   UNL A   1      45.334  20.760  25.085  1.00  0.00     0.049 A 
ATOM     14  C   UNL A   1      43.902  18.826  24.982  1.00  0.00     0.002 A 
ATOM     15  C   UNL A   1      45.133  19.428  24.733  1.00  0.00     0.004 A 
BRANCH   7  16
ATOM     16  C   UNL A   1      40.820  21.099  27.005  1.00  0.00     0.294 C 
ATOM     17  O   UNL A   1      40.828  20.416  28.032  1.00  0.00    -0.265 OA
BRANCH  16  18
ATOM     18  C   UNL A   1      39.610  21.263  26.212  1.00  0.00     0.192 A 
ATOM     19  C   UNL A   1      37.013  23.641  25.535  1.00  0.00     0.087 C 
ATOM     20  C   UNL A   1      37.835  22.415  25.561  1.00  0.00     0.101 A 
ATOM     21  C   UNL A   1      37.681  21.149  25.047  1.00  0.00     0.046 A 
ATOM     22  O   UNL A   1      39.001  22.494  26.255  1.00  0.00    -0.456 OA
ATOM     23  C   UNL A   1      38.816  20.409  25.466  1.00  0.00     0.056 A 
ENDBRANCH  16  18
ENDBRANCH   7  16
ENDBRANCH   4   6
ENDBRANCH   3   4
ENDBRANCH   2   3
ENDBRANCH   1   2
BRANCH   1  24
ATOM     24  O   UNL A   1      41.694  27.315  25.512  1.00  0.00    -0.458 OA
BRANCH  24  25
ATOM     25  C   UNL A   1      40.756  26.683  26.257  1.00  0.00     0.338 C 
ATOM     26  O   UNL A   1      40.297  25.571  26.055  1.00  0.00    -0.246 OA
BRANCH  25  27
ATOM     27  C   UNL A   1      40.444  27.454  27.472  1.00  0.00     0.060 A 
ATOM     28  C   UNL A   1      40.956  28.751  27.566  1.00  0.00     0.016 A 
ATOM     29  C   UNL A   1      39.773  26.877  28.551  1.00  0.00     0.016 A 
ATOM     30  C   UNL A   1      40.827  29.470  28.750  1.00  0.00     0.010 A 
ATOM     31  C   UNL A   1      39.646  27.599  29.743  1.00  0.00     0.010 A 
ATOM     32  C   UNL A   1      40.198  28.889  29.856  1.00  0.00    -0.014 A 
BRANCH  32  33
ATOM     33  C   UNL A   1      40.217  29.603  31.154  1.00  0.00     0.031 A 
ATOM     34  C   UNL A   1      41.347  29.359  32.116  1.00  0.00     0.074 A 
ATOM     35  C   UNL A   1      39.263  30.507  31.445  1.00  0.00     0.049 A 
ATOM     36  N   UNL A   1      41.540  29.861  33.308  1.00  0.00    -0.248 NA
ATOM     37  C   UNL A   1      42.398  28.427  31.676  1.00  0.00     0.031 C 
ATOM     38  C   UNL A   1      38.148  30.870  30.570  1.00  0.00     0.029 A 
ATOM     39  N   UNL A   1      39.086  31.290  32.557  1.00  0.00    -0.354 N 
ATOM     40  C   UNL A   1      42.723  29.294  33.770  1.00  0.00     0.074 A 
ATOM     41  C   UNL A   1      43.194  28.398  32.736  1.00  0.00     0.031 C 
ATOM     42  C   UNL A   1      37.407  31.812  31.176  1.00  0.00     0.029 A 
ATOM     43  C   UNL A   1      37.973  32.092  32.493  1.00  0.00     0.049 A 
ATOM     44  H   UNL A   1      39.700  31.278  33.327  1.00  0.00     0.167 HD
ATOM     45  C   UNL A   1      43.360  29.504  34.946  1.00  0.00     0.031 A 
ATOM     46  C   UNL A   1      37.460  32.945  33.401  1.00  0.00     0.031 A 
ATOM     47  C   UNL A   1      42.893  30.399  35.971  1.00  0.00     0.049 A 
ATOM     48  C   UNL A   1      38.163  33.130  34.717  1.00  0.00     0.074 A 
ATOM     49  C   UNL A   1      43.462  30.672  37.202  1.00  0.00     0.029 A 
ATOM     50  N   UNL A   1      41.746  31.173  35.879  1.00  0.00    -0.354 N 
ATOM     51  N   UNL A   1      39.269  32.571  35.147  1.00  0.00    -0.248 NA
ATOM     52  C   UNL A   1      37.550  34.065  35.672  1.00  0.00     0.031 C 
ATOM     53  C   UNL A   1      42.640  31.587  37.871  1.00  0.00     0.029 A 
ATOM     54  C   UNL A   1      41.583  31.916  37.037  1.00  0.00     0.049 A 
ATOM     55  H   UNL A   1      41.138  31.193  35.106  1.00  0.00     0.167 HD
ATOM     56  C   UNL A   1      39.495  33.101  36.411  1.00  0.00     0.074 A 
ATOM     57  C   UNL A   1      38.418  34.034  36.673  1.00  0.00     0.031 C 
ATOM     58  C   UNL A   1      40.505  32.840  37.278  1.00  0.00     0.031 A 
BRANCH  45  59
ATOM     59  C   UNL A   1      44.614  28.712  35.201  1.00  0.00    -0.014 A 
ATOM     60  C   UNL A   1      45.878  29.214  34.844  1.00  0.00     0.010 A 
ATOM     61  C   UNL A   1      44.524  27.452  35.819  1.00  0.00     0.010 A 
ATOM     62  C   UNL A   1      47.028  28.449  35.065  1.00  0.00     0.020 A 
ATOM     63  C   UNL A   1      45.674  26.695  36.061  1.00  0.00     0.020 A 
ATOM     64  C   UNL A   1      46.918  27.191  35.664  1.00  0.00     0.054 A 
BRANCH  64  65
ATOM     65  S   UNL A   1      48.422  26.216  35.942  1.00  0.00     0.124 S 
ATOM     66  O   UNL A   1      47.993  24.878  35.538  1.00  0.00    -0.237 OA
ATOM     67  O   UNL A   1      49.392  26.857  35.058  1.00  0.00    -0.237 OA
ATOM     68  O   UNL A   1      48.682  26.380  37.370  1.00  0.00    -0.744 OA
ENDBRANCH  64  65
ENDBRANCH  45  59
BRANCH  46  69
ATOM     69  C   UNL A   1      36.200  33.676  33.098  1.00  0.00    -0.014 A 
ATOM     70  C   UNL A   1      34.952  33.123  33.428  1.00  0.00     0.010 A 
ATOM     71  C   UNL A   1      36.249  34.941  32.484  1.00  0.00     0.010 A 
ATOM     72  C   UNL A   1      33.772  33.817  33.138  1.00  0.00     0.020 A 
ATOM     73  C   UNL A   1      35.075  35.647  32.215  1.00  0.00     0.020 A 
ATOM     74  C   UNL A   1      33.842  35.076  32.534  1.00  0.00     0.054 A 
BRANCH  74  75
ATOM     75  S   UNL A   1      32.306  35.988  32.217  1.00  0.00     0.124 S 
ATOM     76  O   UNL A   1      32.430  36.306  30.798  1.00  0.00    -0.237 OA
ATOM     77  O   UNL A   1      31.276  35.009  32.558  1.00  0.00    -0.237 OA
ATOM     78  O   UNL A   1      32.394  37.128  33.126  1.00  0.00    -0.744 OA
ENDBRANCH  74  75
ENDBRANCH  46  69
BRANCH  58  79
ATOM     79  C   UNL A   1      40.511  33.598  38.578  1.00  0.00    -0.014 A 
ATOM     80  C   UNL A   1      41.316  34.737  38.751  1.00  0.00     0.010 A 
ATOM     81  C   UNL A   1      39.662  33.189  39.622  1.00  0.00     0.010 A 
ATOM     82  C   UNL A   1      41.293  35.439  39.959  1.00  0.00     0.020 A 
ATOM     83  C   UNL A   1      39.620  33.901  40.824  1.00  0.00     0.020 A 
ATOM     84  C   UNL A   1      40.448  35.014  40.990  1.00  0.00     0.054 A 
BRANCH  84  85
ATOM     85  S   UNL A   1      40.402  35.962  42.535  1.00  0.00     0.124 S 
ATOM     86  O   UNL A   1      38.969  36.032  42.807  1.00  0.00    -0.237 OA
ATOM     87  O   UNL A   1      41.174  35.127  43.452  1.00  0.00    -0.237 OA
ATOM     88  O   UNL A   1      41.033  37.231  42.181  1.00  0.00    -0.744 OA
ENDBRANCH  84  85
ENDBRANCH  58  79
ENDBRANCH  32  33
ENDBRANCH  25  27
ENDBRANCH  24  25
ENDBRANCH   1  24
TORSDOF 16
ENDMDL
MODEL 3
REMARK VINA RESULT:     -11.0      1.904      2.396
REMARK SMILES Cc1ccc(C(=O)N2C[C@H](C(=O)OCCOC(=O)c3ccc(-c4c5nc(c(-c6ccc(S(=O)(=O)[O-])cc6)c6ccc([nH]6)c(-c6ccc(S(=O)(=O)[O-])cc6)c6nc(c(-c7ccc(S(=O)(=O)[O-])cc7)c7ccc4[nH]7)C=C6)C=C5)cc3)Oc3ccccc32)o1
REMARK SMILES IDX 15 1 14 2 13 3 11 4 12 5 10 6 8 7 9 8 85 9 80 10 84 11 79 12
REMARK SMILES IDX 81 13 83 14 82 15 6 16 7 17 5 18 1 19 2 20 3 21 86 22 4 23
REMARK SMILES IDX 16 24 17 25 18 26 19 27 20 28 78 29 21 30 77 31 22 32 23 33
REMARK SMILES IDX 24 34 71 35 25 36 76 37 70 38 72 39 26 40 75 41 69 42 68 43
REMARK SMILES IDX 27 45 57 46 38 47 56 48 39 49 42 50 55 51 73 52 40 53 41 54
REMARK SMILES IDX 54 56 74 57 43 58 28 59 29 60 37 61 30 62 36 63 31 64 32 65
REMARK SMILES IDX 33 66 34 67 35 68 58 69 59 70 67 71 60 72 66 73 61 74 62 75
REMARK SMILES IDX 63 76 64 77 65 78 44 79 45 80 53 81 46 82 52 83 47 84 48 85
REMARK SMILES IDX 49 86 50 87 51 88
REMARK H PARENT 72 44 42 55
REMARK Flexibility Score: inf
ROOT
ATOM      1  C   UNL A   1      35.526  23.325  26.129  1.00  0.00     0.275 C 
ENDROOT
BRANCH   1   2
ATOM      2  C   UNL A   1      34.303  23.952  25.447  1.00  0.00     0.274 C 
BRANCH   2   3
ATOM      3  O   UNL A   1      33.074  23.261  25.760  1.00  0.00    -0.459 OA
BRANCH   3   4
ATOM      4  C   UNL A   1      32.155  23.992  26.449  1.00  0.00     0.349 C 
ATOM      5  O   UNL A   1      31.502  23.559  27.394  1.00  0.00    -0.248 OA
BRANCH   4   6
ATOM      6  C   UNL A   1      31.976  25.405  25.918  1.00  0.00     0.302 C 
ATOM      7  N   UNL A   1      30.772  26.982  24.487  1.00  0.00    -0.298 N 
ATOM      8  C   UNL A   1      30.743  25.618  25.043  1.00  0.00     0.183 C 
ATOM      9  C   UNL A   1      31.351  27.981  25.336  1.00  0.00     0.087 A 
ATOM     10  C   UNL A   1      31.882  27.610  26.587  1.00  0.00     0.144 A 
ATOM     11  C   UNL A   1      31.361  29.338  24.991  1.00  0.00     0.030 A 
ATOM     12  O   UNL A   1      31.943  26.307  27.028  1.00  0.00    -0.475 OA
ATOM     13  C   UNL A   1      32.391  28.569  27.465  1.00  0.00     0.049 A 
ATOM     14  C   UNL A   1      31.892  30.295  25.860  1.00  0.00     0.002 A 
ATOM     15  C   UNL A   1      32.403  29.912  27.097  1.00  0.00     0.004 A 
BRANCH   7  16
ATOM     16  C   UNL A   1      30.447  27.243  23.147  1.00  0.00     0.294 C 
ATOM     17  O   UNL A   1      31.187  26.872  22.233  1.00  0.00    -0.265 OA
BRANCH  16  18
ATOM     18  C   UNL A   1      29.255  28.038  22.885  1.00  0.00     0.192 A 
ATOM     19  C   UNL A   1      28.177  30.955  21.101  1.00  0.00     0.087 C 
ATOM     20  C   UNL A   1      28.214  29.766  21.975  1.00  0.00     0.101 A 
ATOM     21  C   UNL A   1      27.311  29.182  22.833  1.00  0.00     0.046 A 
ATOM     22  O   UNL A   1      29.383  29.075  21.993  1.00  0.00    -0.456 OA
ATOM     23  C   UNL A   1      27.979  28.076  23.419  1.00  0.00     0.056 A 
ENDBRANCH  16  18
ENDBRANCH   7  16
ENDBRANCH   4   6
ENDBRANCH   3   4
ENDBRANCH   2   3
ENDBRANCH   1   2
BRANCH   1  24
ATOM     24  O   UNL A   1      36.770  23.738  25.533  1.00  0.00    -0.458 OA
BRANCH  24  25
ATOM     25  C   UNL A   1      37.867  23.145  26.059  1.00  0.00     0.338 C 
ATOM     26  O   UNL A   1      38.133  21.955  26.027  1.00  0.00    -0.246 OA
BRANCH  25  27
ATOM     27  C   UNL A   1      38.816  24.149  26.566  1.00  0.00     0.060 A 
ATOM     28  C   UNL A   1      38.779  24.446  27.931  1.00  0.00     0.016 A 
ATOM     29  C   UNL A   1      39.638  24.878  25.705  1.00  0.00     0.016 A 
ATOM     30  C   UNL A   1      39.539  25.493  28.441  1.00  0.00     0.010 A 
ATOM     31  C   UNL A   1      40.400  25.934  26.217  1.00  0.00     0.010 A 
ATOM     32  C   UNL A   1      40.333  26.263  27.584  1.00  0.00    -0.014 A 
BRANCH  32  33
ATOM     33  C   UNL A   1      41.004  27.473  28.114  1.00  0.00     0.031 A 
ATOM     34  C   UNL A   1      42.501  27.587  28.025  1.00  0.00     0.074 A 
ATOM     35  C   UNL A   1      40.276  28.486  28.617  1.00  0.00     0.049 A 
ATOM     36  N   UNL A   1      43.282  28.547  28.448  1.00  0.00    -0.248 NA
ATOM     37  C   UNL A   1      43.210  26.475  27.373  1.00  0.00     0.031 C 
ATOM     38  C   UNL A   1      38.815  28.515  28.706  1.00  0.00     0.029 A 
ATOM     39  N   UNL A   1      40.668  29.692  29.141  1.00  0.00    -0.354 N 
ATOM     40  C   UNL A   1      44.576  28.148  28.131  1.00  0.00     0.074 A 
ATOM     41  C   UNL A   1      44.475  26.852  27.495  1.00  0.00     0.031 C 
ATOM     42  C   UNL A   1      38.434  29.685  29.244  1.00  0.00     0.029 A 
ATOM     43  C   UNL A   1      39.621  30.471  29.571  1.00  0.00     0.049 A 
ATOM     44  H   UNL A   1      41.610  29.971  29.202  1.00  0.00     0.167 HD
ATOM     45  C   UNL A   1      45.742  28.803  28.347  1.00  0.00     0.031 A 
ATOM     46  C   UNL A   1      39.621  31.676  30.173  1.00  0.00     0.031 A 
ATOM     47  C   UNL A   1      45.840  30.094  28.975  1.00  0.00     0.049 A 
ATOM     48  C   UNL A   1      40.931  32.366  30.440  1.00  0.00     0.074 A 
ATOM     49  C   UNL A   1      46.976  30.835  29.249  1.00  0.00     0.029 A 
ATOM     50  N   UNL A   1      44.758  30.838  29.421  1.00  0.00    -0.354 N 
ATOM     51  N   UNL A   1      42.147  31.966  30.153  1.00  0.00    -0.248 NA
ATOM     52  C   UNL A   1      40.869  33.673  31.110  1.00  0.00     0.031 C 
ATOM     53  C   UNL A   1      46.583  32.015  29.892  1.00  0.00     0.029 A 
ATOM     54  C   UNL A   1      45.200  32.026  29.979  1.00  0.00     0.049 A 
ATOM     55  H   UNL A   1      43.816  30.564  29.351  1.00  0.00     0.167 HD
ATOM     56  C   UNL A   1      42.992  32.979  30.588  1.00  0.00     0.074 A 
ATOM     57  C   UNL A   1      42.149  34.017  31.147  1.00  0.00     0.031 C 
ATOM     58  C   UNL A   1      44.345  33.047  30.529  1.00  0.00     0.031 A 
BRANCH  45  59
ATOM     59  C   UNL A   1      47.010  28.106  27.936  1.00  0.00    -0.014 A 
ATOM     60  C   UNL A   1      47.651  27.193  28.791  1.00  0.00     0.010 A 
ATOM     61  C   UNL A   1      47.560  28.361  26.667  1.00  0.00     0.010 A 
ATOM     62  C   UNL A   1      48.844  26.578  28.400  1.00  0.00     0.020 A 
ATOM     63  C   UNL A   1      48.741  27.731  26.264  1.00  0.00     0.020 A 
ATOM     64  C   UNL A   1      49.386  26.857  27.142  1.00  0.00     0.054 A 
BRANCH  64  65
ATOM     65  S   UNL A   1      50.934  26.047  26.654  1.00  0.00     0.124 S 
ATOM     66  O   UNL A   1      50.821  26.035  25.196  1.00  0.00    -0.237 OA
ATOM     67  O   UNL A   1      51.954  26.942  27.196  1.00  0.00    -0.237 OA
ATOM     68  O   UNL A   1      50.857  24.737  27.294  1.00  0.00    -0.744 OA
ENDBRANCH  64  65
ENDBRANCH  45  59
BRANCH  46  69
ATOM     69  C   UNL A   1      38.334  32.298  30.581  1.00  0.00    -0.014 A 
ATOM     70  C   UNL A   1      37.796  32.066  31.859  1.00  0.00     0.010 A 
ATOM     71  C   UNL A   1      37.643  33.140  29.689  1.00  0.00     0.010 A 
ATOM     72  C   UNL A   1      36.584  32.653  32.233  1.00  0.00     0.020 A 
ATOM     73  C   UNL A   1      36.444  33.747  30.069  1.00  0.00     0.020 A 
ATOM     74  C   UNL A   1      35.915  33.492  31.335  1.00  0.00     0.054 A 
BRANCH  74  75
ATOM     75  S   UNL A   1      34.373  34.292  31.857  1.00  0.00     0.124 S 
ATOM     76  O   UNL A   1      33.691  34.494  30.583  1.00  0.00    -0.237 OA
ATOM     77  O   UNL A   1      33.778  33.294  32.743  1.00  0.00    -0.237 OA
ATOM     78  O   UNL A   1      34.831  35.509  32.524  1.00  0.00    -0.744 OA
ENDBRANCH  74  75
ENDBRANCH  46  69
BRANCH  58  79
ATOM     79  C   UNL A   1      44.997  34.297  31.053  1.00  0.00    -0.014 A 
ATOM     80  C   UNL A   1      45.199  35.414  30.223  1.00  0.00     0.010 A 
ATOM     81  C   UNL A   1      45.367  34.370  32.408  1.00  0.00     0.010 A 
ATOM     82  C   UNL A   1      45.788  36.574  30.734  1.00  0.00     0.020 A 
ATOM     83  C   UNL A   1      45.936  35.536  32.928  1.00  0.00     0.020 A 
ATOM     84  C   UNL A   1      46.157  36.626  32.082  1.00  0.00     0.054 A 
BRANCH  84  85
ATOM     85  S   UNL A   1      46.882  38.155  32.736  1.00  0.00     0.124 S 
ATOM     86  O   UNL A   1      48.125  37.671  33.330  1.00  0.00    -0.237 OA
ATOM     87  O   UNL A   1      47.038  38.978  31.539  1.00  0.00    -0.237 OA
ATOM     88  O   UNL A   1      45.881  38.634  33.685  1.00  0.00    -0.744 OA
ENDBRANCH  84  85
ENDBRANCH  58  79
ENDBRANCH  32  33
ENDBRANCH  25  27
ENDBRANCH  24  25
ENDBRANCH   1  24
TORSDOF 16
ENDMDL
