MODEL 1
REMARK VINA RESULT:     -10.0      0.000      0.000
REMARK SMILES C[C@@H](C(=O)OCCOC(=O)c1ccc(-c2c3nc(c(-c4ccc(S(=O)(=O)[O-])cc4)c4ccc([nH]4)c(-c4ccc(S(=O)(=O)[O-])cc4)c4nc(c(-c5ccc(S(=O)(=O)[O-])cc5)c5ccc2[nH]5)C=C4)C=C3)cc1)c1ccc(C(=O)c2cccs2)cc1
REMARK SMILES IDX 6 1 5 2 3 3 4 4 2 5 1 6 71 7 72 8 83 9 73 10 82 11 74 12
REMARK SMILES IDX 75 13 76 14 77 15 78 16 81 17 79 18 80 19 7 20 8 21 9 22
REMARK SMILES IDX 10 23 11 24 12 25 70 26 13 27 69 28 14 29 15 30 16 31 63 32
REMARK SMILES IDX 17 33 68 34 62 35 64 36 18 37 67 38 61 39 60 40 19 42 49 43
REMARK SMILES IDX 30 44 48 45 31 46 34 47 47 48 65 49 32 50 33 51 46 53 66 54
REMARK SMILES IDX 35 55 20 56 21 57 29 58 22 59 28 60 23 61 24 62 25 63 26 64
REMARK SMILES IDX 27 65 50 66 51 67 59 68 52 69 58 70 53 71 54 72 55 73 56 74
REMARK SMILES IDX 57 75 36 76 37 77 45 78 38 79 44 80 39 81 40 82 41 83 42 84
REMARK SMILES IDX 43 85
REMARK H PARENT 64 41 34 52
REMARK Flexibility Score: inf
ROOT
ATOM      1  C   UNL A   1      31.716  29.877  26.117  1.00  0.00     0.274 C 
ENDROOT
BRANCH   1   2
ATOM      2  O   UNL A   1      31.320  28.592  25.596  1.00  0.00    -0.462 OA
BRANCH   2   3
ATOM      3  C   UNL A   1      31.445  28.410  24.252  1.00  0.00     0.313 C 
ATOM      4  O   UNL A   1      30.493  28.316  23.485  1.00  0.00    -0.252 OA
BRANCH   3   5
ATOM      5  C   UNL A   1      32.908  28.264  23.811  1.00  0.00     0.126 C 
ATOM      6  C   UNL A   1      33.163  28.728  22.374  1.00  0.00     0.025 C 
BRANCH   5   7
ATOM      7  C   UNL A   1      33.451  26.864  24.097  1.00  0.00    -0.034 A 
ATOM      8  C   UNL A   1      33.782  26.030  23.021  1.00  0.00     0.005 A 
ATOM      9  C   UNL A   1      33.695  26.385  25.394  1.00  0.00     0.005 A 
ATOM     10  C   UNL A   1      34.319  24.757  23.235  1.00  0.00     0.012 A 
ATOM     11  C   UNL A   1      34.251  25.110  25.608  1.00  0.00     0.012 A 
ATOM     12  C   UNL A   1      34.555  24.271  24.532  1.00  0.00     0.023 A 
BRANCH  12  13
ATOM     13  C   UNL A   1      35.194  22.913  24.655  1.00  0.00     0.202 C 
ATOM     14  O   UNL A   1      34.498  21.960  24.298  1.00  0.00    -0.288 OA
BRANCH  13  15
ATOM     15  C   UNL A   1      36.549  22.735  25.162  1.00  0.00     0.075 A 
ATOM     16  C   UNL A   1      37.467  23.634  25.677  1.00  0.00     0.024 A 
ATOM     17  S   UNL A   1      37.164  21.128  25.246  1.00  0.00    -0.140 S 
ATOM     18  C   UNL A   1      38.688  23.011  26.075  1.00  0.00     0.012 A 
ATOM     19  C   UNL A   1      38.654  21.649  25.895  1.00  0.00     0.065 A 
ENDBRANCH  13  15
ENDBRANCH  12  13
ENDBRANCH   5   7
ENDBRANCH   3   5
ENDBRANCH   2   3
ENDBRANCH   1   2
BRANCH   1  20
ATOM     20  C   UNL A   1      32.671  29.700  27.294  1.00  0.00     0.275 C 
BRANCH  20  21
ATOM     21  O   UNL A   1      33.955  30.254  26.960  1.00  0.00    -0.458 OA
BRANCH  21  22
ATOM     22  C   UNL A   1      34.612  30.871  27.967  1.00  0.00     0.338 C 
ATOM     23  O   UNL A   1      34.242  31.827  28.622  1.00  0.00    -0.246 OA
BRANCH  22  24
ATOM     24  C   UNL A   1      35.895  30.187  28.196  1.00  0.00     0.060 A 
ATOM     25  C   UNL A   1      36.137  29.586  29.428  1.00  0.00     0.016 A 
ATOM     26  C   UNL A   1      36.904  30.254  27.234  1.00  0.00     0.016 A 
ATOM     27  C   UNL A   1      37.421  29.143  29.737  1.00  0.00     0.010 A 
ATOM     28  C   UNL A   1      38.168  29.722  27.520  1.00  0.00     0.010 A 
ATOM     29  C   UNL A   1      38.458  29.205  28.794  1.00  0.00    -0.014 A 
BRANCH  29  30
ATOM     30  C   UNL A   1      39.844  28.794  29.172  1.00  0.00     0.031 A 
ATOM     31  C   UNL A   1      40.696  29.681  30.051  1.00  0.00     0.074 A 
ATOM     32  C   UNL A   1      40.333  27.596  28.787  1.00  0.00     0.049 A 
ATOM     33  N   UNL A   1      41.962  29.564  30.365  1.00  0.00    -0.248 NA
ATOM     34  C   UNL A   1      40.045  30.862  30.641  1.00  0.00     0.031 C 
ATOM     35  C   UNL A   1      39.620  26.607  27.975  1.00  0.00     0.029 A 
ATOM     36  N   UNL A   1      41.536  26.990  29.059  1.00  0.00    -0.354 N 
ATOM     37  C   UNL A   1      42.266  30.669  31.152  1.00  0.00     0.074 A 
ATOM     38  C   UNL A   1      41.061  31.464  31.244  1.00  0.00     0.031 C 
ATOM     39  C   UNL A   1      40.362  25.493  27.884  1.00  0.00     0.029 A 
ATOM     40  C   UNL A   1      41.640  25.716  28.551  1.00  0.00     0.049 A 
ATOM     41  H   UNL A   1      42.255  27.427  29.571  1.00  0.00     0.167 HD
ATOM     42  C   UNL A   1      43.432  30.982  31.767  1.00  0.00     0.031 A 
ATOM     43  C   UNL A   1      42.654  24.831  28.587  1.00  0.00     0.031 A 
ATOM     44  C   UNL A   1      44.608  30.155  31.756  1.00  0.00     0.049 A 
ATOM     45  C   UNL A   1      43.946  25.215  29.246  1.00  0.00     0.074 A 
ATOM     46  C   UNL A   1      45.840  30.401  32.339  1.00  0.00     0.029 A 
ATOM     47  N   UNL A   1      44.690  28.903  31.166  1.00  0.00    -0.354 N 
ATOM     48  N   UNL A   1      44.251  26.323  29.876  1.00  0.00    -0.248 NA
ATOM     49  C   UNL A   1      45.044  24.239  29.170  1.00  0.00     0.031 C 
ATOM     50  C   UNL A   1      46.672  29.303  32.089  1.00  0.00     0.029 A 
ATOM     51  C   UNL A   1      45.948  28.363  31.375  1.00  0.00     0.049 A 
ATOM     52  H   UNL A   1      43.961  28.463  30.671  1.00  0.00     0.167 HD
ATOM     53  C   UNL A   1      45.578  26.182  30.262  1.00  0.00     0.074 A 
ATOM     54  C   UNL A   1      46.010  24.873  29.822  1.00  0.00     0.031 C 
ATOM     55  C   UNL A   1      46.372  27.068  30.913  1.00  0.00     0.031 A 
BRANCH  42  56
ATOM     56  C   UNL A   1      43.493  32.288  32.510  1.00  0.00    -0.014 A 
ATOM     57  C   UNL A   1      43.851  33.479  31.856  1.00  0.00     0.010 A 
ATOM     58  C   UNL A   1      43.148  32.328  33.873  1.00  0.00     0.010 A 
ATOM     59  C   UNL A   1      43.903  34.684  32.562  1.00  0.00     0.020 A 
ATOM     60  C   UNL A   1      43.179  33.535  34.579  1.00  0.00     0.020 A 
ATOM     61  C   UNL A   1      43.575  34.702  33.921  1.00  0.00     0.054 A 
BRANCH  61  62
ATOM     62  S   UNL A   1      43.638  36.281  34.814  1.00  0.00     0.124 S 
ATOM     63  O   UNL A   1      42.955  35.944  36.061  1.00  0.00    -0.237 OA
ATOM     64  O   UNL A   1      45.073  36.528  34.933  1.00  0.00    -0.237 OA
ATOM     65  O   UNL A   1      42.920  37.203  33.938  1.00  0.00    -0.744 OA
ENDBRANCH  61  62
ENDBRANCH  42  56
BRANCH  43  66
ATOM     66  C   UNL A   1      42.502  23.510  27.917  1.00  0.00    -0.014 A 
ATOM     67  C   UNL A   1      42.973  23.309  26.608  1.00  0.00     0.010 A 
ATOM     68  C   UNL A   1      41.909  22.435  28.606  1.00  0.00     0.010 A 
ATOM     69  C   UNL A   1      42.854  22.055  26.000  1.00  0.00     0.020 A 
ATOM     70  C   UNL A   1      41.814  21.176  28.011  1.00  0.00     0.020 A 
ATOM     71  C   UNL A   1      42.277  20.996  26.706  1.00  0.00     0.054 A 
BRANCH  71  72
ATOM     72  S   UNL A   1      42.199  19.351  25.943  1.00  0.00     0.124 S 
ATOM     73  O   UNL A   1      40.770  19.202  25.688  1.00  0.00    -0.237 OA
ATOM     74  O   UNL A   1      43.043  19.498  24.759  1.00  0.00    -0.237 OA
ATOM     75  O   UNL A   1      42.746  18.474  26.978  1.00  0.00    -0.744 OA
ENDBRANCH  71  72
ENDBRANCH  43  66
BRANCH  55  76
ATOM     76  C   UNL A   1      47.790  26.650  31.177  1.00  0.00    -0.014 A 
ATOM     77  C   UNL A   1      48.805  26.942  30.249  1.00  0.00     0.010 A 
ATOM     78  C   UNL A   1      48.119  25.993  32.375  1.00  0.00     0.010 A 
ATOM     79  C   UNL A   1      50.125  26.563  30.504  1.00  0.00     0.020 A 
ATOM     80  C   UNL A   1      49.441  25.626  32.641  1.00  0.00     0.020 A 
ATOM     81  C   UNL A   1      50.434  25.902  31.697  1.00  0.00     0.054 A 
BRANCH  81  82
ATOM     82  S   UNL A   1      52.160  25.451  32.028  1.00  0.00     0.124 S 
ATOM     83  O   UNL A   1      52.840  25.956  30.839  1.00  0.00    -0.237 OA
ATOM     84  O   UNL A   1      52.451  26.167  33.269  1.00  0.00    -0.237 OA
ATOM     85  O   UNL A   1      52.118  23.996  32.153  1.00  0.00    -0.744 OA
ENDBRANCH  81  82
ENDBRANCH  55  76
ENDBRANCH  29  30
ENDBRANCH  22  24
ENDBRANCH  21  22
ENDBRANCH  20  21
ENDBRANCH   1  20
TORSDOF 17
ENDMDL
MODEL 2
REMARK VINA RESULT:      -9.8      4.111     10.524
REMARK SMILES C[C@@H](C(=O)OCCOC(=O)c1ccc(-c2c3nc(c(-c4ccc(S(=O)(=O)[O-])cc4)c4ccc([nH]4)c(-c4ccc(S(=O)(=O)[O-])cc4)c4nc(c(-c5ccc(S(=O)(=O)[O-])cc5)c5ccc2[nH]5)C=C4)C=C3)cc1)c1ccc(C(=O)c2cccs2)cc1
REMARK SMILES IDX 6 1 5 2 3 3 4 4 2 5 1 6 71 7 72 8 83 9 73 10 82 11 74 12
REMARK SMILES IDX 75 13 76 14 77 15 78 16 81 17 79 18 80 19 7 20 8 21 9 22
REMARK SMILES IDX 10 23 11 24 12 25 70 26 13 27 69 28 14 29 15 30 16 31 63 32
REMARK SMILES IDX 17 33 68 34 62 35 64 36 18 37 67 38 61 39 60 40 19 42 49 43
REMARK SMILES IDX 30 44 48 45 31 46 34 47 47 48 65 49 32 50 33 51 46 53 66 54
REMARK SMILES IDX 35 55 20 56 21 57 29 58 22 59 28 60 23 61 24 62 25 63 26 64
REMARK SMILES IDX 27 65 50 66 51 67 59 68 52 69 58 70 53 71 54 72 55 73 56 74
REMARK SMILES IDX 57 75 36 76 37 77 45 78 38 79 44 80 39 81 40 82 41 83 42 84
REMARK SMILES IDX 43 85
REMARK H PARENT 64 41 34 52
REMARK Flexibility Score: inf
ROOT
ATOM      1  C   UNL A   1      38.848  21.513  25.749  1.00  0.00     0.274 C 
ENDROOT
BRANCH   1   2
ATOM      2  O   UNL A   1      37.720  22.413  25.717  1.00  0.00    -0.462 OA
BRANCH   2   3
ATOM      3  C   UNL A   1      36.726  22.119  24.833  1.00  0.00     0.313 C 
ATOM      4  O   UNL A   1      36.711  22.508  23.670  1.00  0.00    -0.252 OA
BRANCH   3   5
ATOM      5  C   UNL A   1      35.591  21.308  25.472  1.00  0.00     0.126 C 
ATOM      6  C   UNL A   1      35.411  19.917  24.856  1.00  0.00     0.025 C 
BRANCH   5   7
ATOM      7  C   UNL A   1      34.290  22.107  25.542  1.00  0.00    -0.034 A 
ATOM      8  C   UNL A   1      34.080  22.970  26.627  1.00  0.00     0.005 A 
ATOM      9  C   UNL A   1      33.311  22.070  24.537  1.00  0.00     0.005 A 
ATOM     10  C   UNL A   1      32.923  23.750  26.712  1.00  0.00     0.012 A 
ATOM     11  C   UNL A   1      32.155  22.868  24.616  1.00  0.00     0.012 A 
ATOM     12  C   UNL A   1      31.936  23.707  25.713  1.00  0.00     0.023 A 
BRANCH  12  13
ATOM     13  C   UNL A   1      30.758  24.632  25.866  1.00  0.00     0.202 C 
ATOM     14  O   UNL A   1      29.981  24.362  26.785  1.00  0.00    -0.288 OA
BRANCH  13  15
ATOM     15  C   UNL A   1      30.547  25.775  24.985  1.00  0.00     0.075 A 
ATOM     16  C   UNL A   1      29.438  26.199  24.274  1.00  0.00     0.024 A 
ATOM     17  S   UNL A   1      31.843  26.895  24.809  1.00  0.00    -0.140 S 
ATOM     18  C   UNL A   1      29.677  27.400  23.541  1.00  0.00     0.012 A 
ATOM     19  C   UNL A   1      30.947  27.885  23.747  1.00  0.00     0.065 A 
ENDBRANCH  13  15
ENDBRANCH  12  13
ENDBRANCH   5   7
ENDBRANCH   3   5
ENDBRANCH   2   3
ENDBRANCH   1   2
BRANCH   1  20
ATOM     20  C   UNL A   1      39.986  22.120  26.564  1.00  0.00     0.275 C 
BRANCH  20  21
ATOM     21  O   UNL A   1      39.677  23.490  26.875  1.00  0.00    -0.458 OA
BRANCH  21  22
ATOM     22  C   UNL A   1      40.704  24.364  26.773  1.00  0.00     0.338 C 
ATOM     23  O   UNL A   1      41.698  24.268  26.079  1.00  0.00    -0.246 OA
BRANCH  22  24
ATOM     24  C   UNL A   1      40.440  25.520  27.644  1.00  0.00     0.060 A 
ATOM     25  C   UNL A   1      41.274  26.633  27.573  1.00  0.00     0.016 A 
ATOM     26  C   UNL A   1      39.445  25.448  28.620  1.00  0.00     0.016 A 
ATOM     27  C   UNL A   1      41.179  27.628  28.543  1.00  0.00     0.010 A 
ATOM     28  C   UNL A   1      39.296  26.498  29.535  1.00  0.00     0.010 A 
ATOM     29  C   UNL A   1      40.195  27.578  29.542  1.00  0.00    -0.014 A 
BRANCH  29  30
ATOM     30  C   UNL A   1      40.159  28.617  30.615  1.00  0.00     0.031 A 
ATOM     31  C   UNL A   1      41.196  28.620  31.715  1.00  0.00     0.074 A 
ATOM     32  C   UNL A   1      39.239  29.604  30.585  1.00  0.00     0.049 A 
ATOM     33  N   UNL A   1      41.245  29.346  32.805  1.00  0.00    -0.248 NA
ATOM     34  C   UNL A   1      42.316  27.674  31.582  1.00  0.00     0.031 C 
ATOM     35  C   UNL A   1      38.198  29.766  29.566  1.00  0.00     0.029 A 
ATOM     36  N   UNL A   1      39.053  30.682  31.417  1.00  0.00    -0.354 N 
ATOM     37  C   UNL A   1      42.371  28.920  33.500  1.00  0.00     0.074 A 
ATOM     38  C   UNL A   1      42.962  27.850  32.727  1.00  0.00     0.031 C 
ATOM     39  C   UNL A   1      37.540  30.915  29.786  1.00  0.00     0.029 A 
ATOM     40  C   UNL A   1      38.046  31.526  31.010  1.00  0.00     0.049 A 
ATOM     41  H   UNL A   1      39.591  30.835  32.227  1.00  0.00     0.167 HD
ATOM     42  C   UNL A   1      42.884  29.392  34.661  1.00  0.00     0.031 A 
ATOM     43  C   UNL A   1      37.559  32.652  31.566  1.00  0.00     0.031 A 
ATOM     44  C   UNL A   1      42.355  30.513  35.391  1.00  0.00     0.049 A 
ATOM     45  C   UNL A   1      38.124  33.136  32.869  1.00  0.00     0.074 A 
ATOM     46  C   UNL A   1      42.803  31.051  36.586  1.00  0.00     0.029 A 
ATOM     47  N   UNL A   1      41.288  31.295  34.977  1.00  0.00    -0.354 N 
ATOM     48  N   UNL A   1      39.111  32.638  33.574  1.00  0.00    -0.248 NA
ATOM     49  C   UNL A   1      37.486  34.317  33.469  1.00  0.00     0.031 C 
ATOM     50  C   UNL A   1      41.996  32.150  36.902  1.00  0.00     0.029 A 
ATOM     51  C   UNL A   1      41.065  32.313  35.889  1.00  0.00     0.049 A 
ATOM     52  H   UNL A   1      40.765  31.148  34.155  1.00  0.00     0.167 HD
ATOM     53  C   UNL A   1      39.205  33.438  34.706  1.00  0.00     0.074 A 
ATOM     54  C   UNL A   1      38.196  34.469  34.580  1.00  0.00     0.031 C 
ATOM     55  C   UNL A   1      40.046  33.319  35.762  1.00  0.00     0.031 A 
BRANCH  42  56
ATOM     56  C   UNL A   1      44.091  28.690  35.220  1.00  0.00    -0.014 A 
ATOM     57  C   UNL A   1      45.391  29.121  34.906  1.00  0.00     0.010 A 
ATOM     58  C   UNL A   1      43.918  27.608  36.103  1.00  0.00     0.010 A 
ATOM     59  C   UNL A   1      46.501  28.456  35.434  1.00  0.00     0.020 A 
ATOM     60  C   UNL A   1      45.026  26.953  36.649  1.00  0.00     0.020 A 
ATOM     61  C   UNL A   1      46.311  27.371  36.295  1.00  0.00     0.054 A 
BRANCH  61  62
ATOM     62  S   UNL A   1      47.768  26.531  36.977  1.00  0.00     0.124 S 
ATOM     63  O   UNL A   1      48.658  27.656  37.254  1.00  0.00    -0.237 OA
ATOM     64  O   UNL A   1      47.230  25.854  38.154  1.00  0.00    -0.237 OA
ATOM     65  O   UNL A   1      48.196  25.648  35.895  1.00  0.00    -0.744 OA
ENDBRANCH  61  62
ENDBRANCH  42  56
BRANCH  43  66
ATOM     66  C   UNL A   1      36.426  33.363  30.914  1.00  0.00    -0.014 A 
ATOM     67  C   UNL A   1      35.201  33.529  31.584  1.00  0.00     0.010 A 
ATOM     68  C   UNL A   1      36.583  33.907  29.625  1.00  0.00     0.010 A 
ATOM     69  C   UNL A   1      34.153  34.227  30.975  1.00  0.00     0.020 A 
ATOM     70  C   UNL A   1      35.547  34.627  29.027  1.00  0.00     0.020 A 
ATOM     71  C   UNL A   1      34.333  34.774  29.701  1.00  0.00     0.054 A 
BRANCH  71  72
ATOM     72  S   UNL A   1      33.000  35.749  28.950  1.00  0.00     0.124 S 
ATOM     73  O   UNL A   1      32.375  34.774  28.061  1.00  0.00    -0.237 OA
ATOM     74  O   UNL A   1      32.202  36.157  30.104  1.00  0.00    -0.237 OA
ATOM     75  O   UNL A   1      33.714  36.838  28.284  1.00  0.00    -0.744 OA
ENDBRANCH  71  72
ENDBRANCH  43  66
BRANCH  55  76
ATOM     76  C   UNL A   1      39.901  34.326  36.868  1.00  0.00    -0.014 A 
ATOM     77  C   UNL A   1      39.121  34.033  38.001  1.00  0.00     0.010 A 
ATOM     78  C   UNL A   1      40.575  35.556  36.794  1.00  0.00     0.010 A 
ATOM     79  C   UNL A   1      38.999  34.966  39.034  1.00  0.00     0.020 A 
ATOM     80  C   UNL A   1      40.468  36.486  37.831  1.00  0.00     0.020 A 
ATOM     81  C   UNL A   1      39.669  36.190  38.940  1.00  0.00     0.054 A 
BRANCH  81  82
ATOM     82  S   UNL A   1      39.529  37.374  40.307  1.00  0.00     0.124 S 
ATOM     83  O   UNL A   1      39.506  36.493  41.472  1.00  0.00    -0.237 OA
ATOM     84  O   UNL A   1      40.735  38.187  40.158  1.00  0.00    -0.237 OA
ATOM     85  O   UNL A   1      38.277  38.075  40.029  1.00  0.00    -0.744 OA
ENDBRANCH  81  82
ENDBRANCH  55  76
ENDBRANCH  29  30
ENDBRANCH  22  24
ENDBRANCH  21  22
ENDBRANCH  20  21
ENDBRANCH   1  20
TORSDOF 17
ENDMDL
MODEL 3
REMARK VINA RESULT:      -9.6      3.597      8.992
REMARK SMILES C[C@@H](C(=O)OCCOC(=O)c1ccc(-c2c3nc(c(-c4ccc(S(=O)(=O)[O-])cc4)c4ccc([nH]4)c(-c4ccc(S(=O)(=O)[O-])cc4)c4nc(c(-c5ccc(S(=O)(=O)[O-])cc5)c5ccc2[nH]5)C=C4)C=C3)cc1)c1ccc(C(=O)c2cccs2)cc1
REMARK SMILES IDX 6 1 5 2 3 3 4 4 2 5 1 6 71 7 72 8 83 9 73 10 82 11 74 12
REMARK SMILES IDX 75 13 76 14 77 15 78 16 81 17 79 18 80 19 7 20 8 21 9 22
REMARK SMILES IDX 10 23 11 24 12 25 70 26 13 27 69 28 14 29 15 30 16 31 63 32
REMARK SMILES IDX 17 33 68 34 62 35 64 36 18 37 67 38 61 39 60 40 19 42 49 43
REMARK SMILES IDX 30 44 48 45 31 46 34 47 47 48 65 49 32 50 33 51 46 53 66 54
REMARK SMILES IDX 35 55 20 56 21 57 29 58 22 59 28 60 23 61 24 62 25 63 26 64
REMARK SMILES IDX 27 65 50 66 51 67 59 68 52 69 58 70 53 71 54 72 55 73 56 74
REMARK SMILES IDX 57 75 36 76 37 77 45 78 38 79 44 80 39 81 40 82 41 83 42 84
REMARK SMILES IDX 43 85
REMARK H PARENT 64 41 34 52
REMARK Flexibility Score: inf
ROOT
ATOM      1  C   UNL A   1      33.884  30.901  27.387  1.00  0.00     0.274 C 
ENDROOT
BRANCH   1   2
ATOM      2  O   UNL A   1      32.664  30.250  26.978  1.00  0.00    -0.462 OA
BRANCH   2   3
ATOM      3  C   UNL A   1      32.739  29.434  25.890  1.00  0.00     0.313 C 
ATOM      4  O   UNL A   1      33.357  29.713  24.869  1.00  0.00    -0.252 OA
BRANCH   3   5
ATOM      5  C   UNL A   1      31.904  28.156  26.054  1.00  0.00     0.126 C 
ATOM      6  C   UNL A   1      31.645  27.779  27.516  1.00  0.00     0.025 C 
BRANCH   5   7
ATOM      7  C   UNL A   1      32.464  27.001  25.226  1.00  0.00    -0.034 A 
ATOM      8  C   UNL A   1      33.407  26.141  25.807  1.00  0.00     0.005 A 
ATOM      9  C   UNL A   1      32.036  26.714  23.920  1.00  0.00     0.005 A 
ATOM     10  C   UNL A   1      33.916  25.048  25.099  1.00  0.00     0.012 A 
ATOM     11  C   UNL A   1      32.536  25.604  23.215  1.00  0.00     0.012 A 
ATOM     12  C   UNL A   1      33.497  24.764  23.789  1.00  0.00     0.023 A 
BRANCH  12  13
ATOM     13  C   UNL A   1      34.058  23.529  23.136  1.00  0.00     0.202 C 
ATOM     14  O   UNL A   1      33.735  23.353  21.959  1.00  0.00    -0.288 OA
BRANCH  13  15
ATOM     15  C   UNL A   1      34.928  22.600  23.848  1.00  0.00     0.075 A 
ATOM     16  C   UNL A   1      34.655  21.462  24.585  1.00  0.00     0.024 A 
ATOM     17  S   UNL A   1      36.628  22.850  23.728  1.00  0.00    -0.140 S 
ATOM     18  C   UNL A   1      35.832  20.841  25.101  1.00  0.00     0.012 A 
ATOM     19  C   UNL A   1      36.975  21.496  24.706  1.00  0.00     0.065 A 
ENDBRANCH  13  15
ENDBRANCH  12  13
ENDBRANCH   5   7
ENDBRANCH   3   5
ENDBRANCH   2   3
ENDBRANCH   1   2
BRANCH   1  20
ATOM     20  C   UNL A   1      34.838  29.889  28.017  1.00  0.00     0.275 C 
BRANCH  20  21
ATOM     21  O   UNL A   1      35.908  30.585  28.679  1.00  0.00    -0.458 OA
BRANCH  21  22
ATOM     22  C   UNL A   1      36.573  29.883  29.624  1.00  0.00     0.338 C 
ATOM     23  O   UNL A   1      36.113  29.350  30.616  1.00  0.00    -0.246 OA
BRANCH  22  24
ATOM     24  C   UNL A   1      38.000  29.827  29.269  1.00  0.00     0.060 A 
ATOM     25  C   UNL A   1      38.365  29.702  27.931  1.00  0.00     0.016 A 
ATOM     26  C   UNL A   1      38.968  29.769  30.272  1.00  0.00     0.016 A 
ATOM     27  C   UNL A   1      39.688  29.416  27.603  1.00  0.00     0.010 A 
ATOM     28  C   UNL A   1      40.311  29.574  29.926  1.00  0.00     0.010 A 
ATOM     29  C   UNL A   1      40.683  29.342  28.590  1.00  0.00    -0.014 A 
BRANCH  29  30
ATOM     30  C   UNL A   1      42.080  28.961  28.224  1.00  0.00     0.031 A 
ATOM     31  C   UNL A   1      42.410  27.538  27.834  1.00  0.00     0.074 A 
ATOM     32  C   UNL A   1      43.055  29.893  28.175  1.00  0.00     0.049 A 
ATOM     33  N   UNL A   1      43.580  26.987  27.626  1.00  0.00    -0.248 NA
ATOM     34  C   UNL A   1      41.280  26.608  27.673  1.00  0.00     0.031 C 
ATOM     35  C   UNL A   1      42.889  31.316  28.478  1.00  0.00     0.029 A 
ATOM     36  N   UNL A   1      44.377  29.788  27.814  1.00  0.00    -0.354 N 
ATOM     37  C   UNL A   1      43.330  25.648  27.349  1.00  0.00     0.074 A 
ATOM     38  C   UNL A   1      41.900  25.458  27.445  1.00  0.00     0.031 C 
ATOM     39  C   UNL A   1      44.035  31.961  28.215  1.00  0.00     0.029 A 
ATOM     40  C   UNL A   1      45.046  30.990  27.811  1.00  0.00     0.049 A 
ATOM     41  H   UNL A   1      44.805  28.932  27.579  1.00  0.00     0.167 HD
ATOM     42  C   UNL A   1      44.206  24.669  27.017  1.00  0.00     0.031 A 
ATOM     43  C   UNL A   1      46.332  31.284  27.544  1.00  0.00     0.031 A 
ATOM     44  C   UNL A   1      45.619  24.867  26.831  1.00  0.00     0.049 A 
ATOM     45  C   UNL A   1      47.289  30.178  27.210  1.00  0.00     0.074 A 
ATOM     46  C   UNL A   1      46.585  23.928  26.508  1.00  0.00     0.029 A 
ATOM     47  N   UNL A   1      46.264  26.091  26.909  1.00  0.00    -0.354 N 
ATOM     48  N   UNL A   1      47.050  28.895  27.078  1.00  0.00    -0.248 NA
ATOM     49  C   UNL A   1      48.697  30.555  27.020  1.00  0.00     0.031 C 
ATOM     50  C   UNL A   1      47.817  24.583  26.407  1.00  0.00     0.029 A 
ATOM     51  C   UNL A   1      47.613  25.933  26.637  1.00  0.00     0.049 A 
ATOM     52  H   UNL A   1      45.827  26.947  27.126  1.00  0.00     0.167 HD
ATOM     53  C   UNL A   1      48.280  28.312  26.801  1.00  0.00     0.074 A 
ATOM     54  C   UNL A   1      49.255  29.381  26.754  1.00  0.00     0.031 C 
ATOM     55  C   UNL A   1      48.575  27.002  26.614  1.00  0.00     0.031 A 
BRANCH  42  56
ATOM     56  C   UNL A   1      43.655  23.282  26.832  1.00  0.00    -0.014 A 
ATOM     57  C   UNL A   1      43.591  22.691  25.558  1.00  0.00     0.010 A 
ATOM     58  C   UNL A   1      43.233  22.547  27.954  1.00  0.00     0.010 A 
ATOM     59  C   UNL A   1      43.076  21.401  25.404  1.00  0.00     0.020 A 
ATOM     60  C   UNL A   1      42.736  21.248  27.807  1.00  0.00     0.020 A 
ATOM     61  C   UNL A   1      42.644  20.692  26.529  1.00  0.00     0.054 A 
BRANCH  61  62
ATOM     62  S   UNL A   1      41.989  19.014  26.306  1.00  0.00     0.124 S 
ATOM     63  O   UNL A   1      42.956  18.439  25.374  1.00  0.00    -0.237 OA
ATOM     64  O   UNL A   1      42.025  18.470  27.660  1.00  0.00    -0.237 OA
ATOM     65  O   UNL A   1      40.651  19.234  25.761  1.00  0.00    -0.744 OA
ENDBRANCH  61  62
ENDBRANCH  42  56
BRANCH  43  66
ATOM     66  C   UNL A   1      46.801  32.693  27.646  1.00  0.00    -0.014 A 
ATOM     67  C   UNL A   1      46.832  33.525  26.513  1.00  0.00     0.010 A 
ATOM     68  C   UNL A   1      47.189  33.218  28.893  1.00  0.00     0.010 A 
ATOM     69  C   UNL A   1      47.244  34.857  26.626  1.00  0.00     0.020 A 
ATOM     70  C   UNL A   1      47.575  34.555  29.013  1.00  0.00     0.020 A 
ATOM     71  C   UNL A   1      47.610  35.364  27.876  1.00  0.00     0.054 A 
BRANCH  71  72
ATOM     72  S   UNL A   1      48.065  37.114  28.032  1.00  0.00     0.124 S 
ATOM     73  O   UNL A   1      47.103  37.590  29.022  1.00  0.00    -0.237 OA
ATOM     74  O   UNL A   1      49.455  37.054  28.477  1.00  0.00    -0.237 OA
ATOM     75  O   UNL A   1      47.879  37.631  26.677  1.00  0.00    -0.744 OA
ENDBRANCH  71  72
ENDBRANCH  43  66
BRANCH  55  76
ATOM     76  C   UNL A   1      50.013  26.655  26.353  1.00  0.00    -0.014 A 
ATOM     77  C   UNL A   1      50.877  26.344  27.419  1.00  0.00     0.010 A 
ATOM     78  C   UNL A   1      50.498  26.605  25.035  1.00  0.00     0.010 A 
ATOM     79  C   UNL A   1      52.211  26.010  27.171  1.00  0.00     0.020 A 
ATOM     80  C   UNL A   1      51.827  26.256  24.782  1.00  0.00     0.020 A 
ATOM     81  C   UNL A   1      52.679  25.973  25.854  1.00  0.00     0.054 A 
BRANCH  81  82
ATOM     82  S   UNL A   1      54.404  25.500  25.549  1.00  0.00     0.124 S 
ATOM     83  O   UNL A   1      54.359  24.052  25.727  1.00  0.00    -0.237 OA
ATOM     84  O   UNL A   1      54.630  25.958  24.179  1.00  0.00    -0.237 OA
ATOM     85  O   UNL A   1      55.148  26.233  26.572  1.00  0.00    -0.744 OA
ENDBRANCH  81  82
ENDBRANCH  55  76
ENDBRANCH  29  30
ENDBRANCH  22  24
ENDBRANCH  21  22
ENDBRANCH  20  21
ENDBRANCH   1  20
TORSDOF 17
ENDMDL
