MODEL 1
REMARK VINA RESULT:     -13.4      0.000      0.000
REMARK SMILES Cc1cccc(N2CCN(c3ncc(NC(=O)c4ccccc4F)cc3C(=O)OCCOC(=O)c3ccc(-c4c5nc(c(-c6ccc(S(=O)(=O)[O-])cc6)c6ccc([nH]6)c(-c6ccc(S(=O)(=O)[O-])cc6)c6nc(c(-c7ccc(S(=O)(=O)[O-])cc7)c7ccc4[nH]7)C=C6)C=C5)cc3)C[C@@H]2C)c1
REMARK SMILES IDX 31 1 30 2 29 3 27 4 28 5 26 6 11 7 12 8 13 9 25 10 14 11
REMARK SMILES IDX 10 12 7 13 8 14 96 15 9 16 95 17 97 18 6 19 1 20 2 21 3 22
REMARK SMILES IDX 98 23 4 24 5 25 15 26 16 27 17 29 18 30 19 31 23 32 20 33
REMARK SMILES IDX 22 34 24 35 21 36 32 37 33 38 34 39 35 40 36 41 94 42 37 43
REMARK SMILES IDX 93 44 38 45 39 46 40 47 87 48 41 49 92 50 86 51 88 52 42 53
REMARK SMILES IDX 91 54 85 55 84 56 43 58 73 59 54 60 72 61 55 62 58 63 71 64
REMARK SMILES IDX 89 65 56 66 57 67 70 69 90 70 59 71 44 72 45 73 53 74 46 75
REMARK SMILES IDX 52 76 47 77 48 78 49 79 50 80 51 81 74 82 75 83 83 84 76 85
REMARK SMILES IDX 82 86 77 87 78 88 79 89 80 90 81 91 60 92 61 93 69 94 62 95
REMARK SMILES IDX 68 96 63 97 64 98 65 99 66 100 67 101
REMARK H PARENT 15 28 88 57 58 68
REMARK Flexibility Score: inf
ROOT
ATOM      1  C   UNL A   1      32.470  28.536  27.514  1.00  0.00     0.275 C 
ENDROOT
BRANCH   1   2
ATOM      2  C   UNL A   1      31.827  27.324  26.785  1.00  0.00     0.275 C 
BRANCH   2   3
ATOM      3  O   UNL A   1      32.200  25.994  27.262  1.00  0.00    -0.458 OA
BRANCH   3   4
ATOM      4  C   UNL A   1      31.602  24.956  26.588  1.00  0.00     0.342 C 
ATOM      5  O   UNL A   1      30.973  24.070  27.167  1.00  0.00    -0.246 OA
BRANCH   4   6
ATOM      6  C   UNL A   1      32.074  24.639  25.209  1.00  0.00     0.104 A 
ATOM      7  C   UNL A   1      31.774  25.146  23.892  1.00  0.00     0.143 A 
ATOM      8  N   UNL A   1      31.900  24.297  22.828  1.00  0.00    -0.236 NA
ATOM      9  C   UNL A   1      32.188  22.991  23.030  1.00  0.00     0.139 A 
ATOM     10  C   UNL A   1      32.467  23.293  25.341  1.00  0.00     0.047 A 
ATOM     11  C   UNL A   1      32.483  22.448  24.264  1.00  0.00     0.061 A 
BRANCH   7  12
ATOM     12  N   UNL A   1      31.241  26.397  23.515  1.00  0.00    -0.352 N 
ATOM     13  N   UNL A   1      29.774  28.819  22.513  1.00  0.00    -0.365 N 
ATOM     14  C   UNL A   1      29.181  27.885  23.501  1.00  0.00     0.138 C 
ATOM     15  C   UNL A   1      31.176  28.497  22.021  1.00  0.00     0.098 C 
ATOM     16  C   UNL A   1      29.750  26.452  23.575  1.00  0.00     0.139 C 
ATOM     17  C   UNL A   1      31.589  26.955  22.156  1.00  0.00     0.142 C 
ATOM     18  C   UNL A   1      32.289  29.158  22.785  1.00  0.00     0.033 C 
BRANCH  13  19
ATOM     19  C   UNL A   1      29.150  30.100  22.414  1.00  0.00     0.037 A 
ATOM     20  C   UNL A   1      27.698  32.651  19.859  1.00  0.00     0.044 C 
ATOM     21  C   UNL A   1      28.180  32.024  21.142  1.00  0.00    -0.049 A 
ATOM     22  C   UNL A   1      28.205  32.843  22.270  1.00  0.00     0.003 A 
ATOM     23  C   UNL A   1      28.654  30.673  21.222  1.00  0.00     0.029 A 
ATOM     24  C   UNL A   1      28.610  32.305  23.475  1.00  0.00     0.002 A 
ATOM     25  C   UNL A   1      29.028  30.960  23.543  1.00  0.00     0.026 A 
ENDBRANCH  13  19
ENDBRANCH   7  12
BRANCH  11  26
ATOM     26  N   UNL A   1      32.815  21.113  24.516  1.00  0.00    -0.320 N 
ATOM     27  C   UNL A   1      34.068  20.605  24.748  1.00  0.00     0.258 C 
ATOM     28  H   UNL A   1      32.069  20.470  24.529  1.00  0.00     0.170 HD
ATOM     29  O   UNL A   1      34.256  19.395  24.838  1.00  0.00    -0.269 OA
BRANCH  27  30
ATOM     30  C   UNL A   1      35.195  21.534  24.945  1.00  0.00     0.075 A 
ATOM     31  C   UNL A   1      35.883  21.974  23.816  1.00  0.00     0.017 A 
ATOM     32  C   UNL A   1      35.552  22.008  26.212  1.00  0.00     0.135 A 
ATOM     33  C   UNL A   1      36.873  22.946  23.956  1.00  0.00     0.001 A 
ATOM     34  C   UNL A   1      36.501  23.011  26.347  1.00  0.00     0.040 A 
ATOM     35  F   UNL A   1      34.975  21.530  27.325  1.00  0.00    -0.206 F 
ATOM     36  C   UNL A   1      37.161  23.484  25.215  1.00  0.00     0.003 A 
ENDBRANCH  27  30
ENDBRANCH  11  26
ENDBRANCH   4   6
ENDBRANCH   3   4
ENDBRANCH   2   3
ENDBRANCH   1   2
BRANCH   1  37
ATOM     37  O   UNL A   1      33.896  28.736  27.472  1.00  0.00    -0.458 OA
BRANCH  37  38
ATOM     38  C   UNL A   1      34.338  29.993  27.660  1.00  0.00     0.338 C 
ATOM     39  O   UNL A   1      33.570  30.957  27.651  1.00  0.00    -0.246 OA
BRANCH  38  40
ATOM     40  C   UNL A   1      35.745  30.004  28.130  1.00  0.00     0.060 A 
ATOM     41  C   UNL A   1      36.054  29.406  29.361  1.00  0.00     0.016 A 
ATOM     42  C   UNL A   1      36.764  30.318  27.243  1.00  0.00     0.016 A 
ATOM     43  C   UNL A   1      37.325  29.040  29.719  1.00  0.00     0.010 A 
ATOM     44  C   UNL A   1      38.020  29.848  27.520  1.00  0.00     0.010 A 
ATOM     45  C   UNL A   1      38.281  29.229  28.754  1.00  0.00    -0.014 A 
BRANCH  45  46
ATOM     46  C   UNL A   1      39.657  28.924  29.025  1.00  0.00     0.031 A 
ATOM     47  C   UNL A   1      40.087  27.521  28.812  1.00  0.00     0.074 A 
ATOM     48  C   UNL A   1      40.315  30.052  29.379  1.00  0.00     0.049 A 
ATOM     49  N   UNL A   1      40.923  26.869  29.543  1.00  0.00    -0.248 NA
ATOM     50  C   UNL A   1      39.480  26.636  27.795  1.00  0.00     0.031 C 
ATOM     51  C   UNL A   1      41.717  30.356  29.488  1.00  0.00     0.029 A 
ATOM     52  N   UNL A   1      39.712  31.227  29.872  1.00  0.00    -0.354 N 
ATOM     53  C   UNL A   1      41.360  25.833  28.730  1.00  0.00     0.074 A 
ATOM     54  C   UNL A   1      40.265  25.551  27.849  1.00  0.00     0.031 C 
ATOM     55  C   UNL A   1      41.868  31.391  30.339  1.00  0.00     0.029 A 
ATOM     56  C   UNL A   1      40.552  31.760  30.847  1.00  0.00     0.049 A 
ATOM     57  H   UNL A   1      38.852  31.605  29.580  1.00  0.00     0.167 HD
ATOM     58  C   UNL A   1      42.706  25.636  28.608  1.00  0.00     0.031 A 
ATOM     59  C   UNL A   1      40.162  31.760  32.157  1.00  0.00     0.031 A 
ATOM     60  C   UNL A   1      43.400  26.579  29.478  1.00  0.00     0.049 A 
ATOM     61  C   UNL A   1      40.897  30.642  32.901  1.00  0.00     0.074 A 
ATOM     62  C   UNL A   1      44.004  27.796  29.214  1.00  0.00     0.029 A 
ATOM     63  N   UNL A   1      43.150  26.543  30.838  1.00  0.00    -0.354 N 
ATOM     64  N   UNL A   1      41.424  29.595  32.315  1.00  0.00    -0.248 NA
ATOM     65  C   UNL A   1      41.192  30.666  34.333  1.00  0.00     0.031 C 
ATOM     66  C   UNL A   1      44.037  28.530  30.429  1.00  0.00     0.029 A 
ATOM     67  C   UNL A   1      43.386  27.786  31.395  1.00  0.00     0.049 A 
ATOM     68  H   UNL A   1      42.848  25.750  31.336  1.00  0.00     0.167 HD
ATOM     69  C   UNL A   1      42.259  28.943  33.190  1.00  0.00     0.074 A 
ATOM     70  C   UNL A   1      42.025  29.614  34.458  1.00  0.00     0.031 C 
ATOM     71  C   UNL A   1      43.152  27.973  32.815  1.00  0.00     0.031 A 
BRANCH  58  72
ATOM     72  C   UNL A   1      43.414  24.927  27.472  1.00  0.00    -0.014 A 
ATOM     73  C   UNL A   1      44.185  23.785  27.790  1.00  0.00     0.010 A 
ATOM     74  C   UNL A   1      43.376  25.289  26.113  1.00  0.00     0.010 A 
ATOM     75  C   UNL A   1      44.905  23.063  26.837  1.00  0.00     0.020 A 
ATOM     76  C   UNL A   1      44.096  24.566  25.136  1.00  0.00     0.020 A 
ATOM     77  C   UNL A   1      44.856  23.456  25.508  1.00  0.00     0.054 A 
BRANCH  77  78
ATOM     78  S   UNL A   1      45.764  22.455  24.300  1.00  0.00     0.124 S 
ATOM     79  O   UNL A   1      44.699  21.991  23.413  1.00  0.00    -0.237 OA
ATOM     80  O   UNL A   1      46.686  23.427  23.717  1.00  0.00    -0.237 OA
ATOM     81  O   UNL A   1      46.391  21.415  25.111  1.00  0.00    -0.744 OA
ENDBRANCH  77  78
ENDBRANCH  58  72
BRANCH  59  82
ATOM     82  C   UNL A   1      38.752  32.243  32.351  1.00  0.00    -0.014 A 
ATOM     83  C   UNL A   1      38.433  33.583  32.037  1.00  0.00     0.010 A 
ATOM     84  C   UNL A   1      37.683  31.346  32.385  1.00  0.00     0.010 A 
ATOM     85  C   UNL A   1      37.122  33.991  31.706  1.00  0.00     0.020 A 
ATOM     86  C   UNL A   1      36.383  31.749  31.978  1.00  0.00     0.020 A 
ATOM     87  C   UNL A   1      36.082  33.072  31.641  1.00  0.00     0.054 A 
BRANCH  87  88
ATOM     88  S   UNL A   1      34.458  33.722  31.002  1.00  0.00     0.124 S 
ATOM     89  O   UNL A   1      34.855  34.933  30.284  1.00  0.00    -0.237 OA
ATOM     90  O   UNL A   1      34.017  32.616  30.156  1.00  0.00    -0.237 OA
ATOM     91  O   UNL A   1      33.590  34.019  32.132  1.00  0.00    -0.744 OA
ENDBRANCH  87  88
ENDBRANCH  59  82
BRANCH  71  92
ATOM     92  C   UNL A   1      44.033  27.136  33.710  1.00  0.00    -0.014 A 
ATOM     93  C   UNL A   1      45.266  27.547  34.217  1.00  0.00     0.010 A 
ATOM     94  C   UNL A   1      43.515  25.899  34.192  1.00  0.00     0.010 A 
ATOM     95  C   UNL A   1      45.985  26.721  35.093  1.00  0.00     0.020 A 
ATOM     96  C   UNL A   1      44.183  25.109  35.119  1.00  0.00     0.020 A 
ATOM     97  C   UNL A   1      45.443  25.507  35.529  1.00  0.00     0.054 A 
BRANCH  97  98
ATOM     98  S   UNL A   1      46.389  24.447  36.642  1.00  0.00     0.124 S 
ATOM     99  O   UNL A   1      46.414  25.252  37.860  1.00  0.00    -0.237 OA
ATOM    100  O   UNL A   1      45.573  23.238  36.704  1.00  0.00    -0.237 OA
ATOM    101  O   UNL A   1      47.674  24.293  35.966  1.00  0.00    -0.744 OA
ENDBRANCH  97  98
ENDBRANCH  71  92
ENDBRANCH  45  46
ENDBRANCH  38  40
ENDBRANCH  37  38
ENDBRANCH   1  37
TORSDOF 18
ENDMDL
MODEL 2
REMARK VINA RESULT:     -13.0      3.712     10.403
REMARK SMILES Cc1cccc(N2CCN(c3ncc(NC(=O)c4ccccc4F)cc3C(=O)OCCOC(=O)c3ccc(-c4c5nc(c(-c6ccc(S(=O)(=O)[O-])cc6)c6ccc([nH]6)c(-c6ccc(S(=O)(=O)[O-])cc6)c6nc(c(-c7ccc(S(=O)(=O)[O-])cc7)c7ccc4[nH]7)C=C6)C=C5)cc3)C[C@@H]2C)c1
REMARK SMILES IDX 31 1 30 2 29 3 27 4 28 5 26 6 11 7 12 8 13 9 25 10 14 11
REMARK SMILES IDX 10 12 7 13 8 14 96 15 9 16 95 17 97 18 6 19 1 20 2 21 3 22
REMARK SMILES IDX 98 23 4 24 5 25 15 26 16 27 17 29 18 30 19 31 23 32 20 33
REMARK SMILES IDX 22 34 24 35 21 36 32 37 33 38 34 39 35 40 36 41 94 42 37 43
REMARK SMILES IDX 93 44 38 45 39 46 40 47 87 48 41 49 92 50 86 51 88 52 42 53
REMARK SMILES IDX 91 54 85 55 84 56 43 58 73 59 54 60 72 61 55 62 58 63 71 64
REMARK SMILES IDX 89 65 56 66 57 67 70 69 90 70 59 71 44 72 45 73 53 74 46 75
REMARK SMILES IDX 52 76 47 77 48 78 49 79 50 80 51 81 74 82 75 83 83 84 76 85
REMARK SMILES IDX 82 86 77 87 78 88 79 89 80 90 81 91 60 92 61 93 69 94 62 95
REMARK SMILES IDX 68 96 63 97 64 98 65 99 66 100 67 101
REMARK H PARENT 15 28 88 57 58 68
REMARK Flexibility Score: inf
ROOT
ATOM      1  C   UNL A   1      36.791  23.038  23.828  1.00  0.00     0.275 C 
ENDROOT
BRANCH   1   2
ATOM      2  C   UNL A   1      35.378  23.373  23.275  1.00  0.00     0.275 C 
BRANCH   2   3
ATOM      3  O   UNL A   1      35.130  24.765  22.902  1.00  0.00    -0.458 OA
BRANCH   3   4
ATOM      4  C   UNL A   1      33.825  25.046  22.578  1.00  0.00     0.342 C 
ATOM      5  O   UNL A   1      33.513  25.609  21.528  1.00  0.00    -0.246 OA
BRANCH   4   6
ATOM      6  C   UNL A   1      32.813  25.081  23.673  1.00  0.00     0.104 A 
ATOM      7  C   UNL A   1      32.070  24.081  24.402  1.00  0.00     0.143 A 
ATOM      8  N   UNL A   1      30.841  24.420  24.895  1.00  0.00    -0.236 NA
ATOM      9  C   UNL A   1      30.299  25.624  24.603  1.00  0.00     0.139 A 
ATOM     10  C   UNL A   1      32.234  26.352  23.490  1.00  0.00     0.047 A 
ATOM     11  C   UNL A   1      30.959  26.619  23.911  1.00  0.00     0.061 A 
BRANCH   7  12
ATOM     12  N   UNL A   1      32.367  22.716  24.603  1.00  0.00    -0.352 N 
ATOM     13  N   UNL A   1      32.590  19.731  24.846  1.00  0.00    -0.365 N 
ATOM     14  C   UNL A   1      32.498  20.415  23.533  1.00  0.00     0.138 C 
ATOM     15  C   UNL A   1      32.567  20.615  26.083  1.00  0.00     0.098 C 
ATOM     16  C   UNL A   1      31.890  21.833  23.497  1.00  0.00     0.139 C 
ATOM     17  C   UNL A   1      31.880  22.045  25.864  1.00  0.00     0.142 C 
ATOM     18  C   UNL A   1      33.918  21.025  26.599  1.00  0.00     0.033 C 
BRANCH  13  19
ATOM     19  C   UNL A   1      33.067  18.385  24.816  1.00  0.00     0.037 A 
ATOM     20  C   UNL A   1      32.139  14.744  25.832  1.00  0.00     0.044 C 
ATOM     21  C   UNL A   1      32.908  15.942  25.335  1.00  0.00    -0.049 A 
ATOM     22  C   UNL A   1      34.252  15.741  25.022  1.00  0.00     0.003 A 
ATOM     23  C   UNL A   1      32.334  17.253  25.235  1.00  0.00     0.029 A 
ATOM     24  C   UNL A   1      34.988  16.802  24.535  1.00  0.00     0.002 A 
ATOM     25  C   UNL A   1      34.393  18.072  24.400  1.00  0.00     0.026 A 
ENDBRANCH  13  19
ENDBRANCH   7  12
BRANCH  11  26
ATOM     26  N   UNL A   1      30.451  27.888  23.613  1.00  0.00    -0.320 N 
ATOM     27  C   UNL A   1      30.734  29.063  24.262  1.00  0.00     0.258 C 
ATOM     28  H   UNL A   1      29.825  27.943  22.856  1.00  0.00     0.170 HD
ATOM     29  O   UNL A   1      30.135  30.099  23.990  1.00  0.00    -0.269 OA
BRANCH  27  30
ATOM     30  C   UNL A   1      31.813  29.087  25.266  1.00  0.00     0.075 A 
ATOM     31  C   UNL A   1      31.470  28.864  26.599  1.00  0.00     0.017 A 
ATOM     32  C   UNL A   1      33.152  29.281  24.911  1.00  0.00     0.135 A 
ATOM     33  C   UNL A   1      32.480  28.758  27.554  1.00  0.00     0.001 A 
ATOM     34  C   UNL A   1      34.160  29.126  25.851  1.00  0.00     0.040 A 
ATOM     35  F   UNL A   1      33.503  29.595  23.654  1.00  0.00    -0.206 F 
ATOM     36  C   UNL A   1      33.823  28.860  27.176  1.00  0.00     0.003 A 
ENDBRANCH  27  30
ENDBRANCH  11  26
ENDBRANCH   4   6
ENDBRANCH   3   4
ENDBRANCH   2   3
ENDBRANCH   1   2
BRANCH   1  37
ATOM     37  O   UNL A   1      37.276  23.682  25.021  1.00  0.00    -0.458 OA
BRANCH  37  38
ATOM     38  C   UNL A   1      38.164  22.997  25.763  1.00  0.00     0.338 C 
ATOM     39  O   UNL A   1      38.336  21.785  25.610  1.00  0.00    -0.246 OA
BRANCH  38  40
ATOM     40  C   UNL A   1      39.040  23.910  26.537  1.00  0.00     0.060 A 
ATOM     41  C   UNL A   1      39.769  24.894  25.851  1.00  0.00     0.016 A 
ATOM     42  C   UNL A   1      38.904  23.992  27.915  1.00  0.00     0.016 A 
ATOM     43  C   UNL A   1      40.308  25.994  26.466  1.00  0.00     0.010 A 
ATOM     44  C   UNL A   1      39.320  25.141  28.532  1.00  0.00     0.010 A 
ATOM     45  C   UNL A   1      40.022  26.115  27.802  1.00  0.00    -0.014 A 
BRANCH  45  46
ATOM     46  C   UNL A   1      40.565  27.202  28.566  1.00  0.00     0.031 A 
ATOM     47  C   UNL A   1      39.745  28.433  28.655  1.00  0.00     0.074 A 
ATOM     48  C   UNL A   1      41.744  26.829  29.117  1.00  0.00     0.049 A 
ATOM     49  N   UNL A   1      40.194  29.641  28.643  1.00  0.00    -0.248 NA
ATOM     50  C   UNL A   1      38.267  28.424  28.618  1.00  0.00     0.031 C 
ATOM     51  C   UNL A   1      42.547  27.413  30.158  1.00  0.00     0.029 A 
ATOM     52  N   UNL A   1      42.557  25.769  28.666  1.00  0.00    -0.354 N 
ATOM     53  C   UNL A   1      39.176  30.394  29.208  1.00  0.00     0.074 A 
ATOM     54  C   UNL A   1      37.963  29.703  28.883  1.00  0.00     0.031 C 
ATOM     55  C   UNL A   1      43.821  26.999  30.002  1.00  0.00     0.029 A 
ATOM     56  C   UNL A   1      43.886  26.162  28.810  1.00  0.00     0.049 A 
ATOM     57  H   UNL A   1      42.243  24.906  28.314  1.00  0.00     0.167 HD
ATOM     58  C   UNL A   1      39.495  31.249  30.224  1.00  0.00     0.031 A 
ATOM     59  C   UNL A   1      44.653  26.389  27.702  1.00  0.00     0.031 A 
ATOM     60  C   UNL A   1      40.939  31.213  30.431  1.00  0.00     0.049 A 
ATOM     61  C   UNL A   1      44.792  27.898  27.489  1.00  0.00     0.074 A 
ATOM     62  C   UNL A   1      41.717  30.534  31.353  1.00  0.00     0.029 A 
ATOM     63  N   UNL A   1      41.774  31.563  29.385  1.00  0.00    -0.354 N 
ATOM     64  N   UNL A   1      43.961  28.787  27.975  1.00  0.00    -0.248 NA
ATOM     65  C   UNL A   1      45.926  28.530  26.814  1.00  0.00     0.031 C 
ATOM     66  C   UNL A   1      43.019  30.407  30.805  1.00  0.00     0.029 A 
ATOM     67  C   UNL A   1      42.999  30.938  29.529  1.00  0.00     0.049 A 
ATOM     68  H   UNL A   1      41.532  32.167  28.647  1.00  0.00     0.167 HD
ATOM     69  C   UNL A   1      44.511  30.043  27.872  1.00  0.00     0.074 A 
ATOM     70  C   UNL A   1      45.710  29.834  27.078  1.00  0.00     0.031 C 
ATOM     71  C   UNL A   1      44.016  31.148  28.515  1.00  0.00     0.031 A 
BRANCH  58  72
ATOM     72  C   UNL A   1      38.551  31.796  31.275  1.00  0.00    -0.014 A 
ATOM     73  C   UNL A   1      38.050  33.105  31.090  1.00  0.00     0.010 A 
ATOM     74  C   UNL A   1      38.109  31.121  32.428  1.00  0.00     0.010 A 
ATOM     75  C   UNL A   1      37.195  33.728  32.000  1.00  0.00     0.020 A 
ATOM     76  C   UNL A   1      37.241  31.736  33.356  1.00  0.00     0.020 A 
ATOM     77  C   UNL A   1      36.790  33.039  33.133  1.00  0.00     0.054 A 
BRANCH  77  78
ATOM     78  S   UNL A   1      35.638  33.870  34.258  1.00  0.00     0.124 S 
ATOM     79  O   UNL A   1      36.191  33.545  35.571  1.00  0.00    -0.237 OA
ATOM     80  O   UNL A   1      35.761  35.269  33.856  1.00  0.00    -0.237 OA
ATOM     81  O   UNL A   1      34.350  33.249  33.958  1.00  0.00    -0.744 OA
ENDBRANCH  77  78
ENDBRANCH  58  72
BRANCH  59  82
ATOM     82  C   UNL A   1      44.528  25.306  26.667  1.00  0.00    -0.014 A 
ATOM     83  C   UNL A   1      45.693  24.827  26.028  1.00  0.00     0.010 A 
ATOM     84  C   UNL A   1      43.419  24.461  26.641  1.00  0.00     0.010 A 
ATOM     85  C   UNL A   1      45.765  23.540  25.451  1.00  0.00     0.020 A 
ATOM     86  C   UNL A   1      43.522  23.140  26.126  1.00  0.00     0.020 A 
ATOM     87  C   UNL A   1      44.688  22.665  25.520  1.00  0.00     0.054 A 
BRANCH  87  88
ATOM     88  S   UNL A   1      44.999  20.939  24.892  1.00  0.00     0.124 S 
ATOM     89  O   UNL A   1      44.715  21.059  23.462  1.00  0.00    -0.237 OA
ATOM     90  O   UNL A   1      46.407  20.757  25.232  1.00  0.00    -0.237 OA
ATOM     91  O   UNL A   1      44.081  20.023  25.555  1.00  0.00    -0.744 OA
ENDBRANCH  87  88
ENDBRANCH  59  82
BRANCH  71  92
ATOM     92  C   UNL A   1      44.486  32.576  28.386  1.00  0.00    -0.014 A 
ATOM     93  C   UNL A   1      45.325  33.219  29.297  1.00  0.00     0.010 A 
ATOM     94  C   UNL A   1      44.177  33.278  27.185  1.00  0.00     0.010 A 
ATOM     95  C   UNL A   1      45.759  34.532  29.060  1.00  0.00     0.020 A 
ATOM     96  C   UNL A   1      44.663  34.548  26.904  1.00  0.00     0.020 A 
ATOM     97  C   UNL A   1      45.417  35.187  27.871  1.00  0.00     0.054 A 
BRANCH  97  98
ATOM     98  S   UNL A   1      45.968  36.882  27.589  1.00  0.00     0.124 S 
ATOM     99  O   UNL A   1      44.697  37.599  27.545  1.00  0.00    -0.237 OA
ATOM    100  O   UNL A   1      46.801  37.148  28.759  1.00  0.00    -0.237 OA
ATOM    101  O   UNL A   1      46.689  36.807  26.321  1.00  0.00    -0.744 OA
ENDBRANCH  97  98
ENDBRANCH  71  92
ENDBRANCH  45  46
ENDBRANCH  38  40
ENDBRANCH  37  38
ENDBRANCH   1  37
TORSDOF 18
ENDMDL
MODEL 3
REMARK VINA RESULT:     -13.0      3.647     10.347
REMARK SMILES Cc1cccc(N2CCN(c3ncc(NC(=O)c4ccccc4F)cc3C(=O)OCCOC(=O)c3ccc(-c4c5nc(c(-c6ccc(S(=O)(=O)[O-])cc6)c6ccc([nH]6)c(-c6ccc(S(=O)(=O)[O-])cc6)c6nc(c(-c7ccc(S(=O)(=O)[O-])cc7)c7ccc4[nH]7)C=C6)C=C5)cc3)C[C@@H]2C)c1
REMARK SMILES IDX 31 1 30 2 29 3 27 4 28 5 26 6 11 7 12 8 13 9 25 10 14 11
REMARK SMILES IDX 10 12 7 13 8 14 96 15 9 16 95 17 97 18 6 19 1 20 2 21 3 22
REMARK SMILES IDX 98 23 4 24 5 25 15 26 16 27 17 29 18 30 19 31 23 32 20 33
REMARK SMILES IDX 22 34 24 35 21 36 32 37 33 38 34 39 35 40 36 41 94 42 37 43
REMARK SMILES IDX 93 44 38 45 39 46 40 47 87 48 41 49 92 50 86 51 88 52 42 53
REMARK SMILES IDX 91 54 85 55 84 56 43 58 73 59 54 60 72 61 55 62 58 63 71 64
REMARK SMILES IDX 89 65 56 66 57 67 70 69 90 70 59 71 44 72 45 73 53 74 46 75
REMARK SMILES IDX 52 76 47 77 48 78 49 79 50 80 51 81 74 82 75 83 83 84 76 85
REMARK SMILES IDX 82 86 77 87 78 88 79 89 80 90 81 91 60 92 61 93 69 94 62 95
REMARK SMILES IDX 68 96 63 97 64 98 65 99 66 100 67 101
REMARK H PARENT 15 28 88 57 58 68
REMARK Flexibility Score: inf
ROOT
ATOM      1  C   UNL A   1      36.729  22.923  24.161  1.00  0.00     0.275 C 
ENDROOT
BRANCH   1   2
ATOM      2  C   UNL A   1      35.346  23.346  23.594  1.00  0.00     0.275 C 
BRANCH   2   3
ATOM      3  O   UNL A   1      35.215  24.728  23.136  1.00  0.00    -0.458 OA
BRANCH   3   4
ATOM      4  C   UNL A   1      33.953  25.076  22.720  1.00  0.00     0.342 C 
ATOM      5  O   UNL A   1      33.753  25.712  21.685  1.00  0.00    -0.246 OA
BRANCH   4   6
ATOM      6  C   UNL A   1      32.850  25.083  23.724  1.00  0.00     0.104 A 
ATOM      7  C   UNL A   1      32.062  24.063  24.373  1.00  0.00     0.143 A 
ATOM      8  N   UNL A   1      30.791  24.379  24.762  1.00  0.00    -0.236 NA
ATOM      9  C   UNL A   1      30.258  25.580  24.440  1.00  0.00     0.139 A 
ATOM     10  C   UNL A   1      32.271  26.348  23.508  1.00  0.00     0.047 A 
ATOM     11  C   UNL A   1      30.961  26.593  23.820  1.00  0.00     0.061 A 
BRANCH   7  12
ATOM     12  N   UNL A   1      32.360  22.699  24.581  1.00  0.00    -0.352 N 
ATOM     13  N   UNL A   1      32.598  19.714  24.814  1.00  0.00    -0.365 N 
ATOM     14  C   UNL A   1      32.582  20.409  23.503  1.00  0.00     0.138 C 
ATOM     15  C   UNL A   1      32.488  20.588  26.054  1.00  0.00     0.098 C 
ATOM     16  C   UNL A   1      31.963  21.821  23.440  1.00  0.00     0.139 C 
ATOM     17  C   UNL A   1      31.801  22.013  25.803  1.00  0.00     0.142 C 
ATOM     18  C   UNL A   1      33.800  21.006  26.658  1.00  0.00     0.033 C 
BRANCH  13  19
ATOM     19  C   UNL A   1      33.090  18.374  24.803  1.00  0.00     0.037 A 
ATOM     20  C   UNL A   1      32.209  14.740  25.883  1.00  0.00     0.044 C 
ATOM     21  C   UNL A   1      32.962  15.938  25.363  1.00  0.00    -0.049 A 
ATOM     22  C   UNL A   1      34.306  15.747  25.046  1.00  0.00     0.003 A 
ATOM     23  C   UNL A   1      32.372  17.240  25.244  1.00  0.00     0.029 A 
ATOM     24  C   UNL A   1      35.028  16.808  24.538  1.00  0.00     0.002 A 
ATOM     25  C   UNL A   1      34.418  18.069  24.385  1.00  0.00     0.026 A 
ENDBRANCH  13  19
ENDBRANCH   7  12
BRANCH  11  26
ATOM     26  N   UNL A   1      30.463  27.859  23.496  1.00  0.00    -0.320 N 
ATOM     27  C   UNL A   1      30.730  29.040  24.141  1.00  0.00     0.258 C 
ATOM     28  H   UNL A   1      29.857  27.907  22.722  1.00  0.00     0.170 HD
ATOM     29  O   UNL A   1      30.139  30.074  23.842  1.00  0.00    -0.269 OA
BRANCH  27  30
ATOM     30  C   UNL A   1      31.781  29.074  25.173  1.00  0.00     0.075 A 
ATOM     31  C   UNL A   1      31.402  28.875  26.499  1.00  0.00     0.017 A 
ATOM     32  C   UNL A   1      33.131  29.253  24.850  1.00  0.00     0.135 A 
ATOM     33  C   UNL A   1      32.385  28.778  27.483  1.00  0.00     0.001 A 
ATOM     34  C   UNL A   1      34.112  29.107  25.820  1.00  0.00     0.040 A 
ATOM     35  F   UNL A   1      33.517  29.544  23.598  1.00  0.00    -0.206 F 
ATOM     36  C   UNL A   1      33.738  28.865  27.139  1.00  0.00     0.003 A 
ENDBRANCH  27  30
ENDBRANCH  11  26
ENDBRANCH   4   6
ENDBRANCH   3   4
ENDBRANCH   2   3
ENDBRANCH   1   2
BRANCH   1  37
ATOM     37  O   UNL A   1      37.363  23.706  25.190  1.00  0.00    -0.458 OA
BRANCH  37  38
ATOM     38  C   UNL A   1      38.337  23.105  25.897  1.00  0.00     0.338 C 
ATOM     39  O   UNL A   1      38.687  21.947  25.661  1.00  0.00    -0.246 OA
BRANCH  38  40
ATOM     40  C   UNL A   1      39.063  24.078  26.751  1.00  0.00     0.060 A 
ATOM     41  C   UNL A   1      39.869  25.048  26.137  1.00  0.00     0.016 A 
ATOM     42  C   UNL A   1      38.711  24.220  28.085  1.00  0.00     0.016 A 
ATOM     43  C   UNL A   1      40.283  26.191  26.772  1.00  0.00     0.010 A 
ATOM     44  C   UNL A   1      39.002  25.408  28.700  1.00  0.00     0.010 A 
ATOM     45  C   UNL A   1      39.790  26.365  28.040  1.00  0.00    -0.014 A 
BRANCH  45  46
ATOM     46  C   UNL A   1      40.186  27.502  28.823  1.00  0.00     0.031 A 
ATOM     47  C   UNL A   1      39.362  28.726  28.688  1.00  0.00     0.074 A 
ATOM     48  C   UNL A   1      41.245  27.176  29.599  1.00  0.00     0.049 A 
ATOM     49  N   UNL A   1      39.805  29.936  28.686  1.00  0.00    -0.248 NA
ATOM     50  C   UNL A   1      37.915  28.698  28.386  1.00  0.00     0.031 C 
ATOM     51  C   UNL A   1      41.846  27.828  30.732  1.00  0.00     0.029 A 
ATOM     52  N   UNL A   1      42.127  26.101  29.367  1.00  0.00    -0.354 N 
ATOM     53  C   UNL A   1      38.700  30.710  29.012  1.00  0.00     0.074 A 
ATOM     54  C   UNL A   1      37.566  29.987  28.515  1.00  0.00     0.031 C 
ATOM     55  C   UNL A   1      43.128  27.421  30.833  1.00  0.00     0.029 A 
ATOM     56  C   UNL A   1      43.407  26.516  29.724  1.00  0.00     0.049 A 
ATOM     57  H   UNL A   1      41.882  25.214  29.016  1.00  0.00     0.167 HD
ATOM     58  C   UNL A   1      38.830  31.626  30.016  1.00  0.00     0.031 A 
ATOM     59  C   UNL A   1      44.362  26.687  28.762  1.00  0.00     0.031 A 
ATOM     60  C   UNL A   1      40.212  31.619  30.482  1.00  0.00     0.049 A 
ATOM     61  C   UNL A   1      44.537  28.183  28.487  1.00  0.00     0.074 A 
ATOM     62  C   UNL A   1      40.810  31.004  31.569  1.00  0.00     0.029 A 
ATOM     63  N   UNL A   1      41.222  31.917  29.586  1.00  0.00    -0.354 N 
ATOM     64  N   UNL A   1      43.631  29.089  28.761  1.00  0.00    -0.248 NA
ATOM     65  C   UNL A   1      45.773  28.787  27.992  1.00  0.00     0.031 C 
ATOM     66  C   UNL A   1      42.191  30.860  31.273  1.00  0.00     0.029 A 
ATOM     67  C   UNL A   1      42.401  31.316  29.985  1.00  0.00     0.049 A 
ATOM     68  H   UNL A   1      41.118  32.474  28.781  1.00  0.00     0.167 HD
ATOM     69  C   UNL A   1      44.189  30.343  28.685  1.00  0.00     0.074 A 
ATOM     70  C   UNL A   1      45.512  30.101  28.134  1.00  0.00     0.031 C 
ATOM     71  C   UNL A   1      43.585  31.477  29.160  1.00  0.00     0.031 A 
BRANCH  58  72
ATOM     72  C   UNL A   1      37.711  32.222  30.844  1.00  0.00    -0.014 A 
ATOM     73  C   UNL A   1      37.300  33.541  30.541  1.00  0.00     0.010 A 
ATOM     74  C   UNL A   1      37.023  31.586  31.894  1.00  0.00     0.010 A 
ATOM     75  C   UNL A   1      36.299  34.208  31.249  1.00  0.00     0.020 A 
ATOM     76  C   UNL A   1      36.005  32.246  32.618  1.00  0.00     0.020 A 
ATOM     77  C   UNL A   1      35.651  33.556  32.287  1.00  0.00     0.054 A 
BRANCH  77  78
ATOM     78  S   UNL A   1      34.323  34.444  33.141  1.00  0.00     0.124 S 
ATOM     79  O   UNL A   1      33.293  33.415  33.276  1.00  0.00    -0.237 OA
ATOM     80  O   UNL A   1      34.967  34.851  34.387  1.00  0.00    -0.237 OA
ATOM     81  O   UNL A   1      33.991  35.536  32.229  1.00  0.00    -0.744 OA
ENDBRANCH  77  78
ENDBRANCH  58  72
BRANCH  59  82
ATOM     82  C   UNL A   1      44.428  25.544  27.788  1.00  0.00    -0.014 A 
ATOM     83  C   UNL A   1      44.143  25.783  26.425  1.00  0.00     0.010 A 
ATOM     84  C   UNL A   1      45.175  24.400  28.070  1.00  0.00     0.010 A 
ATOM     85  C   UNL A   1      44.639  24.958  25.392  1.00  0.00     0.020 A 
ATOM     86  C   UNL A   1      45.732  23.619  27.022  1.00  0.00     0.020 A 
ATOM     87  C   UNL A   1      45.469  23.880  25.675  1.00  0.00     0.054 A 
BRANCH  87  88
ATOM     88  S   UNL A   1      46.202  23.007  24.202  1.00  0.00     0.124 S 
ATOM     89  O   UNL A   1      45.048  22.837  23.319  1.00  0.00    -0.237 OA
ATOM     90  O   UNL A   1      47.190  23.983  23.750  1.00  0.00    -0.237 OA
ATOM     91  O   UNL A   1      46.750  21.729  24.634  1.00  0.00    -0.744 OA
ENDBRANCH  87  88
ENDBRANCH  59  82
BRANCH  71  92
ATOM     92  C   UNL A   1      44.070  32.901  29.033  1.00  0.00    -0.014 A 
ATOM     93  C   UNL A   1      43.975  33.670  27.873  1.00  0.00     0.010 A 
ATOM     94  C   UNL A   1      44.525  33.561  30.211  1.00  0.00     0.010 A 
ATOM     95  C   UNL A   1      44.399  35.007  27.869  1.00  0.00     0.020 A 
ATOM     96  C   UNL A   1      44.874  34.905  30.238  1.00  0.00     0.020 A 
ATOM     97  C   UNL A   1      44.853  35.610  29.048  1.00  0.00     0.054 A 
BRANCH  97  98
ATOM     98  S   UNL A   1      45.411  37.325  29.023  1.00  0.00     0.124 S 
ATOM     99  O   UNL A   1      45.064  37.726  27.662  1.00  0.00    -0.237 OA
ATOM    100  O   UNL A   1      44.614  37.938  30.082  1.00  0.00    -0.237 OA
ATOM    101  O   UNL A   1      46.842  37.230  29.302  1.00  0.00    -0.744 OA
ENDBRANCH  97  98
ENDBRANCH  71  92
ENDBRANCH  45  46
ENDBRANCH  38  40
ENDBRANCH  37  38
ENDBRANCH   1  37
TORSDOF 18
ENDMDL
