MODEL 1
REMARK VINA RESULT:     -10.1      0.000      0.000
REMARK SMILES Cc1ccc(CNC(=O)NC[C@@H](CC(C)C)C(=O)OCCOC(=O)c2ccc(-c3c4nc(c(-c5ccc(S(=O)(=O)[O-])cc5)c5ccc([nH]5)c(-c5ccc(S(=O)(=O)[O-])cc5)c5nc(c(-c6ccc(S(=O)(=O)[O-])cc6)c6ccc3[nH]6)C=C5)C=C4)cc2)s1
REMARK SMILES IDX 20 1 19 2 17 3 18 4 12 5 11 6 10 7 7 8 8 9 9 11 6 13 5 14
REMARK SMILES IDX 1 15 2 16 3 17 85 18 4 19 13 20 14 21 15 22 16 23 21 24
REMARK SMILES IDX 22 25 23 26 24 27 25 28 26 29 84 30 27 31 83 32 28 33 29 34
REMARK SMILES IDX 30 35 77 36 31 37 82 38 76 39 78 40 32 41 81 42 75 43 74 44
REMARK SMILES IDX 33 46 63 47 44 48 62 49 45 50 48 51 61 52 79 53 46 54 47 55
REMARK SMILES IDX 60 57 80 58 49 59 34 60 35 61 43 62 36 63 42 64 37 65 38 66
REMARK SMILES IDX 39 67 40 68 41 69 64 70 65 71 73 72 66 73 72 74 67 75 68 76
REMARK SMILES IDX 69 77 70 78 71 79 50 80 51 81 59 82 52 83 58 84 53 85 54 86
REMARK SMILES IDX 55 87 56 88 57 89
REMARK H PARENT 7 10 10 12 78 45 48 56
REMARK Flexibility Score: inf
ROOT
ATOM      1  C   UNL A   1      36.027  21.525  25.578  1.00  0.00     0.274 C 
ENDROOT
BRANCH   1   2
ATOM      2  O   UNL A   1      34.755  21.158  25.005  1.00  0.00    -0.462 OA
BRANCH   2   3
ATOM      3  C   UNL A   1      33.725  21.029  25.880  1.00  0.00     0.310 C 
ATOM      4  O   UNL A   1      33.827  21.182  27.092  1.00  0.00    -0.252 OA
BRANCH   3   5
ATOM      5  C   UNL A   1      32.417  20.612  25.229  1.00  0.00     0.119 C 
BRANCH   5   6
ATOM      6  C   UNL A   1      31.403  21.741  25.020  1.00  0.00     0.133 C 
BRANCH   6   7
ATOM      7  N   UNL A   1      30.712  22.060  26.269  1.00  0.00    -0.337 N 
ATOM      8  N   UNL A   1      30.074  24.344  26.258  1.00  0.00    -0.333 N 
ATOM      9  C   UNL A   1      30.113  23.129  26.804  1.00  0.00     0.315 C 
ATOM     10  H   UNL A   1      29.519  24.973  26.774  1.00  0.00     0.165 HD
ATOM     11  O   UNL A   1      29.553  22.968  27.893  1.00  0.00    -0.249 OA
ATOM     12  H   UNL A   1      30.679  21.284  26.874  1.00  0.00     0.165 HD
BRANCH   8  13
ATOM     13  C   UNL A   1      30.658  24.948  25.087  1.00  0.00     0.164 C 
BRANCH  13  14
ATOM     14  C   UNL A   1      31.617  26.051  25.433  1.00  0.00     0.024 A 
ATOM     15  C   UNL A   1      33.089  29.668  25.871  1.00  0.00     0.056 C 
ATOM     16  C   UNL A   1      32.770  28.216  25.794  1.00  0.00     0.002 A 
ATOM     17  C   UNL A   1      33.537  27.147  26.202  1.00  0.00     0.015 A 
ATOM     18  S   UNL A   1      31.283  27.705  25.123  1.00  0.00    -0.144 S 
ATOM     19  C   UNL A   1      32.875  25.903  25.992  1.00  0.00     0.017 A 
ENDBRANCH  13  14
ENDBRANCH   8  13
ENDBRANCH   6   7
ENDBRANCH   5   6
BRANCH   5  20
ATOM     20  C   UNL A   1      32.693  19.736  23.984  1.00  0.00     0.020 C 
BRANCH  20  21
ATOM     21  C   UNL A   1      32.520  18.206  24.102  1.00  0.00    -0.017 C 
ATOM     22  C   UNL A   1      33.552  17.404  23.312  1.00  0.00     0.007 C 
ATOM     23  C   UNL A   1      32.604  17.803  25.580  1.00  0.00     0.007 C 
ENDBRANCH  20  21
ENDBRANCH   5  20
ENDBRANCH   3   5
ENDBRANCH   2   3
ENDBRANCH   1   2
BRANCH   1  24
ATOM     24  C   UNL A   1      36.650  22.735  24.882  1.00  0.00     0.275 C 
BRANCH  24  25
ATOM     25  O   UNL A   1      37.295  23.614  25.820  1.00  0.00    -0.458 OA
BRANCH  25  26
ATOM     26  C   UNL A   1      38.552  23.253  26.142  1.00  0.00     0.338 C 
ATOM     27  O   UNL A   1      39.123  22.213  25.830  1.00  0.00    -0.246 OA
BRANCH  26  28
ATOM     28  C   UNL A   1      39.242  24.340  26.840  1.00  0.00     0.060 A 
ATOM     29  C   UNL A   1      38.939  24.557  28.187  1.00  0.00     0.016 A 
ATOM     30  C   UNL A   1      40.079  25.215  26.147  1.00  0.00     0.016 A 
ATOM     31  C   UNL A   1      39.453  25.666  28.849  1.00  0.00     0.010 A 
ATOM     32  C   UNL A   1      40.604  26.324  26.817  1.00  0.00     0.010 A 
ATOM     33  C   UNL A   1      40.278  26.563  28.163  1.00  0.00    -0.014 A 
BRANCH  33  34
ATOM     34  C   UNL A   1      40.746  27.793  28.841  1.00  0.00     0.031 A 
ATOM     35  C   UNL A   1      42.147  27.856  29.376  1.00  0.00     0.074 A 
ATOM     36  C   UNL A   1      39.923  28.850  28.951  1.00  0.00     0.049 A 
ATOM     37  N   UNL A   1      42.721  28.801  30.073  1.00  0.00    -0.248 NA
ATOM     38  C   UNL A   1      43.015  26.702  29.089  1.00  0.00     0.031 C 
ATOM     39  C   UNL A   1      38.565  28.925  28.411  1.00  0.00     0.029 A 
ATOM     40  N   UNL A   1      40.113  30.065  29.557  1.00  0.00    -0.354 N 
ATOM     41  C   UNL A   1      44.011  28.350  30.328  1.00  0.00     0.074 A 
ATOM     42  C   UNL A   1      44.130  27.042  29.718  1.00  0.00     0.031 C 
ATOM     43  C   UNL A   1      38.044  30.127  28.709  1.00  0.00     0.029 A 
ATOM     44  C   UNL A   1      39.014  30.885  29.495  1.00  0.00     0.049 A 
ATOM     45  H   UNL A   1      40.957  30.324  29.994  1.00  0.00     0.167 HD
ATOM     46  C   UNL A   1      45.003  28.969  31.012  1.00  0.00     0.031 A 
ATOM     47  C   UNL A   1      38.804  32.101  30.034  1.00  0.00     0.031 A 
ATOM     48  C   UNL A   1      44.873  30.263  31.626  1.00  0.00     0.049 A 
ATOM     49  C   UNL A   1      39.897  32.742  30.842  1.00  0.00     0.074 A 
ATOM     50  C   UNL A   1      45.808  30.969  32.362  1.00  0.00     0.029 A 
ATOM     51  N   UNL A   1      43.732  31.050  31.571  1.00  0.00    -0.354 N 
ATOM     52  N   UNL A   1      41.100  32.287  31.107  1.00  0.00    -0.248 NA
ATOM     53  C   UNL A   1      39.604  34.058  31.426  1.00  0.00     0.031 C 
ATOM     54  C   UNL A   1      45.220  32.169  32.780  1.00  0.00     0.029 A 
ATOM     55  C   UNL A   1      43.933  32.228  32.268  1.00  0.00     0.049 A 
ATOM     56  H   UNL A   1      42.899  30.805  31.103  1.00  0.00     0.167 HD
ATOM     57  C   UNL A   1      41.714  33.271  31.873  1.00  0.00     0.074 A 
ATOM     58  C   UNL A   1      40.754  34.347  32.020  1.00  0.00     0.031 C 
ATOM     59  C   UNL A   1      42.961  33.283  32.405  1.00  0.00     0.031 A 
BRANCH  46  60
ATOM     60  C   UNL A   1      46.295  28.217  31.169  1.00  0.00    -0.014 A 
ATOM     61  C   UNL A   1      47.330  28.341  30.225  1.00  0.00     0.010 A 
ATOM     62  C   UNL A   1      46.471  27.361  32.271  1.00  0.00     0.010 A 
ATOM     63  C   UNL A   1      48.498  27.583  30.353  1.00  0.00     0.020 A 
ATOM     64  C   UNL A   1      47.646  26.619  32.415  1.00  0.00     0.020 A 
ATOM     65  C   UNL A   1      48.642  26.716  31.442  1.00  0.00     0.054 A 
BRANCH  65  66
ATOM     66  S   UNL A   1      50.155  25.724  31.579  1.00  0.00     0.124 S 
ATOM     67  O   UNL A   1      50.321  25.242  30.210  1.00  0.00    -0.237 OA
ATOM     68  O   UNL A   1      51.145  26.700  32.026  1.00  0.00    -0.237 OA
ATOM     69  O   UNL A   1      49.807  24.701  32.562  1.00  0.00    -0.744 OA
ENDBRANCH  65  66
ENDBRANCH  46  60
BRANCH  47  70
ATOM     70  C   UNL A   1      37.496  32.778  29.837  1.00  0.00    -0.014 A 
ATOM     71  C   UNL A   1      37.299  33.645  28.749  1.00  0.00     0.010 A 
ATOM     72  C   UNL A   1      36.430  32.532  30.721  1.00  0.00     0.010 A 
ATOM     73  C   UNL A   1      36.059  34.259  28.551  1.00  0.00     0.020 A 
ATOM     74  C   UNL A   1      35.182  33.126  30.514  1.00  0.00     0.020 A 
ATOM     75  C   UNL A   1      35.007  33.993  29.433  1.00  0.00     0.054 A 
BRANCH  75  76
ATOM     76  S   UNL A   1      33.384  34.742  29.119  1.00  0.00     0.124 S 
ATOM     77  O   UNL A   1      32.816  34.809  30.461  1.00  0.00    -0.237 OA
ATOM     78  O   UNL A   1      33.737  36.026  28.516  1.00  0.00    -0.237 OA
ATOM     79  O   UNL A   1      32.742  33.794  28.211  1.00  0.00    -0.744 OA
ENDBRANCH  75  76
ENDBRANCH  47  70
BRANCH  59  80
ATOM     80  C   UNL A   1      43.366  34.513  33.169  1.00  0.00    -0.014 A 
ATOM     81  C   UNL A   1      43.993  35.594  32.526  1.00  0.00     0.010 A 
ATOM     82  C   UNL A   1      43.080  34.600  34.543  1.00  0.00     0.010 A 
ATOM     83  C   UNL A   1      44.354  36.732  33.252  1.00  0.00     0.020 A 
ATOM     84  C   UNL A   1      43.421  35.744  35.268  1.00  0.00     0.020 A 
ATOM     85  C   UNL A   1      44.071  36.797  34.620  1.00  0.00     0.054 A 
BRANCH  85  86
ATOM     86  S   UNL A   1      44.513  38.297  35.539  1.00  0.00     0.124 S 
ATOM     87  O   UNL A   1      45.967  38.317  35.404  1.00  0.00    -0.237 OA
ATOM     88  O   UNL A   1      43.801  39.345  34.812  1.00  0.00    -0.237 OA
ATOM     89  O   UNL A   1      44.014  38.035  36.887  1.00  0.00    -0.744 OA
ENDBRANCH  85  86
ENDBRANCH  59  80
ENDBRANCH  33  34
ENDBRANCH  26  28
ENDBRANCH  25  26
ENDBRANCH  24  25
ENDBRANCH   1  24
TORSDOF 20
ENDMDL
MODEL 2
REMARK VINA RESULT:     -10.0      1.959      2.747
REMARK SMILES Cc1ccc(CNC(=O)NC[C@@H](CC(C)C)C(=O)OCCOC(=O)c2ccc(-c3c4nc(c(-c5ccc(S(=O)(=O)[O-])cc5)c5ccc([nH]5)c(-c5ccc(S(=O)(=O)[O-])cc5)c5nc(c(-c6ccc(S(=O)(=O)[O-])cc6)c6ccc3[nH]6)C=C5)C=C4)cc2)s1
REMARK SMILES IDX 20 1 19 2 17 3 18 4 12 5 11 6 10 7 7 8 8 9 9 11 6 13 5 14
REMARK SMILES IDX 1 15 2 16 3 17 85 18 4 19 13 20 14 21 15 22 16 23 21 24
REMARK SMILES IDX 22 25 23 26 24 27 25 28 26 29 84 30 27 31 83 32 28 33 29 34
REMARK SMILES IDX 30 35 77 36 31 37 82 38 76 39 78 40 32 41 81 42 75 43 74 44
REMARK SMILES IDX 33 46 63 47 44 48 62 49 45 50 48 51 61 52 79 53 46 54 47 55
REMARK SMILES IDX 60 57 80 58 49 59 34 60 35 61 43 62 36 63 42 64 37 65 38 66
REMARK SMILES IDX 39 67 40 68 41 69 64 70 65 71 73 72 66 73 72 74 67 75 68 76
REMARK SMILES IDX 69 77 70 78 71 79 50 80 51 81 59 82 52 83 58 84 53 85 54 86
REMARK SMILES IDX 55 87 56 88 57 89
REMARK H PARENT 7 10 10 12 78 45 48 56
REMARK Flexibility Score: inf
ROOT
ATOM      1  C   UNL A   1      35.697  22.258  24.604  1.00  0.00     0.274 C 
ENDROOT
BRANCH   1   2
ATOM      2  O   UNL A   1      34.831  22.572  23.494  1.00  0.00    -0.462 OA
BRANCH   2   3
ATOM      3  C   UNL A   1      33.499  22.530  23.751  1.00  0.00     0.310 C 
ATOM      4  O   UNL A   1      32.739  21.676  23.310  1.00  0.00    -0.252 OA
BRANCH   3   5
ATOM      5  C   UNL A   1      33.002  23.687  24.602  1.00  0.00     0.119 C 
BRANCH   5   6
ATOM      6  C   UNL A   1      33.416  25.080  24.114  1.00  0.00     0.133 C 
BRANCH   6   7
ATOM      7  N   UNL A   1      33.392  25.150  22.654  1.00  0.00    -0.337 N 
ATOM      8  N   UNL A   1      32.020  26.962  21.973  1.00  0.00    -0.333 N 
ATOM      9  C   UNL A   1      32.846  25.945  21.727  1.00  0.00     0.315 C 
ATOM     10  H   UNL A   1      31.791  27.468  21.161  1.00  0.00     0.165 HD
ATOM     11  O   UNL A   1      33.138  25.712  20.550  1.00  0.00    -0.249 OA
ATOM     12  H   UNL A   1      33.913  24.422  22.246  1.00  0.00     0.165 HD
BRANCH   8  13
ATOM     13  C   UNL A   1      31.384  27.488  23.156  1.00  0.00     0.164 C 
BRANCH  13  14
ATOM     14  C   UNL A   1      30.150  28.281  22.834  1.00  0.00     0.024 A 
ATOM     15  C   UNL A   1      27.852  31.104  21.356  1.00  0.00     0.056 C 
ATOM     16  C   UNL A   1      28.497  29.944  22.027  1.00  0.00     0.002 A 
ATOM     17  C   UNL A   1      27.903  28.928  22.744  1.00  0.00     0.015 A 
ATOM     18  S   UNL A   1      30.196  29.758  21.963  1.00  0.00    -0.144 S 
ATOM     19  C   UNL A   1      28.853  27.974  23.209  1.00  0.00     0.017 A 
ENDBRANCH  13  14
ENDBRANCH   8  13
ENDBRANCH   6   7
ENDBRANCH   5   6
BRANCH   5  20
ATOM     20  C   UNL A   1      31.497  23.518  24.911  1.00  0.00     0.020 C 
BRANCH  20  21
ATOM     21  C   UNL A   1      30.927  24.165  26.192  1.00  0.00    -0.017 C 
ATOM     22  C   UNL A   1      30.085  25.413  25.932  1.00  0.00     0.007 C 
ATOM     23  C   UNL A   1      30.071  23.134  26.938  1.00  0.00     0.007 C 
ENDBRANCH  20  21
ENDBRANCH   5  20
ENDBRANCH   3   5
ENDBRANCH   2   3
ENDBRANCH   1   2
BRANCH   1  24
ATOM     24  C   UNL A   1      37.110  22.809  24.412  1.00  0.00     0.275 C 
BRANCH  24  25
ATOM     25  O   UNL A   1      37.491  23.685  25.487  1.00  0.00    -0.458 OA
BRANCH  25  26
ATOM     26  C   UNL A   1      38.546  23.252  26.205  1.00  0.00     0.338 C 
ATOM     27  O   UNL A   1      38.978  22.106  26.263  1.00  0.00    -0.246 OA
BRANCH  26  28
ATOM     28  C   UNL A   1      39.229  24.375  26.852  1.00  0.00     0.060 A 
ATOM     29  C   UNL A   1      39.014  24.581  28.217  1.00  0.00     0.016 A 
ATOM     30  C   UNL A   1      39.968  25.288  26.100  1.00  0.00     0.016 A 
ATOM     31  C   UNL A   1      39.518  25.717  28.840  1.00  0.00     0.010 A 
ATOM     32  C   UNL A   1      40.484  26.425  26.729  1.00  0.00     0.010 A 
ATOM     33  C   UNL A   1      40.245  26.652  28.096  1.00  0.00    -0.014 A 
BRANCH  33  34
ATOM     34  C   UNL A   1      40.699  27.906  28.738  1.00  0.00     0.031 A 
ATOM     35  C   UNL A   1      42.113  28.018  29.228  1.00  0.00     0.074 A 
ATOM     36  C   UNL A   1      39.849  28.942  28.857  1.00  0.00     0.049 A 
ATOM     37  N   UNL A   1      42.681  28.991  29.891  1.00  0.00    -0.248 NA
ATOM     38  C   UNL A   1      43.004  26.884  28.933  1.00  0.00     0.031 C 
ATOM     39  C   UNL A   1      38.474  28.969  28.358  1.00  0.00     0.029 A 
ATOM     40  N   UNL A   1      40.024  30.172  29.436  1.00  0.00    -0.354 N 
ATOM     41  C   UNL A   1      43.991  28.581  30.113  1.00  0.00     0.074 A 
ATOM     42  C   UNL A   1      44.128  27.266  29.522  1.00  0.00     0.031 C 
ATOM     43  C   UNL A   1      37.929  30.161  28.652  1.00  0.00     0.029 A 
ATOM     44  C   UNL A   1      38.900  30.960  29.395  1.00  0.00     0.049 A 
ATOM     45  H   UNL A   1      40.873  30.462  29.841  1.00  0.00     0.167 HD
ATOM     46  C   UNL A   1      44.985  29.239  30.755  1.00  0.00     0.031 A 
ATOM     47  C   UNL A   1      38.672  32.179  29.919  1.00  0.00     0.031 A 
ATOM     48  C   UNL A   1      44.837  30.540  31.350  1.00  0.00     0.049 A 
ATOM     49  C   UNL A   1      39.771  32.864  30.681  1.00  0.00     0.074 A 
ATOM     50  C   UNL A   1      45.775  31.284  32.045  1.00  0.00     0.029 A 
ATOM     51  N   UNL A   1      43.673  31.293  31.318  1.00  0.00    -0.354 N 
ATOM     52  N   UNL A   1      40.994  32.448  30.916  1.00  0.00    -0.248 NA
ATOM     53  C   UNL A   1      39.459  34.181  31.252  1.00  0.00     0.031 C 
ATOM     54  C   UNL A   1      45.165  32.475  32.462  1.00  0.00     0.029 A 
ATOM     55  C   UNL A   1      43.862  32.489  31.989  1.00  0.00     0.049 A 
ATOM     56  H   UNL A   1      42.834  31.017  30.881  1.00  0.00     0.167 HD
ATOM     57  C   UNL A   1      41.603  33.462  31.647  1.00  0.00     0.074 A 
ATOM     58  C   UNL A   1      40.618  34.513  31.805  1.00  0.00     0.031 C 
ATOM     59  C   UNL A   1      42.866  33.518  32.139  1.00  0.00     0.031 A 
BRANCH  46  60
ATOM     60  C   UNL A   1      46.302  28.526  30.884  1.00  0.00    -0.014 A 
ATOM     61  C   UNL A   1      47.280  28.614  29.877  1.00  0.00     0.010 A 
ATOM     62  C   UNL A   1      46.560  27.744  32.024  1.00  0.00     0.010 A 
ATOM     63  C   UNL A   1      48.473  27.891  29.985  1.00  0.00     0.020 A 
ATOM     64  C   UNL A   1      47.759  27.038  32.146  1.00  0.00     0.020 A 
ATOM     65  C   UNL A   1      48.697  27.096  31.114  1.00  0.00     0.054 A 
BRANCH  65  66
ATOM     66  S   UNL A   1      50.240  26.147  31.226  1.00  0.00     0.124 S 
ATOM     67  O   UNL A   1      50.790  26.313  29.883  1.00  0.00    -0.237 OA
ATOM     68  O   UNL A   1      50.967  26.832  32.292  1.00  0.00    -0.237 OA
ATOM     69  O   UNL A   1      49.789  24.796  31.552  1.00  0.00    -0.744 OA
ENDBRANCH  65  66
ENDBRANCH  46  60
BRANCH  47  70
ATOM     70  C   UNL A   1      37.340  32.815  29.752  1.00  0.00    -0.014 A 
ATOM     71  C   UNL A   1      36.438  32.874  30.827  1.00  0.00     0.010 A 
ATOM     72  C   UNL A   1      36.981  33.394  28.521  1.00  0.00     0.010 A 
ATOM     73  C   UNL A   1      35.196  33.497  30.674  1.00  0.00     0.020 A 
ATOM     74  C   UNL A   1      35.749  34.038  28.371  1.00  0.00     0.020 A 
ATOM     75  C   UNL A   1      34.861  34.078  29.448  1.00  0.00     0.054 A 
BRANCH  75  76
ATOM     76  S   UNL A   1      33.275  34.946  29.289  1.00  0.00     0.124 S 
ATOM     77  O   UNL A   1      32.746  34.862  30.646  1.00  0.00    -0.237 OA
ATOM     78  O   UNL A   1      33.684  36.279  28.850  1.00  0.00    -0.237 OA
ATOM     79  O   UNL A   1      32.558  34.163  28.285  1.00  0.00    -0.744 OA
ENDBRANCH  75  76
ENDBRANCH  47  70
BRANCH  59  80
ATOM     80  C   UNL A   1      43.259  34.772  32.869  1.00  0.00    -0.014 A 
ATOM     81  C   UNL A   1      43.671  35.920  32.171  1.00  0.00     0.010 A 
ATOM     82  C   UNL A   1      43.177  34.811  34.272  1.00  0.00     0.010 A 
ATOM     83  C   UNL A   1      44.024  37.079  32.867  1.00  0.00     0.020 A 
ATOM     84  C   UNL A   1      43.510  35.974  34.971  1.00  0.00     0.020 A 
ATOM     85  C   UNL A   1      43.947  37.096  34.264  1.00  0.00     0.054 A 
BRANCH  85  86
ATOM     86  S   UNL A   1      44.374  38.621  35.149  1.00  0.00     0.124 S 
ATOM     87  O   UNL A   1      45.833  38.610  35.084  1.00  0.00    -0.237 OA
ATOM     88  O   UNL A   1      43.717  39.654  34.352  1.00  0.00    -0.237 OA
ATOM     89  O   UNL A   1      43.806  38.417  36.480  1.00  0.00    -0.744 OA
ENDBRANCH  85  86
ENDBRANCH  59  80
ENDBRANCH  33  34
ENDBRANCH  26  28
ENDBRANCH  25  26
ENDBRANCH  24  25
ENDBRANCH   1  24
TORSDOF 20
ENDMDL
MODEL 3
REMARK VINA RESULT:      -9.8      5.592     11.798
REMARK SMILES Cc1ccc(CNC(=O)NC[C@@H](CC(C)C)C(=O)OCCOC(=O)c2ccc(-c3c4nc(c(-c5ccc(S(=O)(=O)[O-])cc5)c5ccc([nH]5)c(-c5ccc(S(=O)(=O)[O-])cc5)c5nc(c(-c6ccc(S(=O)(=O)[O-])cc6)c6ccc3[nH]6)C=C5)C=C4)cc2)s1
REMARK SMILES IDX 20 1 19 2 17 3 18 4 12 5 11 6 10 7 7 8 8 9 9 11 6 13 5 14
REMARK SMILES IDX 1 15 2 16 3 17 85 18 4 19 13 20 14 21 15 22 16 23 21 24
REMARK SMILES IDX 22 25 23 26 24 27 25 28 26 29 84 30 27 31 83 32 28 33 29 34
REMARK SMILES IDX 30 35 77 36 31 37 82 38 76 39 78 40 32 41 81 42 75 43 74 44
REMARK SMILES IDX 33 46 63 47 44 48 62 49 45 50 48 51 61 52 79 53 46 54 47 55
REMARK SMILES IDX 60 57 80 58 49 59 34 60 35 61 43 62 36 63 42 64 37 65 38 66
REMARK SMILES IDX 39 67 40 68 41 69 64 70 65 71 73 72 66 73 72 74 67 75 68 76
REMARK SMILES IDX 69 77 70 78 71 79 50 80 51 81 59 82 52 83 58 84 53 85 54 86
REMARK SMILES IDX 55 87 56 88 57 89
REMARK H PARENT 7 10 10 12 78 45 48 56
REMARK Flexibility Score: inf
ROOT
ATOM      1  C   UNL A   1      36.206  32.141  32.873  1.00  0.00     0.274 C 
ENDROOT
BRANCH   1   2
ATOM      2  O   UNL A   1      37.603  32.364  32.589  1.00  0.00    -0.462 OA
BRANCH   2   3
ATOM      3  C   UNL A   1      37.883  33.423  31.786  1.00  0.00     0.310 C 
ATOM      4  O   UNL A   1      37.810  34.594  32.140  1.00  0.00    -0.252 OA
BRANCH   3   5
ATOM      5  C   UNL A   1      38.246  33.033  30.364  1.00  0.00     0.119 C 
BRANCH   5   6
ATOM      6  C   UNL A   1      37.465  33.765  29.267  1.00  0.00     0.133 C 
BRANCH   6   7
ATOM      7  N   UNL A   1      36.586  32.845  28.548  1.00  0.00    -0.337 N 
ATOM      8  N   UNL A   1      34.610  33.984  27.898  1.00  0.00    -0.333 N 
ATOM      9  C   UNL A   1      35.400  32.912  27.933  1.00  0.00     0.315 C 
ATOM     10  H   UNL A   1      33.817  33.852  27.330  1.00  0.00     0.165 HD
ATOM     11  O   UNL A   1      35.015  31.894  27.351  1.00  0.00    -0.249 OA
ATOM     12  H   UNL A   1      36.965  31.937  28.507  1.00  0.00     0.165 HD
BRANCH   8  13
ATOM     13  C   UNL A   1      34.648  35.292  28.504  1.00  0.00     0.164 C 
BRANCH  13  14
ATOM     14  C   UNL A   1      34.017  35.308  29.866  1.00  0.00     0.024 A 
ATOM     15  C   UNL A   1      31.599  36.274  32.809  1.00  0.00     0.056 C 
ATOM     16  C   UNL A   1      32.634  35.751  31.876  1.00  0.00     0.002 A 
ATOM     17  C   UNL A   1      33.581  34.776  32.103  1.00  0.00     0.015 A 
ATOM     18  S   UNL A   1      32.746  36.379  30.289  1.00  0.00    -0.144 S 
ATOM     19  C   UNL A   1      34.377  34.525  30.949  1.00  0.00     0.017 A 
ENDBRANCH  13  14
ENDBRANCH   8  13
ENDBRANCH   6   7
ENDBRANCH   5   6
BRANCH   5  20
ATOM     20  C   UNL A   1      39.781  33.026  30.185  1.00  0.00     0.020 C 
BRANCH  20  21
ATOM     21  C   UNL A   1      40.572  34.309  30.522  1.00  0.00    -0.017 C 
ATOM     22  C   UNL A   1      41.687  34.098  31.544  1.00  0.00     0.007 C 
ATOM     23  C   UNL A   1      41.180  34.877  29.233  1.00  0.00     0.007 C 
ENDBRANCH  20  21
ENDBRANCH   5  20
ENDBRANCH   3   5
ENDBRANCH   2   3
ENDBRANCH   1   2
BRANCH   1  24
ATOM     24  C   UNL A   1      35.535  31.257  31.822  1.00  0.00     0.275 C 
BRANCH  24  25
ATOM     25  O   UNL A   1      36.278  30.047  31.591  1.00  0.00    -0.458 OA
BRANCH  25  26
ATOM     26  C   UNL A   1      36.457  29.749  30.289  1.00  0.00     0.338 C 
ATOM     27  O   UNL A   1      35.594  29.698  29.419  1.00  0.00    -0.246 OA
BRANCH  26  28
ATOM     28  C   UNL A   1      37.881  29.598  29.983  1.00  0.00     0.060 A 
ATOM     29  C   UNL A   1      38.277  29.648  28.643  1.00  0.00     0.016 A 
ATOM     30  C   UNL A   1      38.797  29.283  30.986  1.00  0.00     0.016 A 
ATOM     31  C   UNL A   1      39.591  29.361  28.292  1.00  0.00     0.010 A 
ATOM     32  C   UNL A   1      40.121  29.004  30.633  1.00  0.00     0.010 A 
ATOM     33  C   UNL A   1      40.518  29.024  29.284  1.00  0.00    -0.014 A 
BRANCH  33  34
ATOM     34  C   UNL A   1      41.890  28.626  28.901  1.00  0.00     0.031 A 
ATOM     35  C   UNL A   1      42.998  29.637  28.957  1.00  0.00     0.074 A 
ATOM     36  C   UNL A   1      42.139  27.358  28.527  1.00  0.00     0.049 A 
ATOM     37  N   UNL A   1      44.245  29.515  28.584  1.00  0.00    -0.248 NA
ATOM     38  C   UNL A   1      42.656  30.959  29.507  1.00  0.00     0.031 C 
ATOM     39  C   UNL A   1      41.154  26.276  28.497  1.00  0.00     0.029 A 
ATOM     40  N   UNL A   1      43.301  26.769  28.100  1.00  0.00    -0.354 N 
ATOM     41  C   UNL A   1      44.835  30.749  28.832  1.00  0.00     0.074 A 
ATOM     42  C   UNL A   1      43.805  31.607  29.379  1.00  0.00     0.031 C 
ATOM     43  C   UNL A   1      41.756  25.152  28.076  1.00  0.00     0.029 A 
ATOM     44  C   UNL A   1      43.152  25.446  27.766  1.00  0.00     0.049 A 
ATOM     45  H   UNL A   1      44.158  27.249  28.040  1.00  0.00     0.167 HD
ATOM     46  C   UNL A   1      46.116  31.132  28.618  1.00  0.00     0.031 A 
ATOM     47  C   UNL A   1      44.037  24.576  27.245  1.00  0.00     0.031 A 
ATOM     48  C   UNL A   1      47.131  30.276  28.064  1.00  0.00     0.049 A 
ATOM     49  C   UNL A   1      45.437  25.039  26.958  1.00  0.00     0.074 A 
ATOM     50  C   UNL A   1      48.453  30.573  27.784  1.00  0.00     0.029 A 
ATOM     51  N   UNL A   1      46.934  28.951  27.705  1.00  0.00    -0.354 N 
ATOM     52  N   UNL A   1      45.972  26.221  27.162  1.00  0.00    -0.248 NA
ATOM     53  C   UNL A   1      46.354  24.054  26.368  1.00  0.00     0.031 C 
ATOM     54  C   UNL A   1      49.047  29.434  27.225  1.00  0.00     0.029 A 
ATOM     55  C   UNL A   1      48.105  28.418  27.198  1.00  0.00     0.049 A 
ATOM     56  H   UNL A   1      46.084  28.461  27.799  1.00  0.00     0.167 HD
ATOM     57  C   UNL A   1      47.292  26.115  26.743  1.00  0.00     0.074 A 
ATOM     58  C   UNL A   1      47.478  24.753  26.283  1.00  0.00     0.031 C 
ATOM     59  C   UNL A   1      48.265  27.060  26.741  1.00  0.00     0.031 A 
BRANCH  46  60
ATOM     60  C   UNL A   1      46.465  32.557  28.944  1.00  0.00    -0.014 A 
ATOM     61  C   UNL A   1      46.328  33.578  27.986  1.00  0.00     0.010 A 
ATOM     62  C   UNL A   1      46.952  32.878  30.223  1.00  0.00     0.010 A 
ATOM     63  C   UNL A   1      46.720  34.886  28.287  1.00  0.00     0.020 A 
ATOM     64  C   UNL A   1      47.324  34.188  30.535  1.00  0.00     0.020 A 
ATOM     65  C   UNL A   1      47.229  35.179  29.557  1.00  0.00     0.054 A 
BRANCH  65  66
ATOM     66  S   UNL A   1      47.754  36.878  29.921  1.00  0.00     0.124 S 
ATOM     67  O   UNL A   1      46.474  37.543  30.148  1.00  0.00    -0.237 OA
ATOM     68  O   UNL A   1      48.595  36.711  31.104  1.00  0.00    -0.237 OA
ATOM     69  O   UNL A   1      48.462  37.285  28.710  1.00  0.00    -0.744 OA
ENDBRANCH  65  66
ENDBRANCH  46  60
BRANCH  47  70
ATOM     70  C   UNL A   1      43.613  23.183  26.947  1.00  0.00    -0.014 A 
ATOM     71  C   UNL A   1      43.792  22.642  25.663  1.00  0.00     0.010 A 
ATOM     72  C   UNL A   1      43.054  22.380  27.959  1.00  0.00     0.010 A 
ATOM     73  C   UNL A   1      43.416  21.322  25.394  1.00  0.00     0.020 A 
ATOM     74  C   UNL A   1      42.699  21.054  27.699  1.00  0.00     0.020 A 
ATOM     75  C   UNL A   1      42.875  20.536  26.414  1.00  0.00     0.054 A 
BRANCH  75  76
ATOM     76  S   UNL A   1      42.460  18.804  26.065  1.00  0.00     0.124 S 
ATOM     77  O   UNL A   1      41.058  18.900  25.674  1.00  0.00    -0.237 OA
ATOM     78  O   UNL A   1      43.395  18.462  24.995  1.00  0.00    -0.237 OA
ATOM     79  O   UNL A   1      42.713  18.131  27.338  1.00  0.00    -0.744 OA
ENDBRANCH  75  76
ENDBRANCH  47  70
BRANCH  59  80
ATOM     80  C   UNL A   1      49.624  26.641  26.253  1.00  0.00    -0.014 A 
ATOM     81  C   UNL A   1      49.988  26.788  24.904  1.00  0.00     0.010 A 
ATOM     82  C   UNL A   1      50.561  26.129  27.169  1.00  0.00     0.010 A 
ATOM     83  C   UNL A   1      51.259  26.400  24.471  1.00  0.00     0.020 A 
ATOM     84  C   UNL A   1      51.839  25.760  26.744  1.00  0.00     0.020 A 
ATOM     85  C   UNL A   1      52.175  25.883  25.394  1.00  0.00     0.054 A 
BRANCH  85  86
ATOM     86  S   UNL A   1      53.833  25.420  24.821  1.00  0.00     0.124 S 
ATOM     87  O   UNL A   1      53.913  26.109  23.536  1.00  0.00    -0.237 OA
ATOM     88  O   UNL A   1      54.699  25.949  25.872  1.00  0.00    -0.237 OA
ATOM     89  O   UNL A   1      53.776  23.962  24.747  1.00  0.00    -0.744 OA
ENDBRANCH  85  86
ENDBRANCH  59  80
ENDBRANCH  33  34
ENDBRANCH  26  28
ENDBRANCH  25  26
ENDBRANCH  24  25
ENDBRANCH   1  24
TORSDOF 20
ENDMDL
