MODEL 1
REMARK VINA RESULT:     -12.4      0.000      0.000
REMARK SMILES Cc1cccc([C@@H](CC(F)(F)F)C(=O)OCCOC(=O)c2ccc(-c3c4nc(c(-c5ccc(S(=O)(=O)[O-])cc5)c5ccc([nH]5)c(-c5ccc(S(=O)(=O)[O-])cc5)c5nc(c(-c6ccc(S(=O)(=O)[O-])cc6)c6ccc3[nH]6)C=C5)C=C4)cc2)c1
REMARK SMILES IDX 17 1 16 2 15 3 13 4 14 5 7 6 6 7 1 8 2 9 3 10 81 11 4 12
REMARK SMILES IDX 5 13 8 14 9 15 10 16 11 17 12 18 18 19 19 20 20 21 21 22
REMARK SMILES IDX 22 23 80 24 23 25 79 26 24 27 25 28 26 29 73 30 27 31 78 32
REMARK SMILES IDX 72 33 74 34 28 35 77 36 71 37 70 38 29 40 59 41 40 42 58 43
REMARK SMILES IDX 41 44 44 45 57 46 75 47 42 48 43 49 56 51 76 52 45 53 30 54
REMARK SMILES IDX 31 55 39 56 32 57 38 58 33 59 34 60 35 61 36 62 37 63 60 64
REMARK SMILES IDX 61 65 69 66 62 67 68 68 63 69 64 70 65 71 66 72 67 73 46 74
REMARK SMILES IDX 47 75 55 76 48 77 54 78 49 79 50 80 51 81 52 82 53 83
REMARK H PARENT 74 39 44 50
REMARK Flexibility Score: inf
ROOT
ATOM      1  C   UNL A   1      41.158  30.913  32.241  1.00  0.00     0.275 C 
ENDROOT
BRANCH   1   2
ATOM      2  C   UNL A   1      39.575  31.424  33.208  1.00  0.00     0.274 C 
BRANCH   2   3
ATOM      3  O   UNL A   1      38.167  30.561  33.261  1.00  0.00    -0.462 OA
BRANCH   3   4
ATOM      4  C   UNL A   1      37.788  29.454  32.449  1.00  0.00     0.313 C 
ATOM      5  O   UNL A   1      37.423  28.392  32.948  1.00  0.00    -0.252 OA
BRANCH   4   6
ATOM      6  C   UNL A   1      37.755  29.729  30.840  1.00  0.00     0.138 C 
BRANCH   6   7
ATOM      7  C   UNL A   1      37.507  31.176  30.384  1.00  0.00    -0.033 A 
ATOM      8  C   UNL A   1      34.516  33.563  30.406  1.00  0.00     0.044 C 
ATOM      9  C   UNL A   1      35.876  33.004  30.106  1.00  0.00    -0.051 A 
ATOM     10  C   UNL A   1      36.851  33.763  29.464  1.00  0.00     0.003 A 
ATOM     11  C   UNL A   1      36.209  31.713  30.525  1.00  0.00     0.008 A 
ATOM     12  C   UNL A   1      38.130  33.233  29.262  1.00  0.00     0.001 A 
ATOM     13  C   UNL A   1      38.465  31.954  29.732  1.00  0.00     0.004 A 
ENDBRANCH   6   7
BRANCH   6  14
ATOM     14  C   UNL A   1      38.735  29.113  29.824  1.00  0.00     0.135 C 
BRANCH  14  15
ATOM     15  C   UNL A   1      38.338  28.697  28.425  1.00  0.00     0.390 C 
ATOM     16  F   UNL A   1      37.031  28.890  28.183  1.00  0.00    -0.171 F 
ATOM     17  F   UNL A   1      39.022  29.478  27.539  1.00  0.00    -0.171 F 
ATOM     18  F   UNL A   1      38.657  27.429  28.108  1.00  0.00    -0.171 F 
ENDBRANCH  14  15
ENDBRANCH   6  14
ENDBRANCH   4   6
ENDBRANCH   3   4
ENDBRANCH   2   3
ENDBRANCH   1   2
BRANCH   1  19
ATOM     19  O   UNL A   1      42.271  31.979  31.175  1.00  0.00    -0.458 OA
BRANCH  19  20
ATOM     20  C   UNL A   1      43.756  32.261  30.454  1.00  0.00     0.338 C 
ATOM     21  O   UNL A   1      44.282  33.285  30.937  1.00  0.00    -0.246 OA
BRANCH  20  22
ATOM     22  C   UNL A   1      44.699  31.701  28.945  1.00  0.00     0.060 A 
ATOM     23  C   UNL A   1      44.014  31.734  27.711  1.00  0.00     0.016 A 
ATOM     24  C   UNL A   1      45.813  30.774  28.707  1.00  0.00     0.016 A 
ATOM     25  C   UNL A   1      44.048  30.564  26.748  1.00  0.00     0.010 A 
ATOM     26  C   UNL A   1      45.851  29.632  27.799  1.00  0.00     0.010 A 
ATOM     27  C   UNL A   1      44.784  29.359  26.979  1.00  0.00    -0.014 A 
BRANCH  27  28
ATOM     28  C   UNL A   1      44.301  27.870  26.828  1.00  0.00     0.031 A 
ATOM     29  C   UNL A   1      42.882  27.410  26.852  1.00  0.00     0.074 A 
ATOM     30  C   UNL A   1      44.953  26.797  26.258  1.00  0.00     0.049 A 
ATOM     31  N   UNL A   1      42.290  26.817  27.842  1.00  0.00    -0.248 NA
ATOM     32  C   UNL A   1      42.211  27.210  25.556  1.00  0.00     0.031 C 
ATOM     33  C   UNL A   1      44.674  25.348  26.327  1.00  0.00     0.029 A 
ATOM     34  N   UNL A   1      46.148  26.722  25.607  1.00  0.00    -0.354 N 
ATOM     35  C   UNL A   1      41.348  25.961  27.257  1.00  0.00     0.074 A 
ATOM     36  C   UNL A   1      41.220  26.374  25.864  1.00  0.00     0.031 C 
ATOM     37  C   UNL A   1      45.837  24.662  26.262  1.00  0.00     0.029 A 
ATOM     38  C   UNL A   1      46.895  25.622  26.056  1.00  0.00     0.049 A 
ATOM     39  H   UNL A   1      46.448  27.355  24.916  1.00  0.00     0.167 HD
ATOM     40  C   UNL A   1      41.154  24.652  27.634  1.00  0.00     0.031 A 
ATOM     41  C   UNL A   1      47.986  25.944  26.825  1.00  0.00     0.031 A 
ATOM     42  C   UNL A   1      42.286  24.067  28.374  1.00  0.00     0.049 A 
ATOM     43  C   UNL A   1      47.559  25.822  28.327  1.00  0.00     0.074 A 
ATOM     44  C   UNL A   1      43.044  22.908  28.218  1.00  0.00     0.029 A 
ATOM     45  N   UNL A   1      42.988  24.833  29.289  1.00  0.00    -0.354 N 
ATOM     46  N   UNL A   1      46.603  25.029  28.751  1.00  0.00    -0.248 NA
ATOM     47  C   UNL A   1      48.080  26.628  29.442  1.00  0.00     0.031 C 
ATOM     48  C   UNL A   1      44.211  23.004  29.027  1.00  0.00     0.029 A 
ATOM     49  C   UNL A   1      44.177  24.230  29.653  1.00  0.00     0.049 A 
ATOM     50  H   UNL A   1      42.679  25.701  29.636  1.00  0.00     0.167 HD
ATOM     51  C   UNL A   1      46.219  25.379  30.037  1.00  0.00     0.074 A 
ATOM     52  C   UNL A   1      47.255  26.300  30.461  1.00  0.00     0.031 C 
ATOM     53  C   UNL A   1      45.040  24.938  30.591  1.00  0.00     0.031 A 
BRANCH  40  54
ATOM     54  C   UNL A   1      40.038  23.802  27.025  1.00  0.00    -0.014 A 
ATOM     55  C   UNL A   1      38.770  24.351  26.751  1.00  0.00     0.010 A 
ATOM     56  C   UNL A   1      40.228  22.464  26.608  1.00  0.00     0.010 A 
ATOM     57  C   UNL A   1      37.731  23.601  26.180  1.00  0.00     0.020 A 
ATOM     58  C   UNL A   1      39.192  21.692  26.055  1.00  0.00     0.020 A 
ATOM     59  C   UNL A   1      37.945  22.269  25.843  1.00  0.00     0.054 A 
BRANCH  59  60
ATOM     60  S   UNL A   1      36.593  21.331  25.085  1.00  0.00     0.124 S 
ATOM     61  O   UNL A   1      35.529  21.452  26.078  1.00  0.00    -0.237 OA
ATOM     62  O   UNL A   1      36.373  22.058  23.837  1.00  0.00    -0.237 OA
ATOM     63  O   UNL A   1      37.145  19.987  24.933  1.00  0.00    -0.744 OA
ENDBRANCH  59  60
ENDBRANCH  40  54
BRANCH  41  64
ATOM     64  C   UNL A   1      48.656  27.168  26.116  1.00  0.00    -0.014 A 
ATOM     65  C   UNL A   1      49.182  28.211  26.865  1.00  0.00     0.010 A 
ATOM     66  C   UNL A   1      49.545  26.822  25.138  1.00  0.00     0.010 A 
ATOM     67  C   UNL A   1      50.610  28.619  26.757  1.00  0.00     0.020 A 
ATOM     68  C   UNL A   1      51.017  27.053  25.321  1.00  0.00     0.020 A 
ATOM     69  C   UNL A   1      51.720  28.017  25.948  1.00  0.00     0.054 A 
BRANCH  69  70
ATOM     70  S   UNL A   1      53.758  28.772  25.077  1.00  0.00     0.124 S 
ATOM     71  O   UNL A   1      53.631  29.752  23.991  1.00  0.00    -0.237 OA
ATOM     72  O   UNL A   1      54.517  29.393  26.133  1.00  0.00    -0.237 OA
ATOM     73  O   UNL A   1      54.456  27.664  24.464  1.00  0.00    -0.744 OA
ENDBRANCH  69  70
ENDBRANCH  41  64
BRANCH  53  74
ATOM     74  C   UNL A   1      44.447  25.109  31.997  1.00  0.00    -0.014 A 
ATOM     75  C   UNL A   1      44.238  24.117  32.961  1.00  0.00     0.010 A 
ATOM     76  C   UNL A   1      44.053  26.429  32.384  1.00  0.00     0.010 A 
ATOM     77  C   UNL A   1      43.658  24.424  34.217  1.00  0.00     0.020 A 
ATOM     78  C   UNL A   1      43.511  26.753  33.629  1.00  0.00     0.020 A 
ATOM     79  C   UNL A   1      43.290  25.737  34.538  1.00  0.00     0.054 A 
BRANCH  79  80
ATOM     80  S   UNL A   1      42.525  26.121  36.136  1.00  0.00     0.124 S 
ATOM     81  O   UNL A   1      43.027  27.468  36.396  1.00  0.00    -0.237 OA
ATOM     82  O   UNL A   1      41.097  26.030  35.842  1.00  0.00    -0.237 OA
ATOM     83  O   UNL A   1      43.037  25.084  37.029  1.00  0.00    -0.744 OA
ENDBRANCH  79  80
ENDBRANCH  53  74
ENDBRANCH  27  28
ENDBRANCH  20  22
ENDBRANCH  19  20
ENDBRANCH   1  19
TORSDOF 17
ENDMDL
MODEL 2
REMARK VINA RESULT:     -12.2      5.263     11.205
REMARK SMILES Cc1cccc([C@@H](CC(F)(F)F)C(=O)OCCOC(=O)c2ccc(-c3c4nc(c(-c5ccc(S(=O)(=O)[O-])cc5)c5ccc([nH]5)c(-c5ccc(S(=O)(=O)[O-])cc5)c5nc(c(-c6ccc(S(=O)(=O)[O-])cc6)c6ccc3[nH]6)C=C5)C=C4)cc2)c1
REMARK SMILES IDX 17 1 16 2 15 3 13 4 14 5 7 6 6 7 1 8 2 9 3 10 81 11 4 12
REMARK SMILES IDX 5 13 8 14 9 15 10 16 11 17 12 18 18 19 19 20 20 21 21 22
REMARK SMILES IDX 22 23 80 24 23 25 79 26 24 27 25 28 26 29 73 30 27 31 78 32
REMARK SMILES IDX 72 33 74 34 28 35 77 36 71 37 70 38 29 40 59 41 40 42 58 43
REMARK SMILES IDX 41 44 44 45 57 46 75 47 42 48 43 49 56 51 76 52 45 53 30 54
REMARK SMILES IDX 31 55 39 56 32 57 38 58 33 59 34 60 35 61 36 62 37 63 60 64
REMARK SMILES IDX 61 65 69 66 62 67 68 68 63 69 64 70 65 71 66 72 67 73 46 74
REMARK SMILES IDX 47 75 55 76 48 77 54 78 49 79 50 80 51 81 52 82 53 83
REMARK H PARENT 74 39 44 50
REMARK Flexibility Score: inf
ROOT
ATOM      1  C   UNL A   1      45.880  27.391  24.977  1.00  0.00     0.275 C 
ENDROOT
BRANCH   1   2
ATOM      2  C   UNL A   1      46.368  25.530  25.008  1.00  0.00     0.274 C 
BRANCH   2   3
ATOM      3  O   UNL A   1      45.333  24.275  25.295  1.00  0.00    -0.462 OA
BRANCH   3   4
ATOM      4  C   UNL A   1      45.494  22.907  24.932  1.00  0.00     0.313 C 
ATOM      5  O   UNL A   1      46.293  22.567  24.063  1.00  0.00    -0.252 OA
BRANCH   4   6
ATOM      6  C   UNL A   1      44.648  21.830  25.820  1.00  0.00     0.138 C 
BRANCH   6   7
ATOM      7  C   UNL A   1      43.575  22.394  26.767  1.00  0.00    -0.033 A 
ATOM      8  C   UNL A   1      39.788  22.912  26.590  1.00  0.00     0.044 C 
ATOM      9  C   UNL A   1      41.205  22.991  27.081  1.00  0.00    -0.051 A 
ATOM     10  C   UNL A   1      41.516  23.533  28.326  1.00  0.00     0.003 A 
ATOM     11  C   UNL A   1      42.242  22.462  26.309  1.00  0.00     0.008 A 
ATOM     12  C   UNL A   1      42.840  23.528  28.780  1.00  0.00     0.001 A 
ATOM     13  C   UNL A   1      43.863  22.948  28.015  1.00  0.00     0.004 A 
ENDBRANCH   6   7
BRANCH   6  14
ATOM     14  C   UNL A   1      44.102  20.491  25.289  1.00  0.00     0.135 C 
BRANCH  14  15
ATOM     15  C   UNL A   1      44.972  19.287  25.005  1.00  0.00     0.390 C 
ATOM     16  F   UNL A   1      46.256  19.488  25.344  1.00  0.00    -0.171 F 
ATOM     17  F   UNL A   1      44.522  18.248  25.767  1.00  0.00    -0.171 F 
ATOM     18  F   UNL A   1      44.921  18.849  23.734  1.00  0.00    -0.171 F 
ENDBRANCH  14  15
ENDBRANCH   6  14
ENDBRANCH   4   6
ENDBRANCH   3   4
ENDBRANCH   2   3
ENDBRANCH   1   2
BRANCH   1  19
ATOM     19  O   UNL A   1      44.214  28.169  25.341  1.00  0.00    -0.458 OA
BRANCH  19  20
ATOM     20  C   UNL A   1      42.788  28.206  26.217  1.00  0.00     0.338 C 
ATOM     21  O   UNL A   1      42.161  29.257  25.976  1.00  0.00    -0.246 OA
BRANCH  20  22
ATOM     22  C   UNL A   1      42.024  27.316  27.668  1.00  0.00     0.060 A 
ATOM     23  C   UNL A   1      40.632  27.080  27.615  1.00  0.00     0.016 A 
ATOM     24  C   UNL A   1      42.350  27.192  29.094  1.00  0.00     0.016 A 
ATOM     25  C   UNL A   1      39.729  27.375  28.796  1.00  0.00     0.010 A 
ATOM     26  C   UNL A   1      41.497  27.493  30.239  1.00  0.00     0.010 A 
ATOM     27  C   UNL A   1      40.192  27.877  30.052  1.00  0.00    -0.014 A 
BRANCH  27  28
ATOM     28  C   UNL A   1      39.622  29.071  30.903  1.00  0.00     0.031 A 
ATOM     29  C   UNL A   1      38.570  30.030  30.457  1.00  0.00     0.074 A 
ATOM     30  C   UNL A   1      39.622  29.244  32.271  1.00  0.00     0.049 A 
ATOM     31  N   UNL A   1      38.768  31.254  30.072  1.00  0.00    -0.248 NA
ATOM     32  C   UNL A   1      37.182  29.758  30.868  1.00  0.00     0.031 C 
ATOM     33  C   UNL A   1      39.353  30.440  33.095  1.00  0.00     0.029 A 
ATOM     34  N   UNL A   1      40.042  28.422  33.274  1.00  0.00    -0.354 N 
ATOM     35  C   UNL A   1      37.617  31.956  30.450  1.00  0.00     0.074 A 
ATOM     36  C   UNL A   1      36.606  30.956  30.773  1.00  0.00     0.031 C 
ATOM     37  C   UNL A   1      40.101  30.390  34.220  1.00  0.00     0.029 A 
ATOM     38  C   UNL A   1      40.805  29.130  34.216  1.00  0.00     0.049 A 
ATOM     39  H   UNL A   1      39.837  27.461  33.330  1.00  0.00     0.167 HD
ATOM     40  C   UNL A   1      37.630  33.184  31.072  1.00  0.00     0.031 A 
ATOM     41  C   UNL A   1      42.147  28.845  34.198  1.00  0.00     0.031 A 
ATOM     42  C   UNL A   1      38.912  33.514  31.720  1.00  0.00     0.049 A 
ATOM     43  C   UNL A   1      42.851  29.938  33.325  1.00  0.00     0.074 A 
ATOM     44  C   UNL A   1      39.266  33.929  33.002  1.00  0.00     0.029 A 
ATOM     45  N   UNL A   1      40.107  33.160  31.116  1.00  0.00    -0.354 N 
ATOM     46  N   UNL A   1      42.384  31.153  33.161  1.00  0.00    -0.248 NA
ATOM     47  C   UNL A   1      44.054  29.743  32.501  1.00  0.00     0.031 C 
ATOM     48  C   UNL A   1      40.673  33.794  33.162  1.00  0.00     0.029 A 
ATOM     49  C   UNL A   1      41.172  33.273  31.989  1.00  0.00     0.049 A 
ATOM     50  H   UNL A   1      40.187  32.863  30.181  1.00  0.00     0.167 HD
ATOM     51  C   UNL A   1      43.009  31.772  32.089  1.00  0.00     0.074 A 
ATOM     52  C   UNL A   1      44.124  30.894  31.795  1.00  0.00     0.031 C 
ATOM     53  C   UNL A   1      42.495  32.903  31.500  1.00  0.00     0.031 A 
BRANCH  40  54
ATOM     54  C   UNL A   1      36.337  33.946  31.365  1.00  0.00    -0.014 A 
ATOM     55  C   UNL A   1      35.327  34.070  30.391  1.00  0.00     0.010 A 
ATOM     56  C   UNL A   1      36.026  34.476  32.639  1.00  0.00     0.010 A 
ATOM     57  C   UNL A   1      34.124  34.751  30.634  1.00  0.00     0.020 A 
ATOM     58  C   UNL A   1      34.836  35.178  32.894  1.00  0.00     0.020 A 
ATOM     59  C   UNL A   1      33.888  35.311  31.884  1.00  0.00     0.054 A 
BRANCH  59  60
ATOM     60  S   UNL A   1      32.317  36.161  32.178  1.00  0.00     0.124 S 
ATOM     61  O   UNL A   1      31.417  35.059  32.508  1.00  0.00    -0.237 OA
ATOM     62  O   UNL A   1      32.649  37.054  33.286  1.00  0.00    -0.237 OA
ATOM     63  O   UNL A   1      32.038  36.826  30.907  1.00  0.00    -0.744 OA
ENDBRANCH  59  60
ENDBRANCH  40  54
BRANCH  41  64
ATOM     64  C   UNL A   1      42.247  27.290  34.049  1.00  0.00    -0.014 A 
ATOM     65  C   UNL A   1      43.081  26.728  33.092  1.00  0.00     0.010 A 
ATOM     66  C   UNL A   1      42.412  26.630  35.234  1.00  0.00     0.010 A 
ATOM     67  C   UNL A   1      44.169  25.778  33.453  1.00  0.00     0.020 A 
ATOM     68  C   UNL A   1      43.710  25.949  35.560  1.00  0.00     0.020 A 
ATOM     69  C   UNL A   1      44.619  25.304  34.802  1.00  0.00     0.054 A 
BRANCH  69  70
ATOM     70  S   UNL A   1      45.751  23.428  35.628  1.00  0.00     0.124 S 
ATOM     71  O   UNL A   1      45.565  22.206  34.835  1.00  0.00    -0.237 OA
ATOM     72  O   UNL A   1      47.164  23.711  35.660  1.00  0.00    -0.237 OA
ATOM     73  O   UNL A   1      45.220  23.083  36.928  1.00  0.00    -0.744 OA
ENDBRANCH  69  70
ENDBRANCH  41  64
BRANCH  53  74
ATOM     74  C   UNL A   1      43.036  33.807  30.382  1.00  0.00    -0.014 A 
ATOM     75  C   UNL A   1      43.438  33.426  29.098  1.00  0.00     0.010 A 
ATOM     76  C   UNL A   1      43.153  35.203  30.670  1.00  0.00     0.010 A 
ATOM     77  C   UNL A   1      43.939  34.377  28.174  1.00  0.00     0.020 A 
ATOM     78  C   UNL A   1      43.615  36.156  29.761  1.00  0.00     0.020 A 
ATOM     79  C   UNL A   1      44.033  35.732  28.515  1.00  0.00     0.054 A 
BRANCH  79  80
ATOM     80  S   UNL A   1      44.699  36.940  27.339  1.00  0.00     0.124 S 
ATOM     81  O   UNL A   1      43.486  37.604  26.867  1.00  0.00    -0.237 OA
ATOM     82  O   UNL A   1      45.576  37.756  28.174  1.00  0.00    -0.237 OA
ATOM     83  O   UNL A   1      45.385  36.121  26.343  1.00  0.00    -0.744 OA
ENDBRANCH  79  80
ENDBRANCH  53  74
ENDBRANCH  27  28
ENDBRANCH  20  22
ENDBRANCH  19  20
ENDBRANCH   1  19
TORSDOF 17
ENDMDL
MODEL 3
REMARK VINA RESULT:     -12.2      4.575      6.176
REMARK SMILES Cc1cccc([C@@H](CC(F)(F)F)C(=O)OCCOC(=O)c2ccc(-c3c4nc(c(-c5ccc(S(=O)(=O)[O-])cc5)c5ccc([nH]5)c(-c5ccc(S(=O)(=O)[O-])cc5)c5nc(c(-c6ccc(S(=O)(=O)[O-])cc6)c6ccc3[nH]6)C=C5)C=C4)cc2)c1
REMARK SMILES IDX 17 1 16 2 15 3 13 4 14 5 7 6 6 7 1 8 2 9 3 10 81 11 4 12
REMARK SMILES IDX 5 13 8 14 9 15 10 16 11 17 12 18 18 19 19 20 20 21 21 22
REMARK SMILES IDX 22 23 80 24 23 25 79 26 24 27 25 28 26 29 73 30 27 31 78 32
REMARK SMILES IDX 72 33 74 34 28 35 77 36 71 37 70 38 29 40 59 41 40 42 58 43
REMARK SMILES IDX 41 44 44 45 57 46 75 47 42 48 43 49 56 51 76 52 45 53 30 54
REMARK SMILES IDX 31 55 39 56 32 57 38 58 33 59 34 60 35 61 36 62 37 63 60 64
REMARK SMILES IDX 61 65 69 66 62 67 68 68 63 69 64 70 65 71 66 72 67 73 46 74
REMARK SMILES IDX 47 75 55 76 48 77 54 78 49 79 50 80 51 81 52 82 53 83
REMARK H PARENT 74 39 44 50
REMARK Flexibility Score: inf
ROOT
ATOM      1  C   UNL A   1      38.184  30.899  35.358  1.00  0.00     0.275 C 
ENDROOT
BRANCH   1   2
ATOM      2  C   UNL A   1      37.448  32.663  35.139  1.00  0.00     0.274 C 
BRANCH   2   3
ATOM      3  O   UNL A   1      36.847  33.280  33.729  1.00  0.00    -0.462 OA
BRANCH   3   4
ATOM      4  C   UNL A   1      35.504  33.654  33.439  1.00  0.00     0.313 C 
ATOM      5  O   UNL A   1      34.600  33.466  34.250  1.00  0.00    -0.252 OA
BRANCH   4   6
ATOM      6  C   UNL A   1      35.273  34.446  32.031  1.00  0.00     0.138 C 
BRANCH   6   7
ATOM      7  C   UNL A   1      35.828  33.785  30.758  1.00  0.00    -0.033 A 
ATOM      8  C   UNL A   1      34.367  31.636  27.949  1.00  0.00     0.044 C 
ATOM      9  C   UNL A   1      35.372  32.337  28.817  1.00  0.00    -0.051 A 
ATOM     10  C   UNL A   1      36.721  32.390  28.473  1.00  0.00     0.003 A 
ATOM     11  C   UNL A   1      34.954  33.006  29.969  1.00  0.00     0.008 A 
ATOM     12  C   UNL A   1      37.618  33.110  29.269  1.00  0.00     0.001 A 
ATOM     13  C   UNL A   1      37.175  33.819  30.396  1.00  0.00     0.004 A 
ENDBRANCH   6   7
BRANCH   6  14
ATOM     14  C   UNL A   1      33.964  35.149  31.624  1.00  0.00     0.135 C 
BRANCH  14  15
ATOM     15  C   UNL A   1      33.456  36.415  32.278  1.00  0.00     0.390 C 
ATOM     16  F   UNL A   1      34.074  36.676  33.442  1.00  0.00    -0.171 F 
ATOM     17  F   UNL A   1      33.726  37.462  31.446  1.00  0.00    -0.171 F 
ATOM     18  F   UNL A   1      32.125  36.446  32.474  1.00  0.00    -0.171 F 
ENDBRANCH  14  15
ENDBRANCH   6  14
ENDBRANCH   4   6
ENDBRANCH   3   4
ENDBRANCH   2   3
ENDBRANCH   1   2
BRANCH   1  19
ATOM     19  O   UNL A   1      38.489  29.590  34.053  1.00  0.00    -0.458 OA
BRANCH  19  20
ATOM     20  C   UNL A   1      38.551  29.127  32.445  1.00  0.00     0.338 C 
ATOM     21  O   UNL A   1      38.479  27.885  32.350  1.00  0.00    -0.246 OA
BRANCH  20  22
ATOM     22  C   UNL A   1      39.013  29.875  30.799  1.00  0.00     0.060 A 
ATOM     23  C   UNL A   1      38.445  29.291  29.646  1.00  0.00     0.016 A 
ATOM     24  C   UNL A   1      40.178  30.610  30.287  1.00  0.00     0.016 A 
ATOM     25  C   UNL A   1      39.282  28.956  28.428  1.00  0.00     0.010 A 
ATOM     26  C   UNL A   1      41.004  30.285  29.129  1.00  0.00     0.010 A 
ATOM     27  C   UNL A   1      40.683  29.221  28.322  1.00  0.00    -0.014 A 
BRANCH  27  28
ATOM     28  C   UNL A   1      41.831  28.261  27.838  1.00  0.00     0.031 A 
ATOM     29  C   UNL A   1      41.694  26.794  27.603  1.00  0.00     0.074 A 
ATOM     30  C   UNL A   1      42.993  28.564  27.160  1.00  0.00     0.049 A 
ATOM     31  N   UNL A   1      42.126  25.854  28.386  1.00  0.00    -0.248 NA
ATOM     32  C   UNL A   1      41.448  26.346  26.222  1.00  0.00     0.031 C 
ATOM     33  C   UNL A   1      44.211  27.763  26.923  1.00  0.00     0.029 A 
ATOM     34  N   UNL A   1      43.449  29.745  26.656  1.00  0.00    -0.354 N 
ATOM     35  C   UNL A   1      42.461  24.787  27.542  1.00  0.00     0.074 A 
ATOM     36  C   UNL A   1      41.859  25.078  26.246  1.00  0.00     0.031 C 
ATOM     37  C   UNL A   1      45.286  28.582  26.872  1.00  0.00     0.029 A 
ATOM     38  C   UNL A   1      44.802  29.938  26.979  1.00  0.00     0.049 A 
ATOM     39  H   UNL A   1      42.904  30.378  26.137  1.00  0.00     0.167 HD
ATOM     40  C   UNL A   1      43.624  24.059  27.642  1.00  0.00     0.031 A 
ATOM     41  C   UNL A   1      45.035  30.909  27.920  1.00  0.00     0.031 A 
ATOM     42  C   UNL A   1      44.695  24.739  28.390  1.00  0.00     0.049 A 
ATOM     43  C   UNL A   1      45.166  30.199  29.309  1.00  0.00     0.074 A 
ATOM     44  C   UNL A   1      46.029  25.032  28.114  1.00  0.00     0.029 A 
ATOM     45  N   UNL A   1      44.389  25.493  29.510  1.00  0.00    -0.354 N 
ATOM     46  N   UNL A   1      45.565  28.958  29.460  1.00  0.00    -0.248 NA
ATOM     47  C   UNL A   1      44.778  30.767  30.610  1.00  0.00     0.031 C 
ATOM     48  C   UNL A   1      46.503  25.981  29.060  1.00  0.00     0.029 A 
ATOM     49  C   UNL A   1      45.452  26.288  29.896  1.00  0.00     0.049 A 
ATOM     50  H   UNL A   1      43.521  25.468  29.973  1.00  0.00     0.167 HD
ATOM     51  C   UNL A   1      45.257  28.501  30.732  1.00  0.00     0.074 A 
ATOM     52  C   UNL A   1      44.881  29.707  31.443  1.00  0.00     0.031 C 
ATOM     53  C   UNL A   1      45.265  27.162  31.048  1.00  0.00     0.031 A 
BRANCH  40  54
ATOM     54  C   UNL A   1      43.882  22.840  26.754  1.00  0.00    -0.014 A 
ATOM     55  C   UNL A   1      45.108  22.674  26.082  1.00  0.00     0.010 A 
ATOM     56  C   UNL A   1      42.968  21.767  26.634  1.00  0.00     0.010 A 
ATOM     57  C   UNL A   1      45.380  21.560  25.272  1.00  0.00     0.020 A 
ATOM     58  C   UNL A   1      43.215  20.655  25.811  1.00  0.00     0.020 A 
ATOM     59  C   UNL A   1      44.426  20.559  25.133  1.00  0.00     0.054 A 
BRANCH  59  60
ATOM     60  S   UNL A   1      44.813  19.121  24.102  1.00  0.00     0.124 S 
ATOM     61  O   UNL A   1      44.380  19.556  22.777  1.00  0.00    -0.237 OA
ATOM     62  O   UNL A   1      46.257  18.991  24.280  1.00  0.00    -0.237 OA
ATOM     63  O   UNL A   1      44.015  18.047  24.689  1.00  0.00    -0.744 OA
ENDBRANCH  59  60
ENDBRANCH  40  54
BRANCH  41  64
ATOM     64  C   UNL A   1      44.094  32.101  27.539  1.00  0.00    -0.014 A 
ATOM     65  C   UNL A   1      43.328  32.729  28.511  1.00  0.00     0.010 A 
ATOM     66  C   UNL A   1      44.691  33.047  26.754  1.00  0.00     0.010 A 
ATOM     67  C   UNL A   1      43.438  34.189  28.782  1.00  0.00     0.020 A 
ATOM     68  C   UNL A   1      44.993  34.415  27.295  1.00  0.00     0.020 A 
ATOM     69  C   UNL A   1      44.358  35.209  28.180  1.00  0.00     0.054 A 
BRANCH  69  70
ATOM     70  S   UNL A   1      44.327  37.533  27.895  1.00  0.00     0.124 S 
ATOM     71  O   UNL A   1      44.895  38.292  29.018  1.00  0.00    -0.237 OA
ATOM     72  O   UNL A   1      45.087  37.870  26.718  1.00  0.00    -0.237 OA
ATOM     73  O   UNL A   1      42.957  37.988  27.826  1.00  0.00    -0.744 OA
ENDBRANCH  69  70
ENDBRANCH  41  64
BRANCH  53  74
ATOM     74  C   UNL A   1      45.052  26.427  32.379  1.00  0.00    -0.014 A 
ATOM     75  C   UNL A   1      43.968  26.545  33.255  1.00  0.00     0.010 A 
ATOM     76  C   UNL A   1      46.073  25.512  32.789  1.00  0.00     0.010 A 
ATOM     77  C   UNL A   1      43.920  25.811  34.466  1.00  0.00     0.020 A 
ATOM     78  C   UNL A   1      46.025  24.758  33.963  1.00  0.00     0.020 A 
ATOM     79  C   UNL A   1      44.952  24.931  34.816  1.00  0.00     0.054 A 
BRANCH  79  80
ATOM     80  S   UNL A   1      44.898  24.014  36.379  1.00  0.00     0.124 S 
ATOM     81  O   UNL A   1      43.885  24.753  37.128  1.00  0.00    -0.237 OA
ATOM     82  O   UNL A   1      44.510  22.672  35.954  1.00  0.00    -0.237 OA
ATOM     83  O   UNL A   1      46.259  24.126  36.899  1.00  0.00    -0.744 OA
ENDBRANCH  79  80
ENDBRANCH  53  74
ENDBRANCH  27  28
ENDBRANCH  20  22
ENDBRANCH  19  20
ENDBRANCH   1  19
TORSDOF 17
ENDMDL
