MODEL 1
REMARK VINA RESULT:     -11.0      0.000      0.000
REMARK SMILES Cc1ccc(NC(=O)C[C@H]2C(=O)NCCN2C(=O)CCC(=O)OCCOC(=O)c2ccc(-c3c4nc(c(-c5ccc(S(=O)(=O)[O-])cc5)c5ccc([nH]5)c(-c5ccc(S(=O)(=O)[O-])cc5)c5nc(c(-c6ccc(S(=O)(=O)[O-])cc6)c6ccc3[nH]6)C=C5)C=C4)cc2)c(C)c1
REMARK SMILES IDX 23 1 21 2 22 3 20 4 19 5 17 6 18 7 16 8 10 9 11 10 12 11
REMARK SMILES IDX 13 12 15 13 14 14 9 16 7 17 6 18 8 20 5 21 1 22 2 23 3 24
REMARK SMILES IDX 91 25 4 26 89 27 90 28 24 29 25 30 26 31 27 32 28 33 29 34
REMARK SMILES IDX 30 35 88 36 31 37 87 38 32 39 33 40 34 41 81 42 35 43 86 44
REMARK SMILES IDX 80 45 82 46 36 47 85 48 79 49 78 50 37 52 67 53 48 54 66 55
REMARK SMILES IDX 49 56 52 57 65 58 83 59 50 60 51 61 64 63 84 64 53 65 38 66
REMARK SMILES IDX 39 67 47 68 40 69 46 70 41 71 42 72 43 73 44 74 45 75 68 76
REMARK SMILES IDX 69 77 77 78 70 79 76 80 71 81 72 82 73 83 74 84 75 85 54 86
REMARK SMILES IDX 55 87 63 88 56 89 62 90 57 91 58 92 59 93 60 94 61 95
REMARK H PARENT 13 15 6 19 82 51 52 62
REMARK Flexibility Score: inf
ROOT
ATOM      1  O   UNL A   1      38.092  21.692  25.392  1.00  0.00    -0.462 OA
ENDROOT
BRANCH   1   2
ATOM      2  C   UNL A   1      37.148  22.592  25.087  1.00  0.00     0.306 C 
ATOM      3  O   UNL A   1      37.069  23.699  25.606  1.00  0.00    -0.252 OA
BRANCH   2   4
ATOM      4  C   UNL A   1      36.227  22.133  23.962  1.00  0.00     0.132 C 
BRANCH   4   5
ATOM      5  C   UNL A   1      35.526  23.117  23.029  1.00  0.00     0.112 C 
BRANCH   5   6
ATOM      6  C   UNL A   1      34.303  23.954  23.439  1.00  0.00     0.223 C 
ATOM      7  O   UNL A   1      34.120  25.038  22.872  1.00  0.00    -0.275 OA
BRANCH   6   8
ATOM      8  N   UNL A   1      33.328  23.445  24.287  1.00  0.00    -0.328 N 
ATOM      9  C   UNL A   1      33.475  23.246  25.717  1.00  0.00     0.183 C 
ATOM     10  C   UNL A   1      33.275  21.799  26.215  1.00  0.00     0.243 C 
ATOM     11  O   UNL A   1      33.587  21.443  27.350  1.00  0.00    -0.273 OA
ATOM     12  N   UNL A   1      32.712  20.906  25.343  1.00  0.00    -0.353 N 
ATOM     13  C   UNL A   1      32.196  22.714  23.720  1.00  0.00     0.141 C 
ATOM     14  C   UNL A   1      32.411  21.214  23.957  1.00  0.00     0.137 C 
ATOM     15  H   UNL A   1      32.500  20.004  25.676  1.00  0.00     0.163 HD
BRANCH   9  16
ATOM     16  C   UNL A   1      32.802  24.277  26.632  1.00  0.00     0.135 C 
BRANCH  16  17
ATOM     17  C   UNL A   1      31.303  24.208  26.839  1.00  0.00     0.227 C 
ATOM     18  N   UNL A   1      30.383  25.087  26.347  1.00  0.00    -0.326 N 
ATOM     19  H   UNL A   1      29.462  24.869  26.615  1.00  0.00     0.169 HD
ATOM     20  O   UNL A   1      30.841  23.241  27.464  1.00  0.00    -0.275 OA
BRANCH  18  21
ATOM     21  C   UNL A   1      30.461  26.235  25.540  1.00  0.00     0.044 A 
ATOM     22  C   UNL A   1      31.068  29.190  22.467  1.00  0.00     0.044 C 
ATOM     23  C   UNL A   1      30.691  28.267  23.590  1.00  0.00    -0.051 A 
ATOM     24  C   UNL A   1      29.892  27.154  23.349  1.00  0.00     0.005 A 
ATOM     25  C   UNL A   1      31.227  28.429  24.870  1.00  0.00     0.009 A 
ATOM     26  C   UNL A   1      29.757  26.164  24.327  1.00  0.00     0.026 A 
ATOM     27  C   UNL A   1      31.105  27.431  25.867  1.00  0.00    -0.027 A 
ATOM     28  C   UNL A   1      31.621  27.743  27.240  1.00  0.00     0.046 C 
ENDBRANCH  18  21
ENDBRANCH  16  17
ENDBRANCH   9  16
ENDBRANCH   6   8
ENDBRANCH   5   6
ENDBRANCH   4   5
ENDBRANCH   2   4
ENDBRANCH   1   2
BRANCH   1  29
ATOM     29  C   UNL A   1      38.019  20.326  24.931  1.00  0.00     0.274 C 
BRANCH  29  30
ATOM     30  C   UNL A   1      39.197  19.598  25.578  1.00  0.00     0.275 C 
BRANCH  30  31
ATOM     31  O   UNL A   1      40.056  20.585  26.168  1.00  0.00    -0.458 OA
BRANCH  31  32
ATOM     32  C   UNL A   1      41.379  20.336  26.053  1.00  0.00     0.338 C 
ATOM     33  O   UNL A   1      41.938  19.388  25.522  1.00  0.00    -0.246 OA
BRANCH  32  34
ATOM     34  C   UNL A   1      42.070  21.536  26.502  1.00  0.00     0.060 A 
ATOM     35  C   UNL A   1      42.520  21.620  27.823  1.00  0.00     0.016 A 
ATOM     36  C   UNL A   1      42.288  22.561  25.598  1.00  0.00     0.016 A 
ATOM     37  C   UNL A   1      43.146  22.755  28.283  1.00  0.00     0.010 A 
ATOM     38  C   UNL A   1      42.987  23.672  26.033  1.00  0.00     0.010 A 
ATOM     39  C   UNL A   1      43.403  23.770  27.375  1.00  0.00    -0.014 A 
BRANCH  39  40
ATOM     40  C   UNL A   1      44.070  24.995  27.816  1.00  0.00     0.031 A 
ATOM     41  C   UNL A   1      43.194  26.102  28.286  1.00  0.00     0.074 A 
ATOM     42  C   UNL A   1      45.401  25.098  27.674  1.00  0.00     0.049 A 
ATOM     43  N   UNL A   1      43.441  27.376  28.333  1.00  0.00    -0.248 NA
ATOM     44  C   UNL A   1      41.828  25.724  28.698  1.00  0.00     0.031 C 
ATOM     45  C   UNL A   1      46.309  24.006  27.301  1.00  0.00     0.029 A 
ATOM     46  N   UNL A   1      46.218  26.186  27.786  1.00  0.00    -0.354 N 
ATOM     47  C   UNL A   1      42.240  27.965  28.703  1.00  0.00     0.074 A 
ATOM     48  C   UNL A   1      41.265  26.911  28.864  1.00  0.00     0.031 C 
ATOM     49  C   UNL A   1      47.556  24.488  27.193  1.00  0.00     0.029 A 
ATOM     50  C   UNL A   1      47.510  25.928  27.394  1.00  0.00     0.049 A 
ATOM     51  H   UNL A   1      45.913  27.063  28.113  1.00  0.00     0.167 HD
ATOM     52  C   UNL A   1      41.996  29.283  28.863  1.00  0.00     0.031 A 
ATOM     53  C   UNL A   1      48.517  26.786  27.154  1.00  0.00     0.031 A 
ATOM     54  C   UNL A   1      43.024  30.271  28.685  1.00  0.00     0.049 A 
ATOM     55  C   UNL A   1      48.214  28.250  27.312  1.00  0.00     0.074 A 
ATOM     56  C   UNL A   1      42.945  31.642  28.823  1.00  0.00     0.029 A 
ATOM     57  N   UNL A   1      44.338  29.973  28.335  1.00  0.00    -0.354 N 
ATOM     58  N   UNL A   1      47.071  28.822  27.623  1.00  0.00    -0.248 NA
ATOM     59  C   UNL A   1      49.321  29.182  27.086  1.00  0.00     0.031 C 
ATOM     60  C   UNL A   1      44.200  32.175  28.512  1.00  0.00     0.029 A 
ATOM     61  C   UNL A   1      45.081  31.133  28.245  1.00  0.00     0.049 A 
ATOM     62  H   UNL A   1      44.687  29.067  28.174  1.00  0.00     0.167 HD
ATOM     63  C   UNL A   1      47.329  30.184  27.668  1.00  0.00     0.074 A 
ATOM     64  C   UNL A   1      48.739  30.343  27.355  1.00  0.00     0.031 C 
ATOM     65  C   UNL A   1      46.490  31.214  27.942  1.00  0.00     0.031 A 
BRANCH  52  66
ATOM     66  C   UNL A   1      40.587  29.699  29.184  1.00  0.00    -0.014 A 
ATOM     67  C   UNL A   1      40.201  30.048  30.492  1.00  0.00     0.010 A 
ATOM     68  C   UNL A   1      39.622  29.729  28.161  1.00  0.00     0.010 A 
ATOM     69  C   UNL A   1      38.874  30.378  30.777  1.00  0.00     0.020 A 
ATOM     70  C   UNL A   1      38.300  30.090  28.434  1.00  0.00     0.020 A 
ATOM     71  C   UNL A   1      37.930  30.398  29.745  1.00  0.00     0.054 A 
BRANCH  71  72
ATOM     72  S   UNL A   1      36.222  30.864  30.140  1.00  0.00     0.124 S 
ATOM     73  O   UNL A   1      35.986  30.126  31.378  1.00  0.00    -0.237 OA
ATOM     74  O   UNL A   1      36.313  32.315  30.281  1.00  0.00    -0.237 OA
ATOM     75  O   UNL A   1      35.460  30.399  28.983  1.00  0.00    -0.744 OA
ENDBRANCH  71  72
ENDBRANCH  52  66
BRANCH  53  76
ATOM     76  C   UNL A   1      49.848  26.282  26.723  1.00  0.00    -0.014 A 
ATOM     77  C   UNL A   1      50.158  26.189  25.355  1.00  0.00     0.010 A 
ATOM     78  C   UNL A   1      50.836  25.946  27.668  1.00  0.00     0.010 A 
ATOM     79  C   UNL A   1      51.420  25.752  24.941  1.00  0.00     0.020 A 
ATOM     80  C   UNL A   1      52.111  25.538  27.258  1.00  0.00     0.020 A 
ATOM     81  C   UNL A   1      52.389  25.431  25.895  1.00  0.00     0.054 A 
BRANCH  81  82
ATOM     82  S   UNL A   1      54.031  24.907  25.327  1.00  0.00     0.124 S 
ATOM     83  O   UNL A   1      54.841  25.095  26.527  1.00  0.00    -0.237 OA
ATOM     84  O   UNL A   1      53.799  23.521  24.930  1.00  0.00    -0.237 OA
ATOM     85  O   UNL A   1      54.321  25.822  24.225  1.00  0.00    -0.744 OA
ENDBRANCH  81  82
ENDBRANCH  53  76
BRANCH  65  86
ATOM     86  C   UNL A   1      47.101  32.583  27.982  1.00  0.00    -0.014 A 
ATOM     87  C   UNL A   1      47.800  33.037  29.113  1.00  0.00     0.010 A 
ATOM     88  C   UNL A   1      47.039  33.387  26.830  1.00  0.00     0.010 A 
ATOM     89  C   UNL A   1      48.412  34.289  29.096  1.00  0.00     0.020 A 
ATOM     90  C   UNL A   1      47.679  34.624  26.799  1.00  0.00     0.020 A 
ATOM     91  C   UNL A   1      48.353  35.071  27.937  1.00  0.00     0.054 A 
BRANCH  91  92
ATOM     92  S   UNL A   1      49.219  36.660  27.917  1.00  0.00     0.124 S 
ATOM     93  O   UNL A   1      48.587  37.336  26.788  1.00  0.00    -0.237 OA
ATOM     94  O   UNL A   1      48.908  37.210  29.234  1.00  0.00    -0.237 OA
ATOM     95  O   UNL A   1      50.619  36.290  27.717  1.00  0.00    -0.744 OA
ENDBRANCH  91  92
ENDBRANCH  65  86
ENDBRANCH  39  40
ENDBRANCH  32  34
ENDBRANCH  31  32
ENDBRANCH  30  31
ENDBRANCH  29  30
ENDBRANCH   1  29
TORSDOF 20
ENDMDL
MODEL 2
REMARK VINA RESULT:     -10.9      1.293      2.848
REMARK SMILES Cc1ccc(NC(=O)C[C@H]2C(=O)NCCN2C(=O)CCC(=O)OCCOC(=O)c2ccc(-c3c4nc(c(-c5ccc(S(=O)(=O)[O-])cc5)c5ccc([nH]5)c(-c5ccc(S(=O)(=O)[O-])cc5)c5nc(c(-c6ccc(S(=O)(=O)[O-])cc6)c6ccc3[nH]6)C=C5)C=C4)cc2)c(C)c1
REMARK SMILES IDX 23 1 21 2 22 3 20 4 19 5 17 6 18 7 16 8 10 9 11 10 12 11
REMARK SMILES IDX 13 12 15 13 14 14 9 16 7 17 6 18 8 20 5 21 1 22 2 23 3 24
REMARK SMILES IDX 91 25 4 26 89 27 90 28 24 29 25 30 26 31 27 32 28 33 29 34
REMARK SMILES IDX 30 35 88 36 31 37 87 38 32 39 33 40 34 41 81 42 35 43 86 44
REMARK SMILES IDX 80 45 82 46 36 47 85 48 79 49 78 50 37 52 67 53 48 54 66 55
REMARK SMILES IDX 49 56 52 57 65 58 83 59 50 60 51 61 64 63 84 64 53 65 38 66
REMARK SMILES IDX 39 67 47 68 40 69 46 70 41 71 42 72 43 73 44 74 45 75 68 76
REMARK SMILES IDX 69 77 77 78 70 79 76 80 71 81 72 82 73 83 74 84 75 85 54 86
REMARK SMILES IDX 55 87 63 88 56 89 62 90 57 91 58 92 59 93 60 94 61 95
REMARK H PARENT 13 15 6 19 82 51 52 62
REMARK Flexibility Score: inf
ROOT
ATOM      1  O   UNL A   1      37.384  22.042  25.288  1.00  0.00    -0.462 OA
ENDROOT
BRANCH   1   2
ATOM      2  C   UNL A   1      36.070  21.837  25.137  1.00  0.00     0.306 C 
ATOM      3  O   UNL A   1      35.402  21.119  25.872  1.00  0.00    -0.252 OA
BRANCH   2   4
ATOM      4  C   UNL A   1      35.464  22.658  24.004  1.00  0.00     0.132 C 
BRANCH   4   5
ATOM      5  C   UNL A   1      35.203  24.157  24.130  1.00  0.00     0.112 C 
BRANCH   5   6
ATOM      6  C   UNL A   1      34.263  24.770  25.182  1.00  0.00     0.223 C 
ATOM      7  O   UNL A   1      34.359  24.377  26.351  1.00  0.00    -0.275 OA
BRANCH   6   8
ATOM      8  N   UNL A   1      33.450  25.855  24.883  1.00  0.00    -0.328 N 
ATOM      9  C   UNL A   1      33.336  26.492  23.584  1.00  0.00     0.183 C 
ATOM     10  C   UNL A   1      33.693  27.993  23.541  1.00  0.00     0.243 C 
ATOM     11  O   UNL A   1      33.860  28.601  22.485  1.00  0.00    -0.273 OA
ATOM     12  N   UNL A   1      33.804  28.648  24.738  1.00  0.00    -0.353 N 
ATOM     13  C   UNL A   1      32.927  26.679  25.972  1.00  0.00     0.141 C 
ATOM     14  C   UNL A   1      33.726  27.986  26.028  1.00  0.00     0.137 C 
ATOM     15  H   UNL A   1      33.945  29.622  24.723  1.00  0.00     0.163 HD
BRANCH   9  16
ATOM     16  C   UNL A   1      32.085  26.164  22.761  1.00  0.00     0.135 C 
BRANCH  16  17
ATOM     17  C   UNL A   1      30.793  25.841  23.485  1.00  0.00     0.227 C 
ATOM     18  N   UNL A   1      30.467  24.644  24.049  1.00  0.00    -0.326 N 
ATOM     19  H   UNL A   1      29.570  24.641  24.453  1.00  0.00     0.169 HD
ATOM     20  O   UNL A   1      29.964  26.751  23.637  1.00  0.00    -0.275 OA
BRANCH  18  21
ATOM     21  C   UNL A   1      31.131  23.412  24.182  1.00  0.00     0.044 A 
ATOM     22  C   UNL A   1      32.551  19.351  23.995  1.00  0.00     0.044 C 
ATOM     23  C   UNL A   1      32.251  20.819  24.089  1.00  0.00    -0.051 A 
ATOM     24  C   UNL A   1      32.213  21.606  22.942  1.00  0.00     0.005 A 
ATOM     25  C   UNL A   1      31.884  21.405  25.304  1.00  0.00     0.009 A 
ATOM     26  C   UNL A   1      31.685  22.899  22.998  1.00  0.00     0.026 A 
ATOM     27  C   UNL A   1      31.340  22.711  25.372  1.00  0.00    -0.027 A 
ATOM     28  C   UNL A   1      31.077  23.291  26.730  1.00  0.00     0.046 C 
ENDBRANCH  18  21
ENDBRANCH  16  17
ENDBRANCH   9  16
ENDBRANCH   6   8
ENDBRANCH   5   6
ENDBRANCH   4   5
ENDBRANCH   2   4
ENDBRANCH   1   2
BRANCH   1  29
ATOM     29  C   UNL A   1      38.321  20.948  25.373  1.00  0.00     0.274 C 
BRANCH  29  30
ATOM     30  C   UNL A   1      39.538  21.489  26.122  1.00  0.00     0.275 C 
BRANCH  30  31
ATOM     31  O   UNL A   1      40.298  20.368  26.598  1.00  0.00    -0.458 OA
BRANCH  31  32
ATOM     32  C   UNL A   1      41.564  20.294  26.131  1.00  0.00     0.338 C 
ATOM     33  O   UNL A   1      42.049  19.488  25.351  1.00  0.00    -0.246 OA
BRANCH  32  34
ATOM     34  C   UNL A   1      42.239  21.509  26.565  1.00  0.00     0.060 A 
ATOM     35  C   UNL A   1      42.543  21.684  27.919  1.00  0.00     0.016 A 
ATOM     36  C   UNL A   1      42.589  22.455  25.618  1.00  0.00     0.016 A 
ATOM     37  C   UNL A   1      43.151  22.836  28.362  1.00  0.00     0.010 A 
ATOM     38  C   UNL A   1      43.271  23.580  26.045  1.00  0.00     0.010 A 
ATOM     39  C   UNL A   1      43.539  23.772  27.415  1.00  0.00    -0.014 A 
BRANCH  39  40
ATOM     40  C   UNL A   1      44.193  25.010  27.837  1.00  0.00     0.031 A 
ATOM     41  C   UNL A   1      43.306  26.109  28.306  1.00  0.00     0.074 A 
ATOM     42  C   UNL A   1      45.520  25.132  27.679  1.00  0.00     0.049 A 
ATOM     43  N   UNL A   1      43.533  27.387  28.337  1.00  0.00    -0.248 NA
ATOM     44  C   UNL A   1      41.950  25.715  28.737  1.00  0.00     0.031 C 
ATOM     45  C   UNL A   1      46.440  24.050  27.305  1.00  0.00     0.029 A 
ATOM     46  N   UNL A   1      46.322  26.233  27.771  1.00  0.00    -0.354 N 
ATOM     47  C   UNL A   1      42.328  27.961  28.715  1.00  0.00     0.074 A 
ATOM     48  C   UNL A   1      41.371  26.894  28.897  1.00  0.00     0.031 C 
ATOM     49  C   UNL A   1      47.678  24.550  27.179  1.00  0.00     0.029 A 
ATOM     50  C   UNL A   1      47.614  25.990  27.367  1.00  0.00     0.049 A 
ATOM     51  H   UNL A   1      46.008  27.108  28.093  1.00  0.00     0.167 HD
ATOM     52  C   UNL A   1      42.066  29.277  28.865  1.00  0.00     0.031 A 
ATOM     53  C   UNL A   1      48.604  26.861  27.107  1.00  0.00     0.031 A 
ATOM     54  C   UNL A   1      43.077  30.279  28.666  1.00  0.00     0.049 A 
ATOM     55  C   UNL A   1      48.281  28.322  27.254  1.00  0.00     0.074 A 
ATOM     56  C   UNL A   1      42.979  31.650  28.792  1.00  0.00     0.029 A 
ATOM     57  N   UNL A   1      44.392  29.997  28.304  1.00  0.00    -0.354 N 
ATOM     58  N   UNL A   1      47.134  28.880  27.573  1.00  0.00    -0.248 NA
ATOM     59  C   UNL A   1      49.371  29.268  27.007  1.00  0.00     0.031 C 
ATOM     60  C   UNL A   1      44.222  32.198  28.461  1.00  0.00     0.029 A 
ATOM     61  C   UNL A   1      45.115  31.166  28.195  1.00  0.00     0.049 A 
ATOM     62  H   UNL A   1      44.752  29.094  28.148  1.00  0.00     0.167 HD
ATOM     63  C   UNL A   1      47.371  30.246  27.601  1.00  0.00     0.074 A 
ATOM     64  C   UNL A   1      48.775  30.423  27.271  1.00  0.00     0.031 C 
ATOM     65  C   UNL A   1      46.519  31.265  27.875  1.00  0.00     0.031 A 
BRANCH  52  66
ATOM     66  C   UNL A   1      40.654  29.675  29.198  1.00  0.00    -0.014 A 
ATOM     67  C   UNL A   1      40.278  30.030  30.507  1.00  0.00     0.010 A 
ATOM     68  C   UNL A   1      39.678  29.681  28.185  1.00  0.00     0.010 A 
ATOM     69  C   UNL A   1      38.949  30.343  30.804  1.00  0.00     0.020 A 
ATOM     70  C   UNL A   1      38.354  30.026  28.470  1.00  0.00     0.020 A 
ATOM     71  C   UNL A   1      37.994  30.340  29.782  1.00  0.00     0.054 A 
BRANCH  71  72
ATOM     72  S   UNL A   1      36.284  30.784  30.192  1.00  0.00     0.124 S 
ATOM     73  O   UNL A   1      36.062  30.029  31.423  1.00  0.00    -0.237 OA
ATOM     74  O   UNL A   1      36.361  32.234  30.349  1.00  0.00    -0.237 OA
ATOM     75  O   UNL A   1      35.519  30.325  29.034  1.00  0.00    -0.744 OA
ENDBRANCH  71  72
ENDBRANCH  52  66
BRANCH  53  76
ATOM     76  C   UNL A   1      49.937  26.373  26.666  1.00  0.00    -0.014 A 
ATOM     77  C   UNL A   1      50.268  26.360  25.300  1.00  0.00     0.010 A 
ATOM     78  C   UNL A   1      50.909  25.972  27.603  1.00  0.00     0.010 A 
ATOM     79  C   UNL A   1      51.532  25.938  24.878  1.00  0.00     0.020 A 
ATOM     80  C   UNL A   1      52.186  25.579  27.188  1.00  0.00     0.020 A 
ATOM     81  C   UNL A   1      52.485  25.552  25.825  1.00  0.00     0.054 A 
BRANCH  81  82
ATOM     82  S   UNL A   1      54.131  25.050  25.250  1.00  0.00     0.124 S 
ATOM     83  O   UNL A   1      53.923  23.641  24.929  1.00  0.00    -0.237 OA
ATOM     84  O   UNL A   1      54.349  25.935  24.109  1.00  0.00    -0.237 OA
ATOM     85  O   UNL A   1      54.991  25.309  26.403  1.00  0.00    -0.744 OA
ENDBRANCH  81  82
ENDBRANCH  53  76
BRANCH  65  86
ATOM     86  C   UNL A   1      47.110  32.645  27.895  1.00  0.00    -0.014 A 
ATOM     87  C   UNL A   1      47.705  33.166  29.055  1.00  0.00     0.010 A 
ATOM     88  C   UNL A   1      47.139  33.387  26.701  1.00  0.00     0.010 A 
ATOM     89  C   UNL A   1      48.303  34.425  29.024  1.00  0.00     0.020 A 
ATOM     90  C   UNL A   1      47.766  34.630  26.659  1.00  0.00     0.020 A 
ATOM     91  C   UNL A   1      48.335  35.145  27.825  1.00  0.00     0.054 A 
BRANCH  91  92
ATOM     92  S   UNL A   1      49.183  36.744  27.795  1.00  0.00     0.124 S 
ATOM     93  O   UNL A   1      49.978  36.688  29.019  1.00  0.00    -0.237 OA
ATOM     94  O   UNL A   1      49.942  36.680  26.549  1.00  0.00    -0.237 OA
ATOM     95  O   UNL A   1      48.092  37.716  27.805  1.00  0.00    -0.744 OA
ENDBRANCH  91  92
ENDBRANCH  65  86
ENDBRANCH  39  40
ENDBRANCH  32  34
ENDBRANCH  31  32
ENDBRANCH  30  31
ENDBRANCH  29  30
ENDBRANCH   1  29
TORSDOF 20
ENDMDL
MODEL 3
REMARK VINA RESULT:     -10.9      6.135     11.371
REMARK SMILES Cc1ccc(NC(=O)C[C@H]2C(=O)NCCN2C(=O)CCC(=O)OCCOC(=O)c2ccc(-c3c4nc(c(-c5ccc(S(=O)(=O)[O-])cc5)c5ccc([nH]5)c(-c5ccc(S(=O)(=O)[O-])cc5)c5nc(c(-c6ccc(S(=O)(=O)[O-])cc6)c6ccc3[nH]6)C=C5)C=C4)cc2)c(C)c1
REMARK SMILES IDX 23 1 21 2 22 3 20 4 19 5 17 6 18 7 16 8 10 9 11 10 12 11
REMARK SMILES IDX 13 12 15 13 14 14 9 16 7 17 6 18 8 20 5 21 1 22 2 23 3 24
REMARK SMILES IDX 91 25 4 26 89 27 90 28 24 29 25 30 26 31 27 32 28 33 29 34
REMARK SMILES IDX 30 35 88 36 31 37 87 38 32 39 33 40 34 41 81 42 35 43 86 44
REMARK SMILES IDX 80 45 82 46 36 47 85 48 79 49 78 50 37 52 67 53 48 54 66 55
REMARK SMILES IDX 49 56 52 57 65 58 83 59 50 60 51 61 64 63 84 64 53 65 38 66
REMARK SMILES IDX 39 67 47 68 40 69 46 70 41 71 42 72 43 73 44 74 45 75 68 76
REMARK SMILES IDX 69 77 77 78 70 79 76 80 71 81 72 82 73 83 74 84 75 85 54 86
REMARK SMILES IDX 55 87 63 88 56 89 62 90 57 91 58 92 59 93 60 94 61 95
REMARK H PARENT 13 15 6 19 82 51 52 62
REMARK Flexibility Score: inf
ROOT
ATOM      1  O   UNL A   1      32.857  30.007  27.170  1.00  0.00    -0.462 OA
ENDROOT
BRANCH   1   2
ATOM      2  C   UNL A   1      33.119  29.210  26.127  1.00  0.00     0.306 C 
ATOM      3  O   UNL A   1      33.125  29.591  24.962  1.00  0.00    -0.252 OA
BRANCH   2   4
ATOM      4  C   UNL A   1      33.496  27.791  26.538  1.00  0.00     0.132 C 
BRANCH   4   5
ATOM      5  C   UNL A   1      33.641  26.659  25.525  1.00  0.00     0.112 C 
BRANCH   5   6
ATOM      6  C   UNL A   1      33.534  25.170  25.893  1.00  0.00     0.223 C 
ATOM      7  O   UNL A   1      32.631  24.821  26.664  1.00  0.00    -0.275 OA
BRANCH   6   8
ATOM      8  N   UNL A   1      34.305  24.207  25.254  1.00  0.00    -0.328 N 
ATOM      9  C   UNL A   1      33.842  22.899  24.832  1.00  0.00     0.183 C 
ATOM     10  C   UNL A   1      34.595  21.695  25.437  1.00  0.00     0.243 C 
ATOM     11  O   UNL A   1      34.175  20.543  25.350  1.00  0.00    -0.273 OA
ATOM     12  N   UNL A   1      35.781  21.950  26.073  1.00  0.00    -0.353 N 
ATOM     13  C   UNL A   1      35.763  24.311  25.302  1.00  0.00     0.141 C 
ATOM     14  C   UNL A   1      36.296  23.287  26.310  1.00  0.00     0.137 C 
ATOM     15  H   UNL A   1      36.313  21.184  26.386  1.00  0.00     0.163 HD
BRANCH   9  16
ATOM     16  C   UNL A   1      33.554  22.716  23.337  1.00  0.00     0.135 C 
BRANCH  16  17
ATOM     17  C   UNL A   1      32.130  22.453  22.890  1.00  0.00     0.227 C 
ATOM     18  N   UNL A   1      31.136  23.382  22.786  1.00  0.00    -0.326 N 
ATOM     19  H   UNL A   1      30.279  22.996  22.495  1.00  0.00     0.169 HD
ATOM     20  O   UNL A   1      31.832  21.305  22.528  1.00  0.00    -0.275 OA
BRANCH  18  21
ATOM     21  C   UNL A   1      31.068  24.769  23.002  1.00  0.00     0.044 A 
ATOM     22  C   UNL A   1      29.969  28.892  23.586  1.00  0.00     0.044 C 
ATOM     23  C   UNL A   1      30.506  27.491  23.510  1.00  0.00    -0.051 A 
ATOM     24  C   UNL A   1      30.033  26.508  24.372  1.00  0.00     0.005 A 
ATOM     25  C   UNL A   1      31.397  27.113  22.502  1.00  0.00     0.009 A 
ATOM     26  C   UNL A   1      30.337  25.164  24.134  1.00  0.00     0.026 A 
ATOM     27  C   UNL A   1      31.706  25.755  22.245  1.00  0.00    -0.027 A 
ATOM     28  C   UNL A   1      32.753  25.456  21.214  1.00  0.00     0.046 C 
ENDBRANCH  18  21
ENDBRANCH  16  17
ENDBRANCH   9  16
ENDBRANCH   6   8
ENDBRANCH   5   6
ENDBRANCH   4   5
ENDBRANCH   2   4
ENDBRANCH   1   2
BRANCH   1  29
ATOM     29  C   UNL A   1      33.746  31.078  27.553  1.00  0.00     0.274 C 
BRANCH  29  30
ATOM     30  C   UNL A   1      32.896  32.348  27.567  1.00  0.00     0.275 C 
BRANCH  30  31
ATOM     31  O   UNL A   1      33.776  33.466  27.760  1.00  0.00    -0.458 OA
BRANCH  31  32
ATOM     32  C   UNL A   1      33.730  34.026  28.988  1.00  0.00     0.338 C 
ATOM     33  O   UNL A   1      32.792  34.576  29.547  1.00  0.00    -0.246 OA
BRANCH  32  34
ATOM     34  C   UNL A   1      34.975  33.673  29.655  1.00  0.00     0.060 A 
ATOM     35  C   UNL A   1      34.955  32.765  30.719  1.00  0.00     0.016 A 
ATOM     36  C   UNL A   1      36.159  34.227  29.201  1.00  0.00     0.016 A 
ATOM     37  C   UNL A   1      36.111  32.438  31.389  1.00  0.00     0.010 A 
ATOM     38  C   UNL A   1      37.335  33.842  29.820  1.00  0.00     0.010 A 
ATOM     39  C   UNL A   1      37.306  32.959  30.917  1.00  0.00    -0.014 A 
BRANCH  39  40
ATOM     40  C   UNL A   1      38.562  32.637  31.593  1.00  0.00     0.031 A 
ATOM     41  C   UNL A   1      39.384  31.550  30.996  1.00  0.00     0.074 A 
ATOM     42  C   UNL A   1      38.851  33.248  32.753  1.00  0.00     0.049 A 
ATOM     43  N   UNL A   1      40.275  30.793  31.562  1.00  0.00    -0.248 NA
ATOM     44  C   UNL A   1      39.114  31.230  29.581  1.00  0.00     0.031 C 
ATOM     45  C   UNL A   1      38.119  34.382  33.329  1.00  0.00     0.029 A 
ATOM     46  N   UNL A   1      39.816  32.970  33.678  1.00  0.00    -0.354 N 
ATOM     47  C   UNL A   1      40.618  29.854  30.599  1.00  0.00     0.074 A 
ATOM     48  C   UNL A   1      39.838  30.133  29.416  1.00  0.00     0.031 C 
ATOM     49  C   UNL A   1      38.649  34.687  34.523  1.00  0.00     0.029 A 
ATOM     50  C   UNL A   1      39.686  33.713  34.828  1.00  0.00     0.049 A 
ATOM     51  H   UNL A   1      40.530  32.307  33.537  1.00  0.00     0.167 HD
ATOM     52  C   UNL A   1      41.499  28.839  30.731  1.00  0.00     0.031 A 
ATOM     53  C   UNL A   1      40.292  33.560  36.017  1.00  0.00     0.031 A 
ATOM     54  C   UNL A   1      42.239  28.631  31.945  1.00  0.00     0.049 A 
ATOM     55  C   UNL A   1      41.248  32.407  36.148  1.00  0.00     0.074 A 
ATOM     56  C   UNL A   1      43.177  27.661  32.236  1.00  0.00     0.029 A 
ATOM     57  N   UNL A   1      42.120  29.433  33.077  1.00  0.00    -0.354 N 
ATOM     58  N   UNL A   1      41.552  31.488  35.258  1.00  0.00    -0.248 NA
ATOM     59  C   UNL A   1      41.937  32.262  37.433  1.00  0.00     0.031 C 
ATOM     60  C   UNL A   1      43.590  27.850  33.558  1.00  0.00     0.029 A 
ATOM     61  C   UNL A   1      42.961  28.978  34.072  1.00  0.00     0.049 A 
ATOM     62  H   UNL A   1      41.521  30.210  33.156  1.00  0.00     0.167 HD
ATOM     63  C   UNL A   1      42.499  30.674  35.861  1.00  0.00     0.074 A 
ATOM     64  C   UNL A   1      42.716  31.217  37.191  1.00  0.00     0.031 C 
ATOM     65  C   UNL A   1      43.136  29.581  35.372  1.00  0.00     0.031 A 
BRANCH  52  66
ATOM     66  C   UNL A   1      41.647  27.888  29.575  1.00  0.00    -0.014 A 
ATOM     67  C   UNL A   1      42.673  28.038  28.624  1.00  0.00     0.010 A 
ATOM     68  C   UNL A   1      40.732  26.830  29.428  1.00  0.00     0.010 A 
ATOM     69  C   UNL A   1      42.758  27.174  27.529  1.00  0.00     0.020 A 
ATOM     70  C   UNL A   1      40.832  25.943  28.352  1.00  0.00     0.020 A 
ATOM     71  C   UNL A   1      41.836  26.131  27.400  1.00  0.00     0.054 A 
BRANCH  71  72
ATOM     72  S   UNL A   1      41.992  25.005  25.985  1.00  0.00     0.124 S 
ATOM     73  O   UNL A   1      41.384  23.783  26.503  1.00  0.00    -0.237 OA
ATOM     74  O   UNL A   1      41.231  25.694  24.946  1.00  0.00    -0.237 OA
ATOM     75  O   UNL A   1      43.434  24.935  25.755  1.00  0.00    -0.744 OA
ENDBRANCH  71  72
ENDBRANCH  52  66
BRANCH  53  76
ATOM     76  C   UNL A   1      39.989  34.485  37.141  1.00  0.00    -0.014 A 
ATOM     77  C   UNL A   1      39.147  34.071  38.188  1.00  0.00     0.010 A 
ATOM     78  C   UNL A   1      40.580  35.761  37.209  1.00  0.00     0.010 A 
ATOM     79  C   UNL A   1      38.886  34.920  39.267  1.00  0.00     0.020 A 
ATOM     80  C   UNL A   1      40.346  36.602  38.303  1.00  0.00     0.020 A 
ATOM     81  C   UNL A   1      39.489  36.180  39.319  1.00  0.00     0.054 A 
BRANCH  81  82
ATOM     82  S   UNL A   1      39.164  37.242  40.754  1.00  0.00     0.124 S 
ATOM     83  O   UNL A   1      38.391  36.356  41.619  1.00  0.00    -0.237 OA
ATOM     84  O   UNL A   1      40.511  37.564  41.218  1.00  0.00    -0.237 OA
ATOM     85  O   UNL A   1      38.423  38.368  40.187  1.00  0.00    -0.744 OA
ENDBRANCH  81  82
ENDBRANCH  53  76
BRANCH  65  86
ATOM     86  C   UNL A   1      44.172  28.956  36.260  1.00  0.00    -0.014 A 
ATOM     87  C   UNL A   1      43.896  27.791  36.994  1.00  0.00     0.010 A 
ATOM     88  C   UNL A   1      45.466  29.507  36.283  1.00  0.00     0.010 A 
ATOM     89  C   UNL A   1      44.899  27.198  37.759  1.00  0.00     0.020 A 
ATOM     90  C   UNL A   1      46.478  28.897  37.020  1.00  0.00     0.020 A 
ATOM     91  C   UNL A   1      46.185  27.752  37.761  1.00  0.00     0.054 A 
BRANCH  91  92
ATOM     92  S   UNL A   1      47.486  26.918  38.704  1.00  0.00     0.124 S 
ATOM     93  O   UNL A   1      47.446  27.635  39.975  1.00  0.00    -0.237 OA
ATOM     94  O   UNL A   1      47.015  25.536  38.745  1.00  0.00    -0.237 OA
ATOM     95  O   UNL A   1      48.689  27.137  37.904  1.00  0.00    -0.744 OA
ENDBRANCH  91  92
ENDBRANCH  65  86
ENDBRANCH  39  40
ENDBRANCH  32  34
ENDBRANCH  31  32
ENDBRANCH  30  31
ENDBRANCH  29  30
ENDBRANCH   1  29
TORSDOF 20
ENDMDL
