MODEL 1
REMARK VINA RESULT:     -10.2      0.000      0.000
REMARK SMILES CC[C@@]1(C(=O)OCCOC(=O)c2ccc(-c3c4nc(c(-c5ccc(S(=O)(=O)[O-])cc5)c5ccc([nH]5)c(-c5ccc(S(=O)(=O)[O-])cc5)c5nc(c(-c6ccc(S(=O)(=O)[O-])cc6)c6ccc3[nH]6)C=C5)C=C4)cc2)CCC[N@@H+](Cc2ccc(C3CC3)cc2)C1
REMARK SMILES IDX 7 1 6 2 4 3 5 4 3 5 72 6 86 7 73 8 75 9 74 10 2 12 1 13
REMARK SMILES IDX 76 14 77 15 78 16 85 17 79 18 84 19 80 20 81 21 82 22 83 23
REMARK SMILES IDX 8 24 9 25 10 26 11 27 12 28 13 29 71 30 14 31 70 32 15 33
REMARK SMILES IDX 16 34 17 35 64 36 18 37 69 38 63 39 65 40 19 41 68 42 62 43
REMARK SMILES IDX 61 44 20 46 50 47 31 48 49 49 32 50 35 51 48 52 66 53 33 54
REMARK SMILES IDX 34 55 47 57 67 58 36 59 21 60 22 61 30 62 23 63 29 64 24 65
REMARK SMILES IDX 25 66 26 67 27 68 28 69 51 70 52 71 60 72 53 73 59 74 54 75
REMARK SMILES IDX 55 76 56 77 57 78 58 79 37 80 38 81 46 82 39 83 45 84 40 85
REMARK SMILES IDX 41 86 42 87 43 88 44 89
REMARK H PARENT 75 11 65 45 35 56
REMARK Flexibility Score: inf
ROOT
ATOM      1  C   UNL A   1      43.058  24.871  24.756  1.00  0.00     0.274 C 
ENDROOT
BRANCH   1   2
ATOM      2  O   UNL A   1      43.142  23.436  24.649  1.00  0.00    -0.461 OA
BRANCH   2   3
ATOM      3  C   UNL A   1      44.411  22.942  24.672  1.00  0.00     0.317 C 
ATOM      4  O   UNL A   1      45.264  23.237  23.840  1.00  0.00    -0.251 OA
BRANCH   3   5
ATOM      5  C   UNL A   1      44.684  22.020  25.867  1.00  0.00     0.117 C 
ATOM      6  C   UNL A   1      45.486  20.798  25.339  1.00  0.00     0.030 C 
ATOM      7  C   UNL A   1      43.389  21.507  26.530  1.00  0.00     0.281 C 
ATOM      8  C   UNL A   1      44.618  19.897  24.461  1.00  0.00     0.063 C 
ATOM      9  N   UNL A   1      42.589  20.552  25.745  1.00  0.00    -0.330 N 
ATOM     10  C   UNL A   1      43.389  19.432  25.232  1.00  0.00     0.262 C 
ATOM     11  H   UNL A   1      42.250  21.058  24.928  1.00  0.00     0.348 HD
BRANCH   5  12
ATOM     12  C   UNL A   1      45.568  22.749  26.921  1.00  0.00     0.021 C 
ATOM     13  C   UNL A   1      44.840  23.615  27.945  1.00  0.00     0.005 C 
ENDBRANCH   5  12
BRANCH   9  14
ATOM     14  C   UNL A   1      41.399  20.085  26.503  1.00  0.00     0.299 C 
BRANCH  14  15
ATOM     15  C   UNL A   1      40.052  20.470  25.912  1.00  0.00     0.006 A 
ATOM     16  C   UNL A   1      39.222  19.495  25.351  1.00  0.00     0.010 A 
ATOM     17  C   UNL A   1      39.557  21.773  26.028  1.00  0.00     0.010 A 
ATOM     18  C   UNL A   1      37.895  19.793  25.025  1.00  0.00     0.004 A 
ATOM     19  C   UNL A   1      38.225  22.060  25.708  1.00  0.00     0.004 A 
ATOM     20  C   UNL A   1      37.347  21.071  25.234  1.00  0.00    -0.045 A 
BRANCH  20  21
ATOM     21  C   UNL A   1      35.866  21.301  24.998  1.00  0.00     0.019 C 
ATOM     22  C   UNL A   1      34.893  21.101  26.140  1.00  0.00     0.009 C 
ATOM     23  C   UNL A   1      35.115  22.475  25.574  1.00  0.00     0.009 C 
ENDBRANCH  20  21
ENDBRANCH  14  15
ENDBRANCH   9  14
ENDBRANCH   3   5
ENDBRANCH   2   3
ENDBRANCH   1   2
BRANCH   1  24
ATOM     24  C   UNL A   1      42.599  25.312  26.145  1.00  0.00     0.275 C 
BRANCH  24  25
ATOM     25  O   UNL A   1      41.617  26.361  26.055  1.00  0.00    -0.458 OA
BRANCH  25  26
ATOM     26  C   UNL A   1      40.416  26.079  26.607  1.00  0.00     0.338 C 
ATOM     27  O   UNL A   1      39.666  25.165  26.304  1.00  0.00    -0.246 OA
BRANCH  26  28
ATOM     28  C   UNL A   1      40.076  27.048  27.665  1.00  0.00     0.060 A 
ATOM     29  C   UNL A   1      40.444  28.388  27.549  1.00  0.00     0.016 A 
ATOM     30  C   UNL A   1      39.559  26.568  28.869  1.00  0.00     0.016 A 
ATOM     31  C   UNL A   1      40.430  29.214  28.675  1.00  0.00     0.010 A 
ATOM     32  C   UNL A   1      39.453  27.423  29.969  1.00  0.00     0.010 A 
ATOM     33  C   UNL A   1      39.951  28.737  29.903  1.00  0.00    -0.014 A 
BRANCH  33  34
ATOM     34  C   UNL A   1      40.045  29.566  31.136  1.00  0.00     0.031 A 
ATOM     35  C   UNL A   1      41.233  29.415  32.056  1.00  0.00     0.074 A 
ATOM     36  C   UNL A   1      39.088  30.466  31.437  1.00  0.00     0.049 A 
ATOM     37  N   UNL A   1      41.426  29.920  33.248  1.00  0.00    -0.248 NA
ATOM     38  C   UNL A   1      42.343  28.577  31.575  1.00  0.00     0.031 C 
ATOM     39  C   UNL A   1      37.905  30.756  30.623  1.00  0.00     0.029 A 
ATOM     40  N   UNL A   1      38.966  31.312  32.511  1.00  0.00    -0.354 N 
ATOM     41  C   UNL A   1      42.646  29.415  33.683  1.00  0.00     0.074 A 
ATOM     42  C   UNL A   1      43.153  28.567  32.624  1.00  0.00     0.031 C 
ATOM     43  C   UNL A   1      37.198  31.735  31.209  1.00  0.00     0.029 A 
ATOM     44  C   UNL A   1      37.838  32.094  32.470  1.00  0.00     0.049 A 
ATOM     45  H   UNL A   1      39.625  31.351  33.242  1.00  0.00     0.167 HD
ATOM     46  C   UNL A   1      43.288  29.628  34.858  1.00  0.00     0.031 A 
ATOM     47  C   UNL A   1      37.354  32.983  33.358  1.00  0.00     0.031 A 
ATOM     48  C   UNL A   1      42.814  30.503  35.896  1.00  0.00     0.049 A 
ATOM     49  C   UNL A   1      38.087  33.216  34.647  1.00  0.00     0.074 A 
ATOM     50  C   UNL A   1      43.383  30.772  37.129  1.00  0.00     0.029 A 
ATOM     51  N   UNL A   1      41.666  31.275  35.810  1.00  0.00    -0.354 N 
ATOM     52  N   UNL A   1      39.197  32.664  35.075  1.00  0.00    -0.248 NA
ATOM     53  C   UNL A   1      37.492  34.184  35.580  1.00  0.00     0.031 C 
ATOM     54  C   UNL A   1      42.570  31.699  37.794  1.00  0.00     0.029 A 
ATOM     55  C   UNL A   1      41.512  32.026  36.963  1.00  0.00     0.049 A 
ATOM     56  H   UNL A   1      41.049  31.288  35.042  1.00  0.00     0.167 HD
ATOM     57  C   UNL A   1      39.433  33.216  36.328  1.00  0.00     0.074 A 
ATOM     58  C   UNL A   1      38.365  34.163  36.578  1.00  0.00     0.031 C 
ATOM     59  C   UNL A   1      40.439  32.956  37.197  1.00  0.00     0.031 A 
BRANCH  46  60
ATOM     60  C   UNL A   1      44.561  28.863  35.094  1.00  0.00    -0.014 A 
ATOM     61  C   UNL A   1      44.547  27.582  35.675  1.00  0.00     0.010 A 
ATOM     62  C   UNL A   1      45.791  29.433  34.717  1.00  0.00     0.010 A 
ATOM     63  C   UNL A   1      45.746  26.903  35.915  1.00  0.00     0.020 A 
ATOM     64  C   UNL A   1      46.989  28.750  34.939  1.00  0.00     0.020 A 
ATOM     65  C   UNL A   1      46.960  27.497  35.557  1.00  0.00     0.054 A 
BRANCH  65  66
ATOM     66  S   UNL A   1      48.508  26.603  35.873  1.00  0.00     0.124 S 
ATOM     67  O   UNL A   1      49.280  27.597  36.613  1.00  0.00    -0.237 OA
ATOM     68  O   UNL A   1      48.066  25.448  36.649  1.00  0.00    -0.237 OA
ATOM     69  O   UNL A   1      49.006  26.294  34.534  1.00  0.00    -0.744 OA
ENDBRANCH  65  66
ENDBRANCH  46  60
BRANCH  47  70
ATOM     70  C   UNL A   1      36.085  33.697  33.063  1.00  0.00    -0.014 A 
ATOM     71  C   UNL A   1      34.853  33.150  33.458  1.00  0.00     0.010 A 
ATOM     72  C   UNL A   1      36.110  34.945  32.414  1.00  0.00     0.010 A 
ATOM     73  C   UNL A   1      33.663  33.840  33.209  1.00  0.00     0.020 A 
ATOM     74  C   UNL A   1      34.924  35.646  32.181  1.00  0.00     0.020 A 
ATOM     75  C   UNL A   1      33.706  35.084  32.573  1.00  0.00     0.054 A 
BRANCH  75  76
ATOM     76  S   UNL A   1      32.165  36.009  32.327  1.00  0.00     0.124 S 
ATOM     77  O   UNL A   1      32.292  37.077  33.314  1.00  0.00    -0.237 OA
ATOM     78  O   UNL A   1      32.257  36.426  30.929  1.00  0.00    -0.237 OA
ATOM     79  O   UNL A   1      31.129  35.017  32.604  1.00  0.00    -0.744 OA
ENDBRANCH  75  76
ENDBRANCH  47  70
BRANCH  59  80
ATOM     80  C   UNL A   1      40.431  33.721  38.490  1.00  0.00    -0.014 A 
ATOM     81  C   UNL A   1      39.845  33.176  39.645  1.00  0.00     0.010 A 
ATOM     82  C   UNL A   1      41.023  34.995  38.550  1.00  0.00     0.010 A 
ATOM     83  C   UNL A   1      39.813  33.909  40.833  1.00  0.00     0.020 A 
ATOM     84  C   UNL A   1      41.007  35.725  39.741  1.00  0.00     0.020 A 
ATOM     85  C   UNL A   1      40.386  35.185  40.870  1.00  0.00     0.054 A 
BRANCH  85  86
ATOM     86  S   UNL A   1      40.348  36.126  42.421  1.00  0.00     0.124 S 
ATOM     87  O   UNL A   1      38.914  36.273  42.651  1.00  0.00    -0.237 OA
ATOM     88  O   UNL A   1      41.048  35.248  43.356  1.00  0.00    -0.237 OA
ATOM     89  O   UNL A   1      41.058  37.359  42.087  1.00  0.00    -0.744 OA
ENDBRANCH  85  86
ENDBRANCH  59  80
ENDBRANCH  33  34
ENDBRANCH  26  28
ENDBRANCH  25  26
ENDBRANCH  24  25
ENDBRANCH   1  24
TORSDOF 18
ENDMDL
MODEL 2
REMARK VINA RESULT:     -10.0      3.057      5.350
REMARK SMILES CC[C@@]1(C(=O)OCCOC(=O)c2ccc(-c3c4nc(c(-c5ccc(S(=O)(=O)[O-])cc5)c5ccc([nH]5)c(-c5ccc(S(=O)(=O)[O-])cc5)c5nc(c(-c6ccc(S(=O)(=O)[O-])cc6)c6ccc3[nH]6)C=C5)C=C4)cc2)CCC[N@@H+](Cc2ccc(C3CC3)cc2)C1
REMARK SMILES IDX 7 1 6 2 4 3 5 4 3 5 72 6 86 7 73 8 75 9 74 10 2 12 1 13
REMARK SMILES IDX 76 14 77 15 78 16 85 17 79 18 84 19 80 20 81 21 82 22 83 23
REMARK SMILES IDX 8 24 9 25 10 26 11 27 12 28 13 29 71 30 14 31 70 32 15 33
REMARK SMILES IDX 16 34 17 35 64 36 18 37 69 38 63 39 65 40 19 41 68 42 62 43
REMARK SMILES IDX 61 44 20 46 50 47 31 48 49 49 32 50 35 51 48 52 66 53 33 54
REMARK SMILES IDX 34 55 47 57 67 58 36 59 21 60 22 61 30 62 23 63 29 64 24 65
REMARK SMILES IDX 25 66 26 67 27 68 28 69 51 70 52 71 60 72 53 73 59 74 54 75
REMARK SMILES IDX 55 76 56 77 57 78 58 79 37 80 38 81 46 82 39 83 45 84 40 85
REMARK SMILES IDX 41 86 42 87 43 88 44 89
REMARK H PARENT 75 11 65 45 35 56
REMARK Flexibility Score: inf
ROOT
ATOM      1  C   UNL A   1      37.576  23.116  25.270  1.00  0.00     0.274 C 
ENDROOT
BRANCH   1   2
ATOM      2  O   UNL A   1      36.216  23.154  25.747  1.00  0.00    -0.461 OA
BRANCH   2   3
ATOM      3  C   UNL A   1      35.455  22.090  25.366  1.00  0.00     0.317 C 
ATOM      4  O   UNL A   1      35.919  20.977  25.140  1.00  0.00    -0.251 OA
BRANCH   3   5
ATOM      5  C   UNL A   1      33.956  22.408  25.294  1.00  0.00     0.117 C 
ATOM      6  C   UNL A   1      33.485  22.109  23.844  1.00  0.00     0.030 C 
ATOM      7  C   UNL A   1      33.645  23.884  25.616  1.00  0.00     0.281 C 
ATOM      8  C   UNL A   1      34.051  23.124  22.852  1.00  0.00     0.063 C 
ATOM      9  N   UNL A   1      34.086  24.875  24.621  1.00  0.00    -0.330 N 
ATOM     10  C   UNL A   1      33.655  24.538  23.258  1.00  0.00     0.262 C 
ATOM     11  H   UNL A   1      35.105  24.847  24.613  1.00  0.00     0.348 HD
BRANCH   5  12
ATOM     12  C   UNL A   1      33.160  21.475  26.254  1.00  0.00     0.021 C 
ATOM     13  C   UNL A   1      32.914  20.047  25.775  1.00  0.00     0.005 C 
ENDBRANCH   5  12
BRANCH   9  14
ATOM     14  C   UNL A   1      33.685  26.253  25.008  1.00  0.00     0.299 C 
BRANCH  14  15
ATOM     15  C   UNL A   1      32.535  26.849  24.214  1.00  0.00     0.006 A 
ATOM     16  C   UNL A   1      31.212  26.539  24.544  1.00  0.00     0.010 A 
ATOM     17  C   UNL A   1      32.761  27.812  23.224  1.00  0.00     0.010 A 
ATOM     18  C   UNL A   1      30.152  27.259  23.983  1.00  0.00     0.004 A 
ATOM     19  C   UNL A   1      31.694  28.533  22.675  1.00  0.00     0.004 A 
ATOM     20  C   UNL A   1      30.364  28.304  23.067  1.00  0.00    -0.045 A 
BRANCH  20  21
ATOM     21  C   UNL A   1      29.191  29.144  22.600  1.00  0.00     0.019 C 
ATOM     22  C   UNL A   1      28.881  30.443  23.310  1.00  0.00     0.009 C 
ATOM     23  C   UNL A   1      29.357  30.462  21.885  1.00  0.00     0.009 C 
ENDBRANCH  20  21
ENDBRANCH  14  15
ENDBRANCH   9  14
ENDBRANCH   3   5
ENDBRANCH   2   3
ENDBRANCH   1   2
BRANCH   1  24
ATOM     24  C   UNL A   1      38.575  23.468  26.372  1.00  0.00     0.275 C 
BRANCH  24  25
ATOM     25  O   UNL A   1      38.585  24.885  26.625  1.00  0.00    -0.458 OA
BRANCH  25  26
ATOM     26  C   UNL A   1      39.770  25.391  27.035  1.00  0.00     0.338 C 
ATOM     27  O   UNL A   1      40.881  25.035  26.680  1.00  0.00    -0.246 OA
BRANCH  26  28
ATOM     28  C   UNL A   1      39.574  26.470  28.021  1.00  0.00     0.060 A 
ATOM     29  C   UNL A   1      40.161  27.721  27.834  1.00  0.00     0.016 A 
ATOM     30  C   UNL A   1      38.959  26.162  29.235  1.00  0.00     0.016 A 
ATOM     31  C   UNL A   1      40.261  28.610  28.907  1.00  0.00     0.010 A 
ATOM     32  C   UNL A   1      38.974  27.092  30.277  1.00  0.00     0.010 A 
ATOM     33  C   UNL A   1      39.684  28.299  30.146  1.00  0.00    -0.014 A 
BRANCH  33  34
ATOM     34  C   UNL A   1      39.888  29.180  31.329  1.00  0.00     0.031 A 
ATOM     35  C   UNL A   1      41.113  29.005  32.195  1.00  0.00     0.074 A 
ATOM     36  C   UNL A   1      39.000  30.148  31.630  1.00  0.00     0.049 A 
ATOM     37  N   UNL A   1      41.396  29.555  33.349  1.00  0.00    -0.248 NA
ATOM     38  C   UNL A   1      42.148  28.081  31.703  1.00  0.00     0.031 C 
ATOM     39  C   UNL A   1      37.795  30.466  30.862  1.00  0.00     0.029 A 
ATOM     40  N   UNL A   1      38.982  31.050  32.665  1.00  0.00    -0.354 N 
ATOM     41  C   UNL A   1      42.608  29.001  33.748  1.00  0.00     0.074 A 
ATOM     42  C   UNL A   1      43.010  28.075  32.711  1.00  0.00     0.031 C 
ATOM     43  C   UNL A   1      37.175  31.512  31.432  1.00  0.00     0.029 A 
ATOM     44  C   UNL A   1      37.899  31.894  32.640  1.00  0.00     0.049 A 
ATOM     45  H   UNL A   1      39.680  31.087  33.359  1.00  0.00     0.167 HD
ATOM     46  C   UNL A   1      43.321  29.233  34.877  1.00  0.00     0.031 A 
ATOM     47  C   UNL A   1      37.513  32.852  33.503  1.00  0.00     0.031 A 
ATOM     48  C   UNL A   1      42.951  30.184  35.891  1.00  0.00     0.049 A 
ATOM     49  C   UNL A   1      38.324  33.104  34.741  1.00  0.00     0.074 A 
ATOM     50  C   UNL A   1      43.599  30.479  37.079  1.00  0.00     0.029 A 
ATOM     51  N   UNL A   1      41.845  31.016  35.822  1.00  0.00    -0.354 N 
ATOM     52  N   UNL A   1      39.422  32.510  35.141  1.00  0.00    -0.248 NA
ATOM     53  C   UNL A   1      37.834  34.149  35.651  1.00  0.00     0.031 C 
ATOM     54  C   UNL A   1      42.874  31.483  37.735  1.00  0.00     0.029 A 
ATOM     55  C   UNL A   1      41.794  31.830  36.942  1.00  0.00     0.049 A 
ATOM     56  H   UNL A   1      41.191  31.028  35.086  1.00  0.00     0.167 HD
ATOM     57  C   UNL A   1      39.754  33.107  36.351  1.00  0.00     0.074 A 
ATOM     58  C   UNL A   1      38.755  34.126  36.605  1.00  0.00     0.031 C 
ATOM     59  C   UNL A   1      40.789  32.831  37.181  1.00  0.00     0.031 A 
BRANCH  46  60
ATOM     60  C   UNL A   1      44.560  28.407  35.088  1.00  0.00    -0.014 A 
ATOM     61  C   UNL A   1      44.504  27.155  35.726  1.00  0.00     0.010 A 
ATOM     62  C   UNL A   1      45.800  28.891  34.632  1.00  0.00     0.010 A 
ATOM     63  C   UNL A   1      45.673  26.420  35.941  1.00  0.00     0.020 A 
ATOM     64  C   UNL A   1      46.968  28.151  34.829  1.00  0.00     0.020 A 
ATOM     65  C   UNL A   1      46.900  26.928  35.502  1.00  0.00     0.054 A 
BRANCH  65  66
ATOM     66  S   UNL A   1      48.410  25.962  35.787  1.00  0.00     0.124 S 
ATOM     67  O   UNL A   1      49.420  26.784  35.126  1.00  0.00    -0.237 OA
ATOM     68  O   UNL A   1      48.497  25.912  37.244  1.00  0.00    -0.237 OA
ATOM     69  O   UNL A   1      48.125  24.682  35.141  1.00  0.00    -0.744 OA
ENDBRANCH  65  66
ENDBRANCH  46  60
BRANCH  47  70
ATOM     70  C   UNL A   1      36.272  33.624  33.236  1.00  0.00    -0.014 A 
ATOM     71  C   UNL A   1      36.339  34.889  32.628  1.00  0.00     0.010 A 
ATOM     72  C   UNL A   1      35.016  33.080  33.560  1.00  0.00     0.010 A 
ATOM     73  C   UNL A   1      35.168  35.599  32.347  1.00  0.00     0.020 A 
ATOM     74  C   UNL A   1      33.844  33.778  33.262  1.00  0.00     0.020 A 
ATOM     75  C   UNL A   1      33.927  35.038  32.665  1.00  0.00     0.054 A 
BRANCH  75  76
ATOM     76  S   UNL A   1      32.410  35.930  32.223  1.00  0.00     0.124 S 
ATOM     77  O   UNL A   1      32.570  36.104  30.783  1.00  0.00    -0.237 OA
ATOM     78  O   UNL A   1      31.358  35.003  32.635  1.00  0.00    -0.237 OA
ATOM     79  O   UNL A   1      32.495  37.153  33.018  1.00  0.00    -0.744 OA
ENDBRANCH  75  76
ENDBRANCH  47  70
BRANCH  59  80
ATOM     80  C   UNL A   1      40.891  33.657  38.431  1.00  0.00    -0.014 A 
ATOM     81  C   UNL A   1      40.263  33.245  39.619  1.00  0.00     0.010 A 
ATOM     82  C   UNL A   1      41.630  34.853  38.419  1.00  0.00     0.010 A 
ATOM     83  C   UNL A   1      40.337  34.037  40.767  1.00  0.00     0.020 A 
ATOM     84  C   UNL A   1      41.719  35.640  39.569  1.00  0.00     0.020 A 
ATOM     85  C   UNL A   1      41.056  35.237  40.731  1.00  0.00     0.054 A 
BRANCH  85  86
ATOM     86  S   UNL A   1      41.154  36.254  42.231  1.00  0.00     0.124 S 
ATOM     87  O   UNL A   1      40.572  35.368  43.235  1.00  0.00    -0.237 OA
ATOM     88  O   UNL A   1      42.587  36.503  42.367  1.00  0.00    -0.237 OA
ATOM     89  O   UNL A   1      40.355  37.431  41.895  1.00  0.00    -0.744 OA
ENDBRANCH  85  86
ENDBRANCH  59  80
ENDBRANCH  33  34
ENDBRANCH  26  28
ENDBRANCH  25  26
ENDBRANCH  24  25
ENDBRANCH   1  24
TORSDOF 18
ENDMDL
MODEL 3
REMARK VINA RESULT:      -9.9      2.713      5.719
REMARK SMILES CC[C@@]1(C(=O)OCCOC(=O)c2ccc(-c3c4nc(c(-c5ccc(S(=O)(=O)[O-])cc5)c5ccc([nH]5)c(-c5ccc(S(=O)(=O)[O-])cc5)c5nc(c(-c6ccc(S(=O)(=O)[O-])cc6)c6ccc3[nH]6)C=C5)C=C4)cc2)CCC[N@@H+](Cc2ccc(C3CC3)cc2)C1
REMARK SMILES IDX 7 1 6 2 4 3 5 4 3 5 72 6 86 7 73 8 75 9 74 10 2 12 1 13
REMARK SMILES IDX 76 14 77 15 78 16 85 17 79 18 84 19 80 20 81 21 82 22 83 23
REMARK SMILES IDX 8 24 9 25 10 26 11 27 12 28 13 29 71 30 14 31 70 32 15 33
REMARK SMILES IDX 16 34 17 35 64 36 18 37 69 38 63 39 65 40 19 41 68 42 62 43
REMARK SMILES IDX 61 44 20 46 50 47 31 48 49 49 32 50 35 51 48 52 66 53 33 54
REMARK SMILES IDX 34 55 47 57 67 58 36 59 21 60 22 61 30 62 23 63 29 64 24 65
REMARK SMILES IDX 25 66 26 67 27 68 28 69 51 70 52 71 60 72 53 73 59 74 54 75
REMARK SMILES IDX 55 76 56 77 57 78 58 79 37 80 38 81 46 82 39 83 45 84 40 85
REMARK SMILES IDX 41 86 42 87 43 88 44 89
REMARK H PARENT 75 11 65 45 35 56
REMARK Flexibility Score: inf
ROOT
ATOM      1  C   UNL A   1      37.133  23.521  25.983  1.00  0.00     0.274 C 
ENDROOT
BRANCH   1   2
ATOM      2  O   UNL A   1      36.055  24.435  25.699  1.00  0.00    -0.461 OA
BRANCH   2   3
ATOM      3  C   UNL A   1      35.346  24.140  24.574  1.00  0.00     0.317 C 
ATOM      4  O   UNL A   1      35.872  23.889  23.493  1.00  0.00    -0.251 OA
BRANCH   3   5
ATOM      5  C   UNL A   1      33.829  24.103  24.801  1.00  0.00     0.117 C 
ATOM      6  C   UNL A   1      33.149  24.557  23.480  1.00  0.00     0.030 C 
ATOM      7  C   UNL A   1      33.376  25.045  25.935  1.00  0.00     0.281 C 
ATOM      8  C   UNL A   1      33.374  26.046  23.219  1.00  0.00     0.063 C 
ATOM      9  N   UNL A   1      33.482  26.488  25.666  1.00  0.00    -0.330 N 
ATOM     10  C   UNL A   1      32.861  26.873  24.391  1.00  0.00     0.262 C 
ATOM     11  H   UNL A   1      34.475  26.695  25.573  1.00  0.00     0.348 HD
BRANCH   5  12
ATOM     12  C   UNL A   1      33.363  22.648  25.100  1.00  0.00     0.021 C 
ATOM     13  C   UNL A   1      33.618  21.609  24.012  1.00  0.00     0.005 C 
ENDBRANCH   5  12
BRANCH   9  14
ATOM     14  C   UNL A   1      32.966  27.295  26.802  1.00  0.00     0.299 C 
BRANCH  14  15
ATOM     15  C   UNL A   1      33.519  28.706  26.910  1.00  0.00     0.006 A 
ATOM     16  C   UNL A   1      32.667  29.810  26.807  1.00  0.00     0.010 A 
ATOM     17  C   UNL A   1      34.860  28.935  27.238  1.00  0.00     0.010 A 
ATOM     18  C   UNL A   1      33.120  31.091  27.140  1.00  0.00     0.004 A 
ATOM     19  C   UNL A   1      35.301  30.219  27.578  1.00  0.00     0.004 A 
ATOM     20  C   UNL A   1      34.435  31.326  27.576  1.00  0.00    -0.045 A 
BRANCH  20  21
ATOM     21  C   UNL A   1      34.832  32.707  28.060  1.00  0.00     0.019 C 
ATOM     22  C   UNL A   1      33.753  33.697  28.441  1.00  0.00     0.009 C 
ATOM     23  C   UNL A   1      34.677  33.152  29.492  1.00  0.00     0.009 C 
ENDBRANCH  20  21
ENDBRANCH  14  15
ENDBRANCH   9  14
ENDBRANCH   3   5
ENDBRANCH   2   3
ENDBRANCH   1   2
BRANCH   1  24
ATOM     24  C   UNL A   1      38.194  24.153  26.882  1.00  0.00     0.275 C 
BRANCH  24  25
ATOM     25  O   UNL A   1      38.914  25.185  26.183  1.00  0.00    -0.458 OA
BRANCH  25  26
ATOM     26  C   UNL A   1      40.070  25.579  26.764  1.00  0.00     0.338 C 
ATOM     27  O   UNL A   1      41.190  25.163  26.520  1.00  0.00    -0.246 OA
BRANCH  26  28
ATOM     28  C   UNL A   1      39.825  26.611  27.788  1.00  0.00     0.060 A 
ATOM     29  C   UNL A   1      40.329  27.901  27.634  1.00  0.00     0.016 A 
ATOM     30  C   UNL A   1      39.254  26.224  29.002  1.00  0.00     0.016 A 
ATOM     31  C   UNL A   1      40.393  28.759  28.734  1.00  0.00     0.010 A 
ATOM     32  C   UNL A   1      39.231  27.119  30.074  1.00  0.00     0.010 A 
ATOM     33  C   UNL A   1      39.860  28.372  29.972  1.00  0.00    -0.014 A 
BRANCH  33  34
ATOM     34  C   UNL A   1      40.032  29.226  31.180  1.00  0.00     0.031 A 
ATOM     35  C   UNL A   1      41.246  29.049  32.060  1.00  0.00     0.074 A 
ATOM     36  C   UNL A   1      39.122  30.170  31.492  1.00  0.00     0.049 A 
ATOM     37  N   UNL A   1      41.502  29.574  33.232  1.00  0.00    -0.248 NA
ATOM     38  C   UNL A   1      42.304  28.156  31.561  1.00  0.00     0.031 C 
ATOM     39  C   UNL A   1      37.923  30.488  30.714  1.00  0.00     0.029 A 
ATOM     40  N   UNL A   1      39.073  31.045  32.549  1.00  0.00    -0.354 N 
ATOM     41  C   UNL A   1      42.717  29.031  33.636  1.00  0.00     0.074 A 
ATOM     42  C   UNL A   1      43.151  28.139  32.581  1.00  0.00     0.031 C 
ATOM     43  C   UNL A   1      37.276  31.507  31.301  1.00  0.00     0.029 A 
ATOM     44  C   UNL A   1      37.976  31.871  32.529  1.00  0.00     0.049 A 
ATOM     45  H   UNL A   1      39.760  31.075  33.255  1.00  0.00     0.167 HD
ATOM     46  C   UNL A   1      43.409  29.246  34.782  1.00  0.00     0.031 A 
ATOM     47  C   UNL A   1      37.560  32.799  33.411  1.00  0.00     0.031 A 
ATOM     48  C   UNL A   1      43.007  30.163  35.813  1.00  0.00     0.049 A 
ATOM     49  C   UNL A   1      38.347  33.032  34.667  1.00  0.00     0.074 A 
ATOM     50  C   UNL A   1      43.632  30.438  37.018  1.00  0.00     0.029 A 
ATOM     51  N   UNL A   1      41.888  30.978  35.749  1.00  0.00    -0.354 N 
ATOM     52  N   UNL A   1      39.450  32.447  35.069  1.00  0.00    -0.248 NA
ATOM     53  C   UNL A   1      37.825  34.044  35.596  1.00  0.00     0.031 C 
ATOM     54  C   UNL A   1      42.880  31.412  37.689  1.00  0.00     0.029 A 
ATOM     55  C   UNL A   1      41.806  31.761  36.889  1.00  0.00     0.049 A 
ATOM     56  H   UNL A   1      41.245  30.998  35.004  1.00  0.00     0.167 HD
ATOM     57  C   UNL A   1      39.753  33.018  36.299  1.00  0.00     0.074 A 
ATOM     58  C   UNL A   1      38.733  34.012  36.563  1.00  0.00     0.031 C 
ATOM     59  C   UNL A   1      40.780  32.738  37.137  1.00  0.00     0.031 A 
BRANCH  46  60
ATOM     60  C   UNL A   1      44.659  28.436  34.990  1.00  0.00    -0.014 A 
ATOM     61  C   UNL A   1      45.916  28.909  34.574  1.00  0.00     0.010 A 
ATOM     62  C   UNL A   1      44.572  27.182  35.622  1.00  0.00     0.010 A 
ATOM     63  C   UNL A   1      47.059  28.124  34.749  1.00  0.00     0.020 A 
ATOM     64  C   UNL A   1      45.715  26.402  35.815  1.00  0.00     0.020 A 
ATOM     65  C   UNL A   1      46.950  26.869  35.357  1.00  0.00     0.054 A 
BRANCH  65  66
ATOM     66  S   UNL A   1      48.443  25.862  35.579  1.00  0.00     0.124 S 
ATOM     67  O   UNL A   1      48.183  25.222  36.866  1.00  0.00    -0.237 OA
ATOM     68  O   UNL A   1      48.413  24.973  34.420  1.00  0.00    -0.237 OA
ATOM     69  O   UNL A   1      49.524  26.845  35.575  1.00  0.00    -0.744 OA
ENDBRANCH  65  66
ENDBRANCH  46  60
BRANCH  47  70
ATOM     70  C   UNL A   1      36.310  33.556  33.144  1.00  0.00    -0.014 A 
ATOM     71  C   UNL A   1      36.364  34.841  32.580  1.00  0.00     0.010 A 
ATOM     72  C   UNL A   1      35.058  32.978  33.425  1.00  0.00     0.010 A 
ATOM     73  C   UNL A   1      35.185  35.539  32.299  1.00  0.00     0.020 A 
ATOM     74  C   UNL A   1      33.879  33.664  33.127  1.00  0.00     0.020 A 
ATOM     75  C   UNL A   1      33.950  34.945  32.573  1.00  0.00     0.054 A 
BRANCH  75  76
ATOM     76  S   UNL A   1      32.424  35.822  32.130  1.00  0.00     0.124 S 
ATOM     77  O   UNL A   1      31.399  34.940  32.676  1.00  0.00    -0.237 OA
ATOM     78  O   UNL A   1      32.581  37.107  32.810  1.00  0.00    -0.237 OA
ATOM     79  O   UNL A   1      32.487  35.889  30.672  1.00  0.00    -0.744 OA
ENDBRANCH  75  76
ENDBRANCH  47  70
BRANCH  59  80
ATOM     80  C   UNL A   1      40.849  33.533  38.410  1.00  0.00    -0.014 A 
ATOM     81  C   UNL A   1      41.561  34.744  38.464  1.00  0.00     0.010 A 
ATOM     82  C   UNL A   1      40.188  33.068  39.560  1.00  0.00     0.010 A 
ATOM     83  C   UNL A   1      41.647  35.458  39.661  1.00  0.00     0.020 A 
ATOM     84  C   UNL A   1      40.258  33.788  40.755  1.00  0.00     0.020 A 
ATOM     85  C   UNL A   1      41.003  34.970  40.803  1.00  0.00     0.054 A 
BRANCH  85  86
ATOM     86  S   UNL A   1      41.113  35.911  42.350  1.00  0.00     0.124 S 
ATOM     87  O   UNL A   1      39.720  35.940  42.785  1.00  0.00    -0.237 OA
ATOM     88  O   UNL A   1      42.010  35.098  43.167  1.00  0.00    -0.237 OA
ATOM     89  O   UNL A   1      41.664  37.197  41.926  1.00  0.00    -0.744 OA
ENDBRANCH  85  86
ENDBRANCH  59  80
ENDBRANCH  33  34
ENDBRANCH  26  28
ENDBRANCH  25  26
ENDBRANCH  24  25
ENDBRANCH   1  24
TORSDOF 18
ENDMDL
