MODEL 1
REMARK VINA RESULT:     -12.8      0.000      0.000
REMARK SMILES CS(=O)(=O)c1ccc(C2=NN(c3ccc(C(=O)OCCOC(=O)c4ccc(-c5c6nc(c(-c7ccc(S(=O)(=O)[O-])cc7)c7ccc([nH]7)c(-c7ccc(S(=O)(=O)[O-])cc7)c7nc(c(-c8ccc(S(=O)(=O)[O-])cc8)c8ccc5[nH]8)C=C7)C=C6)cc4)cc3)[C@H](c3ccc(F)cc3)C2)cc1
REMARK SMILES IDX 19 1 18 2 16 3 17 4 15 5 12 6 13 7 85 8 14 9 84 10 11 11
REMARK SMILES IDX 9 12 10 13 94 14 86 15 8 16 5 17 6 18 96 19 7 20 95 21 2 22
REMARK SMILES IDX 1 23 3 24 4 25 87 26 88 27 93 28 89 29 92 30 90 31 91 32
REMARK SMILES IDX 20 33 21 34 22 35 23 36 24 37 25 38 83 39 26 40 82 41 27 42
REMARK SMILES IDX 28 43 29 44 76 45 30 46 81 47 75 48 77 49 31 50 80 51 74 52
REMARK SMILES IDX 73 53 32 55 62 56 43 57 61 58 44 59 47 60 60 61 78 62 45 63
REMARK SMILES IDX 46 64 59 66 79 67 48 68 33 69 34 70 42 71 35 72 41 73 36 74
REMARK SMILES IDX 37 75 38 76 39 77 40 78 63 79 64 80 72 81 65 82 71 83 66 84
REMARK SMILES IDX 67 85 68 86 69 87 70 88 49 89 50 90 58 91 51 92 57 93 52 94
REMARK SMILES IDX 53 95 54 96 55 97 56 98
REMARK H PARENT 77 54 47 65
REMARK Flexibility Score: inf
ROOT
ATOM      1  C   UNL A   1      41.273  22.799  27.032  1.00  0.00     0.275 C 
ENDROOT
BRANCH   1   2
ATOM      2  O   UNL A   1      39.848  22.877  26.832  1.00  0.00    -0.458 OA
BRANCH   2   3
ATOM      3  C   UNL A   1      39.292  21.844  26.154  1.00  0.00     0.338 C 
ATOM      4  O   UNL A   1      39.757  20.719  26.045  1.00  0.00    -0.246 OA
BRANCH   3   5
ATOM      5  C   UNL A   1      37.976  22.223  25.585  1.00  0.00     0.060 A 
ATOM      6  C   UNL A   1      35.427  22.980  24.673  1.00  0.00     0.060 A 
ATOM      7  C   UNL A   1      36.160  23.830  25.506  1.00  0.00     0.029 A 
ATOM      8  C   UNL A   1      36.007  21.774  24.256  1.00  0.00     0.029 A 
ATOM      9  C   UNL A   1      37.408  23.440  25.986  1.00  0.00     0.018 A 
ATOM     10  C   UNL A   1      37.278  21.395  24.701  1.00  0.00     0.018 A 
BRANCH   6  11
ATOM     11  N   UNL A   1      34.085  23.247  24.374  1.00  0.00    -0.257 N 
ATOM     12  C   UNL A   1      32.555  24.741  24.366  1.00  0.00     0.071 C 
ATOM     13  N   UNL A   1      33.758  24.496  23.945  1.00  0.00    -0.176 NA
ATOM     14  C   UNL A   1      31.927  23.670  25.215  1.00  0.00     0.091 C 
ATOM     15  C   UNL A   1      33.071  22.652  25.260  1.00  0.00     0.144 C 
BRANCH  12  16
ATOM     16  C   UNL A   1      31.822  25.966  24.000  1.00  0.00    -0.002 A 
ATOM     17  C   UNL A   1      30.369  28.203  23.196  1.00  0.00     0.067 A 
ATOM     18  C   UNL A   1      30.978  27.398  22.233  1.00  0.00     0.021 A 
ATOM     19  C   UNL A   1      30.505  27.912  24.561  1.00  0.00     0.021 A 
ATOM     20  C   UNL A   1      31.717  26.286  22.640  1.00  0.00     0.011 A 
ATOM     21  C   UNL A   1      31.225  26.781  24.963  1.00  0.00     0.011 A 
BRANCH  17  22
ATOM     22  S   UNL A   1      29.389  29.614  22.730  1.00  0.00     0.175 S 
ATOM     23  C   UNL A   1      27.693  29.108  22.798  1.00  0.00     0.163 C 
ATOM     24  O   UNL A   1      29.702  29.901  21.343  1.00  0.00    -0.224 OA
ATOM     25  O   UNL A   1      29.604  30.609  23.765  1.00  0.00    -0.224 OA
ENDBRANCH  17  22
ENDBRANCH  12  16
BRANCH  15  26
ATOM     26  C   UNL A   1      32.797  21.219  24.821  1.00  0.00    -0.023 A 
ATOM     27  C   UNL A   1      32.447  20.864  23.510  1.00  0.00     0.009 A 
ATOM     28  C   UNL A   1      33.030  20.182  25.752  1.00  0.00     0.009 A 
ATOM     29  C   UNL A   1      32.332  19.520  23.144  1.00  0.00     0.039 A 
ATOM     30  C   UNL A   1      32.942  18.841  25.379  1.00  0.00     0.039 A 
ATOM     31  C   UNL A   1      32.591  18.522  24.076  1.00  0.00     0.123 A 
ATOM     32  F   UNL A   1      32.520  17.236  23.708  1.00  0.00    -0.207 F 
ENDBRANCH  15  26
ENDBRANCH   6  11
ENDBRANCH   3   5
ENDBRANCH   2   3
ENDBRANCH   1   2
BRANCH   1  33
ATOM     33  C   UNL A   1      42.023  23.461  25.878  1.00  0.00     0.275 C 
BRANCH  33  34
ATOM     34  O   UNL A   1      42.636  24.690  26.308  1.00  0.00    -0.458 OA
BRANCH  34  35
ATOM     35  C   UNL A   1      41.878  25.801  26.158  1.00  0.00     0.338 C 
ATOM     36  O   UNL A   1      41.355  26.213  25.137  1.00  0.00    -0.246 OA
BRANCH  35  37
ATOM     37  C   UNL A   1      41.733  26.466  27.459  1.00  0.00     0.060 A 
ATOM     38  C   UNL A   1      40.806  25.968  28.373  1.00  0.00     0.016 A 
ATOM     39  C   UNL A   1      42.427  27.642  27.732  1.00  0.00     0.016 A 
ATOM     40  C   UNL A   1      40.519  26.671  29.541  1.00  0.00     0.010 A 
ATOM     41  C   UNL A   1      42.190  28.311  28.938  1.00  0.00     0.010 A 
ATOM     42  C   UNL A   1      41.216  27.847  29.843  1.00  0.00    -0.014 A 
BRANCH  42  43
ATOM     43  C   UNL A   1      40.920  28.619  31.080  1.00  0.00     0.031 A 
ATOM     44  C   UNL A   1      39.779  29.603  31.087  1.00  0.00     0.074 A 
ATOM     45  C   UNL A   1      41.682  28.471  32.183  1.00  0.00     0.049 A 
ATOM     46  N   UNL A   1      39.505  30.544  31.952  1.00  0.00    -0.248 NA
ATOM     47  C   UNL A   1      38.829  29.523  29.964  1.00  0.00     0.031 C 
ATOM     48  C   UNL A   1      42.772  27.505  32.343  1.00  0.00     0.029 A 
ATOM     49  N   UNL A   1      41.661  29.144  33.381  1.00  0.00    -0.354 N 
ATOM     50  C   UNL A   1      38.397  31.214  31.443  1.00  0.00     0.074 A 
ATOM     51  C   UNL A   1      38.039  30.560  30.203  1.00  0.00     0.031 C 
ATOM     52  C   UNL A   1      43.303  27.639  33.569  1.00  0.00     0.029 A 
ATOM     53  C   UNL A   1      42.657  28.757  34.247  1.00  0.00     0.049 A 
ATOM     54  H   UNL A   1      40.996  29.838  33.598  1.00  0.00     0.167 HD
ATOM     55  C   UNL A   1      37.748  32.284  31.962  1.00  0.00     0.031 A 
ATOM     56  C   UNL A   1      43.047  29.275  35.429  1.00  0.00     0.031 A 
ATOM     57  C   UNL A   1      38.085  32.896  33.220  1.00  0.00     0.049 A 
ATOM     58  C   UNL A   1      42.346  30.496  35.958  1.00  0.00     0.074 A 
ATOM     59  C   UNL A   1      37.472  33.969  33.844  1.00  0.00     0.029 A 
ATOM     60  N   UNL A   1      39.113  32.482  34.051  1.00  0.00    -0.354 N 
ATOM     61  N   UNL A   1      41.329  31.148  35.445  1.00  0.00    -0.248 NA
ATOM     62  C   UNL A   1      42.856  31.064  37.214  1.00  0.00     0.031 C 
ATOM     63  C   UNL A   1      38.159  34.230  35.033  1.00  0.00     0.029 A 
ATOM     64  C   UNL A   1      39.166  33.289  35.174  1.00  0.00     0.049 A 
ATOM     65  H   UNL A   1      39.717  31.725  33.870  1.00  0.00     0.167 HD
ATOM     66  C   UNL A   1      41.062  32.187  36.330  1.00  0.00     0.074 A 
ATOM     67  C   UNL A   1      42.019  32.075  37.412  1.00  0.00     0.031 C 
ATOM     68  C   UNL A   1      40.111  33.148  36.251  1.00  0.00     0.031 A 
BRANCH  55  69
ATOM     69  C   UNL A   1      36.642  32.902  31.149  1.00  0.00    -0.014 A 
ATOM     70  C   UNL A   1      35.309  32.901  31.593  1.00  0.00     0.010 A 
ATOM     71  C   UNL A   1      36.962  33.553  29.943  1.00  0.00     0.010 A 
ATOM     72  C   UNL A   1      34.311  33.517  30.830  1.00  0.00     0.020 A 
ATOM     73  C   UNL A   1      35.972  34.190  29.189  1.00  0.00     0.020 A 
ATOM     74  C   UNL A   1      34.648  34.156  29.631  1.00  0.00     0.054 A 
BRANCH  74  75
ATOM     75  S   UNL A   1      33.340  34.975  28.679  1.00  0.00     0.124 S 
ATOM     76  O   UNL A   1      32.465  35.475  29.738  1.00  0.00    -0.237 OA
ATOM     77  O   UNL A   1      34.073  35.997  27.938  1.00  0.00    -0.237 OA
ATOM     78  O   UNL A   1      32.778  33.901  27.864  1.00  0.00    -0.744 OA
ENDBRANCH  74  75
ENDBRANCH  55  69
BRANCH  56  79
ATOM     79  C   UNL A   1      44.195  28.678  36.164  1.00  0.00    -0.014 A 
ATOM     80  C   UNL A   1      45.501  29.162  35.963  1.00  0.00     0.010 A 
ATOM     81  C   UNL A   1      43.990  27.622  37.072  1.00  0.00     0.010 A 
ATOM     82  C   UNL A   1      46.579  28.591  36.646  1.00  0.00     0.020 A 
ATOM     83  C   UNL A   1      45.062  27.070  37.778  1.00  0.00     0.020 A 
ATOM     84  C   UNL A   1      46.352  27.549  37.550  1.00  0.00     0.054 A 
BRANCH  84  85
ATOM     85  S   UNL A   1      47.760  26.855  38.461  1.00  0.00     0.124 S 
ATOM     86  O   UNL A   1      48.784  26.778  37.424  1.00  0.00    -0.237 OA
ATOM     87  O   UNL A   1      47.987  27.852  39.504  1.00  0.00    -0.237 OA
ATOM     88  O   UNL A   1      47.254  25.570  38.941  1.00  0.00    -0.744 OA
ENDBRANCH  84  85
ENDBRANCH  56  79
BRANCH  68  89
ATOM     89  C   UNL A   1      40.009  34.123  37.390  1.00  0.00    -0.014 A 
ATOM     90  C   UNL A   1      40.661  35.368  37.344  1.00  0.00     0.010 A 
ATOM     91  C   UNL A   1      39.171  33.823  38.479  1.00  0.00     0.010 A 
ATOM     92  C   UNL A   1      40.481  36.294  38.374  1.00  0.00     0.020 A 
ATOM     93  C   UNL A   1      38.973  34.755  39.500  1.00  0.00     0.020 A 
ATOM     94  C   UNL A   1      39.634  35.983  39.443  1.00  0.00     0.054 A 
BRANCH  94  95
ATOM     95  S   UNL A   1      39.352  37.234  40.728  1.00  0.00     0.124 S 
ATOM     96  O   UNL A   1      38.818  36.431  41.823  1.00  0.00    -0.237 OA
ATOM     97  O   UNL A   1      40.690  37.780  40.944  1.00  0.00    -0.237 OA
ATOM     98  O   UNL A   1      38.402  38.156  40.109  1.00  0.00    -0.744 OA
ENDBRANCH  94  95
ENDBRANCH  68  89
ENDBRANCH  42  43
ENDBRANCH  35  37
ENDBRANCH  34  35
ENDBRANCH  33  34
ENDBRANCH   1  33
TORSDOF 18
ENDMDL
MODEL 2
REMARK VINA RESULT:     -12.6      3.201      9.599
REMARK SMILES CS(=O)(=O)c1ccc(C2=NN(c3ccc(C(=O)OCCOC(=O)c4ccc(-c5c6nc(c(-c7ccc(S(=O)(=O)[O-])cc7)c7ccc([nH]7)c(-c7ccc(S(=O)(=O)[O-])cc7)c7nc(c(-c8ccc(S(=O)(=O)[O-])cc8)c8ccc5[nH]8)C=C7)C=C6)cc4)cc3)[C@H](c3ccc(F)cc3)C2)cc1
REMARK SMILES IDX 19 1 18 2 16 3 17 4 15 5 12 6 13 7 85 8 14 9 84 10 11 11
REMARK SMILES IDX 9 12 10 13 94 14 86 15 8 16 5 17 6 18 96 19 7 20 95 21 2 22
REMARK SMILES IDX 1 23 3 24 4 25 87 26 88 27 93 28 89 29 92 30 90 31 91 32
REMARK SMILES IDX 20 33 21 34 22 35 23 36 24 37 25 38 83 39 26 40 82 41 27 42
REMARK SMILES IDX 28 43 29 44 76 45 30 46 81 47 75 48 77 49 31 50 80 51 74 52
REMARK SMILES IDX 73 53 32 55 62 56 43 57 61 58 44 59 47 60 60 61 78 62 45 63
REMARK SMILES IDX 46 64 59 66 79 67 48 68 33 69 34 70 42 71 35 72 41 73 36 74
REMARK SMILES IDX 37 75 38 76 39 77 40 78 63 79 64 80 72 81 65 82 71 83 66 84
REMARK SMILES IDX 67 85 68 86 69 87 70 88 49 89 50 90 58 91 51 92 57 93 52 94
REMARK SMILES IDX 53 95 54 96 55 97 56 98
REMARK H PARENT 77 54 47 65
REMARK Flexibility Score: inf
ROOT
ATOM      1  C   UNL A   1      34.375  33.602  27.944  1.00  0.00     0.275 C 
ENDROOT
BRANCH   1   2
ATOM      2  O   UNL A   1      33.563  32.438  27.702  1.00  0.00    -0.458 OA
BRANCH   2   3
ATOM      3  C   UNL A   1      34.182  31.245  27.867  1.00  0.00     0.338 C 
ATOM      4  O   UNL A   1      35.050  30.989  28.689  1.00  0.00    -0.246 OA
BRANCH   3   5
ATOM      5  C   UNL A   1      33.631  30.222  26.945  1.00  0.00     0.060 A 
ATOM      6  C   UNL A   1      32.442  28.273  25.305  1.00  0.00     0.060 A 
ATOM      7  C   UNL A   1      31.724  29.411  25.683  1.00  0.00     0.029 A 
ATOM      8  C   UNL A   1      33.779  28.150  25.708  1.00  0.00     0.029 A 
ATOM      9  C   UNL A   1      32.301  30.359  26.524  1.00  0.00     0.018 A 
ATOM     10  C   UNL A   1      34.378  29.120  26.519  1.00  0.00     0.018 A 
BRANCH   6  11
ATOM     11  N   UNL A   1      31.808  27.204  24.660  1.00  0.00    -0.257 N 
ATOM     12  C   UNL A   1      31.994  25.161  24.058  1.00  0.00     0.071 C 
ATOM     13  N   UNL A   1      32.075  25.942  25.091  1.00  0.00    -0.176 NA
ATOM     14  C   UNL A   1      31.711  25.837  22.745  1.00  0.00     0.091 C 
ATOM     15  C   UNL A   1      31.656  27.299  23.198  1.00  0.00     0.144 C 
BRANCH  12  16
ATOM     16  C   UNL A   1      32.118  23.695  24.161  1.00  0.00    -0.002 A 
ATOM     17  C   UNL A   1      32.453  20.931  24.241  1.00  0.00     0.067 A 
ATOM     18  C   UNL A   1      32.305  21.569  23.009  1.00  0.00     0.021 A 
ATOM     19  C   UNL A   1      32.408  21.664  25.435  1.00  0.00     0.021 A 
ATOM     20  C   UNL A   1      32.123  22.953  22.974  1.00  0.00     0.011 A 
ATOM     21  C   UNL A   1      32.252  23.054  25.394  1.00  0.00     0.011 A 
BRANCH  17  22
ATOM     22  S   UNL A   1      32.719  19.174  24.341  1.00  0.00     0.175 S 
ATOM     23  C   UNL A   1      34.462  18.928  24.547  1.00  0.00     0.163 C 
ATOM     24  O   UNL A   1      32.352  18.621  23.052  1.00  0.00    -0.224 OA
ATOM     25  O   UNL A   1      32.057  18.738  25.556  1.00  0.00    -0.224 OA
ENDBRANCH  17  22
ENDBRANCH  12  16
BRANCH  15  26
ATOM     26  C   UNL A   1      30.416  28.123  22.873  1.00  0.00    -0.023 A 
ATOM     27  C   UNL A   1      29.126  27.785  23.309  1.00  0.00     0.009 A 
ATOM     28  C   UNL A   1      30.592  29.357  22.207  1.00  0.00     0.009 A 
ATOM     29  C   UNL A   1      28.050  28.649  23.082  1.00  0.00     0.039 A 
ATOM     30  C   UNL A   1      29.523  30.230  22.007  1.00  0.00     0.039 A 
ATOM     31  C   UNL A   1      28.260  29.866  22.445  1.00  0.00     0.123 A 
ATOM     32  F   UNL A   1      27.232  30.707  22.270  1.00  0.00    -0.207 F 
ENDBRANCH  15  26
ENDBRANCH   6  11
ENDBRANCH   3   5
ENDBRANCH   2   3
ENDBRANCH   1   2
BRANCH   1  33
ATOM     33  C   UNL A   1      33.516  34.779  28.405  1.00  0.00     0.275 C 
BRANCH  33  34
ATOM     34  O   UNL A   1      32.776  34.435  29.591  1.00  0.00    -0.458 OA
BRANCH  34  35
ATOM     35  C   UNL A   1      33.109  35.128  30.704  1.00  0.00     0.338 C 
ATOM     36  O   UNL A   1      32.588  36.142  31.134  1.00  0.00    -0.246 OA
BRANCH  35  37
ATOM     37  C   UNL A   1      34.220  34.446  31.382  1.00  0.00     0.060 A 
ATOM     38  C   UNL A   1      35.360  35.178  31.711  1.00  0.00     0.016 A 
ATOM     39  C   UNL A   1      34.183  33.071  31.589  1.00  0.00     0.016 A 
ATOM     40  C   UNL A   1      36.496  34.532  32.195  1.00  0.00     0.010 A 
ATOM     41  C   UNL A   1      35.298  32.432  32.142  1.00  0.00     0.010 A 
ATOM     42  C   UNL A   1      36.476  33.151  32.427  1.00  0.00    -0.014 A 
BRANCH  42  43
ATOM     43  C   UNL A   1      37.679  32.439  32.935  1.00  0.00     0.031 A 
ATOM     44  C   UNL A   1      38.116  32.641  34.362  1.00  0.00     0.074 A 
ATOM     45  C   UNL A   1      38.401  31.641  32.122  1.00  0.00     0.049 A 
ATOM     46  N   UNL A   1      39.250  32.328  34.932  1.00  0.00    -0.248 NA
ATOM     47  C   UNL A   1      37.151  33.296  35.263  1.00  0.00     0.031 C 
ATOM     48  C   UNL A   1      38.057  31.297  30.740  1.00  0.00     0.029 A 
ATOM     49  N   UNL A   1      39.586  30.981  32.340  1.00  0.00    -0.354 N 
ATOM     50  C   UNL A   1      39.165  32.809  36.234  1.00  0.00     0.074 A 
ATOM     51  C   UNL A   1      37.861  33.420  36.376  1.00  0.00     0.031 C 
ATOM     52  C   UNL A   1      38.999  30.480  30.242  1.00  0.00     0.029 A 
ATOM     53  C   UNL A   1      40.058  30.317  31.231  1.00  0.00     0.049 A 
ATOM     54  H   UNL A   1      40.053  30.983  33.207  1.00  0.00     0.167 HD
ATOM     55  C   UNL A   1      40.097  32.754  37.216  1.00  0.00     0.031 A 
ATOM     56  C   UNL A   1      41.233  29.695  31.011  1.00  0.00     0.031 A 
ATOM     57  C   UNL A   1      41.372  32.102  37.077  1.00  0.00     0.049 A 
ATOM     58  C   UNL A   1      42.274  29.693  32.098  1.00  0.00     0.074 A 
ATOM     59  C   UNL A   1      42.376  31.969  38.021  1.00  0.00     0.029 A 
ATOM     60  N   UNL A   1      41.813  31.462  35.930  1.00  0.00    -0.354 N 
ATOM     61  N   UNL A   1      42.199  30.191  33.309  1.00  0.00    -0.248 NA
ATOM     62  C   UNL A   1      43.564  29.064  31.782  1.00  0.00     0.031 C 
ATOM     63  C   UNL A   1      43.442  31.286  37.429  1.00  0.00     0.029 A 
ATOM     64  C   UNL A   1      43.082  30.949  36.134  1.00  0.00     0.049 A 
ATOM     65  H   UNL A   1      41.300  31.384  35.093  1.00  0.00     0.167 HD
ATOM     66  C   UNL A   1      43.422  29.912  33.908  1.00  0.00     0.074 A 
ATOM     67  C   UNL A   1      44.216  29.198  32.930  1.00  0.00     0.031 C 
ATOM     68  C   UNL A   1      43.848  30.221  35.156  1.00  0.00     0.031 A 
BRANCH  55  69
ATOM     69  C   UNL A   1      39.802  33.461  38.511  1.00  0.00    -0.014 A 
ATOM     70  C   UNL A   1      39.086  32.838  39.547  1.00  0.00     0.010 A 
ATOM     71  C   UNL A   1      40.311  34.758  38.715  1.00  0.00     0.010 A 
ATOM     72  C   UNL A   1      38.861  33.511  40.753  1.00  0.00     0.020 A 
ATOM     73  C   UNL A   1      40.110  35.424  39.926  1.00  0.00     0.020 A 
ATOM     74  C   UNL A   1      39.372  34.801  40.934  1.00  0.00     0.054 A 
BRANCH  74  75
ATOM     75  S   UNL A   1      39.095  35.637  42.520  1.00  0.00     0.124 S 
ATOM     76  O   UNL A   1      37.689  35.334  42.778  1.00  0.00    -0.237 OA
ATOM     77  O   UNL A   1      40.051  34.977  43.404  1.00  0.00    -0.237 OA
ATOM     78  O   UNL A   1      39.385  37.039  42.229  1.00  0.00    -0.744 OA
ENDBRANCH  74  75
ENDBRANCH  55  69
BRANCH  56  79
ATOM     79  C   UNL A   1      41.514  29.073  29.688  1.00  0.00    -0.014 A 
ATOM     80  C   UNL A   1      42.185  29.797  28.686  1.00  0.00     0.010 A 
ATOM     81  C   UNL A   1      41.112  27.750  29.422  1.00  0.00     0.010 A 
ATOM     82  C   UNL A   1      42.436  29.215  27.440  1.00  0.00     0.020 A 
ATOM     83  C   UNL A   1      41.388  27.155  28.188  1.00  0.00     0.020 A 
ATOM     84  C   UNL A   1      42.037  27.897  27.200  1.00  0.00     0.054 A 
BRANCH  84  85
ATOM     85  S   UNL A   1      42.415  27.144  25.592  1.00  0.00     0.124 S 
ATOM     86  O   UNL A   1      43.743  26.585  25.824  1.00  0.00    -0.237 OA
ATOM     87  O   UNL A   1      41.336  26.171  25.435  1.00  0.00    -0.237 OA
ATOM     88  O   UNL A   1      42.362  28.274  24.667  1.00  0.00    -0.744 OA
ENDBRANCH  84  85
ENDBRANCH  56  79
BRANCH  68  89
ATOM     89  C   UNL A   1      45.212  29.741  35.566  1.00  0.00    -0.014 A 
ATOM     90  C   UNL A   1      46.346  30.557  35.419  1.00  0.00     0.010 A 
ATOM     91  C   UNL A   1      45.339  28.489  36.194  1.00  0.00     0.010 A 
ATOM     92  C   UNL A   1      47.589  30.124  35.888  1.00  0.00     0.020 A 
ATOM     93  C   UNL A   1      46.576  28.062  36.683  1.00  0.00     0.020 A 
ATOM     94  C   UNL A   1      47.694  28.881  36.521  1.00  0.00     0.054 A 
BRANCH  94  95
ATOM     95  S   UNL A   1      49.303  28.377  37.195  1.00  0.00     0.124 S 
ATOM     96  O   UNL A   1      49.264  28.951  38.536  1.00  0.00    -0.237 OA
ATOM     97  O   UNL A   1      49.234  26.918  37.132  1.00  0.00    -0.237 OA
ATOM     98  O   UNL A   1      50.266  28.988  36.282  1.00  0.00    -0.744 OA
ENDBRANCH  94  95
ENDBRANCH  68  89
ENDBRANCH  42  43
ENDBRANCH  35  37
ENDBRANCH  34  35
ENDBRANCH  33  34
ENDBRANCH   1  33
TORSDOF 18
ENDMDL
MODEL 3
REMARK VINA RESULT:     -12.3      5.848      9.986
REMARK SMILES CS(=O)(=O)c1ccc(C2=NN(c3ccc(C(=O)OCCOC(=O)c4ccc(-c5c6nc(c(-c7ccc(S(=O)(=O)[O-])cc7)c7ccc([nH]7)c(-c7ccc(S(=O)(=O)[O-])cc7)c7nc(c(-c8ccc(S(=O)(=O)[O-])cc8)c8ccc5[nH]8)C=C7)C=C6)cc4)cc3)[C@H](c3ccc(F)cc3)C2)cc1
REMARK SMILES IDX 19 1 18 2 16 3 17 4 15 5 12 6 13 7 85 8 14 9 84 10 11 11
REMARK SMILES IDX 9 12 10 13 94 14 86 15 8 16 5 17 6 18 96 19 7 20 95 21 2 22
REMARK SMILES IDX 1 23 3 24 4 25 87 26 88 27 93 28 89 29 92 30 90 31 91 32
REMARK SMILES IDX 20 33 21 34 22 35 23 36 24 37 25 38 83 39 26 40 82 41 27 42
REMARK SMILES IDX 28 43 29 44 76 45 30 46 81 47 75 48 77 49 31 50 80 51 74 52
REMARK SMILES IDX 73 53 32 55 62 56 43 57 61 58 44 59 47 60 60 61 78 62 45 63
REMARK SMILES IDX 46 64 59 66 79 67 48 68 33 69 34 70 42 71 35 72 41 73 36 74
REMARK SMILES IDX 37 75 38 76 39 77 40 78 63 79 64 80 72 81 65 82 71 83 66 84
REMARK SMILES IDX 67 85 68 86 69 87 70 88 49 89 50 90 58 91 51 92 57 93 52 94
REMARK SMILES IDX 53 95 54 96 55 97 56 98
REMARK H PARENT 77 54 47 65
REMARK Flexibility Score: inf
ROOT
ATOM      1  C   UNL A   1      40.748  20.567  27.150  1.00  0.00     0.275 C 
ENDROOT
BRANCH   1   2
ATOM      2  O   UNL A   1      39.750  20.900  26.166  1.00  0.00    -0.458 OA
BRANCH   2   3
ATOM      3  C   UNL A   1      39.371  22.200  26.130  1.00  0.00     0.338 C 
ATOM      4  O   UNL A   1      40.103  23.169  26.266  1.00  0.00    -0.246 OA
BRANCH   3   5
ATOM      5  C   UNL A   1      37.923  22.329  25.839  1.00  0.00     0.060 A 
ATOM      6  C   UNL A   1      35.215  22.538  25.112  1.00  0.00     0.060 A 
ATOM      7  C   UNL A   1      35.964  21.421  24.730  1.00  0.00     0.029 A 
ATOM      8  C   UNL A   1      35.820  23.520  25.909  1.00  0.00     0.029 A 
ATOM      9  C   UNL A   1      37.315  21.334  25.061  1.00  0.00     0.018 A 
ATOM     10  C   UNL A   1      37.166  23.417  26.279  1.00  0.00     0.018 A 
BRANCH   6  11
ATOM     11  N   UNL A   1      33.932  22.755  24.594  1.00  0.00    -0.257 N 
ATOM     12  C   UNL A   1      32.349  24.174  24.372  1.00  0.00     0.071 C 
ATOM     13  N   UNL A   1      33.617  24.004  24.157  1.00  0.00    -0.176 NA
ATOM     14  C   UNL A   1      31.642  23.041  25.064  1.00  0.00     0.091 C 
ATOM     15  C   UNL A   1      32.815  22.076  25.272  1.00  0.00     0.144 C 
BRANCH  12  16
ATOM     16  C   UNL A   1      31.624  25.378  23.925  1.00  0.00    -0.002 A 
ATOM     17  C   UNL A   1      30.234  27.690  23.229  1.00  0.00     0.067 A 
ATOM     18  C   UNL A   1      29.744  26.875  24.250  1.00  0.00     0.021 A 
ATOM     19  C   UNL A   1      31.401  27.340  22.535  1.00  0.00     0.021 A 
ATOM     20  C   UNL A   1      30.436  25.711  24.587  1.00  0.00     0.011 A 
ATOM     21  C   UNL A   1      32.106  26.185  22.893  1.00  0.00     0.011 A 
BRANCH  17  22
ATOM     22  S   UNL A   1      29.410  29.202  22.781  1.00  0.00     0.175 S 
ATOM     23  C   UNL A   1      27.669  28.873  22.829  1.00  0.00     0.163 C 
ATOM     24  O   UNL A   1      29.762  29.478  21.401  1.00  0.00    -0.224 OA
ATOM     25  O   UNL A   1      29.718  30.152  23.834  1.00  0.00    -0.224 OA
ENDBRANCH  17  22
ENDBRANCH  12  16
BRANCH  15  26
ATOM     26  C   UNL A   1      32.697  20.652  24.745  1.00  0.00    -0.023 A 
ATOM     27  C   UNL A   1      32.418  20.342  23.406  1.00  0.00     0.009 A 
ATOM     28  C   UNL A   1      33.008  19.589  25.624  1.00  0.00     0.009 A 
ATOM     29  C   UNL A   1      32.447  19.016  22.962  1.00  0.00     0.039 A 
ATOM     30  C   UNL A   1      33.065  18.270  25.173  1.00  0.00     0.039 A 
ATOM     31  C   UNL A   1      32.780  17.996  23.844  1.00  0.00     0.123 A 
ATOM     32  F   UNL A   1      32.847  16.733  23.402  1.00  0.00    -0.207 F 
ENDBRANCH  15  26
ENDBRANCH   6  11
ENDBRANCH   3   5
ENDBRANCH   2   3
ENDBRANCH   1   2
BRANCH   1  33
ATOM     33  C   UNL A   1      41.645  19.433  26.655  1.00  0.00     0.275 C 
BRANCH  33  34
ATOM     34  O   UNL A   1      42.111  19.700  25.320  1.00  0.00    -0.458 OA
BRANCH  34  35
ATOM     35  C   UNL A   1      43.455  19.778  25.180  1.00  0.00     0.338 C 
ATOM     36  O   UNL A   1      44.228  18.880  24.896  1.00  0.00    -0.246 OA
BRANCH  35  37
ATOM     37  C   UNL A   1      43.882  21.167  25.394  1.00  0.00     0.060 A 
ATOM     38  C   UNL A   1      44.875  21.430  26.337  1.00  0.00     0.016 A 
ATOM     39  C   UNL A   1      43.228  22.214  24.752  1.00  0.00     0.016 A 
ATOM     40  C   UNL A   1      45.182  22.742  26.689  1.00  0.00     0.010 A 
ATOM     41  C   UNL A   1      43.586  23.532  25.054  1.00  0.00     0.010 A 
ATOM     42  C   UNL A   1      44.548  23.811  26.044  1.00  0.00    -0.014 A 
BRANCH  42  43
ATOM     43  C   UNL A   1      44.854  25.220  26.411  1.00  0.00     0.031 A 
ATOM     44  C   UNL A   1      46.183  25.817  26.030  1.00  0.00     0.074 A 
ATOM     45  C   UNL A   1      43.966  25.958  27.108  1.00  0.00     0.049 A 
ATOM     46  N   UNL A   1      46.749  26.916  26.455  1.00  0.00    -0.248 NA
ATOM     47  C   UNL A   1      46.988  25.068  25.048  1.00  0.00     0.031 C 
ATOM     48  C   UNL A   1      42.613  25.536  27.482  1.00  0.00     0.029 A 
ATOM     49  N   UNL A   1      44.074  27.221  27.639  1.00  0.00    -0.354 N 
ATOM     50  C   UNL A   1      48.002  26.955  25.852  1.00  0.00     0.074 A 
ATOM     51  C   UNL A   1      48.107  25.778  25.017  1.00  0.00     0.031 C 
ATOM     52  C   UNL A   1      42.017  26.525  28.167  1.00  0.00     0.029 A 
ATOM     53  C   UNL A   1      42.970  27.611  28.360  1.00  0.00     0.049 A 
ATOM     54  H   UNL A   1      44.867  27.791  27.515  1.00  0.00     0.167 HD
ATOM     55  C   UNL A   1      48.977  27.885  25.994  1.00  0.00     0.031 A 
ATOM     56  C   UNL A   1      42.763  28.693  29.138  1.00  0.00     0.031 A 
ATOM     57  C   UNL A   1      48.842  29.074  26.791  1.00  0.00     0.049 A 
ATOM     58  C   UNL A   1      43.880  29.684  29.323  1.00  0.00     0.074 A 
ATOM     59  C   UNL A   1      49.764  30.091  26.980  1.00  0.00     0.029 A 
ATOM     60  N   UNL A   1      47.714  29.417  27.519  1.00  0.00    -0.354 N 
ATOM     61  N   UNL A   1      45.076  29.686  28.784  1.00  0.00    -0.248 NA
ATOM     62  C   UNL A   1      43.628  30.807  30.237  1.00  0.00     0.031 C 
ATOM     63  C   UNL A   1      49.207  31.025  27.858  1.00  0.00     0.029 A 
ATOM     64  C   UNL A   1      47.921  30.618  28.174  1.00  0.00     0.049 A 
ATOM     65  H   UNL A   1      46.887  28.883  27.564  1.00  0.00     0.167 HD
ATOM     66  C   UNL A   1      45.708  30.823  29.273  1.00  0.00     0.074 A 
ATOM     67  C   UNL A   1      44.763  31.487  30.146  1.00  0.00     0.031 C 
ATOM     68  C   UNL A   1      46.960  31.275  29.021  1.00  0.00     0.031 A 
BRANCH  55  69
ATOM     69  C   UNL A   1      50.298  27.631  25.319  1.00  0.00    -0.014 A 
ATOM     70  C   UNL A   1      50.555  28.068  24.009  1.00  0.00     0.010 A 
ATOM     71  C   UNL A   1      51.325  26.995  26.043  1.00  0.00     0.010 A 
ATOM     72  C   UNL A   1      51.807  27.849  23.425  1.00  0.00     0.020 A 
ATOM     73  C   UNL A   1      52.585  26.796  25.471  1.00  0.00     0.020 A 
ATOM     74  C   UNL A   1      52.814  27.212  24.159  1.00  0.00     0.054 A 
BRANCH  74  75
ATOM     75  S   UNL A   1      54.438  26.971  23.389  1.00  0.00     0.124 S 
ATOM     76  O   UNL A   1      55.058  26.002  24.292  1.00  0.00    -0.237 OA
ATOM     77  O   UNL A   1      54.096  26.463  22.064  1.00  0.00    -0.237 OA
ATOM     78  O   UNL A   1      55.033  28.305  23.407  1.00  0.00    -0.744 OA
ENDBRANCH  74  75
ENDBRANCH  55  69
BRANCH  56  79
ATOM     79  C   UNL A   1      41.466  28.866  29.848  1.00  0.00    -0.014 A 
ATOM     80  C   UNL A   1      41.210  28.175  31.046  1.00  0.00     0.010 A 
ATOM     81  C   UNL A   1      40.479  29.725  29.331  1.00  0.00     0.010 A 
ATOM     82  C   UNL A   1      39.986  28.330  31.704  1.00  0.00     0.020 A 
ATOM     83  C   UNL A   1      39.267  29.905  30.002  1.00  0.00     0.020 A 
ATOM     84  C   UNL A   1      39.023  29.196  31.178  1.00  0.00     0.054 A 
BRANCH  84  85
ATOM     85  S   UNL A   1      37.460  29.418  32.074  1.00  0.00     0.124 S 
ATOM     86  O   UNL A   1      37.510  28.331  33.045  1.00  0.00    -0.237 OA
ATOM     87  O   UNL A   1      37.598  30.766  32.623  1.00  0.00    -0.237 OA
ATOM     88  O   UNL A   1      36.447  29.282  31.029  1.00  0.00    -0.744 OA
ENDBRANCH  84  85
ENDBRANCH  56  79
BRANCH  68  89
ATOM     89  C   UNL A   1      47.369  32.579  29.646  1.00  0.00    -0.014 A 
ATOM     90  C   UNL A   1      48.046  32.616  30.877  1.00  0.00     0.010 A 
ATOM     91  C   UNL A   1      47.154  33.777  28.941  1.00  0.00     0.010 A 
ATOM     92  C   UNL A   1      48.495  33.832  31.397  1.00  0.00     0.020 A 
ATOM     93  C   UNL A   1      47.620  34.992  29.447  1.00  0.00     0.020 A 
ATOM     94  C   UNL A   1      48.283  35.012  30.675  1.00  0.00     0.054 A 
BRANCH  94  95
ATOM     95  S   UNL A   1      48.947  36.569  31.331  1.00  0.00     0.124 S 
ATOM     96  O   UNL A   1      49.048  36.280  32.758  1.00  0.00    -0.237 OA
ATOM     97  O   UNL A   1      50.219  36.699  30.624  1.00  0.00    -0.237 OA
ATOM     98  O   UNL A   1      47.934  37.557  30.965  1.00  0.00    -0.744 OA
ENDBRANCH  94  95
ENDBRANCH  68  89
ENDBRANCH  42  43
ENDBRANCH  35  37
ENDBRANCH  34  35
ENDBRANCH  33  34
ENDBRANCH   1  33
TORSDOF 18
ENDMDL
