MODEL 1
REMARK VINA RESULT:     -12.1      0.000      0.000
REMARK SMILES Cc1cccc(-c2cccc(C(=O)OCCOC(=O)c3ccc(-c4c5nc(c(-c6ccc(S(=O)(=O)[O-])cc6)c6ccc([nH]6)c(-c6ccc(S(=O)(=O)[O-])cc6)c6nc(c(-c7ccc(S(=O)(=O)[O-])cc7)c7ccc4[nH]7)C=C6)C=C5)cc3)c2)c1
REMARK SMILES IDX 16 1 15 2 14 3 12 4 13 5 11 6 7 7 8 8 80 9 9 10 10 11 6 12
REMARK SMILES IDX 1 13 2 14 3 15 81 16 4 17 5 18 17 19 18 20 19 21 20 22 21 23
REMARK SMILES IDX 79 24 22 25 78 26 23 27 24 28 25 29 72 30 26 31 77 32 71 33
REMARK SMILES IDX 73 34 27 35 76 36 70 37 69 38 28 40 58 41 39 42 57 43 40 44
REMARK SMILES IDX 43 45 56 46 74 47 41 48 42 49 55 51 75 52 44 53 29 54 30 55
REMARK SMILES IDX 38 56 31 57 37 58 32 59 33 60 34 61 35 62 36 63 59 64 60 65
REMARK SMILES IDX 68 66 61 67 67 68 62 69 63 70 64 71 65 72 66 73 45 74 46 75
REMARK SMILES IDX 54 76 47 77 53 78 48 79 49 80 50 81 51 82 52 83
REMARK H PARENT 73 39 43 50
REMARK Flexibility Score: inf
ROOT
ATOM      1  C   UNL A   1      38.221  23.869  26.286  1.00  0.00     0.275 C 
ENDROOT
BRANCH   1   2
ATOM      2  C   UNL A   1      37.854  22.498  25.685  1.00  0.00     0.275 C 
BRANCH   2   3
ATOM      3  O   UNL A   1      37.062  22.503  24.483  1.00  0.00    -0.458 OA
BRANCH   3   4
ATOM      4  C   UNL A   1      35.834  21.952  24.714  1.00  0.00     0.338 C 
ATOM      5  O   UNL A   1      35.636  20.755  24.907  1.00  0.00    -0.246 OA
BRANCH   4   6
ATOM      6  C   UNL A   1      34.672  22.864  24.551  1.00  0.00     0.060 A 
ATOM      7  C   UNL A   1      33.257  24.792  25.066  1.00  0.00    -0.018 A 
ATOM      8  C   UNL A   1      32.281  24.256  24.200  1.00  0.00     0.009 A 
ATOM      9  C   UNL A   1      34.477  24.086  25.221  1.00  0.00     0.024 A 
ATOM     10  C   UNL A   1      32.475  23.053  23.532  1.00  0.00     0.002 A 
ATOM     11  C   UNL A   1      33.659  22.357  23.718  1.00  0.00     0.016 A 
BRANCH   7  12
ATOM     12  C   UNL A   1      32.946  26.072  25.750  1.00  0.00    -0.018 A 
ATOM     13  C   UNL A   1      34.815  29.142  27.107  1.00  0.00     0.044 C 
ATOM     14  C   UNL A   1      33.712  28.181  26.776  1.00  0.00    -0.051 A 
ATOM     15  C   UNL A   1      32.420  28.417  27.249  1.00  0.00     0.003 A 
ATOM     16  C   UNL A   1      33.959  27.018  26.026  1.00  0.00     0.012 A 
ATOM     17  C   UNL A   1      31.399  27.514  26.964  1.00  0.00     0.001 A 
ATOM     18  C   UNL A   1      31.663  26.351  26.232  1.00  0.00     0.009 A 
ENDBRANCH   7  12
ENDBRANCH   4   6
ENDBRANCH   3   4
ENDBRANCH   2   3
ENDBRANCH   1   2
BRANCH   1  19
ATOM     19  O   UNL A   1      38.984  23.942  27.510  1.00  0.00    -0.458 OA
BRANCH  19  20
ATOM     20  C   UNL A   1      40.162  24.612  27.553  1.00  0.00     0.338 C 
ATOM     21  O   UNL A   1      41.270  24.144  27.360  1.00  0.00    -0.246 OA
BRANCH  20  22
ATOM     22  C   UNL A   1      39.971  25.993  27.962  1.00  0.00     0.060 A 
ATOM     23  C   UNL A   1      40.421  27.026  27.131  1.00  0.00     0.016 A 
ATOM     24  C   UNL A   1      39.223  26.209  29.120  1.00  0.00     0.016 A 
ATOM     25  C   UNL A   1      40.196  28.335  27.506  1.00  0.00     0.010 A 
ATOM     26  C   UNL A   1      38.898  27.502  29.435  1.00  0.00     0.010 A 
ATOM     27  C   UNL A   1      39.489  28.541  28.687  1.00  0.00    -0.014 A 
BRANCH  27  28
ATOM     28  C   UNL A   1      39.789  29.686  29.522  1.00  0.00     0.031 A 
ATOM     29  C   UNL A   1      38.990  30.904  29.447  1.00  0.00     0.074 A 
ATOM     30  C   UNL A   1      40.648  29.312  30.496  1.00  0.00     0.049 A 
ATOM     31  N   UNL A   1      39.266  31.985  30.084  1.00  0.00    -0.248 NA
ATOM     32  C   UNL A   1      37.814  31.031  28.587  1.00  0.00     0.031 C 
ATOM     33  C   UNL A   1      40.907  29.832  31.821  1.00  0.00     0.029 A 
ATOM     34  N   UNL A   1      41.630  28.327  30.331  1.00  0.00    -0.354 N 
ATOM     35  C   UNL A   1      38.130  32.764  30.040  1.00  0.00     0.074 A 
ATOM     36  C   UNL A   1      37.342  32.226  28.961  1.00  0.00     0.031 C 
ATOM     37  C   UNL A   1      42.117  29.384  32.220  1.00  0.00     0.029 A 
ATOM     38  C   UNL A   1      42.734  28.712  31.074  1.00  0.00     0.049 A 
ATOM     39  H   UNL A   1      41.550  27.511  29.786  1.00  0.00     0.167 HD
ATOM     40  C   UNL A   1      37.895  33.614  31.082  1.00  0.00     0.031 A 
ATOM     41  C   UNL A   1      43.807  29.191  30.370  1.00  0.00     0.031 A 
ATOM     42  C   UNL A   1      39.042  33.603  31.997  1.00  0.00     0.049 A 
ATOM     43  C   UNL A   1      43.970  30.671  30.658  1.00  0.00     0.074 A 
ATOM     44  C   UNL A   1      39.268  32.941  33.193  1.00  0.00     0.029 A 
ATOM     45  N   UNL A   1      40.293  33.985  31.515  1.00  0.00    -0.354 N 
ATOM     46  N   UNL A   1      42.981  31.516  30.815  1.00  0.00    -0.248 NA
ATOM     47  C   UNL A   1      45.269  31.247  30.981  1.00  0.00     0.031 C 
ATOM     48  C   UNL A   1      40.679  32.807  33.350  1.00  0.00     0.029 A 
ATOM     49  C   UNL A   1      41.300  33.392  32.256  1.00  0.00     0.049 A 
ATOM     50  H   UNL A   1      40.440  34.592  30.755  1.00  0.00     0.167 HD
ATOM     51  C   UNL A   1      43.467  32.656  31.409  1.00  0.00     0.074 A 
ATOM     52  C   UNL A   1      44.909  32.458  31.438  1.00  0.00     0.031 C 
ATOM     53  C   UNL A   1      42.696  33.659  31.933  1.00  0.00     0.031 A 
BRANCH  40  54
ATOM     54  C   UNL A   1      36.524  34.150  31.447  1.00  0.00    -0.014 A 
ATOM     55  C   UNL A   1      35.463  34.025  30.524  1.00  0.00     0.010 A 
ATOM     56  C   UNL A   1      36.219  34.836  32.639  1.00  0.00     0.010 A 
ATOM     57  C   UNL A   1      34.203  34.606  30.743  1.00  0.00     0.020 A 
ATOM     58  C   UNL A   1      34.970  35.441  32.866  1.00  0.00     0.020 A 
ATOM     59  C   UNL A   1      33.968  35.327  31.911  1.00  0.00     0.054 A 
BRANCH  59  60
ATOM     60  S   UNL A   1      32.343  36.087  32.174  1.00  0.00     0.124 S 
ATOM     61  O   UNL A   1      31.536  34.959  32.630  1.00  0.00    -0.237 OA
ATOM     62  O   UNL A   1      32.631  37.104  33.181  1.00  0.00    -0.237 OA
ATOM     63  O   UNL A   1      31.985  36.608  30.855  1.00  0.00    -0.744 OA
ENDBRANCH  59  60
ENDBRANCH  40  54
BRANCH  41  64
ATOM     64  C   UNL A   1      44.097  28.473  29.069  1.00  0.00    -0.014 A 
ATOM     65  C   UNL A   1      44.074  29.239  27.873  1.00  0.00     0.010 A 
ATOM     66  C   UNL A   1      44.624  27.172  28.982  1.00  0.00     0.010 A 
ATOM     67  C   UNL A   1      44.649  28.781  26.678  1.00  0.00     0.020 A 
ATOM     68  C   UNL A   1      45.187  26.693  27.772  1.00  0.00     0.020 A 
ATOM     69  C   UNL A   1      45.219  27.512  26.635  1.00  0.00     0.054 A 
BRANCH  69  70
ATOM     70  S   UNL A   1      46.196  27.054  25.160  1.00  0.00     0.124 S 
ATOM     71  O   UNL A   1      45.555  25.823  24.716  1.00  0.00    -0.237 OA
ATOM     72  O   UNL A   1      46.025  28.208  24.281  1.00  0.00    -0.237 OA
ATOM     73  O   UNL A   1      47.550  26.915  25.685  1.00  0.00    -0.744 OA
ENDBRANCH  69  70
ENDBRANCH  41  64
BRANCH  53  74
ATOM     74  C   UNL A   1      43.207  35.039  32.269  1.00  0.00    -0.014 A 
ATOM     75  C   UNL A   1      43.902  35.841  31.356  1.00  0.00     0.010 A 
ATOM     76  C   UNL A   1      42.791  35.646  33.481  1.00  0.00     0.010 A 
ATOM     77  C   UNL A   1      44.202  37.175  31.650  1.00  0.00     0.020 A 
ATOM     78  C   UNL A   1      43.028  36.990  33.756  1.00  0.00     0.020 A 
ATOM     79  C   UNL A   1      43.753  37.744  32.842  1.00  0.00     0.054 A 
BRANCH  79  80
ATOM     80  S   UNL A   1      44.037  39.501  33.149  1.00  0.00     0.124 S 
ATOM     81  O   UNL A   1      42.751  39.916  33.705  1.00  0.00    -0.237 OA
ATOM     82  O   UNL A   1      45.154  39.491  34.091  1.00  0.00    -0.237 OA
ATOM     83  O   UNL A   1      44.351  40.032  31.826  1.00  0.00    -0.744 OA
ENDBRANCH  79  80
ENDBRANCH  53  74
ENDBRANCH  27  28
ENDBRANCH  20  22
ENDBRANCH  19  20
ENDBRANCH   1  19
TORSDOF 15
ENDMDL
MODEL 2
REMARK VINA RESULT:     -12.0      4.507     10.595
REMARK SMILES Cc1cccc(-c2cccc(C(=O)OCCOC(=O)c3ccc(-c4c5nc(c(-c6ccc(S(=O)(=O)[O-])cc6)c6ccc([nH]6)c(-c6ccc(S(=O)(=O)[O-])cc6)c6nc(c(-c7ccc(S(=O)(=O)[O-])cc7)c7ccc4[nH]7)C=C6)C=C5)cc3)c2)c1
REMARK SMILES IDX 16 1 15 2 14 3 12 4 13 5 11 6 7 7 8 8 80 9 9 10 10 11 6 12
REMARK SMILES IDX 1 13 2 14 3 15 81 16 4 17 5 18 17 19 18 20 19 21 20 22 21 23
REMARK SMILES IDX 79 24 22 25 78 26 23 27 24 28 25 29 72 30 26 31 77 32 71 33
REMARK SMILES IDX 73 34 27 35 76 36 70 37 69 38 28 40 58 41 39 42 57 43 40 44
REMARK SMILES IDX 43 45 56 46 74 47 41 48 42 49 55 51 75 52 44 53 29 54 30 55
REMARK SMILES IDX 38 56 31 57 37 58 32 59 33 60 34 61 35 62 36 63 59 64 60 65
REMARK SMILES IDX 68 66 61 67 67 68 62 69 63 70 64 71 65 72 66 73 45 74 46 75
REMARK SMILES IDX 54 76 47 77 53 78 48 79 49 80 50 81 51 82 52 83
REMARK H PARENT 73 39 43 50
REMARK Flexibility Score: inf
ROOT
ATOM      1  C   UNL A   1      34.598  30.995  27.762  1.00  0.00     0.275 C 
ENDROOT
BRANCH   1   2
ATOM      2  C   UNL A   1      33.298  30.367  27.222  1.00  0.00     0.275 C 
BRANCH   2   3
ATOM      3  O   UNL A   1      33.359  29.758  25.919  1.00  0.00    -0.458 OA
BRANCH   3   4
ATOM      4  C   UNL A   1      32.478  28.718  25.833  1.00  0.00     0.338 C 
ATOM      5  O   UNL A   1      31.401  28.669  26.424  1.00  0.00    -0.246 OA
BRANCH   4   6
ATOM      6  C   UNL A   1      32.958  27.518  25.100  1.00  0.00     0.060 A 
ATOM      7  C   UNL A   1      34.006  25.320  24.858  1.00  0.00    -0.018 A 
ATOM      8  C   UNL A   1      33.993  25.513  23.461  1.00  0.00     0.009 A 
ATOM      9  C   UNL A   1      33.458  26.338  25.681  1.00  0.00     0.024 A 
ATOM     10  C   UNL A   1      33.493  26.674  22.886  1.00  0.00     0.002 A 
ATOM     11  C   UNL A   1      32.991  27.675  23.704  1.00  0.00     0.016 A 
BRANCH   7  12
ATOM     12  C   UNL A   1      34.581  24.053  25.376  1.00  0.00    -0.018 A 
ATOM     13  C   UNL A   1      37.926  22.165  25.299  1.00  0.00     0.044 C 
ATOM     14  C   UNL A   1      36.487  22.498  25.561  1.00  0.00    -0.051 A 
ATOM     15  C   UNL A   1      35.651  21.550  26.154  1.00  0.00     0.003 A 
ATOM     16  C   UNL A   1      35.946  23.740  25.187  1.00  0.00     0.012 A 
ATOM     17  C   UNL A   1      34.309  21.847  26.377  1.00  0.00     0.001 A 
ATOM     18  C   UNL A   1      33.780  23.081  25.982  1.00  0.00     0.009 A 
ENDBRANCH   7  12
ENDBRANCH   4   6
ENDBRANCH   3   4
ENDBRANCH   2   3
ENDBRANCH   1   2
BRANCH   1  19
ATOM     19  O   UNL A   1      35.808  30.210  27.826  1.00  0.00    -0.458 OA
BRANCH  19  20
ATOM     20  C   UNL A   1      36.962  30.753  28.287  1.00  0.00     0.338 C 
ATOM     21  O   UNL A   1      37.174  31.933  28.497  1.00  0.00    -0.246 OA
BRANCH  20  22
ATOM     22  C   UNL A   1      38.001  29.747  28.428  1.00  0.00     0.060 A 
ATOM     23  C   UNL A   1      38.072  28.989  29.604  1.00  0.00     0.016 A 
ATOM     24  C   UNL A   1      38.800  29.507  27.311  1.00  0.00     0.016 A 
ATOM     25  C   UNL A   1      39.034  28.006  29.712  1.00  0.00     0.010 A 
ATOM     26  C   UNL A   1      39.679  28.457  27.371  1.00  0.00     0.010 A 
ATOM     27  C   UNL A   1      39.858  27.805  28.608  1.00  0.00    -0.014 A 
BRANCH  27  28
ATOM     28  C   UNL A   1      41.236  27.401  28.796  1.00  0.00     0.031 A 
ATOM     29  C   UNL A   1      41.636  26.003  28.669  1.00  0.00     0.074 A 
ATOM     30  C   UNL A   1      42.026  28.497  28.784  1.00  0.00     0.049 A 
ATOM     31  N   UNL A   1      42.817  25.568  28.922  1.00  0.00    -0.248 NA
ATOM     32  C   UNL A   1      40.705  24.942  28.289  1.00  0.00     0.031 C 
ATOM     33  C   UNL A   1      43.420  28.693  28.449  1.00  0.00     0.029 A 
ATOM     34  N   UNL A   1      41.624  29.751  29.264  1.00  0.00    -0.354 N 
ATOM     35  C   UNL A   1      42.898  24.311  28.365  1.00  0.00     0.074 A 
ATOM     36  C   UNL A   1      41.533  23.900  28.159  1.00  0.00     0.031 C 
ATOM     37  C   UNL A   1      43.823  29.863  28.989  1.00  0.00     0.029 A 
ATOM     38  C   UNL A   1      42.732  30.351  29.837  1.00  0.00     0.049 A 
ATOM     39  H   UNL A   1      40.719  30.134  29.204  1.00  0.00     0.167 HD
ATOM     40  C   UNL A   1      44.117  23.879  27.928  1.00  0.00     0.031 A 
ATOM     41  C   UNL A   1      42.764  30.395  31.206  1.00  0.00     0.031 A 
ATOM     42  C   UNL A   1      45.148  24.856  28.298  1.00  0.00     0.049 A 
ATOM     43  C   UNL A   1      43.868  29.484  31.707  1.00  0.00     0.074 A 
ATOM     44  C   UNL A   1      45.766  25.869  27.582  1.00  0.00     0.029 A 
ATOM     45  N   UNL A   1      45.348  25.148  29.646  1.00  0.00    -0.354 N 
ATOM     46  N   UNL A   1      44.184  28.328  31.176  1.00  0.00    -0.248 NA
ATOM     47  C   UNL A   1      44.816  29.921  32.725  1.00  0.00     0.031 C 
ATOM     48  C   UNL A   1      46.216  26.844  28.518  1.00  0.00     0.029 A 
ATOM     49  C   UNL A   1      45.876  26.418  29.794  1.00  0.00     0.049 A 
ATOM     50  H   UNL A   1      45.143  24.536  30.389  1.00  0.00     0.167 HD
ATOM     51  C   UNL A   1      45.425  27.958  31.632  1.00  0.00     0.074 A 
ATOM     52  C   UNL A   1      45.749  28.958  32.640  1.00  0.00     0.031 C 
ATOM     53  C   UNL A   1      46.176  26.931  31.125  1.00  0.00     0.031 A 
BRANCH  40  54
ATOM     54  C   UNL A   1      44.309  22.798  26.882  1.00  0.00    -0.014 A 
ATOM     55  C   UNL A   1      43.238  21.930  26.579  1.00  0.00     0.010 A 
ATOM     56  C   UNL A   1      45.519  22.535  26.209  1.00  0.00     0.010 A 
ATOM     57  C   UNL A   1      43.382  20.831  25.715  1.00  0.00     0.020 A 
ATOM     58  C   UNL A   1      45.686  21.429  25.358  1.00  0.00     0.020 A 
ATOM     59  C   UNL A   1      44.615  20.578  25.119  1.00  0.00     0.054 A 
BRANCH  59  60
ATOM     60  S   UNL A   1      44.792  19.146  24.021  1.00  0.00     0.124 S 
ATOM     61  O   UNL A   1      43.846  18.191  24.591  1.00  0.00    -0.237 OA
ATOM     62  O   UNL A   1      44.423  19.699  22.721  1.00  0.00    -0.237 OA
ATOM     63  O   UNL A   1      46.200  18.775  24.157  1.00  0.00    -0.744 OA
ENDBRANCH  59  60
ENDBRANCH  40  54
BRANCH  41  64
ATOM     64  C   UNL A   1      41.435  30.676  31.872  1.00  0.00    -0.014 A 
ATOM     65  C   UNL A   1      40.747  31.862  31.500  1.00  0.00     0.010 A 
ATOM     66  C   UNL A   1      40.719  29.740  32.640  1.00  0.00     0.010 A 
ATOM     67  C   UNL A   1      39.386  32.058  31.777  1.00  0.00     0.020 A 
ATOM     68  C   UNL A   1      39.349  29.941  32.943  1.00  0.00     0.020 A 
ATOM     69  C   UNL A   1      38.684  31.088  32.486  1.00  0.00     0.054 A 
BRANCH  69  70
ATOM     70  S   UNL A   1      36.867  31.240  32.591  1.00  0.00     0.124 S 
ATOM     71  O   UNL A   1      36.412  29.875  32.354  1.00  0.00    -0.237 OA
ATOM     72  O   UNL A   1      36.656  31.750  33.944  1.00  0.00    -0.237 OA
ATOM     73  O   UNL A   1      36.551  32.208  31.546  1.00  0.00    -0.744 OA
ENDBRANCH  69  70
ENDBRANCH  41  64
BRANCH  53  74
ATOM     74  C   UNL A   1      47.360  26.314  31.828  1.00  0.00    -0.014 A 
ATOM     75  C   UNL A   1      47.280  25.738  33.102  1.00  0.00     0.010 A 
ATOM     76  C   UNL A   1      48.559  26.110  31.098  1.00  0.00     0.010 A 
ATOM     77  C   UNL A   1      48.355  25.024  33.640  1.00  0.00     0.020 A 
ATOM     78  C   UNL A   1      49.610  25.347  31.598  1.00  0.00     0.020 A 
ATOM     79  C   UNL A   1      49.508  24.823  32.880  1.00  0.00     0.054 A 
BRANCH  79  80
ATOM     80  S   UNL A   1      50.835  23.790  33.539  1.00  0.00     0.124 S 
ATOM     81  O   UNL A   1      51.771  24.793  34.040  1.00  0.00    -0.237 OA
ATOM     82  O   UNL A   1      50.155  23.000  34.563  1.00  0.00    -0.237 OA
ATOM     83  O   UNL A   1      51.288  23.032  32.376  1.00  0.00    -0.744 OA
ENDBRANCH  79  80
ENDBRANCH  53  74
ENDBRANCH  27  28
ENDBRANCH  20  22
ENDBRANCH  19  20
ENDBRANCH   1  19
TORSDOF 15
ENDMDL
MODEL 3
REMARK VINA RESULT:     -11.7      4.694     10.977
REMARK SMILES Cc1cccc(-c2cccc(C(=O)OCCOC(=O)c3ccc(-c4c5nc(c(-c6ccc(S(=O)(=O)[O-])cc6)c6ccc([nH]6)c(-c6ccc(S(=O)(=O)[O-])cc6)c6nc(c(-c7ccc(S(=O)(=O)[O-])cc7)c7ccc4[nH]7)C=C6)C=C5)cc3)c2)c1
REMARK SMILES IDX 16 1 15 2 14 3 12 4 13 5 11 6 7 7 8 8 80 9 9 10 10 11 6 12
REMARK SMILES IDX 1 13 2 14 3 15 81 16 4 17 5 18 17 19 18 20 19 21 20 22 21 23
REMARK SMILES IDX 79 24 22 25 78 26 23 27 24 28 25 29 72 30 26 31 77 32 71 33
REMARK SMILES IDX 73 34 27 35 76 36 70 37 69 38 28 40 58 41 39 42 57 43 40 44
REMARK SMILES IDX 43 45 56 46 74 47 41 48 42 49 55 51 75 52 44 53 29 54 30 55
REMARK SMILES IDX 38 56 31 57 37 58 32 59 33 60 34 61 35 62 36 63 59 64 60 65
REMARK SMILES IDX 68 66 61 67 67 68 62 69 63 70 64 71 65 72 66 73 45 74 46 75
REMARK SMILES IDX 54 76 47 77 53 78 48 79 49 80 50 81 51 82 52 83
REMARK H PARENT 73 39 43 50
REMARK Flexibility Score: inf
ROOT
ATOM      1  C   UNL A   1      35.332  31.619  28.403  1.00  0.00     0.275 C 
ENDROOT
BRANCH   1   2
ATOM      2  C   UNL A   1      33.957  31.659  27.707  1.00  0.00     0.275 C 
BRANCH   2   3
ATOM      3  O   UNL A   1      33.328  30.395  27.431  1.00  0.00    -0.458 OA
BRANCH   3   4
ATOM      4  C   UNL A   1      32.241  30.565  26.622  1.00  0.00     0.338 C 
ATOM      5  O   UNL A   1      31.611  31.614  26.518  1.00  0.00    -0.246 OA
BRANCH   4   6
ATOM      6  C   UNL A   1      31.722  29.337  25.966  1.00  0.00     0.060 A 
ATOM      7  C   UNL A   1      31.447  26.928  25.634  1.00  0.00    -0.018 A 
ATOM      8  C   UNL A   1      30.817  27.211  24.404  1.00  0.00     0.009 A 
ATOM      9  C   UNL A   1      31.884  28.018  26.429  1.00  0.00     0.024 A 
ATOM     10  C   UNL A   1      30.649  28.512  23.949  1.00  0.00     0.002 A 
ATOM     11  C   UNL A   1      31.111  29.567  24.721  1.00  0.00     0.016 A 
BRANCH   7  12
ATOM     12  C   UNL A   1      31.598  25.504  26.021  1.00  0.00    -0.018 A 
ATOM     13  C   UNL A   1      34.419  22.963  26.616  1.00  0.00     0.044 C 
ATOM     14  C   UNL A   1      33.050  23.559  26.468  1.00  0.00    -0.051 A 
ATOM     15  C   UNL A   1      31.923  22.739  26.541  1.00  0.00     0.003 A 
ATOM     16  C   UNL A   1      32.876  24.931  26.218  1.00  0.00     0.012 A 
ATOM     17  C   UNL A   1      30.652  23.285  26.380  1.00  0.00     0.001 A 
ATOM     18  C   UNL A   1      30.495  24.650  26.114  1.00  0.00     0.009 A 
ENDBRANCH   7  12
ENDBRANCH   4   6
ENDBRANCH   3   4
ENDBRANCH   2   3
ENDBRANCH   1   2
BRANCH   1  19
ATOM     19  O   UNL A   1      36.483  31.102  27.702  1.00  0.00    -0.458 OA
BRANCH  19  20
ATOM     20  C   UNL A   1      36.680  29.766  27.584  1.00  0.00     0.338 C 
ATOM     21  O   UNL A   1      35.851  28.938  27.252  1.00  0.00    -0.246 OA
BRANCH  20  22
ATOM     22  C   UNL A   1      38.020  29.389  28.001  1.00  0.00     0.060 A 
ATOM     23  C   UNL A   1      38.993  29.118  27.031  1.00  0.00     0.016 A 
ATOM     24  C   UNL A   1      38.292  29.444  29.368  1.00  0.00     0.016 A 
ATOM     25  C   UNL A   1      40.274  28.804  27.435  1.00  0.00     0.010 A 
ATOM     26  C   UNL A   1      39.588  29.246  29.766  1.00  0.00     0.010 A 
ATOM     27  C   UNL A   1      40.526  28.816  28.804  1.00  0.00    -0.014 A 
BRANCH  27  28
ATOM     28  C   UNL A   1      41.478  27.887  29.375  1.00  0.00     0.031 A 
ATOM     29  C   UNL A   1      41.505  26.487  28.964  1.00  0.00     0.074 A 
ATOM     30  C   UNL A   1      42.432  28.578  30.037  1.00  0.00     0.049 A 
ATOM     31  N   UNL A   1      42.253  25.594  29.503  1.00  0.00    -0.248 NA
ATOM     32  C   UNL A   1      40.631  25.949  27.922  1.00  0.00     0.031 C 
ATOM     33  C   UNL A   1      43.809  28.275  30.362  1.00  0.00     0.029 A 
ATOM     34  N   UNL A   1      42.195  29.788  30.703  1.00  0.00    -0.354 N 
ATOM     35  C   UNL A   1      42.258  24.517  28.643  1.00  0.00     0.074 A 
ATOM     36  C   UNL A   1      41.110  24.706  27.793  1.00  0.00     0.031 C 
ATOM     37  C   UNL A   1      44.193  29.088  31.370  1.00  0.00     0.029 A 
ATOM     38  C   UNL A   1      43.001  29.807  31.829  1.00  0.00     0.049 A 
ATOM     39  H   UNL A   1      41.570  30.494  30.422  1.00  0.00     0.167 HD
ATOM     40  C   UNL A   1      43.373  23.731  28.605  1.00  0.00     0.031 A 
ATOM     41  C   UNL A   1      42.377  29.601  33.031  1.00  0.00     0.031 A 
ATOM     42  C   UNL A   1      44.312  24.156  29.650  1.00  0.00     0.049 A 
ATOM     43  C   UNL A   1      42.816  28.263  33.595  1.00  0.00     0.074 A 
ATOM     44  C   UNL A   1      45.441  24.958  29.612  1.00  0.00     0.029 A 
ATOM     45  N   UNL A   1      43.904  24.113  30.982  1.00  0.00    -0.354 N 
ATOM     46  N   UNL A   1      43.031  27.184  32.883  1.00  0.00    -0.248 NA
ATOM     47  C   UNL A   1      43.229  28.120  34.986  1.00  0.00     0.031 C 
ATOM     48  C   UNL A   1      45.621  25.509  30.914  1.00  0.00     0.029 A 
ATOM     49  C   UNL A   1      44.608  25.036  31.735  1.00  0.00     0.049 A 
ATOM     50  H   UNL A   1      43.212  23.510  31.338  1.00  0.00     0.167 HD
ATOM     51  C   UNL A   1      43.749  26.292  33.642  1.00  0.00     0.074 A 
ATOM     52  C   UNL A   1      43.795  26.902  34.964  1.00  0.00     0.031 C 
ATOM     53  C   UNL A   1      44.349  25.158  33.164  1.00  0.00     0.031 A 
BRANCH  40  54
ATOM     54  C   UNL A   1      43.754  22.855  27.428  1.00  0.00    -0.014 A 
ATOM     55  C   UNL A   1      42.890  21.811  27.033  1.00  0.00     0.010 A 
ATOM     56  C   UNL A   1      44.961  22.955  26.707  1.00  0.00     0.010 A 
ATOM     57  C   UNL A   1      43.236  20.885  26.035  1.00  0.00     0.020 A 
ATOM     58  C   UNL A   1      45.332  22.025  25.720  1.00  0.00     0.020 A 
ATOM     59  C   UNL A   1      44.467  20.990  25.391  1.00  0.00     0.054 A 
BRANCH  59  60
ATOM     60  S   UNL A   1      44.908  19.778  24.117  1.00  0.00     0.124 S 
ATOM     61  O   UNL A   1      44.527  20.462  22.884  1.00  0.00    -0.237 OA
ATOM     62  O   UNL A   1      46.344  19.610  24.327  1.00  0.00    -0.237 OA
ATOM     63  O   UNL A   1      44.095  18.609  24.451  1.00  0.00    -0.744 OA
ENDBRANCH  59  60
ENDBRANCH  40  54
BRANCH  41  64
ATOM     64  C   UNL A   1      41.019  30.254  33.172  1.00  0.00    -0.014 A 
ATOM     65  C   UNL A   1      40.866  31.573  32.667  1.00  0.00     0.010 A 
ATOM     66  C   UNL A   1      39.845  29.572  33.537  1.00  0.00     0.010 A 
ATOM     67  C   UNL A   1      39.607  32.144  32.430  1.00  0.00     0.020 A 
ATOM     68  C   UNL A   1      38.569  30.151  33.321  1.00  0.00     0.020 A 
ATOM     69  C   UNL A   1      38.458  31.423  32.744  1.00  0.00     0.054 A 
BRANCH  69  70
ATOM     70  S   UNL A   1      36.848  32.073  32.173  1.00  0.00     0.124 S 
ATOM     71  O   UNL A   1      36.152  30.871  31.731  1.00  0.00    -0.237 OA
ATOM     72  O   UNL A   1      36.308  32.712  33.370  1.00  0.00    -0.237 OA
ATOM     73  O   UNL A   1      37.221  33.015  31.124  1.00  0.00    -0.744 OA
ENDBRANCH  69  70
ENDBRANCH  41  64
BRANCH  53  74
ATOM     74  C   UNL A   1      44.835  24.022  34.031  1.00  0.00    -0.014 A 
ATOM     75  C   UNL A   1      44.002  22.987  34.474  1.00  0.00     0.010 A 
ATOM     76  C   UNL A   1      46.230  23.865  34.235  1.00  0.00     0.010 A 
ATOM     77  C   UNL A   1      44.528  21.866  35.124  1.00  0.00     0.020 A 
ATOM     78  C   UNL A   1      46.769  22.724  34.824  1.00  0.00     0.020 A 
ATOM     79  C   UNL A   1      45.908  21.737  35.284  1.00  0.00     0.054 A 
BRANCH  79  80
ATOM     80  S   UNL A   1      46.579  20.225  36.009  1.00  0.00     0.124 S 
ATOM     81  O   UNL A   1      45.877  20.173  37.289  1.00  0.00    -0.237 OA
ATOM     82  O   UNL A   1      46.194  19.200  35.041  1.00  0.00    -0.237 OA
ATOM     83  O   UNL A   1      48.013  20.490  36.088  1.00  0.00    -0.744 OA
ENDBRANCH  79  80
ENDBRANCH  53  74
ENDBRANCH  27  28
ENDBRANCH  20  22
ENDBRANCH  19  20
ENDBRANCH   1  19
TORSDOF 15
ENDMDL
