MODEL 1
REMARK VINA RESULT:      -9.0      0.000      0.000
REMARK SMILES O=C(OCCOC(=O)[C@@H]1CCn2c(C(=O)c3ccccc3)ccc21)c1ccc(-c2c3nc(c(-c4ccc(S(=O)(=O)[O-])cc4)c4ccc([nH]4)c(-c4ccc(S(=O)(=O)[O-])cc4)c4nc(c(-c5ccc(S(=O)(=O)[O-])cc5)c5ccc2[nH]5)C=C4)C=C3)cc1
REMARK SMILES IDX 4 1 3 2 2 3 1 4 25 5 26 6 84 7 27 8 83 9 28 10 29 11 30 12
REMARK SMILES IDX 77 13 31 14 82 15 76 16 78 17 32 18 81 19 75 20 74 21 33 23
REMARK SMILES IDX 63 24 44 25 62 26 45 27 48 28 61 29 79 30 46 31 47 32 60 34
REMARK SMILES IDX 80 35 49 36 34 37 35 38 43 39 36 40 42 41 37 42 38 43 39 44
REMARK SMILES IDX 40 45 41 46 64 47 65 48 73 49 66 50 72 51 67 52 68 53 69 54
REMARK SMILES IDX 70 55 71 56 50 57 51 58 59 59 52 60 58 61 53 62 54 63 55 64
REMARK SMILES IDX 56 65 57 66 5 67 6 68 7 69 8 70 9 71 10 72 24 73 11 74 12 75
REMARK SMILES IDX 23 76 13 77 22 78 14 79 15 80 16 81 17 82 21 83 18 84 20 85
REMARK SMILES IDX 19 86
REMARK H PARENT 78 22 48 33
REMARK Flexibility Score: inf
ROOT
ATOM      1  C   UNL A   1      34.205  33.003  27.914  1.00  0.00     0.275 C 
ENDROOT
BRANCH   1   2
ATOM      2  O   UNL A   1      33.707  31.650  27.943  1.00  0.00    -0.458 OA
BRANCH   2   3
ATOM      3  C   UNL A   1      34.323  30.461  27.748  1.00  0.00     0.338 C 
ATOM      4  O   UNL A   1      33.653  29.557  27.245  1.00  0.00    -0.246 OA
BRANCH   3   5
ATOM      5  C   UNL A   1      35.721  30.110  28.189  1.00  0.00     0.060 A 
ATOM      6  C   UNL A   1      36.119  29.669  29.453  1.00  0.00     0.016 A 
ATOM      7  C   UNL A   1      36.720  30.176  27.190  1.00  0.00     0.016 A 
ATOM      8  C   UNL A   1      37.438  29.266  29.703  1.00  0.00     0.010 A 
ATOM      9  C   UNL A   1      38.043  29.782  27.436  1.00  0.00     0.010 A 
ATOM     10  C   UNL A   1      38.409  29.316  28.699  1.00  0.00    -0.014 A 
BRANCH  10  11
ATOM     11  C   UNL A   1      39.807  28.947  29.022  1.00  0.00     0.031 A 
ATOM     12  C   UNL A   1      40.646  29.898  29.813  1.00  0.00     0.074 A 
ATOM     13  C   UNL A   1      40.306  27.750  28.661  1.00  0.00     0.049 A 
ATOM     14  N   UNL A   1      41.860  29.737  30.260  1.00  0.00    -0.248 NA
ATOM     15  C   UNL A   1      40.046  31.205  30.128  1.00  0.00     0.031 C 
ATOM     16  C   UNL A   1      39.581  26.759  27.878  1.00  0.00     0.029 A 
ATOM     17  N   UNL A   1      41.513  27.148  28.920  1.00  0.00    -0.354 N 
ATOM     18  C   UNL A   1      42.193  30.935  30.872  1.00  0.00     0.074 A 
ATOM     19  C   UNL A   1      41.041  31.805  30.764  1.00  0.00     0.031 C 
ATOM     20  C   UNL A   1      40.330  25.650  27.774  1.00  0.00     0.029 A 
ATOM     21  C   UNL A   1      41.602  25.859  28.440  1.00  0.00     0.049 A 
ATOM     22  H   UNL A   1      42.246  27.593  29.404  1.00  0.00     0.167 HD
ATOM     23  C   UNL A   1      43.371  31.284  31.437  1.00  0.00     0.031 A 
ATOM     24  C   UNL A   1      42.587  24.942  28.516  1.00  0.00     0.031 A 
ATOM     25  C   UNL A   1      44.518  30.419  31.510  1.00  0.00     0.049 A 
ATOM     26  C   UNL A   1      43.860  25.337  29.204  1.00  0.00     0.074 A 
ATOM     27  C   UNL A   1      45.759  30.688  32.058  1.00  0.00     0.029 A 
ATOM     28  N   UNL A   1      44.572  29.128  31.007  1.00  0.00    -0.354 N 
ATOM     29  N   UNL A   1      44.143  26.466  29.808  1.00  0.00    -0.248 NA
ATOM     30  C   UNL A   1      44.957  24.359  29.195  1.00  0.00     0.031 C 
ATOM     31  C   UNL A   1      46.583  29.581  31.834  1.00  0.00     0.029 A 
ATOM     32  C   UNL A   1      45.838  28.601  31.197  1.00  0.00     0.049 A 
ATOM     33  H   UNL A   1      43.822  28.657  30.578  1.00  0.00     0.167 HD
ATOM     34  C   UNL A   1      45.466  26.354  30.209  1.00  0.00     0.074 A 
ATOM     35  C   UNL A   1      45.905  25.021  29.845  1.00  0.00     0.031 C 
ATOM     36  C   UNL A   1      46.259  27.285  30.791  1.00  0.00     0.031 A 
BRANCH  23  37
ATOM     37  C   UNL A   1      43.499  32.692  31.937  1.00  0.00    -0.014 A 
ATOM     38  C   UNL A   1      43.744  33.764  31.062  1.00  0.00     0.010 A 
ATOM     39  C   UNL A   1      43.343  32.943  33.312  1.00  0.00     0.010 A 
ATOM     40  C   UNL A   1      43.846  35.065  31.561  1.00  0.00     0.020 A 
ATOM     41  C   UNL A   1      43.423  34.243  33.810  1.00  0.00     0.020 A 
ATOM     42  C   UNL A   1      43.684  35.296  32.931  1.00  0.00     0.054 A 
BRANCH  42  43
ATOM     43  S   UNL A   1      43.776  37.000  33.544  1.00  0.00     0.124 S 
ATOM     44  O   UNL A   1      42.395  37.249  33.949  1.00  0.00    -0.237 OA
ATOM     45  O   UNL A   1      44.742  36.895  34.635  1.00  0.00    -0.237 OA
ATOM     46  O   UNL A   1      44.232  37.762  32.383  1.00  0.00    -0.744 OA
ENDBRANCH  42  43
ENDBRANCH  23  37
BRANCH  24  47
ATOM     47  C   UNL A   1      42.446  23.595  27.883  1.00  0.00    -0.014 A 
ATOM     48  C   UNL A   1      41.876  22.520  28.588  1.00  0.00     0.010 A 
ATOM     49  C   UNL A   1      42.916  23.370  26.575  1.00  0.00     0.010 A 
ATOM     50  C   UNL A   1      41.802  21.245  28.011  1.00  0.00     0.020 A 
ATOM     51  C   UNL A   1      42.818  22.105  25.984  1.00  0.00     0.020 A 
ATOM     52  C   UNL A   1      42.280  21.043  26.714  1.00  0.00     0.054 A 
BRANCH  52  53
ATOM     53  S   UNL A   1      42.192  19.389  25.966  1.00  0.00     0.124 S 
ATOM     54  O   UNL A   1      42.721  18.549  27.038  1.00  0.00    -0.237 OA
ATOM     55  O   UNL A   1      40.769  19.218  25.685  1.00  0.00    -0.237 OA
ATOM     56  O   UNL A   1      43.048  19.498  24.786  1.00  0.00    -0.744 OA
ENDBRANCH  52  53
ENDBRANCH  24  47
BRANCH  36  57
ATOM     57  C   UNL A   1      47.694  26.910  31.010  1.00  0.00    -0.014 A 
ATOM     58  C   UNL A   1      48.657  27.188  30.023  1.00  0.00     0.010 A 
ATOM     59  C   UNL A   1      48.096  26.335  32.227  1.00  0.00     0.010 A 
ATOM     60  C   UNL A   1      50.000  26.881  30.244  1.00  0.00     0.020 A 
ATOM     61  C   UNL A   1      49.442  26.049  32.461  1.00  0.00     0.020 A 
ATOM     62  C   UNL A   1      50.384  26.317  31.464  1.00  0.00     0.054 A 
BRANCH  62  63
ATOM     63  S   UNL A   1      52.144  25.988  31.752  1.00  0.00     0.124 S 
ATOM     64  O   UNL A   1      52.733  26.339  30.462  1.00  0.00    -0.237 OA
ATOM     65  O   UNL A   1      52.462  26.889  32.856  1.00  0.00    -0.237 OA
ATOM     66  O   UNL A   1      52.179  24.565  32.087  1.00  0.00    -0.744 OA
ENDBRANCH  62  63
ENDBRANCH  36  57
ENDBRANCH  10  11
ENDBRANCH   3   5
ENDBRANCH   2   3
ENDBRANCH   1   2
BRANCH   1  67
ATOM     67  C   UNL A   1      33.763  33.820  29.130  1.00  0.00     0.274 C 
BRANCH  67  68
ATOM     68  O   UNL A   1      34.866  34.536  29.698  1.00  0.00    -0.462 OA
BRANCH  68  69
ATOM     69  C   UNL A   1      35.106  34.330  31.028  1.00  0.00     0.315 C 
ATOM     70  O   UNL A   1      34.606  34.981  31.935  1.00  0.00    -0.251 OA
BRANCH  69  71
ATOM     71  C   UNL A   1      35.966  33.098  31.219  1.00  0.00     0.148 C 
ATOM     72  C   UNL A   1      35.312  32.003  32.089  1.00  0.00     0.043 C 
ATOM     73  C   UNL A   1      37.225  33.364  31.954  1.00  0.00     0.033 A 
ATOM     74  C   UNL A   1      36.480  31.316  32.809  1.00  0.00     0.124 C 
ATOM     75  N   UNL A   1      37.495  32.355  32.838  1.00  0.00    -0.341 N 
ATOM     76  C   UNL A   1      38.253  34.264  31.986  1.00  0.00     0.025 A 
ATOM     77  C   UNL A   1      38.677  32.557  33.477  1.00  0.00     0.090 A 
ATOM     78  C   UNL A   1      39.155  33.768  32.963  1.00  0.00     0.032 A 
BRANCH  77  79
ATOM     79  C   UNL A   1      39.359  31.760  34.486  1.00  0.00     0.209 C 
ATOM     80  O   UNL A   1      39.318  32.071  35.673  1.00  0.00    -0.287 OA
BRANCH  79  81
ATOM     81  C   UNL A   1      40.104  30.527  34.136  1.00  0.00     0.024 A 
ATOM     82  C   UNL A   1      39.452  29.577  33.345  1.00  0.00     0.012 A 
ATOM     83  C   UNL A   1      41.399  30.272  34.602  1.00  0.00     0.012 A 
ATOM     84  C   UNL A   1      40.116  28.414  32.959  1.00  0.00     0.001 A 
ATOM     85  C   UNL A   1      42.065  29.108  34.209  1.00  0.00     0.001 A 
ATOM     86  C   UNL A   1      41.428  28.188  33.376  1.00  0.00     0.000 A 
ENDBRANCH  79  81
ENDBRANCH  77  79
ENDBRANCH  69  71
ENDBRANCH  68  69
ENDBRANCH  67  68
ENDBRANCH   1  67
TORSDOF 16
ENDMDL
MODEL 2
REMARK VINA RESULT:      -9.0      4.015      6.499
REMARK SMILES O=C(OCCOC(=O)[C@@H]1CCn2c(C(=O)c3ccccc3)ccc21)c1ccc(-c2c3nc(c(-c4ccc(S(=O)(=O)[O-])cc4)c4ccc([nH]4)c(-c4ccc(S(=O)(=O)[O-])cc4)c4nc(c(-c5ccc(S(=O)(=O)[O-])cc5)c5ccc2[nH]5)C=C4)C=C3)cc1
REMARK SMILES IDX 4 1 3 2 2 3 1 4 25 5 26 6 84 7 27 8 83 9 28 10 29 11 30 12
REMARK SMILES IDX 77 13 31 14 82 15 76 16 78 17 32 18 81 19 75 20 74 21 33 23
REMARK SMILES IDX 63 24 44 25 62 26 45 27 48 28 61 29 79 30 46 31 47 32 60 34
REMARK SMILES IDX 80 35 49 36 34 37 35 38 43 39 36 40 42 41 37 42 38 43 39 44
REMARK SMILES IDX 40 45 41 46 64 47 65 48 73 49 66 50 72 51 67 52 68 53 69 54
REMARK SMILES IDX 70 55 71 56 50 57 51 58 59 59 52 60 58 61 53 62 54 63 55 64
REMARK SMILES IDX 56 65 57 66 5 67 6 68 7 69 8 70 9 71 10 72 24 73 11 74 12 75
REMARK SMILES IDX 23 76 13 77 22 78 14 79 15 80 16 81 17 82 21 83 18 84 20 85
REMARK SMILES IDX 19 86
REMARK H PARENT 78 22 48 33
REMARK Flexibility Score: inf
ROOT
ATOM      1  C   UNL A   1      34.424  31.437  28.746  1.00  0.00     0.275 C 
ENDROOT
BRANCH   1   2
ATOM      2  O   UNL A   1      35.679  31.374  29.451  1.00  0.00    -0.458 OA
BRANCH   2   3
ATOM      3  C   UNL A   1      36.392  30.327  29.930  1.00  0.00     0.338 C 
ATOM      4  O   UNL A   1      35.944  29.748  30.921  1.00  0.00    -0.246 OA
BRANCH   3   5
ATOM      5  C   UNL A   1      37.737  29.874  29.424  1.00  0.00     0.060 A 
ATOM      6  C   UNL A   1      38.134  29.739  28.092  1.00  0.00     0.016 A 
ATOM      7  C   UNL A   1      38.717  29.623  30.412  1.00  0.00     0.016 A 
ATOM      8  C   UNL A   1      39.455  29.417  27.753  1.00  0.00     0.010 A 
ATOM      9  C   UNL A   1      40.040  29.293  30.080  1.00  0.00     0.010 A 
ATOM     10  C   UNL A   1      40.418  29.194  28.741  1.00  0.00    -0.014 A 
BRANCH  10  11
ATOM     11  C   UNL A   1      41.786  28.788  28.342  1.00  0.00     0.031 A 
ATOM     12  C   UNL A   1      42.893  29.789  28.424  1.00  0.00     0.074 A 
ATOM     13  C   UNL A   1      42.049  27.523  27.962  1.00  0.00     0.049 A 
ATOM     14  N   UNL A   1      44.166  29.618  28.192  1.00  0.00    -0.248 NA
ATOM     15  C   UNL A   1      42.518  31.161  28.800  1.00  0.00     0.031 C 
ATOM     16  C   UNL A   1      41.043  26.478  27.833  1.00  0.00     0.029 A 
ATOM     17  N   UNL A   1      43.225  26.891  27.644  1.00  0.00    -0.354 N 
ATOM     18  C   UNL A   1      44.743  30.868  28.349  1.00  0.00     0.074 A 
ATOM     19  C   UNL A   1      43.686  31.784  28.724  1.00  0.00     0.031 C 
ATOM     20  C   UNL A   1      41.651  25.321  27.526  1.00  0.00     0.029 A 
ATOM     21  C   UNL A   1      43.079  25.544  27.392  1.00  0.00     0.049 A 
ATOM     22  H   UNL A   1      44.093  27.355  27.602  1.00  0.00     0.167 HD
ATOM     23  C   UNL A   1      46.034  31.220  28.158  1.00  0.00     0.031 A 
ATOM     24  C   UNL A   1      43.978  24.588  27.085  1.00  0.00     0.031 A 
ATOM     25  C   UNL A   1      47.069  30.306  27.755  1.00  0.00     0.049 A 
ATOM     26  C   UNL A   1      45.413  24.998  26.940  1.00  0.00     0.074 A 
ATOM     27  C   UNL A   1      48.406  30.573  27.529  1.00  0.00     0.029 A 
ATOM     28  N   UNL A   1      46.880  28.955  27.502  1.00  0.00    -0.354 N 
ATOM     29  N   UNL A   1      45.946  26.182  27.127  1.00  0.00    -0.248 NA
ATOM     30  C   UNL A   1      46.364  23.963  26.511  1.00  0.00     0.031 C 
ATOM     31  C   UNL A   1      49.015  29.396  27.081  1.00  0.00     0.029 A 
ATOM     32  C   UNL A   1      48.069  28.384  27.084  1.00  0.00     0.049 A 
ATOM     33  H   UNL A   1      46.026  28.475  27.604  1.00  0.00     0.167 HD
ATOM     34  C   UNL A   1      47.284  26.046  26.793  1.00  0.00     0.074 A 
ATOM     35  C   UNL A   1      47.497  24.650  26.463  1.00  0.00     0.031 C 
ATOM     36  C   UNL A   1      48.244  26.999  26.726  1.00  0.00     0.031 A 
BRANCH  23  37
ATOM     37  C   UNL A   1      46.374  32.675  28.294  1.00  0.00    -0.014 A 
ATOM     38  C   UNL A   1      46.804  33.218  29.516  1.00  0.00     0.010 A 
ATOM     39  C   UNL A   1      46.283  33.504  27.162  1.00  0.00     0.010 A 
ATOM     40  C   UNL A   1      47.124  34.575  29.605  1.00  0.00     0.020 A 
ATOM     41  C   UNL A   1      46.622  34.855  27.242  1.00  0.00     0.020 A 
ATOM     42  C   UNL A   1      47.032  35.384  28.467  1.00  0.00     0.054 A 
BRANCH  42  43
ATOM     43  S   UNL A   1      47.498  37.131  28.600  1.00  0.00     0.124 S 
ATOM     44  O   UNL A   1      48.761  37.163  27.869  1.00  0.00    -0.237 OA
ATOM     45  O   UNL A   1      46.379  37.810  27.951  1.00  0.00    -0.237 OA
ATOM     46  O   UNL A   1      47.606  37.352  30.041  1.00  0.00    -0.744 OA
ENDBRANCH  42  43
ENDBRANCH  23  37
BRANCH  24  47
ATOM     47  C   UNL A   1      43.556  23.176  26.833  1.00  0.00    -0.014 A 
ATOM     48  C   UNL A   1      42.904  22.427  27.829  1.00  0.00     0.010 A 
ATOM     49  C   UNL A   1      43.837  22.558  25.599  1.00  0.00     0.010 A 
ATOM     50  C   UNL A   1      42.566  21.085  27.607  1.00  0.00     0.020 A 
ATOM     51  C   UNL A   1      43.475  21.227  25.364  1.00  0.00     0.020 A 
ATOM     52  C   UNL A   1      42.860  20.490  26.377  1.00  0.00     0.054 A 
BRANCH  52  53
ATOM     53  S   UNL A   1      42.428  18.748  26.091  1.00  0.00     0.124 S 
ATOM     54  O   UNL A   1      41.025  18.849  25.699  1.00  0.00    -0.237 OA
ATOM     55  O   UNL A   1      43.345  18.340  25.029  1.00  0.00    -0.237 OA
ATOM     56  O   UNL A   1      42.664  18.117  27.389  1.00  0.00    -0.744 OA
ENDBRANCH  52  53
ENDBRANCH  24  47
BRANCH  36  57
ATOM     57  C   UNL A   1      49.590  26.571  26.221  1.00  0.00    -0.014 A 
ATOM     58  C   UNL A   1      49.978  26.868  24.902  1.00  0.00     0.010 A 
ATOM     59  C   UNL A   1      50.494  25.926  27.081  1.00  0.00     0.010 A 
ATOM     60  C   UNL A   1      51.247  26.511  24.445  1.00  0.00     0.020 A 
ATOM     61  C   UNL A   1      51.773  25.589  26.633  1.00  0.00     0.020 A 
ATOM     62  C   UNL A   1      52.138  25.877  25.315  1.00  0.00     0.054 A 
BRANCH  62  63
ATOM     63  S   UNL A   1      53.802  25.482  24.716  1.00  0.00     0.124 S 
ATOM     64  O   UNL A   1      54.645  26.239  25.639  1.00  0.00    -0.237 OA
ATOM     65  O   UNL A   1      53.858  24.029  24.860  1.00  0.00    -0.237 OA
ATOM     66  O   UNL A   1      53.798  25.966  23.337  1.00  0.00    -0.744 OA
ENDBRANCH  62  63
ENDBRANCH  36  57
ENDBRANCH  10  11
ENDBRANCH   3   5
ENDBRANCH   2   3
ENDBRANCH   1   2
BRANCH   1  67
ATOM     67  C   UNL A   1      34.511  30.851  27.336  1.00  0.00     0.274 C 
BRANCH  67  68
ATOM     68  O   UNL A   1      33.640  29.722  27.193  1.00  0.00    -0.462 OA
BRANCH  68  69
ATOM     69  C   UNL A   1      32.391  29.976  26.696  1.00  0.00     0.315 C 
ATOM     70  O   UNL A   1      31.876  31.085  26.640  1.00  0.00    -0.251 OA
BRANCH  69  71
ATOM     71  C   UNL A   1      31.799  28.716  26.101  1.00  0.00     0.148 C 
ATOM     72  C   UNL A   1      31.807  27.504  27.059  1.00  0.00     0.043 C 
ATOM     73  C   UNL A   1      32.559  28.195  24.941  1.00  0.00     0.033 A 
ATOM     74  C   UNL A   1      31.970  26.279  26.150  1.00  0.00     0.124 C 
ATOM     75  N   UNL A   1      32.642  26.830  24.986  1.00  0.00    -0.341 N 
ATOM     76  C   UNL A   1      33.149  28.634  23.789  1.00  0.00     0.025 A 
ATOM     77  C   UNL A   1      33.287  26.335  23.897  1.00  0.00     0.090 A 
ATOM     78  C   UNL A   1      33.629  27.464  23.144  1.00  0.00     0.032 A 
BRANCH  77  79
ATOM     79  C   UNL A   1      33.604  24.965  23.523  1.00  0.00     0.209 C 
ATOM     80  O   UNL A   1      32.900  24.345  22.730  1.00  0.00    -0.287 OA
BRANCH  79  81
ATOM     81  C   UNL A   1      34.799  24.267  24.054  1.00  0.00     0.024 A 
ATOM     82  C   UNL A   1      35.404  23.305  23.239  1.00  0.00     0.012 A 
ATOM     83  C   UNL A   1      35.301  24.504  25.339  1.00  0.00     0.012 A 
ATOM     84  C   UNL A   1      36.549  22.640  23.675  1.00  0.00     0.001 A 
ATOM     85  C   UNL A   1      36.453  23.841  25.770  1.00  0.00     0.001 A 
ATOM     86  C   UNL A   1      37.083  22.921  24.932  1.00  0.00     0.000 A 
ENDBRANCH  79  81
ENDBRANCH  77  79
ENDBRANCH  69  71
ENDBRANCH  68  69
ENDBRANCH  67  68
ENDBRANCH   1  67
TORSDOF 16
ENDMDL
MODEL 3
REMARK VINA RESULT:      -9.0      3.039      5.780
REMARK SMILES O=C(OCCOC(=O)[C@@H]1CCn2c(C(=O)c3ccccc3)ccc21)c1ccc(-c2c3nc(c(-c4ccc(S(=O)(=O)[O-])cc4)c4ccc([nH]4)c(-c4ccc(S(=O)(=O)[O-])cc4)c4nc(c(-c5ccc(S(=O)(=O)[O-])cc5)c5ccc2[nH]5)C=C4)C=C3)cc1
REMARK SMILES IDX 4 1 3 2 2 3 1 4 25 5 26 6 84 7 27 8 83 9 28 10 29 11 30 12
REMARK SMILES IDX 77 13 31 14 82 15 76 16 78 17 32 18 81 19 75 20 74 21 33 23
REMARK SMILES IDX 63 24 44 25 62 26 45 27 48 28 61 29 79 30 46 31 47 32 60 34
REMARK SMILES IDX 80 35 49 36 34 37 35 38 43 39 36 40 42 41 37 42 38 43 39 44
REMARK SMILES IDX 40 45 41 46 64 47 65 48 73 49 66 50 72 51 67 52 68 53 69 54
REMARK SMILES IDX 70 55 71 56 50 57 51 58 59 59 52 60 58 61 53 62 54 63 55 64
REMARK SMILES IDX 56 65 57 66 5 67 6 68 7 69 8 70 9 71 10 72 24 73 11 74 12 75
REMARK SMILES IDX 23 76 13 77 22 78 14 79 15 80 16 81 17 82 21 83 18 84 20 85
REMARK SMILES IDX 19 86
REMARK H PARENT 78 22 48 33
REMARK Flexibility Score: inf
ROOT
ATOM      1  C   UNL A   1      32.088  29.582  26.894  1.00  0.00     0.275 C 
ENDROOT
BRANCH   1   2
ATOM      2  O   UNL A   1      33.328  29.417  27.611  1.00  0.00    -0.458 OA
BRANCH   2   3
ATOM      3  C   UNL A   1      34.255  30.312  28.026  1.00  0.00     0.338 C 
ATOM      4  O   UNL A   1      33.926  31.500  28.034  1.00  0.00    -0.246 OA
BRANCH   3   5
ATOM      5  C   UNL A   1      35.687  29.998  28.376  1.00  0.00     0.060 A 
ATOM      6  C   UNL A   1      36.179  29.582  29.614  1.00  0.00     0.016 A 
ATOM      7  C   UNL A   1      36.614  30.073  27.310  1.00  0.00     0.016 A 
ATOM      8  C   UNL A   1      37.521  29.211  29.779  1.00  0.00     0.010 A 
ATOM      9  C   UNL A   1      37.960  29.711  27.471  1.00  0.00     0.010 A 
ATOM     10  C   UNL A   1      38.421  29.269  28.712  1.00  0.00    -0.014 A 
BRANCH  10  11
ATOM     11  C   UNL A   1      39.845  28.934  28.944  1.00  0.00     0.031 A 
ATOM     12  C   UNL A   1      40.718  29.922  29.648  1.00  0.00     0.074 A 
ATOM     13  C   UNL A   1      40.341  27.737  28.579  1.00  0.00     0.049 A 
ATOM     14  N   UNL A   1      41.965  29.796  30.011  1.00  0.00    -0.248 NA
ATOM     15  C   UNL A   1      40.116  31.226  29.971  1.00  0.00     0.031 C 
ATOM     16  C   UNL A   1      39.583  26.713  27.875  1.00  0.00     0.029 A 
ATOM     17  N   UNL A   1      41.575  27.165  28.766  1.00  0.00    -0.354 N 
ATOM     18  C   UNL A   1      42.315  31.016  30.567  1.00  0.00     0.074 A 
ATOM     19  C   UNL A   1      41.141  31.862  30.519  1.00  0.00     0.031 C 
ATOM     20  C   UNL A   1      40.345  25.615  27.746  1.00  0.00     0.029 A 
ATOM     21  C   UNL A   1      41.657  25.866  28.315  1.00  0.00     0.049 A 
ATOM     22  H   UNL A   1      42.331  27.637  29.186  1.00  0.00     0.167 HD
ATOM     23  C   UNL A   1      43.523  31.401  31.037  1.00  0.00     0.031 A 
ATOM     24  C   UNL A   1      42.663  24.969  28.344  1.00  0.00     0.031 A 
ATOM     25  C   UNL A   1      44.690  30.560  31.051  1.00  0.00     0.049 A 
ATOM     26  C   UNL A   1      43.973  25.406  28.929  1.00  0.00     0.074 A 
ATOM     27  C   UNL A   1      45.960  30.867  31.501  1.00  0.00     0.029 A 
ATOM     28  N   UNL A   1      44.734  29.257  30.578  1.00  0.00    -0.354 N 
ATOM     29  N   UNL A   1      44.275  26.556  29.482  1.00  0.00    -0.248 NA
ATOM     30  C   UNL A   1      45.086  24.449  28.867  1.00  0.00     0.031 C 
ATOM     31  C   UNL A   1      46.789  29.769  31.247  1.00  0.00     0.029 A 
ATOM     32  C   UNL A   1      46.021  28.759  30.691  1.00  0.00     0.049 A 
ATOM     33  H   UNL A   1      43.965  28.760  30.216  1.00  0.00     0.167 HD
ATOM     34  C   UNL A   1      45.625  26.479  29.790  1.00  0.00     0.074 A 
ATOM     35  C   UNL A   1      46.064  25.145  29.430  1.00  0.00     0.031 C 
ATOM     36  C   UNL A   1      46.438  27.440  30.290  1.00  0.00     0.031 A 
BRANCH  23  37
ATOM     37  C   UNL A   1      43.658  32.825  31.490  1.00  0.00    -0.014 A 
ATOM     38  C   UNL A   1      43.970  33.857  30.589  1.00  0.00     0.010 A 
ATOM     39  C   UNL A   1      43.439  33.132  32.845  1.00  0.00     0.010 A 
ATOM     40  C   UNL A   1      44.077  35.174  31.044  1.00  0.00     0.020 A 
ATOM     41  C   UNL A   1      43.523  34.448  33.298  1.00  0.00     0.020 A 
ATOM     42  C   UNL A   1      43.852  35.460  32.395  1.00  0.00     0.054 A 
BRANCH  42  43
ATOM     43  S   UNL A   1      43.951  37.184  32.947  1.00  0.00     0.124 S 
ATOM     44  O   UNL A   1      43.761  37.913  31.695  1.00  0.00    -0.237 OA
ATOM     45  O   UNL A   1      42.848  37.278  33.901  1.00  0.00    -0.237 OA
ATOM     46  O   UNL A   1      45.286  37.286  33.531  1.00  0.00    -0.744 OA
ENDBRANCH  42  43
ENDBRANCH  23  37
BRANCH  24  47
ATOM     47  C   UNL A   1      42.505  23.603  27.758  1.00  0.00    -0.014 A 
ATOM     48  C   UNL A   1      41.976  22.545  28.520  1.00  0.00     0.010 A 
ATOM     49  C   UNL A   1      42.916  23.343  26.437  1.00  0.00     0.010 A 
ATOM     50  C   UNL A   1      41.887  21.253  27.984  1.00  0.00     0.020 A 
ATOM     51  C   UNL A   1      42.802  22.060  25.888  1.00  0.00     0.020 A 
ATOM     52  C   UNL A   1      42.307  21.017  26.672  1.00  0.00     0.054 A 
BRANCH  52  53
ATOM     53  S   UNL A   1      42.199  19.340  25.978  1.00  0.00     0.124 S 
ATOM     54  O   UNL A   1      42.709  18.529  27.080  1.00  0.00    -0.237 OA
ATOM     55  O   UNL A   1      40.775  19.181  25.694  1.00  0.00    -0.237 OA
ATOM     56  O   UNL A   1      43.064  19.399  24.800  1.00  0.00    -0.744 OA
ENDBRANCH  52  53
ENDBRANCH  24  47
BRANCH  36  57
ATOM     57  C   UNL A   1      47.893  27.097  30.416  1.00  0.00    -0.014 A 
ATOM     58  C   UNL A   1      48.793  27.449  29.395  1.00  0.00     0.010 A 
ATOM     59  C   UNL A   1      48.374  26.478  31.581  1.00  0.00     0.010 A 
ATOM     60  C   UNL A   1      50.155  27.172  29.531  1.00  0.00     0.020 A 
ATOM     61  C   UNL A   1      49.738  26.221  31.731  1.00  0.00     0.020 A 
ATOM     62  C   UNL A   1      50.618  26.563  30.700  1.00  0.00     0.054 A 
BRANCH  62  63
ATOM     63  S   UNL A   1      52.398  26.272  30.879  1.00  0.00     0.124 S 
ATOM     64  O   UNL A   1      52.428  25.069  31.707  1.00  0.00    -0.237 OA
ATOM     65  O   UNL A   1      52.836  26.096  29.497  1.00  0.00    -0.237 OA
ATOM     66  O   UNL A   1      52.883  27.489  31.530  1.00  0.00    -0.744 OA
ENDBRANCH  62  63
ENDBRANCH  36  57
ENDBRANCH  10  11
ENDBRANCH   3   5
ENDBRANCH   2   3
ENDBRANCH   1   2
BRANCH   1  67
ATOM     67  C   UNL A   1      32.296  29.743  25.388  1.00  0.00     0.274 C 
BRANCH  67  68
ATOM     68  O   UNL A   1      32.365  28.469  24.738  1.00  0.00    -0.462 OA
BRANCH  68  69
ATOM     69  C   UNL A   1      31.214  28.023  24.148  1.00  0.00     0.315 C 
ATOM     70  O   UNL A   1      30.473  28.711  23.459  1.00  0.00    -0.251 OA
BRANCH  69  71
ATOM     71  C   UNL A   1      31.064  26.530  24.355  1.00  0.00     0.148 C 
ATOM     72  C   UNL A   1      30.944  26.109  25.836  1.00  0.00     0.043 C 
ATOM     73  C   UNL A   1      32.242  25.750  23.908  1.00  0.00     0.033 A 
ATOM     74  C   UNL A   1      31.596  24.722  25.909  1.00  0.00     0.124 C 
ATOM     75  N   UNL A   1      32.523  24.743  24.790  1.00  0.00    -0.341 N 
ATOM     76  C   UNL A   1      33.106  25.663  22.853  1.00  0.00     0.025 A 
ATOM     77  C   UNL A   1      33.565  23.983  24.363  1.00  0.00     0.090 A 
ATOM     78  C   UNL A   1      33.955  24.566  23.152  1.00  0.00     0.032 A 
BRANCH  77  79
ATOM     79  C   UNL A   1      34.203  22.823  24.966  1.00  0.00     0.209 C 
ATOM     80  O   UNL A   1      33.565  21.800  25.202  1.00  0.00    -0.287 OA
BRANCH  79  81
ATOM     81  C   UNL A   1      35.649  22.808  25.294  1.00  0.00     0.024 A 
ATOM     82  C   UNL A   1      36.364  21.638  25.020  1.00  0.00     0.012 A 
ATOM     83  C   UNL A   1      36.295  23.892  25.900  1.00  0.00     0.012 A 
ATOM     84  C   UNL A   1      37.733  21.580  25.280  1.00  0.00     0.001 A 
ATOM     85  C   UNL A   1      37.668  23.832  26.152  1.00  0.00     0.001 A 
ATOM     86  C   UNL A   1      38.387  22.682  25.828  1.00  0.00     0.000 A 
ENDBRANCH  79  81
ENDBRANCH  77  79
ENDBRANCH  69  71
ENDBRANCH  68  69
ENDBRANCH  67  68
ENDBRANCH   1  67
TORSDOF 16
ENDMDL
