MODEL 1
REMARK VINA RESULT:      -9.9      0.000      0.000
REMARK SMILES CC[C@H]1CCCC[C@@H]1C1(C(=O)OCCOC(=O)c2ccc(-c3c4nc(c(-c5ccc(S(=O)(=O)[O-])cc5)c5ccc([nH]5)c(-c5ccc(S(=O)(=O)[O-])cc5)c5nc(c(-c6ccc(S(=O)(=O)[O-])cc6)c6ccc3[nH]6)C=C5)C=C4)cc2)CC1
REMARK SMILES IDX 14 1 13 2 12 3 10 4 11 5 9 6 78 7 79 8 8 9 3 10 4 11 5 12
REMARK SMILES IDX 7 13 6 14 2 15 1 16 15 17 16 18 17 19 18 20 19 21 77 22
REMARK SMILES IDX 20 23 76 24 21 25 22 26 23 27 70 28 24 29 75 30 69 31 71 32
REMARK SMILES IDX 25 33 74 34 68 35 67 36 26 38 56 39 37 40 55 41 38 42 41 43
REMARK SMILES IDX 54 44 72 45 39 46 40 47 53 49 73 50 42 51 27 52 28 53 36 54
REMARK SMILES IDX 29 55 35 56 30 57 31 58 32 59 33 60 34 61 57 62 58 63 66 64
REMARK SMILES IDX 59 65 65 66 60 67 61 68 62 69 63 70 64 71 43 72 44 73 52 74
REMARK SMILES IDX 45 75 51 76 46 77 47 78 48 79 49 80 50 81
REMARK H PARENT 71 37 41 48
REMARK Flexibility Score: inf
ROOT
ATOM      1  C   UNL A   1      32.457  29.041  27.018  1.00  0.00     0.275 C 
ENDROOT
BRANCH   1   2
ATOM      2  C   UNL A   1      32.127  28.150  25.815  1.00  0.00     0.274 C 
BRANCH   2   3
ATOM      3  O   UNL A   1      32.531  26.799  26.119  1.00  0.00    -0.462 OA
BRANCH   3   4
ATOM      4  C   UNL A   1      31.589  25.833  25.951  1.00  0.00     0.312 C 
ATOM      5  O   UNL A   1      30.500  25.781  26.504  1.00  0.00    -0.252 OA
BRANCH   4   6
ATOM      6  C   UNL A   1      31.996  24.836  24.884  1.00  0.00     0.071 C 
ATOM      7  C   UNL A   1      31.750  25.285  23.440  1.00  0.00     0.020 C 
ATOM      8  C   UNL A   1      30.907  24.202  24.025  1.00  0.00     0.020 C 
BRANCH   6   9
ATOM      9  C   UNL A   1      33.143  23.891  25.317  1.00  0.00     0.009 C 
ATOM     10  C   UNL A   1      33.488  22.681  24.384  1.00  0.00    -0.007 C 
ATOM     11  C   UNL A   1      33.403  21.322  25.090  1.00  0.00     0.004 C 
ATOM     12  C   UNL A   1      34.003  21.324  26.482  1.00  0.00     0.000 C 
ATOM     13  C   UNL A   1      33.028  23.630  26.846  1.00  0.00     0.005 C 
ATOM     14  C   UNL A   1      33.171  22.216  27.373  1.00  0.00     0.000 C 
BRANCH  10  15
ATOM     15  C   UNL A   1      34.828  22.963  23.631  1.00  0.00     0.000 C 
ATOM     16  C   UNL A   1      35.999  23.531  24.420  1.00  0.00     0.004 C 
ENDBRANCH  10  15
ENDBRANCH   6   9
ENDBRANCH   4   6
ENDBRANCH   3   4
ENDBRANCH   2   3
ENDBRANCH   1   2
BRANCH   1  17
ATOM     17  O   UNL A   1      33.887  29.076  27.190  1.00  0.00    -0.458 OA
BRANCH  17  18
ATOM     18  C   UNL A   1      34.383  30.139  27.878  1.00  0.00     0.338 C 
ATOM     19  O   UNL A   1      33.740  31.102  28.265  1.00  0.00    -0.246 OA
BRANCH  18  20
ATOM     20  C   UNL A   1      35.831  29.926  28.176  1.00  0.00     0.060 A 
ATOM     21  C   UNL A   1      36.787  30.124  27.185  1.00  0.00     0.016 A 
ATOM     22  C   UNL A   1      36.247  29.419  29.413  1.00  0.00     0.016 A 
ATOM     23  C   UNL A   1      38.098  29.703  27.382  1.00  0.00     0.010 A 
ATOM     24  C   UNL A   1      37.608  29.125  29.645  1.00  0.00     0.010 A 
ATOM     25  C   UNL A   1      38.557  29.246  28.618  1.00  0.00    -0.014 A 
BRANCH  25  26
ATOM     26  C   UNL A   1      40.010  28.910  28.777  1.00  0.00     0.031 A 
ATOM     27  C   UNL A   1      40.984  29.920  29.333  1.00  0.00     0.074 A 
ATOM     28  C   UNL A   1      40.470  27.667  28.501  1.00  0.00     0.049 A 
ATOM     29  N   UNL A   1      42.293  29.886  29.339  1.00  0.00    -0.248 NA
ATOM     30  C   UNL A   1      40.412  31.114  29.971  1.00  0.00     0.031 C 
ATOM     31  C   UNL A   1      39.652  26.523  28.084  1.00  0.00     0.029 A 
ATOM     32  N   UNL A   1      41.742  27.142  28.559  1.00  0.00    -0.354 N 
ATOM     33  C   UNL A   1      42.704  31.089  29.904  1.00  0.00     0.074 A 
ATOM     34  C   UNL A   1      41.502  31.814  30.258  1.00  0.00     0.031 C 
ATOM     35  C   UNL A   1      40.418  25.429  28.010  1.00  0.00     0.029 A 
ATOM     36  C   UNL A   1      41.809  25.817  28.195  1.00  0.00     0.049 A 
ATOM     37  H   UNL A   1      42.529  27.666  28.835  1.00  0.00     0.167 HD
ATOM     38  C   UNL A   1      43.966  31.555  30.078  1.00  0.00     0.031 A 
ATOM     39  C   UNL A   1      42.859  25.009  27.945  1.00  0.00     0.031 A 
ATOM     40  C   UNL A   1      45.157  30.816  29.742  1.00  0.00     0.049 A 
ATOM     41  C   UNL A   1      44.246  25.576  28.030  1.00  0.00     0.074 A 
ATOM     42  C   UNL A   1      46.479  31.223  29.821  1.00  0.00     0.029 A 
ATOM     43  N   UNL A   1      45.174  29.511  29.270  1.00  0.00    -0.354 N 
ATOM     44  N   UNL A   1      44.622  26.769  28.422  1.00  0.00    -0.248 NA
ATOM     45  C   UNL A   1      45.346  24.704  27.600  1.00  0.00     0.031 C 
ATOM     46  C   UNL A   1      47.288  30.188  29.337  1.00  0.00     0.029 A 
ATOM     47  C   UNL A   1      46.478  29.108  29.026  1.00  0.00     0.049 A 
ATOM     48  H   UNL A   1      44.376  28.951  29.128  1.00  0.00     0.167 HD
ATOM     49  C   UNL A   1      46.005  26.790  28.289  1.00  0.00     0.074 A 
ATOM     50  C   UNL A   1      46.400  25.481  27.807  1.00  0.00     0.031 C 
ATOM     51  C   UNL A   1      46.866  27.807  28.539  1.00  0.00     0.031 A 
BRANCH  38  52
ATOM     52  C   UNL A   1      44.118  32.983  30.543  1.00  0.00    -0.014 A 
ATOM     53  C   UNL A   1      44.305  33.323  31.894  1.00  0.00     0.010 A 
ATOM     54  C   UNL A   1      44.060  34.012  29.583  1.00  0.00     0.010 A 
ATOM     55  C   UNL A   1      44.366  34.667  32.281  1.00  0.00     0.020 A 
ATOM     56  C   UNL A   1      44.152  35.354  29.960  1.00  0.00     0.020 A 
ATOM     57  C   UNL A   1      44.277  35.674  31.312  1.00  0.00     0.054 A 
BRANCH  57  58
ATOM     58  S   UNL A   1      44.317  37.409  31.841  1.00  0.00     0.124 S 
ATOM     59  O   UNL A   1      43.403  37.396  32.982  1.00  0.00    -0.237 OA
ATOM     60  O   UNL A   1      45.726  37.611  32.169  1.00  0.00    -0.237 OA
ATOM     61  O   UNL A   1      43.841  38.141  30.670  1.00  0.00    -0.744 OA
ENDBRANCH  57  58
ENDBRANCH  38  52
BRANCH  39  62
ATOM     62  C   UNL A   1      42.624  23.613  27.472  1.00  0.00    -0.014 A 
ATOM     63  C   UNL A   1      42.619  23.304  26.101  1.00  0.00     0.010 A 
ATOM     64  C   UNL A   1      42.436  22.572  28.403  1.00  0.00     0.010 A 
ATOM     65  C   UNL A   1      42.437  21.983  25.674  1.00  0.00     0.020 A 
ATOM     66  C   UNL A   1      42.297  21.248  27.983  1.00  0.00     0.020 A 
ATOM     67  C   UNL A   1      42.290  20.962  26.618  1.00  0.00     0.054 A 
BRANCH  67  68
ATOM     68  S   UNL A   1      42.142  19.247  26.045  1.00  0.00     0.124 S 
ATOM     69  O   UNL A   1      43.026  19.237  24.884  1.00  0.00    -0.237 OA
ATOM     70  O   UNL A   1      42.608  18.487  27.203  1.00  0.00    -0.237 OA
ATOM     71  O   UNL A   1      40.718  19.107  25.751  1.00  0.00    -0.744 OA
ENDBRANCH  67  68
ENDBRANCH  39  62
BRANCH  51  72
ATOM     72  C   UNL A   1      48.333  27.540  28.327  1.00  0.00    -0.014 A 
ATOM     73  C   UNL A   1      49.135  26.999  29.349  1.00  0.00     0.010 A 
ATOM     74  C   UNL A   1      48.906  27.788  27.066  1.00  0.00     0.010 A 
ATOM     75  C   UNL A   1      50.489  26.736  29.119  1.00  0.00     0.020 A 
ATOM     76  C   UNL A   1      50.251  27.499  26.825  1.00  0.00     0.020 A 
ATOM     77  C   UNL A   1      51.038  26.984  27.857  1.00  0.00     0.054 A 
BRANCH  77  78
ATOM     78  S   UNL A   1      52.784  26.586  27.571  1.00  0.00     0.124 S 
ATOM     79  O   UNL A   1      53.315  26.550  28.931  1.00  0.00    -0.237 OA
ATOM     80  O   UNL A   1      52.710  25.296  26.890  1.00  0.00    -0.237 OA
ATOM     81  O   UNL A   1      53.261  27.693  26.745  1.00  0.00    -0.744 OA
ENDBRANCH  77  78
ENDBRANCH  51  72
ENDBRANCH  25  26
ENDBRANCH  18  20
ENDBRANCH  17  18
ENDBRANCH   1  17
TORSDOF 16
ENDMDL
MODEL 2
REMARK VINA RESULT:      -9.7      2.969      5.484
REMARK SMILES CC[C@H]1CCCC[C@@H]1C1(C(=O)OCCOC(=O)c2ccc(-c3c4nc(c(-c5ccc(S(=O)(=O)[O-])cc5)c5ccc([nH]5)c(-c5ccc(S(=O)(=O)[O-])cc5)c5nc(c(-c6ccc(S(=O)(=O)[O-])cc6)c6ccc3[nH]6)C=C5)C=C4)cc2)CC1
REMARK SMILES IDX 14 1 13 2 12 3 10 4 11 5 9 6 78 7 79 8 8 9 3 10 4 11 5 12
REMARK SMILES IDX 7 13 6 14 2 15 1 16 15 17 16 18 17 19 18 20 19 21 77 22
REMARK SMILES IDX 20 23 76 24 21 25 22 26 23 27 70 28 24 29 75 30 69 31 71 32
REMARK SMILES IDX 25 33 74 34 68 35 67 36 26 38 56 39 37 40 55 41 38 42 41 43
REMARK SMILES IDX 54 44 72 45 39 46 40 47 53 49 73 50 42 51 27 52 28 53 36 54
REMARK SMILES IDX 29 55 35 56 30 57 31 58 32 59 33 60 34 61 57 62 58 63 66 64
REMARK SMILES IDX 59 65 65 66 60 67 61 68 62 69 63 70 64 71 43 72 44 73 52 74
REMARK SMILES IDX 45 75 51 76 46 77 47 78 48 79 49 80 50 81
REMARK H PARENT 71 37 41 48
REMARK Flexibility Score: inf
ROOT
ATOM      1  C   UNL A   1      33.408  32.033  27.630  1.00  0.00     0.275 C 
ENDROOT
BRANCH   1   2
ATOM      2  C   UNL A   1      33.768  33.392  28.239  1.00  0.00     0.274 C 
BRANCH   2   3
ATOM      3  O   UNL A   1      34.192  33.186  29.602  1.00  0.00    -0.462 OA
BRANCH   3   4
ATOM      4  C   UNL A   1      34.917  34.186  30.169  1.00  0.00     0.312 C 
ATOM      5  O   UNL A   1      34.502  35.291  30.487  1.00  0.00    -0.252 OA
BRANCH   4   6
ATOM      6  C   UNL A   1      36.333  33.742  30.480  1.00  0.00     0.071 C 
ATOM      7  C   UNL A   1      37.425  34.377  29.612  1.00  0.00     0.020 C 
ATOM      8  C   UNL A   1      37.091  32.934  29.432  1.00  0.00     0.020 C 
BRANCH   6   9
ATOM      9  C   UNL A   1      36.540  33.297  31.948  1.00  0.00     0.009 C 
ATOM     10  C   UNL A   1      36.749  34.410  33.030  1.00  0.00    -0.007 C 
ATOM     11  C   UNL A   1      38.058  34.258  33.817  1.00  0.00     0.004 C 
ATOM     12  C   UNL A   1      38.360  32.829  34.218  1.00  0.00     0.000 C 
ATOM     13  C   UNL A   1      37.488  32.064  31.970  1.00  0.00     0.005 C 
ATOM     14  C   UNL A   1      38.623  32.015  32.973  1.00  0.00     0.000 C 
BRANCH  10  15
ATOM     15  C   UNL A   1      35.457  34.550  33.897  1.00  0.00     0.000 C 
ATOM     16  C   UNL A   1      34.326  33.555  33.680  1.00  0.00     0.004 C 
ENDBRANCH  10  15
ENDBRANCH   6   9
ENDBRANCH   4   6
ENDBRANCH   3   4
ENDBRANCH   2   3
ENDBRANCH   1   2
BRANCH   1  17
ATOM     17  O   UNL A   1      34.077  30.999  28.376  1.00  0.00    -0.458 OA
BRANCH  17  18
ATOM     18  C   UNL A   1      34.616  29.985  27.647  1.00  0.00     0.338 C 
ATOM     19  O   UNL A   1      34.046  29.357  26.769  1.00  0.00    -0.246 OA
BRANCH  18  20
ATOM     20  C   UNL A   1      36.051  29.796  28.014  1.00  0.00     0.060 A 
ATOM     21  C   UNL A   1      37.051  30.009  27.070  1.00  0.00     0.016 A 
ATOM     22  C   UNL A   1      36.416  29.296  29.270  1.00  0.00     0.016 A 
ATOM     23  C   UNL A   1      38.358  29.610  27.330  1.00  0.00     0.010 A 
ATOM     24  C   UNL A   1      37.769  29.024  29.568  1.00  0.00     0.010 A 
ATOM     25  C   UNL A   1      38.764  29.161  28.588  1.00  0.00    -0.014 A 
BRANCH  25  26
ATOM     26  C   UNL A   1      40.212  28.849  28.817  1.00  0.00     0.031 A 
ATOM     27  C   UNL A   1      41.141  29.874  29.420  1.00  0.00     0.074 A 
ATOM     28  C   UNL A   1      40.707  27.615  28.561  1.00  0.00     0.049 A 
ATOM     29  N   UNL A   1      42.449  29.862  29.490  1.00  0.00    -0.248 NA
ATOM     30  C   UNL A   1      40.519  31.057  30.032  1.00  0.00     0.031 C 
ATOM     31  C   UNL A   1      39.930  26.458  28.104  1.00  0.00     0.029 A 
ATOM     32  N   UNL A   1      41.983  27.111  28.681  1.00  0.00    -0.354 N 
ATOM     33  C   UNL A   1      42.812  31.071  30.076  1.00  0.00     0.074 A 
ATOM     34  C   UNL A   1      41.582  31.775  30.373  1.00  0.00     0.031 C 
ATOM     35  C   UNL A   1      40.717  25.377  28.065  1.00  0.00     0.029 A 
ATOM     36  C   UNL A   1      42.090  25.788  28.318  1.00  0.00     0.049 A 
ATOM     37  H   UNL A   1      42.747  27.647  28.996  1.00  0.00     0.167 HD
ATOM     38  C   UNL A   1      44.056  31.558  30.313  1.00  0.00     0.031 A 
ATOM     39  C   UNL A   1      43.165  24.998  28.119  1.00  0.00     0.031 A 
ATOM     40  C   UNL A   1      45.274  30.839  30.034  1.00  0.00     0.049 A 
ATOM     41  C   UNL A   1      44.536  25.589  28.272  1.00  0.00     0.074 A 
ATOM     42  C   UNL A   1      46.583  31.268  30.178  1.00  0.00     0.029 A 
ATOM     43  N   UNL A   1      45.336  29.536  29.561  1.00  0.00    -0.354 N 
ATOM     44  N   UNL A   1      44.872  26.787  28.683  1.00  0.00    -0.248 NA
ATOM     45  C   UNL A   1      45.670  24.736  27.894  1.00  0.00     0.031 C 
ATOM     46  C   UNL A   1      47.432  30.249  29.732  1.00  0.00     0.029 A 
ATOM     47  C   UNL A   1      46.657  29.156  29.381  1.00  0.00     0.049 A 
ATOM     48  H   UNL A   1      44.555  28.963  29.380  1.00  0.00     0.167 HD
ATOM     49  C   UNL A   1      46.259  26.832  28.618  1.00  0.00     0.074 A 
ATOM     50  C   UNL A   1      46.699  25.531  28.154  1.00  0.00     0.031 C 
ATOM     51  C   UNL A   1      47.090  27.863  28.911  1.00  0.00     0.031 A 
BRANCH  38  52
ATOM     52  C   UNL A   1      44.160  32.987  30.786  1.00  0.00    -0.014 A 
ATOM     53  C   UNL A   1      44.062  33.344  32.142  1.00  0.00     0.010 A 
ATOM     54  C   UNL A   1      44.355  34.000  29.828  1.00  0.00     0.010 A 
ATOM     55  C   UNL A   1      44.092  34.691  32.521  1.00  0.00     0.020 A 
ATOM     56  C   UNL A   1      44.417  35.344  30.204  1.00  0.00     0.020 A 
ATOM     57  C   UNL A   1      44.257  35.683  31.547  1.00  0.00     0.054 A 
BRANCH  57  58
ATOM     58  S   UNL A   1      44.251  37.424  32.057  1.00  0.00     0.124 S 
ATOM     59  O   UNL A   1      43.757  38.088  30.853  1.00  0.00    -0.237 OA
ATOM     60  O   UNL A   1      43.334  37.423  33.194  1.00  0.00    -0.237 OA
ATOM     61  O   UNL A   1      45.649  37.694  32.388  1.00  0.00    -0.744 OA
ENDBRANCH  57  58
ENDBRANCH  38  52
BRANCH  39  62
ATOM     62  C   UNL A   1      42.977  23.599  27.633  1.00  0.00    -0.014 A 
ATOM     63  C   UNL A   1      42.525  22.587  28.496  1.00  0.00     0.010 A 
ATOM     64  C   UNL A   1      43.221  23.281  26.282  1.00  0.00     0.010 A 
ATOM     65  C   UNL A   1      42.315  21.289  28.017  1.00  0.00     0.020 A 
ATOM     66  C   UNL A   1      42.973  21.998  25.790  1.00  0.00     0.020 A 
ATOM     67  C   UNL A   1      42.528  21.006  26.663  1.00  0.00     0.054 A 
BRANCH  67  68
ATOM     68  S   UNL A   1      42.168  19.339  26.045  1.00  0.00     0.124 S 
ATOM     69  O   UNL A   1      40.717  19.377  25.896  1.00  0.00    -0.237 OA
ATOM     70  O   UNL A   1      42.932  19.294  24.800  1.00  0.00    -0.237 OA
ATOM     71  O   UNL A   1      42.667  18.466  27.105  1.00  0.00    -0.744 OA
ENDBRANCH  67  68
ENDBRANCH  39  62
BRANCH  51  72
ATOM     72  C   UNL A   1      48.570  27.620  28.770  1.00  0.00    -0.014 A 
ATOM     73  C   UNL A   1      49.336  27.119  29.839  1.00  0.00     0.010 A 
ATOM     74  C   UNL A   1      49.194  27.852  27.530  1.00  0.00     0.010 A 
ATOM     75  C   UNL A   1      50.703  26.878  29.676  1.00  0.00     0.020 A 
ATOM     76  C   UNL A   1      50.554  27.585  27.356  1.00  0.00     0.020 A 
ATOM     77  C   UNL A   1      51.303  27.110  28.434  1.00  0.00     0.054 A 
BRANCH  77  78
ATOM     78  S   UNL A   1      53.067  26.741  28.234  1.00  0.00     0.124 S 
ATOM     79  O   UNL A   1      53.431  26.261  29.564  1.00  0.00    -0.237 OA
ATOM     80  O   UNL A   1      53.066  25.730  27.179  1.00  0.00    -0.237 OA
ATOM     81  O   UNL A   1      53.649  28.027  27.855  1.00  0.00    -0.744 OA
ENDBRANCH  77  78
ENDBRANCH  51  72
ENDBRANCH  25  26
ENDBRANCH  18  20
ENDBRANCH  17  18
ENDBRANCH   1  17
TORSDOF 16
ENDMDL
MODEL 3
REMARK VINA RESULT:      -9.7      5.149     10.844
REMARK SMILES CC[C@H]1CCCC[C@@H]1C1(C(=O)OCCOC(=O)c2ccc(-c3c4nc(c(-c5ccc(S(=O)(=O)[O-])cc5)c5ccc([nH]5)c(-c5ccc(S(=O)(=O)[O-])cc5)c5nc(c(-c6ccc(S(=O)(=O)[O-])cc6)c6ccc3[nH]6)C=C5)C=C4)cc2)CC1
REMARK SMILES IDX 14 1 13 2 12 3 10 4 11 5 9 6 78 7 79 8 8 9 3 10 4 11 5 12
REMARK SMILES IDX 7 13 6 14 2 15 1 16 15 17 16 18 17 19 18 20 19 21 77 22
REMARK SMILES IDX 20 23 76 24 21 25 22 26 23 27 70 28 24 29 75 30 69 31 71 32
REMARK SMILES IDX 25 33 74 34 68 35 67 36 26 38 56 39 37 40 55 41 38 42 41 43
REMARK SMILES IDX 54 44 72 45 39 46 40 47 53 49 73 50 42 51 27 52 28 53 36 54
REMARK SMILES IDX 29 55 35 56 30 57 31 58 32 59 33 60 34 61 57 62 58 63 66 64
REMARK SMILES IDX 59 65 65 66 60 67 61 68 62 69 63 70 64 71 43 72 44 73 52 74
REMARK SMILES IDX 45 75 51 76 46 77 47 78 48 79 49 80 50 81
REMARK H PARENT 71 37 41 48
REMARK Flexibility Score: inf
ROOT
ATOM      1  C   UNL A   1      33.108  32.796  27.733  1.00  0.00     0.275 C 
ENDROOT
BRANCH   1   2
ATOM      2  C   UNL A   1      33.504  34.212  28.165  1.00  0.00     0.274 C 
BRANCH   2   3
ATOM      3  O   UNL A   1      33.115  34.397  29.542  1.00  0.00    -0.462 OA
BRANCH   3   4
ATOM      4  C   UNL A   1      33.306  35.638  30.064  1.00  0.00     0.312 C 
ATOM      5  O   UNL A   1      33.292  36.692  29.446  1.00  0.00    -0.252 OA
BRANCH   4   6
ATOM      6  C   UNL A   1      33.441  35.594  31.573  1.00  0.00     0.071 C 
ATOM      7  C   UNL A   1      32.119  35.562  32.348  1.00  0.00     0.020 C 
ATOM      8  C   UNL A   1      32.960  36.794  32.383  1.00  0.00     0.020 C 
BRANCH   6   9
ATOM      9  C   UNL A   1      34.753  34.937  32.065  1.00  0.00     0.009 C 
ATOM     10  C   UNL A   1      35.055  33.470  31.605  1.00  0.00    -0.007 C 
ATOM     11  C   UNL A   1      35.268  32.496  32.772  1.00  0.00     0.004 C 
ATOM     12  C   UNL A   1      36.118  33.067  33.889  1.00  0.00     0.000 C 
ATOM     13  C   UNL A   1      34.963  35.295  33.564  1.00  0.00     0.005 C 
ATOM     14  C   UNL A   1      35.371  34.209  34.539  1.00  0.00     0.000 C 
BRANCH  10  15
ATOM     15  C   UNL A   1      36.184  33.479  30.525  1.00  0.00     0.000 C 
ATOM     16  C   UNL A   1      37.442  34.291  30.796  1.00  0.00     0.004 C 
ENDBRANCH  10  15
ENDBRANCH   6   9
ENDBRANCH   4   6
ENDBRANCH   3   4
ENDBRANCH   2   3
ENDBRANCH   1   2
BRANCH   1  17
ATOM     17  O   UNL A   1      33.886  31.847  28.487  1.00  0.00    -0.458 OA
BRANCH  17  18
ATOM     18  C   UNL A   1      34.475  30.850  27.773  1.00  0.00     0.338 C 
ATOM     19  O   UNL A   1      34.024  30.334  26.763  1.00  0.00    -0.246 OA
BRANCH  18  20
ATOM     20  C   UNL A   1      35.812  30.525  28.354  1.00  0.00     0.060 A 
ATOM     21  C   UNL A   1      35.934  29.531  29.320  1.00  0.00     0.016 A 
ATOM     22  C   UNL A   1      36.945  31.279  28.026  1.00  0.00     0.016 A 
ATOM     23  C   UNL A   1      37.121  29.386  30.030  1.00  0.00     0.010 A 
ATOM     24  C   UNL A   1      38.181  31.027  28.659  1.00  0.00     0.010 A 
ATOM     25  C   UNL A   1      38.283  30.082  29.692  1.00  0.00    -0.014 A 
BRANCH  25  26
ATOM     26  C   UNL A   1      39.549  29.792  30.441  1.00  0.00     0.031 A 
ATOM     27  C   UNL A   1      40.544  28.784  29.921  1.00  0.00     0.074 A 
ATOM     28  C   UNL A   1      39.870  30.485  31.559  1.00  0.00     0.049 A 
ATOM     29  N   UNL A   1      41.573  28.250  30.532  1.00  0.00    -0.248 NA
ATOM     30  C   UNL A   1      40.365  28.325  28.536  1.00  0.00     0.031 C 
ATOM     31  C   UNL A   1      39.097  31.591  32.133  1.00  0.00     0.029 A 
ATOM     32  N   UNL A   1      40.954  30.385  32.402  1.00  0.00    -0.354 N 
ATOM     33  C   UNL A   1      42.114  27.331  29.638  1.00  0.00     0.074 A 
ATOM     34  C   UNL A   1      41.318  27.407  28.431  1.00  0.00     0.031 C 
ATOM     35  C   UNL A   1      39.764  32.114  33.168  1.00  0.00     0.029 A 
ATOM     36  C   UNL A   1      40.922  31.278  33.449  1.00  0.00     0.049 A 
ATOM     37  H   UNL A   1      41.683  29.736  32.270  1.00  0.00     0.167 HD
ATOM     38  C   UNL A   1      43.157  26.484  29.823  1.00  0.00     0.031 A 
ATOM     39  C   UNL A   1      41.673  31.377  34.565  1.00  0.00     0.031 A 
ATOM     40  C   UNL A   1      43.956  26.431  31.021  1.00  0.00     0.049 A 
ATOM     41  C   UNL A   1      42.746  30.357  34.808  1.00  0.00     0.074 A 
ATOM     42  C   UNL A   1      44.993  25.567  31.332  1.00  0.00     0.029 A 
ATOM     43  N   UNL A   1      43.817  27.286  32.106  1.00  0.00    -0.354 N 
ATOM     44  N   UNL A   1      43.155  29.392  34.021  1.00  0.00    -0.248 NA
ATOM     45  C   UNL A   1      43.432  30.413  36.106  1.00  0.00     0.031 C 
ATOM     46  C   UNL A   1      45.435  25.857  32.628  1.00  0.00     0.029 A 
ATOM     47  C   UNL A   1      44.727  26.951  33.097  1.00  0.00     0.049 A 
ATOM     48  H   UNL A   1      43.167  28.023  32.164  1.00  0.00     0.167 HD
ATOM     49  C   UNL A   1      44.149  28.726  34.727  1.00  0.00     0.074 A 
ATOM     50  C   UNL A   1      44.299  29.416  35.993  1.00  0.00     0.031 C 
ATOM     51  C   UNL A   1      44.867  27.636  34.359  1.00  0.00     0.031 A 
BRANCH  38  52
ATOM     52  C   UNL A   1      43.410  25.455  28.748  1.00  0.00    -0.014 A 
ATOM     53  C   UNL A   1      44.400  25.616  27.765  1.00  0.00     0.010 A 
ATOM     54  C   UNL A   1      42.613  24.293  28.729  1.00  0.00     0.010 A 
ATOM     55  C   UNL A   1      44.545  24.666  26.746  1.00  0.00     0.020 A 
ATOM     56  C   UNL A   1      42.775  23.327  27.733  1.00  0.00     0.020 A 
ATOM     57  C   UNL A   1      43.722  23.534  26.731  1.00  0.00     0.054 A 
BRANCH  57  58
ATOM     58  S   UNL A   1      43.900  22.337  25.379  1.00  0.00     0.124 S 
ATOM     59  O   UNL A   1      45.349  22.307  25.193  1.00  0.00    -0.237 OA
ATOM     60  O   UNL A   1      43.314  21.124  25.944  1.00  0.00    -0.237 OA
ATOM     61  O   UNL A   1      43.144  22.937  24.282  1.00  0.00    -0.744 OA
ENDBRANCH  57  58
ENDBRANCH  38  52
BRANCH  39  62
ATOM     62  C   UNL A   1      41.346  32.413  35.589  1.00  0.00    -0.014 A 
ATOM     63  C   UNL A   1      41.973  33.671  35.572  1.00  0.00     0.010 A 
ATOM     64  C   UNL A   1      40.374  32.152  36.575  1.00  0.00     0.010 A 
ATOM     65  C   UNL A   1      41.627  34.646  36.515  1.00  0.00     0.020 A 
ATOM     66  C   UNL A   1      39.995  33.135  37.490  1.00  0.00     0.020 A 
ATOM     67  C   UNL A   1      40.631  34.376  37.459  1.00  0.00     0.054 A 
BRANCH  67  68
ATOM     68  S   UNL A   1      40.138  35.684  38.617  1.00  0.00     0.124 S 
ATOM     69  O   UNL A   1      41.315  35.793  39.472  1.00  0.00    -0.237 OA
ATOM     70  O   UNL A   1      39.894  36.816  37.726  1.00  0.00    -0.237 OA
ATOM     71  O   UNL A   1      38.944  35.139  39.259  1.00  0.00    -0.744 OA
ENDBRANCH  67  68
ENDBRANCH  39  62
BRANCH  51  72
ATOM     72  C   UNL A   1      45.909  27.135  35.324  1.00  0.00    -0.014 A 
ATOM     73  C   UNL A   1      45.647  26.059  36.193  1.00  0.00     0.010 A 
ATOM     74  C   UNL A   1      47.189  27.719  35.325  1.00  0.00     0.010 A 
ATOM     75  C   UNL A   1      46.639  25.596  37.062  1.00  0.00     0.020 A 
ATOM     76  C   UNL A   1      48.191  27.240  36.171  1.00  0.00     0.020 A 
ATOM     77  C   UNL A   1      47.906  26.187  37.043  1.00  0.00     0.054 A 
BRANCH  77  78
ATOM     78  S   UNL A   1      49.191  25.533  38.144  1.00  0.00     0.124 S 
ATOM     79  O   UNL A   1      48.958  26.292  39.369  1.00  0.00    -0.237 OA
ATOM     80  O   UNL A   1      48.862  24.112  38.212  1.00  0.00    -0.237 OA
ATOM     81  O   UNL A   1      50.437  25.845  37.446  1.00  0.00    -0.744 OA
ENDBRANCH  77  78
ENDBRANCH  51  72
ENDBRANCH  25  26
ENDBRANCH  18  20
ENDBRANCH  17  18
ENDBRANCH   1  17
TORSDOF 16
ENDMDL
