MODEL 1
REMARK VINA RESULT:     -10.6      0.000      0.000
REMARK SMILES Cc1cc(Br)cc2c1O[C@H](C(F)(F)F)C(C(=O)OCCOC(=O)c1ccc(-c3c4nc(c(-c5ccc(S(=O)(=O)[O-])cc5)c5ccc([nH]5)c(-c5ccc(S(=O)(=O)[O-])cc5)c5nc(c(-c6ccc(S(=O)(=O)[O-])cc6)c6ccc3[nH]6)C=C5)C=C4)cc1)=C2
REMARK SMILES IDX 20 1 19 2 18 3 16 4 17 5 15 6 1 7 2 8 3 9 8 10 4 11 7 12
REMARK SMILES IDX 9 13 5 14 6 15 84 16 10 17 11 18 12 19 13 20 14 21 21 22
REMARK SMILES IDX 22 23 23 24 24 25 25 26 83 27 26 28 82 29 27 30 28 31 29 32
REMARK SMILES IDX 76 33 30 34 81 35 75 36 77 37 31 38 80 39 74 40 73 41 32 43
REMARK SMILES IDX 62 44 43 45 61 46 44 47 47 48 60 49 78 50 45 51 46 52 59 54
REMARK SMILES IDX 79 55 48 56 33 57 34 58 42 59 35 60 41 61 36 62 37 63 38 64
REMARK SMILES IDX 39 65 40 66 63 67 64 68 72 69 65 70 71 71 66 72 67 73 68 74
REMARK SMILES IDX 69 75 70 76 49 77 50 78 58 79 51 80 57 81 52 82 53 83 54 84
REMARK SMILES IDX 55 85 56 86
REMARK H PARENT 77 42 47 53
REMARK Flexibility Score: inf
ROOT
ATOM      1  C   UNL A   1      36.784  23.545  23.981  1.00  0.00     0.275 C 
ENDROOT
BRANCH   1   2
ATOM      2  C   UNL A   1      35.755  22.417  24.063  1.00  0.00     0.275 C 
BRANCH   2   3
ATOM      3  O   UNL A   1      34.406  22.916  23.921  1.00  0.00    -0.459 OA
BRANCH   3   4
ATOM      4  C   UNL A   1      33.866  23.452  25.039  1.00  0.00     0.338 C 
ATOM      5  O   UNL A   1      33.724  22.892  26.116  1.00  0.00    -0.246 OA
BRANCH   4   6
ATOM      6  C   UNL A   1      33.451  24.847  24.806  1.00  0.00     0.087 C 
ATOM      7  C   UNL A   1      30.850  29.123  23.571  1.00  0.00     0.048 C 
ATOM      8  C   UNL A   1      31.975  28.756  24.496  1.00  0.00    -0.007 A 
ATOM      9  C   UNL A   1      32.470  29.734  25.377  1.00  0.00     0.023 A 
ATOM     10  C   UNL A   1      32.490  27.452  24.556  1.00  0.00     0.130 A 
ATOM     11  C   UNL A   1      33.490  29.424  26.274  1.00  0.00     0.019 A 
ATOM     12  C   UNL A   1      33.508  27.152  25.466  1.00  0.00     0.019 A 
ATOM     13  O   UNL A   1      31.972  26.521  23.694  1.00  0.00    -0.475 OA
ATOM     14  Br  UNL A   1      34.143  30.746  27.454  1.00  0.00    -0.051 Br
ATOM     15  C   UNL A   1      34.018  28.139  26.318  1.00  0.00     0.027 A 
ATOM     16  C   UNL A   1      34.010  25.797  25.561  1.00  0.00     0.027 C 
ATOM     17  C   UNL A   1      32.325  25.118  23.857  1.00  0.00     0.316 C 
BRANCH  17  18
ATOM     18  C   UNL A   1      31.064  24.332  24.251  1.00  0.00     0.430 C 
ATOM     19  F   UNL A   1      29.959  24.841  23.652  1.00  0.00    -0.167 F 
ATOM     20  F   UNL A   1      31.145  23.035  23.865  1.00  0.00    -0.167 F 
ATOM     21  F   UNL A   1      30.844  24.345  25.585  1.00  0.00    -0.167 F 
ENDBRANCH  17  18
ENDBRANCH   4   6
ENDBRANCH   3   4
ENDBRANCH   2   3
ENDBRANCH   1   2
BRANCH   1  22
ATOM     22  O   UNL A   1      37.190  23.958  25.299  1.00  0.00    -0.458 OA
BRANCH  22  23
ATOM     23  C   UNL A   1      38.251  23.288  25.799  1.00  0.00     0.338 C 
ATOM     24  O   UNL A   1      38.566  22.131  25.572  1.00  0.00    -0.246 OA
BRANCH  23  25
ATOM     25  C   UNL A   1      39.088  24.174  26.620  1.00  0.00     0.060 A 
ATOM     26  C   UNL A   1      38.913  24.156  27.997  1.00  0.00     0.016 A 
ATOM     27  C   UNL A   1      39.836  25.188  26.026  1.00  0.00     0.016 A 
ATOM     28  C   UNL A   1      39.298  25.255  28.759  1.00  0.00     0.010 A 
ATOM     29  C   UNL A   1      40.370  26.205  26.825  1.00  0.00     0.010 A 
ATOM     30  C   UNL A   1      40.045  26.295  28.192  1.00  0.00    -0.014 A 
BRANCH  30  31
ATOM     31  C   UNL A   1      40.440  27.488  29.002  1.00  0.00     0.031 A 
ATOM     32  C   UNL A   1      41.770  27.508  29.723  1.00  0.00     0.074 A 
ATOM     33  C   UNL A   1      39.631  28.566  29.087  1.00  0.00     0.049 A 
ATOM     34  N   UNL A   1      42.193  28.322  30.656  1.00  0.00    -0.248 NA
ATOM     35  C   UNL A   1      42.746  26.466  29.357  1.00  0.00     0.031 C 
ATOM     36  C   UNL A   1      38.356  28.738  28.385  1.00  0.00     0.029 A 
ATOM     37  N   UNL A   1      39.767  29.734  29.798  1.00  0.00    -0.354 N 
ATOM     38  C   UNL A   1      43.449  27.854  31.034  1.00  0.00     0.074 A 
ATOM     39  C   UNL A   1      43.716  26.678  30.237  1.00  0.00     0.031 C 
ATOM     40  C   UNL A   1      37.861  29.954  28.651  1.00  0.00     0.029 A 
ATOM     41  C   UNL A   1      38.708  30.599  29.645  1.00  0.00     0.049 A 
ATOM     42  H   UNL A   1      40.549  29.934  30.364  1.00  0.00     0.167 HD
ATOM     43  C   UNL A   1      44.299  28.359  31.962  1.00  0.00     0.031 A 
ATOM     44  C   UNL A   1      38.407  31.753  30.273  1.00  0.00     0.031 A 
ATOM     45  C   UNL A   1      44.046  29.561  32.714  1.00  0.00     0.049 A 
ATOM     46  C   UNL A   1      39.319  32.246  31.358  1.00  0.00     0.074 A 
ATOM     47  C   UNL A   1      44.840  30.156  33.679  1.00  0.00     0.029 A 
ATOM     48  N   UNL A   1      42.923  30.363  32.572  1.00  0.00    -0.354 N 
ATOM     49  N   UNL A   1      40.459  31.742  31.767  1.00  0.00    -0.248 NA
ATOM     50  C   UNL A   1      38.890  33.448  32.084  1.00  0.00     0.031 C 
ATOM     51  C   UNL A   1      44.173  31.287  34.159  1.00  0.00     0.029 A 
ATOM     52  C   UNL A   1      42.992  31.433  33.449  1.00  0.00     0.049 A 
ATOM     53  H   UNL A   1      42.186  30.196  31.941  1.00  0.00     0.167 HD
ATOM     54  C   UNL A   1      40.889  32.573  32.795  1.00  0.00     0.074 A 
ATOM     55  C   UNL A   1      39.902  33.627  32.922  1.00  0.00     0.031 C 
ATOM     56  C   UNL A   1      41.996  32.466  33.570  1.00  0.00     0.031 A 
BRANCH  43  57
ATOM     57  C   UNL A   1      45.572  27.600  32.246  1.00  0.00    -0.014 A 
ATOM     58  C   UNL A   1      45.601  26.515  33.140  1.00  0.00     0.010 A 
ATOM     59  C   UNL A   1      46.749  27.942  31.553  1.00  0.00     0.010 A 
ATOM     60  C   UNL A   1      46.788  25.808  33.359  1.00  0.00     0.020 A 
ATOM     61  C   UNL A   1      47.931  27.219  31.745  1.00  0.00     0.020 A 
ATOM     62  C   UNL A   1      47.946  26.164  32.657  1.00  0.00     0.054 A 
BRANCH  62  63
ATOM     63  S   UNL A   1      49.461  25.204  32.936  1.00  0.00     0.124 S 
ATOM     64  O   UNL A   1      48.971  24.096  33.753  1.00  0.00    -0.237 OA
ATOM     65  O   UNL A   1      49.868  24.851  31.579  1.00  0.00    -0.237 OA
ATOM     66  O   UNL A   1      50.344  26.140  33.627  1.00  0.00    -0.744 OA
ENDBRANCH  62  63
ENDBRANCH  43  57
BRANCH  44  67
ATOM     67  C   UNL A   1      37.150  32.477  29.934  1.00  0.00    -0.014 A 
ATOM     68  C   UNL A   1      35.968  32.231  30.654  1.00  0.00     0.010 A 
ATOM     69  C   UNL A   1      37.132  33.438  28.904  1.00  0.00     0.010 A 
ATOM     70  C   UNL A   1      34.796  32.930  30.351  1.00  0.00     0.020 A 
ATOM     71  C   UNL A   1      35.972  34.164  28.621  1.00  0.00     0.020 A 
ATOM     72  C   UNL A   1      34.808  33.899  29.342  1.00  0.00     0.054 A 
BRANCH  72  73
ATOM     73  S   UNL A   1      33.289  34.834  29.012  1.00  0.00     0.124 S 
ATOM     74  O   UNL A   1      33.813  36.098  28.507  1.00  0.00    -0.237 OA
ATOM     75  O   UNL A   1      32.611  33.991  28.029  1.00  0.00    -0.237 OA
ATOM     76  O   UNL A   1      32.637  34.903  30.318  1.00  0.00    -0.744 OA
ENDBRANCH  72  73
ENDBRANCH  44  67
BRANCH  56  77
ATOM     77  C   UNL A   1      42.206  33.526  34.617  1.00  0.00    -0.014 A 
ATOM     78  C   UNL A   1      41.845  33.299  35.957  1.00  0.00     0.010 A 
ATOM     79  C   UNL A   1      42.813  34.746  34.266  1.00  0.00     0.010 A 
ATOM     80  C   UNL A   1      42.059  34.286  36.922  1.00  0.00     0.020 A 
ATOM     81  C   UNL A   1      43.058  35.722  35.234  1.00  0.00     0.020 A 
ATOM     82  C   UNL A   1      42.666  35.491  36.553  1.00  0.00     0.054 A 
BRANCH  82  83
ATOM     83  S   UNL A   1      42.965  36.739  37.835  1.00  0.00     0.124 S 
ATOM     84  O   UNL A   1      41.606  37.124  38.208  1.00  0.00    -0.237 OA
ATOM     85  O   UNL A   1      43.705  35.986  38.845  1.00  0.00    -0.237 OA
ATOM     86  O   UNL A   1      43.737  37.770  37.144  1.00  0.00    -0.744 OA
ENDBRANCH  82  83
ENDBRANCH  56  77
ENDBRANCH  30  31
ENDBRANCH  23  25
ENDBRANCH  22  23
ENDBRANCH   1  22
TORSDOF 15
ENDMDL
MODEL 2
REMARK VINA RESULT:     -10.6      2.807      3.900
REMARK SMILES Cc1cc(Br)cc2c1O[C@H](C(F)(F)F)C(C(=O)OCCOC(=O)c1ccc(-c3c4nc(c(-c5ccc(S(=O)(=O)[O-])cc5)c5ccc([nH]5)c(-c5ccc(S(=O)(=O)[O-])cc5)c5nc(c(-c6ccc(S(=O)(=O)[O-])cc6)c6ccc3[nH]6)C=C5)C=C4)cc1)=C2
REMARK SMILES IDX 20 1 19 2 18 3 16 4 17 5 15 6 1 7 2 8 3 9 8 10 4 11 7 12
REMARK SMILES IDX 9 13 5 14 6 15 84 16 10 17 11 18 12 19 13 20 14 21 21 22
REMARK SMILES IDX 22 23 23 24 24 25 25 26 83 27 26 28 82 29 27 30 28 31 29 32
REMARK SMILES IDX 76 33 30 34 81 35 75 36 77 37 31 38 80 39 74 40 73 41 32 43
REMARK SMILES IDX 62 44 43 45 61 46 44 47 47 48 60 49 78 50 45 51 46 52 59 54
REMARK SMILES IDX 79 55 48 56 33 57 34 58 42 59 35 60 41 61 36 62 37 63 38 64
REMARK SMILES IDX 39 65 40 66 63 67 64 68 72 69 65 70 71 71 66 72 67 73 68 74
REMARK SMILES IDX 69 75 70 76 49 77 50 78 58 79 51 80 57 81 52 82 53 83 54 84
REMARK SMILES IDX 55 85 56 86
REMARK H PARENT 77 42 47 53
REMARK Flexibility Score: inf
ROOT
ATOM      1  C   UNL A   1      39.620  23.175  26.598  1.00  0.00     0.275 C 
ENDROOT
BRANCH   1   2
ATOM      2  C   UNL A   1      38.336  22.561  26.040  1.00  0.00     0.275 C 
BRANCH   2   3
ATOM      3  O   UNL A   1      37.519  23.549  25.373  1.00  0.00    -0.459 OA
BRANCH   3   4
ATOM      4  C   UNL A   1      36.681  23.067  24.428  1.00  0.00     0.338 C 
ATOM      5  O   UNL A   1      36.995  22.418  23.441  1.00  0.00    -0.246 OA
BRANCH   4   6
ATOM      6  C   UNL A   1      35.284  23.421  24.735  1.00  0.00     0.087 C 
ATOM      7  C   UNL A   1      30.333  23.343  26.172  1.00  0.00     0.048 C 
ATOM      8  C   UNL A   1      31.422  24.371  26.056  1.00  0.00    -0.007 A 
ATOM      9  C   UNL A   1      31.173  25.675  26.521  1.00  0.00     0.023 A 
ATOM     10  C   UNL A   1      32.698  24.048  25.569  1.00  0.00     0.130 A 
ATOM     11  C   UNL A   1      32.168  26.648  26.462  1.00  0.00     0.019 A 
ATOM     12  C   UNL A   1      33.690  25.031  25.522  1.00  0.00     0.019 A 
ATOM     13  O   UNL A   1      32.910  22.764  25.140  1.00  0.00    -0.475 OA
ATOM     14  Br  UNL A   1      31.819  28.394  27.094  1.00  0.00    -0.051 Br
ATOM     15  C   UNL A   1      33.424  26.335  25.957  1.00  0.00     0.027 A 
ATOM     16  C   UNL A   1      35.019  24.689  25.061  1.00  0.00     0.027 C 
ATOM     17  C   UNL A   1      34.262  22.329  24.821  1.00  0.00     0.316 C 
BRANCH  17  18
ATOM     18  C   UNL A   1      34.686  21.248  25.829  1.00  0.00     0.430 C 
ATOM     19  F   UNL A   1      35.190  21.799  26.960  1.00  0.00    -0.167 F 
ATOM     20  F   UNL A   1      33.633  20.485  26.212  1.00  0.00    -0.167 F 
ATOM     21  F   UNL A   1      35.627  20.417  25.327  1.00  0.00    -0.167 F 
ENDBRANCH  17  18
ENDBRANCH   4   6
ENDBRANCH   3   4
ENDBRANCH   2   3
ENDBRANCH   1   2
BRANCH   1  22
ATOM     22  O   UNL A   1      39.316  24.277  27.473  1.00  0.00    -0.458 OA
BRANCH  22  23
ATOM     23  C   UNL A   1      39.837  25.463  27.088  1.00  0.00     0.338 C 
ATOM     24  O   UNL A   1      40.421  25.708  26.045  1.00  0.00    -0.246 OA
BRANCH  23  25
ATOM     25  C   UNL A   1      39.529  26.511  28.072  1.00  0.00     0.060 A 
ATOM     26  C   UNL A   1      40.010  27.793  27.841  1.00  0.00     0.016 A 
ATOM     27  C   UNL A   1      39.007  26.177  29.319  1.00  0.00     0.016 A 
ATOM     28  C   UNL A   1      40.170  28.675  28.905  1.00  0.00     0.010 A 
ATOM     29  C   UNL A   1      39.013  27.130  30.343  1.00  0.00     0.010 A 
ATOM     30  C   UNL A   1      39.663  28.367  30.175  1.00  0.00    -0.014 A 
BRANCH  30  31
ATOM     31  C   UNL A   1      39.853  29.302  31.325  1.00  0.00     0.031 A 
ATOM     32  C   UNL A   1      41.072  29.175  32.212  1.00  0.00     0.074 A 
ATOM     33  C   UNL A   1      38.957  30.280  31.578  1.00  0.00     0.049 A 
ATOM     34  N   UNL A   1      41.305  29.713  33.382  1.00  0.00    -0.248 NA
ATOM     35  C   UNL A   1      42.167  28.316  31.726  1.00  0.00     0.031 C 
ATOM     36  C   UNL A   1      37.774  30.590  30.770  1.00  0.00     0.029 A 
ATOM     37  N   UNL A   1      38.907  31.209  32.591  1.00  0.00    -0.354 N 
ATOM     38  C   UNL A   1      42.534  29.209  33.799  1.00  0.00     0.074 A 
ATOM     39  C   UNL A   1      42.995  28.314  32.762  1.00  0.00     0.031 C 
ATOM     40  C   UNL A   1      37.155  31.663  31.279  1.00  0.00     0.029 A 
ATOM     41  C   UNL A   1      37.811  32.039  32.523  1.00  0.00     0.049 A 
ATOM     42  H   UNL A   1      39.590  31.274  33.297  1.00  0.00     0.167 HD
ATOM     43  C   UNL A   1      43.214  29.470  34.943  1.00  0.00     0.031 A 
ATOM     44  C   UNL A   1      37.341  32.959  33.388  1.00  0.00     0.031 A 
ATOM     45  C   UNL A   1      42.771  30.403  35.946  1.00  0.00     0.049 A 
ATOM     46  C   UNL A   1      38.062  33.167  34.688  1.00  0.00     0.074 A 
ATOM     47  C   UNL A   1      43.384  30.738  37.142  1.00  0.00     0.029 A 
ATOM     48  N   UNL A   1      41.617  31.167  35.863  1.00  0.00    -0.354 N 
ATOM     49  N   UNL A   1      39.176  32.616  35.107  1.00  0.00    -0.248 NA
ATOM     50  C   UNL A   1      37.449  34.101  35.640  1.00  0.00     0.031 C 
ATOM     51  C   UNL A   1      42.573  31.663  37.805  1.00  0.00     0.029 A 
ATOM     52  C   UNL A   1      41.486  31.952  36.996  1.00  0.00     0.049 A 
ATOM     53  H   UNL A   1      40.983  31.153  35.109  1.00  0.00     0.167 HD
ATOM     54  C   UNL A   1      39.402  33.144  36.373  1.00  0.00     0.074 A 
ATOM     55  C   UNL A   1      38.326  34.080  36.634  1.00  0.00     0.031 C 
ATOM     56  C   UNL A   1      40.404  32.870  37.244  1.00  0.00     0.031 A 
BRANCH  43  57
ATOM     57  C   UNL A   1      44.496  28.713  35.195  1.00  0.00    -0.014 A 
ATOM     58  C   UNL A   1      44.500  27.459  35.831  1.00  0.00     0.010 A 
ATOM     59  C   UNL A   1      45.714  29.244  34.727  1.00  0.00     0.010 A 
ATOM     60  C   UNL A   1      45.699  26.765  36.021  1.00  0.00     0.020 A 
ATOM     61  C   UNL A   1      46.911  28.540  34.888  1.00  0.00     0.020 A 
ATOM     62  C   UNL A   1      46.898  27.309  35.545  1.00  0.00     0.054 A 
BRANCH  62  63
ATOM     63  S   UNL A   1      48.432  26.367  35.776  1.00  0.00     0.124 S 
ATOM     64  O   UNL A   1      48.465  26.192  37.226  1.00  0.00    -0.237 OA
ATOM     65  O   UNL A   1      48.180  25.155  35.002  1.00  0.00    -0.237 OA
ATOM     66  O   UNL A   1      49.465  27.247  35.234  1.00  0.00    -0.744 OA
ENDBRANCH  62  63
ENDBRANCH  43  57
BRANCH  44  67
ATOM     67  C   UNL A   1      36.085  33.698  33.076  1.00  0.00    -0.014 A 
ATOM     68  C   UNL A   1      34.832  33.097  33.290  1.00  0.00     0.010 A 
ATOM     69  C   UNL A   1      36.132  35.019  32.589  1.00  0.00     0.010 A 
ATOM     70  C   UNL A   1      33.654  33.800  33.020  1.00  0.00     0.020 A 
ATOM     71  C   UNL A   1      34.959  35.737  32.352  1.00  0.00     0.020 A 
ATOM     72  C   UNL A   1      33.726  35.120  32.562  1.00  0.00     0.054 A 
BRANCH  72  73
ATOM     73  S   UNL A   1      32.182  36.030  32.280  1.00  0.00     0.124 S 
ATOM     74  O   UNL A   1      31.178  35.080  32.748  1.00  0.00    -0.237 OA
ATOM     75  O   UNL A   1      32.364  37.220  33.108  1.00  0.00    -0.237 OA
ATOM     76  O   UNL A   1      32.187  36.276  30.839  1.00  0.00    -0.744 OA
ENDBRANCH  72  73
ENDBRANCH  44  67
BRANCH  56  77
ATOM     77  C   UNL A   1      40.391  33.604  38.558  1.00  0.00    -0.014 A 
ATOM     78  C   UNL A   1      39.702  33.085  39.669  1.00  0.00     0.010 A 
ATOM     79  C   UNL A   1      41.115  34.803  38.696  1.00  0.00     0.010 A 
ATOM     80  C   UNL A   1      39.711  33.770  40.886  1.00  0.00     0.020 A 
ATOM     81  C   UNL A   1      41.153  35.473  39.921  1.00  0.00     0.020 A 
ATOM     82  C   UNL A   1      40.439  34.959  41.004  1.00  0.00     0.054 A 
BRANCH  82  83
ATOM     83  S   UNL A   1      40.462  35.805  42.608  1.00  0.00     0.124 S 
ATOM     84  O   UNL A   1      39.041  36.040  42.849  1.00  0.00    -0.237 OA
ATOM     85  O   UNL A   1      41.093  34.817  43.480  1.00  0.00    -0.237 OA
ATOM     86  O   UNL A   1      41.258  37.005  42.357  1.00  0.00    -0.744 OA
ENDBRANCH  82  83
ENDBRANCH  56  77
ENDBRANCH  30  31
ENDBRANCH  23  25
ENDBRANCH  22  23
ENDBRANCH   1  22
TORSDOF 15
ENDMDL
MODEL 3
REMARK VINA RESULT:     -10.6      3.453      9.508
REMARK SMILES Cc1cc(Br)cc2c1O[C@H](C(F)(F)F)C(C(=O)OCCOC(=O)c1ccc(-c3c4nc(c(-c5ccc(S(=O)(=O)[O-])cc5)c5ccc([nH]5)c(-c5ccc(S(=O)(=O)[O-])cc5)c5nc(c(-c6ccc(S(=O)(=O)[O-])cc6)c6ccc3[nH]6)C=C5)C=C4)cc1)=C2
REMARK SMILES IDX 20 1 19 2 18 3 16 4 17 5 15 6 1 7 2 8 3 9 8 10 4 11 7 12
REMARK SMILES IDX 9 13 5 14 6 15 84 16 10 17 11 18 12 19 13 20 14 21 21 22
REMARK SMILES IDX 22 23 23 24 24 25 25 26 83 27 26 28 82 29 27 30 28 31 29 32
REMARK SMILES IDX 76 33 30 34 81 35 75 36 77 37 31 38 80 39 74 40 73 41 32 43
REMARK SMILES IDX 62 44 43 45 61 46 44 47 47 48 60 49 78 50 45 51 46 52 59 54
REMARK SMILES IDX 79 55 48 56 33 57 34 58 42 59 35 60 41 61 36 62 37 63 38 64
REMARK SMILES IDX 39 65 40 66 63 67 64 68 72 69 65 70 71 71 66 72 67 73 68 74
REMARK SMILES IDX 69 75 70 76 49 77 50 78 58 79 51 80 57 81 52 82 53 83 54 84
REMARK SMILES IDX 55 85 56 86
REMARK H PARENT 77 42 47 53
REMARK Flexibility Score: inf
ROOT
ATOM      1  C   UNL A   1      32.495  30.579  27.224  1.00  0.00     0.275 C 
ENDROOT
BRANCH   1   2
ATOM      2  C   UNL A   1      32.194  29.080  27.259  1.00  0.00     0.275 C 
BRANCH   2   3
ATOM      3  O   UNL A   1      31.592  28.630  26.026  1.00  0.00    -0.459 OA
BRANCH   3   4
ATOM      4  C   UNL A   1      32.451  28.124  25.112  1.00  0.00     0.338 C 
ATOM      5  O   UNL A   1      33.030  28.749  24.235  1.00  0.00    -0.246 OA
BRANCH   4   6
ATOM      6  C   UNL A   1      32.624  26.673  25.300  1.00  0.00     0.087 C 
ATOM      7  C   UNL A   1      32.019  21.553  25.326  1.00  0.00     0.048 C 
ATOM      8  C   UNL A   1      33.169  22.518  25.375  1.00  0.00    -0.007 A 
ATOM      9  C   UNL A   1      34.480  22.012  25.323  1.00  0.00     0.023 A 
ATOM     10  C   UNL A   1      32.970  23.908  25.396  1.00  0.00     0.130 A 
ATOM     11  C   UNL A   1      35.572  22.876  25.332  1.00  0.00     0.019 A 
ATOM     12  C   UNL A   1      34.074  24.764  25.397  1.00  0.00     0.019 A 
ATOM     13  O   UNL A   1      31.679  24.366  25.429  1.00  0.00    -0.475 OA
ATOM     14  Br  UNL A   1      37.327  22.181  25.258  1.00  0.00    -0.051 Br
ATOM     15  C   UNL A   1      35.376  24.251  25.377  1.00  0.00     0.027 A 
ATOM     16  C   UNL A   1      33.871  26.198  25.373  1.00  0.00     0.027 C 
ATOM     17  C   UNL A   1      31.418  25.787  25.245  1.00  0.00     0.316 C 
BRANCH  17  18
ATOM     18  C   UNL A   1      30.643  25.982  23.932  1.00  0.00     0.430 C 
ATOM     19  F   UNL A   1      29.760  27.006  24.029  1.00  0.00    -0.167 F 
ATOM     20  F   UNL A   1      31.473  26.291  22.905  1.00  0.00    -0.167 F 
ATOM     21  F   UNL A   1      29.949  24.879  23.574  1.00  0.00    -0.167 F 
ENDBRANCH  17  18
ENDBRANCH   4   6
ENDBRANCH   3   4
ENDBRANCH   2   3
ENDBRANCH   1   2
BRANCH   1  22
ATOM     22  O   UNL A   1      33.905  30.810  27.054  1.00  0.00    -0.458 OA
BRANCH  22  23
ATOM     23  C   UNL A   1      34.575  31.080  28.197  1.00  0.00     0.338 C 
ATOM     24  O   UNL A   1      34.230  31.832  29.093  1.00  0.00    -0.246 OA
BRANCH  23  25
ATOM     25  C   UNL A   1      35.788  30.257  28.296  1.00  0.00     0.060 A 
ATOM     26  C   UNL A   1      36.217  29.865  29.557  1.00  0.00     0.016 A 
ATOM     27  C   UNL A   1      36.627  30.102  27.196  1.00  0.00     0.016 A 
ATOM     28  C   UNL A   1      37.549  29.520  29.760  1.00  0.00     0.010 A 
ATOM     29  C   UNL A   1      37.916  29.589  27.382  1.00  0.00     0.010 A 
ATOM     30  C   UNL A   1      38.423  29.361  28.676  1.00  0.00    -0.014 A 
BRANCH  30  31
ATOM     31  C   UNL A   1      39.860  29.013  28.892  1.00  0.00     0.031 A 
ATOM     32  C   UNL A   1      40.812  30.042  29.460  1.00  0.00     0.074 A 
ATOM     33  C   UNL A   1      40.324  27.778  28.603  1.00  0.00     0.049 A 
ATOM     34  N   UNL A   1      42.120  30.027  29.499  1.00  0.00    -0.248 NA
ATOM     35  C   UNL A   1      40.215  31.254  30.049  1.00  0.00     0.031 C 
ATOM     36  C   UNL A   1      39.520  26.649  28.127  1.00  0.00     0.029 A 
ATOM     37  N   UNL A   1      41.595  27.259  28.677  1.00  0.00    -0.354 N 
ATOM     38  C   UNL A   1      42.502  31.247  30.051  1.00  0.00     0.074 A 
ATOM     39  C   UNL A   1      41.289  31.984  30.323  1.00  0.00     0.031 C 
ATOM     40  C   UNL A   1      40.298  25.565  28.011  1.00  0.00     0.029 A 
ATOM     41  C   UNL A   1      41.678  25.946  28.271  1.00  0.00     0.049 A 
ATOM     42  H   UNL A   1      42.372  27.777  28.991  1.00  0.00     0.167 HD
ATOM     43  C   UNL A   1      43.751  31.710  30.306  1.00  0.00     0.031 A 
ATOM     44  C   UNL A   1      42.744  25.148  28.066  1.00  0.00     0.031 A 
ATOM     45  C   UNL A   1      44.952  30.948  30.079  1.00  0.00     0.049 A 
ATOM     46  C   UNL A   1      44.121  25.710  28.270  1.00  0.00     0.074 A 
ATOM     47  C   UNL A   1      46.266  31.324  30.300  1.00  0.00     0.029 A 
ATOM     48  N   UNL A   1      44.986  29.647  29.599  1.00  0.00    -0.354 N 
ATOM     49  N   UNL A   1      44.468  26.897  28.706  1.00  0.00    -0.248 NA
ATOM     50  C   UNL A   1      45.248  24.833  27.929  1.00  0.00     0.031 C 
ATOM     51  C   UNL A   1      47.096  30.271  29.903  1.00  0.00     0.029 A 
ATOM     52  C   UNL A   1      46.298  29.215  29.493  1.00  0.00     0.049 A 
ATOM     53  H   UNL A   1      44.194  29.110  29.367  1.00  0.00     0.167 HD
ATOM     54  C   UNL A   1      45.858  26.907  28.700  1.00  0.00     0.074 A 
ATOM     55  C   UNL A   1      46.284  25.597  28.247  1.00  0.00     0.031 C 
ATOM     56  C   UNL A   1      46.704  27.913  29.030  1.00  0.00     0.031 A 
BRANCH  43  57
ATOM     57  C   UNL A   1      43.894  33.119  30.828  1.00  0.00    -0.014 A 
ATOM     58  C   UNL A   1      43.999  33.389  32.203  1.00  0.00     0.010 A 
ATOM     59  C   UNL A   1      43.988  34.186  29.914  1.00  0.00     0.010 A 
ATOM     60  C   UNL A   1      44.165  34.702  32.656  1.00  0.00     0.020 A 
ATOM     61  C   UNL A   1      44.185  35.497  30.361  1.00  0.00     0.020 A 
ATOM     62  C   UNL A   1      44.260  35.748  31.731  1.00  0.00     0.054 A 
BRANCH  62  63
ATOM     63  S   UNL A   1      44.511  37.436  32.350  1.00  0.00     0.124 S 
ATOM     64  O   UNL A   1      44.323  38.233  31.140  1.00  0.00    -0.237 OA
ATOM     65  O   UNL A   1      43.462  37.565  33.358  1.00  0.00    -0.237 OA
ATOM     66  O   UNL A   1      45.875  37.415  32.873  1.00  0.00    -0.744 OA
ENDBRANCH  62  63
ENDBRANCH  43  57
BRANCH  44  67
ATOM     67  C   UNL A   1      42.545  23.755  27.575  1.00  0.00    -0.014 A 
ATOM     68  C   UNL A   1      42.703  23.449  26.212  1.00  0.00     0.010 A 
ATOM     69  C   UNL A   1      42.222  22.718  28.473  1.00  0.00     0.010 A 
ATOM     70  C   UNL A   1      42.540  22.137  25.758  1.00  0.00     0.020 A 
ATOM     71  C   UNL A   1      42.093  21.400  28.029  1.00  0.00     0.020 A 
ATOM     72  C   UNL A   1      42.245  21.119  26.671  1.00  0.00     0.054 A 
BRANCH  72  73
ATOM     73  S   UNL A   1      42.100  19.416  26.063  1.00  0.00     0.124 S 
ATOM     74  O   UNL A   1      42.904  19.458  24.846  1.00  0.00    -0.237 OA
ATOM     75  O   UNL A   1      42.662  18.641  27.167  1.00  0.00    -0.237 OA
ATOM     76  O   UNL A   1      40.663  19.245  25.860  1.00  0.00    -0.744 OA
ENDBRANCH  72  73
ENDBRANCH  44  67
BRANCH  56  77
ATOM     77  C   UNL A   1      48.179  27.632  28.926  1.00  0.00    -0.014 A 
ATOM     78  C   UNL A   1      48.871  27.007  29.978  1.00  0.00     0.010 A 
ATOM     79  C   UNL A   1      48.870  27.955  27.744  1.00  0.00     0.010 A 
ATOM     80  C   UNL A   1      50.237  26.739  29.862  1.00  0.00     0.020 A 
ATOM     81  C   UNL A   1      50.228  27.659  27.611  1.00  0.00     0.020 A 
ATOM     82  C   UNL A   1      50.906  27.065  28.677  1.00  0.00     0.054 A 
BRANCH  82  83
ATOM     83  S   UNL A   1      52.671  26.671  28.542  1.00  0.00     0.124 S 
ATOM     84  O   UNL A   1      52.674  25.633  27.514  1.00  0.00    -0.237 OA
ATOM     85  O   UNL A   1      53.252  27.951  28.143  1.00  0.00    -0.237 OA
ATOM     86  O   UNL A   1      53.031  26.220  29.884  1.00  0.00    -0.744 OA
ENDBRANCH  82  83
ENDBRANCH  56  77
ENDBRANCH  30  31
ENDBRANCH  23  25
ENDBRANCH  22  23
ENDBRANCH   1  22
TORSDOF 15
ENDMDL
