MODEL 1
REMARK VINA RESULT:     -10.6      0.000      0.000
REMARK SMILES CC[C@](C)(NC(=O)Nc1cccnc1)C(=O)OCCOC(=O)c1ccc(-c2c3nc(c(-c4ccc(S(=O)(=O)[O-])cc4)c4ccc([nH]4)c(-c4ccc(S(=O)(=O)[O-])cc4)c4nc(c(-c5ccc(S(=O)(=O)[O-])cc5)c5ccc2[nH]5)C=C4)C=C3)cc1
REMARK SMILES IDX 19 1 18 2 17 3 15 4 16 5 3 6 4 7 2 8 1 9 5 10 6 11 7 13 8 14
REMARK SMILES IDX 9 16 10 17 14 18 11 19 13 20 12 21 20 22 21 23 22 24 23 25
REMARK SMILES IDX 24 26 82 27 25 28 81 29 26 30 27 31 28 32 75 33 29 34 80 35
REMARK SMILES IDX 74 36 76 37 30 38 79 39 73 40 72 41 31 43 61 44 42 45 60 46
REMARK SMILES IDX 43 47 46 48 59 49 77 50 44 51 45 52 58 54 78 55 47 56 32 57
REMARK SMILES IDX 33 58 41 59 34 60 40 61 35 62 36 63 37 64 38 65 39 66 62 67
REMARK SMILES IDX 63 68 71 69 64 70 70 71 65 72 66 73 67 74 68 75 69 76 48 77
REMARK SMILES IDX 49 78 57 79 50 80 56 81 51 82 52 83 53 84 54 85 55 86
REMARK H PARENT 5 12 8 15 76 42 46 53
REMARK Flexibility Score: inf
ROOT
ATOM      1  C   UNL A   1      33.078  30.087  26.098  1.00  0.00     0.275 C 
ENDROOT
BRANCH   1   2
ATOM      2  C   UNL A   1      33.453  28.466  25.878  1.00  0.00     0.274 C 
BRANCH   2   3
ATOM      3  O   UNL A   1      32.428  27.541  25.263  1.00  0.00    -0.460 OA
BRANCH   3   4
ATOM      4  C   UNL A   1      31.406  26.764  25.871  1.00  0.00     0.331 C 
ATOM      5  O   UNL A   1      31.311  26.628  27.088  1.00  0.00    -0.249 OA
BRANCH   4   6
ATOM      6  C   UNL A   1      30.429  25.966  24.789  1.00  0.00     0.136 C 
ATOM      7  C   UNL A   1      30.690  24.804  23.761  1.00  0.00     0.047 C 
BRANCH   6   8
ATOM      8  C   UNL A   1      29.677  27.043  23.975  1.00  0.00     0.037 C 
ATOM      9  C   UNL A   1      28.175  26.704  23.875  1.00  0.00     0.007 C 
ENDBRANCH   6   8
BRANCH   6  10
ATOM     10  N   UNL A   1      29.687  25.260  25.761  1.00  0.00    -0.322 N 
ATOM     11  C   UNL A   1      30.284  24.209  26.353  1.00  0.00     0.320 C 
ATOM     12  H   UNL A   1      28.769  25.526  25.998  1.00  0.00     0.166 HD
ATOM     13  O   UNL A   1      29.629  23.678  27.254  1.00  0.00    -0.248 OA
ATOM     14  N   UNL A   1      31.537  23.719  26.005  1.00  0.00    -0.307 N 
ATOM     15  H   UNL A   1      31.499  22.799  26.354  1.00  0.00     0.171 HD
BRANCH  14  16
ATOM     16  C   UNL A   1      32.870  23.765  25.431  1.00  0.00     0.061 A 
ATOM     17  C   UNL A   1      33.991  24.528  25.739  1.00  0.00     0.029 A 
ATOM     18  C   UNL A   1      33.204  22.701  24.574  1.00  0.00     0.137 A 
ATOM     19  C   UNL A   1      35.257  24.306  25.164  1.00  0.00     0.022 A 
ATOM     20  N   UNL A   1      34.409  22.431  23.997  1.00  0.00    -0.263 NA
ATOM     21  C   UNL A   1      35.413  23.266  24.282  1.00  0.00     0.111 A 
ENDBRANCH  14  16
ENDBRANCH   6  10
ENDBRANCH   4   6
ENDBRANCH   3   4
ENDBRANCH   2   3
ENDBRANCH   1   2
BRANCH   1  22
ATOM     22  O   UNL A   1      33.227  30.733  27.464  1.00  0.00    -0.458 OA
BRANCH  22  23
ATOM     23  C   UNL A   1      34.170  31.714  27.772  1.00  0.00     0.338 C 
ATOM     24  O   UNL A   1      33.931  32.919  27.782  1.00  0.00    -0.246 OA
BRANCH  23  25
ATOM     25  C   UNL A   1      35.563  31.120  28.164  1.00  0.00     0.060 A 
ATOM     26  C   UNL A   1      35.781  29.725  28.275  1.00  0.00     0.016 A 
ATOM     27  C   UNL A   1      36.684  31.907  28.434  1.00  0.00     0.016 A 
ATOM     28  C   UNL A   1      37.041  29.120  28.451  1.00  0.00     0.010 A 
ATOM     29  C   UNL A   1      37.948  31.306  28.746  1.00  0.00     0.010 A 
ATOM     30  C   UNL A   1      38.144  29.902  28.757  1.00  0.00    -0.014 A 
BRANCH  30  31
ATOM     31  C   UNL A   1      39.280  29.232  29.489  1.00  0.00     0.031 A 
ATOM     32  C   UNL A   1      39.393  29.544  30.969  1.00  0.00     0.074 A 
ATOM     33  C   UNL A   1      40.099  28.279  28.984  1.00  0.00     0.049 A 
ATOM     34  N   UNL A   1      40.311  29.208  31.837  1.00  0.00    -0.248 NA
ATOM     35  C   UNL A   1      38.299  30.352  31.537  1.00  0.00     0.031 C 
ATOM     36  C   UNL A   1      40.042  27.713  27.638  1.00  0.00     0.029 A 
ATOM     37  N   UNL A   1      41.156  27.606  29.573  1.00  0.00    -0.354 N 
ATOM     38  C   UNL A   1      39.938  29.819  33.031  1.00  0.00     0.074 A 
ATOM     39  C   UNL A   1      38.716  30.544  32.776  1.00  0.00     0.031 C 
ATOM     40  C   UNL A   1      41.024  26.798  27.500  1.00  0.00     0.029 A 
ATOM     41  C   UNL A   1      41.817  26.737  28.729  1.00  0.00     0.049 A 
ATOM     42  H   UNL A   1      41.414  27.737  30.514  1.00  0.00     0.167 HD
ATOM     43  C   UNL A   1      40.551  29.793  34.239  1.00  0.00     0.031 A 
ATOM     44  C   UNL A   1      42.942  26.003  28.911  1.00  0.00     0.031 A 
ATOM     45  C   UNL A   1      41.748  29.051  34.524  1.00  0.00     0.049 A 
ATOM     46  C   UNL A   1      43.672  26.059  30.239  1.00  0.00     0.074 A 
ATOM     47  C   UNL A   1      42.447  28.975  35.716  1.00  0.00     0.029 A 
ATOM     48  N   UNL A   1      42.418  28.249  33.615  1.00  0.00    -0.354 N 
ATOM     49  N   UNL A   1      43.349  26.702  31.336  1.00  0.00    -0.248 NA
ATOM     50  C   UNL A   1      44.921  25.285  30.351  1.00  0.00     0.031 C 
ATOM     51  C   UNL A   1      43.574  28.175  35.511  1.00  0.00     0.029 A 
ATOM     52  C   UNL A   1      43.533  27.689  34.214  1.00  0.00     0.049 A 
ATOM     53  H   UNL A   1      42.141  28.100  32.682  1.00  0.00     0.167 HD
ATOM     54  C   UNL A   1      44.327  26.374  32.275  1.00  0.00     0.074 A 
ATOM     55  C   UNL A   1      45.249  25.471  31.622  1.00  0.00     0.031 C 
ATOM     56  C   UNL A   1      44.442  26.777  33.566  1.00  0.00     0.031 A 
BRANCH  43  57
ATOM     57  C   UNL A   1      39.971  30.663  35.324  1.00  0.00    -0.014 A 
ATOM     58  C   UNL A   1      38.699  30.426  35.873  1.00  0.00     0.010 A 
ATOM     59  C   UNL A   1      40.731  31.747  35.803  1.00  0.00     0.010 A 
ATOM     60  C   UNL A   1      38.178  31.285  36.845  1.00  0.00     0.020 A 
ATOM     61  C   UNL A   1      40.230  32.585  36.801  1.00  0.00     0.020 A 
ATOM     62  C   UNL A   1      38.947  32.359  37.302  1.00  0.00     0.054 A 
BRANCH  62  63
ATOM     63  S   UNL A   1      38.258  33.445  38.580  1.00  0.00     0.124 S 
ATOM     64  O   UNL A   1      36.872  32.990  38.648  1.00  0.00    -0.237 OA
ATOM     65  O   UNL A   1      39.080  33.128  39.745  1.00  0.00    -0.237 OA
ATOM     66  O   UNL A   1      38.446  34.788  38.035  1.00  0.00    -0.744 OA
ENDBRANCH  62  63
ENDBRANCH  43  57
BRANCH  44  67
ATOM     67  C   UNL A   1      43.502  25.166  27.800  1.00  0.00    -0.014 A 
ATOM     68  C   UNL A   1      44.274  25.742  26.772  1.00  0.00     0.010 A 
ATOM     69  C   UNL A   1      43.218  23.789  27.733  1.00  0.00     0.010 A 
ATOM     70  C   UNL A   1      44.740  24.965  25.702  1.00  0.00     0.020 A 
ATOM     71  C   UNL A   1      43.708  23.002  26.682  1.00  0.00     0.020 A 
ATOM     72  C   UNL A   1      44.460  23.596  25.668  1.00  0.00     0.054 A 
BRANCH  72  73
ATOM     73  S   UNL A   1      45.127  22.595  24.308  1.00  0.00     0.124 S 
ATOM     74  O   UNL A   1      44.007  22.557  23.375  1.00  0.00    -0.237 OA
ATOM     75  O   UNL A   1      46.283  23.379  23.879  1.00  0.00    -0.237 OA
ATOM     76  O   UNL A   1      45.453  21.322  24.948  1.00  0.00    -0.744 OA
ENDBRANCH  72  73
ENDBRANCH  44  67
BRANCH  56  77
ATOM     77  C   UNL A   1      45.556  26.189  34.398  1.00  0.00    -0.014 A 
ATOM     78  C   UNL A   1      45.405  24.985  35.107  1.00  0.00     0.010 A 
ATOM     79  C   UNL A   1      46.803  26.843  34.428  1.00  0.00     0.010 A 
ATOM     80  C   UNL A   1      46.461  24.474  35.870  1.00  0.00     0.020 A 
ATOM     81  C   UNL A   1      47.872  26.320  35.161  1.00  0.00     0.020 A 
ATOM     82  C   UNL A   1      47.687  25.148  35.896  1.00  0.00     0.054 A 
BRANCH  82  83
ATOM     83  S   UNL A   1      49.044  24.462  36.885  1.00  0.00     0.124 S 
ATOM     84  O   UNL A   1      48.401  23.327  37.540  1.00  0.00    -0.237 OA
ATOM     85  O   UNL A   1      50.040  24.121  35.871  1.00  0.00    -0.237 OA
ATOM     86  O   UNL A   1      49.419  25.562  37.772  1.00  0.00    -0.744 OA
ENDBRANCH  82  83
ENDBRANCH  56  77
ENDBRANCH  30  31
ENDBRANCH  23  25
ENDBRANCH  22  23
ENDBRANCH   1  22
TORSDOF 17
ENDMDL
MODEL 2
REMARK VINA RESULT:     -10.6      1.455      3.073
REMARK SMILES CC[C@](C)(NC(=O)Nc1cccnc1)C(=O)OCCOC(=O)c1ccc(-c2c3nc(c(-c4ccc(S(=O)(=O)[O-])cc4)c4ccc([nH]4)c(-c4ccc(S(=O)(=O)[O-])cc4)c4nc(c(-c5ccc(S(=O)(=O)[O-])cc5)c5ccc2[nH]5)C=C4)C=C3)cc1
REMARK SMILES IDX 19 1 18 2 17 3 15 4 16 5 3 6 4 7 2 8 1 9 5 10 6 11 7 13 8 14
REMARK SMILES IDX 9 16 10 17 14 18 11 19 13 20 12 21 20 22 21 23 22 24 23 25
REMARK SMILES IDX 24 26 82 27 25 28 81 29 26 30 27 31 28 32 75 33 29 34 80 35
REMARK SMILES IDX 74 36 76 37 30 38 79 39 73 40 72 41 31 43 61 44 42 45 60 46
REMARK SMILES IDX 43 47 46 48 59 49 77 50 44 51 45 52 58 54 78 55 47 56 32 57
REMARK SMILES IDX 33 58 41 59 34 60 40 61 35 62 36 63 37 64 38 65 39 66 62 67
REMARK SMILES IDX 63 68 71 69 64 70 70 71 65 72 66 73 67 74 68 75 69 76 48 77
REMARK SMILES IDX 49 78 57 79 50 80 56 81 51 82 52 83 53 84 54 85 55 86
REMARK H PARENT 5 12 8 15 76 42 46 53
REMARK Flexibility Score: inf
ROOT
ATOM      1  C   UNL A   1      32.148  30.599  26.835  1.00  0.00     0.275 C 
ENDROOT
BRANCH   1   2
ATOM      2  C   UNL A   1      31.842  28.955  26.989  1.00  0.00     0.274 C 
BRANCH   2   3
ATOM      3  O   UNL A   1      31.065  28.238  25.909  1.00  0.00    -0.460 OA
BRANCH   3   4
ATOM      4  C   UNL A   1      31.497  27.303  24.931  1.00  0.00     0.331 C 
ATOM      5  O   UNL A   1      32.610  27.350  24.412  1.00  0.00    -0.249 OA
BRANCH   4   6
ATOM      6  C   UNL A   1      30.325  26.219  24.468  1.00  0.00     0.136 C 
ATOM      7  C   UNL A   1      28.841  26.388  23.974  1.00  0.00     0.047 C 
BRANCH   6   8
ATOM      8  C   UNL A   1      30.249  25.135  25.567  1.00  0.00     0.037 C 
ATOM      9  C   UNL A   1      31.545  25.113  26.403  1.00  0.00     0.007 C 
ENDBRANCH   6   8
BRANCH   6  10
ATOM     10  N   UNL A   1      30.940  25.857  23.249  1.00  0.00    -0.322 N 
ATOM     11  C   UNL A   1      30.858  26.732  22.230  1.00  0.00     0.320 C 
ATOM     12  H   UNL A   1      31.411  24.998  23.148  1.00  0.00     0.166 HD
ATOM     13  O   UNL A   1      31.482  26.409  21.215  1.00  0.00    -0.248 OA
ATOM     14  N   UNL A   1      30.134  27.917  22.269  1.00  0.00    -0.307 N 
ATOM     15  H   UNL A   1      30.001  28.105  21.311  1.00  0.00     0.171 HD
BRANCH  14  16
ATOM     16  C   UNL A   1      29.458  29.042  22.890  1.00  0.00     0.061 A 
ATOM     17  C   UNL A   1      29.938  30.184  23.521  1.00  0.00     0.029 A 
ATOM     18  C   UNL A   1      28.084  29.160  22.613  1.00  0.00     0.137 A 
ATOM     19  C   UNL A   1      29.111  31.252  23.919  1.00  0.00     0.022 A 
ATOM     20  N   UNL A   1      27.238  30.170  22.962  1.00  0.00    -0.263 NA
ATOM     21  C   UNL A   1      27.768  31.190  23.642  1.00  0.00     0.111 A 
ENDBRANCH  14  16
ENDBRANCH   6  10
ENDBRANCH   4   6
ENDBRANCH   3   4
ENDBRANCH   2   3
ENDBRANCH   1   2
BRANCH   1  22
ATOM     22  O   UNL A   1      33.573  31.108  26.711  1.00  0.00    -0.458 OA
BRANCH  22  23
ATOM     23  C   UNL A   1      34.227  31.860  27.688  1.00  0.00     0.338 C 
ATOM     24  O   UNL A   1      33.757  32.869  28.208  1.00  0.00    -0.246 OA
BRANCH  23  25
ATOM     25  C   UNL A   1      35.607  31.254  28.103  1.00  0.00     0.060 A 
ATOM     26  C   UNL A   1      35.802  29.859  28.249  1.00  0.00     0.016 A 
ATOM     27  C   UNL A   1      36.739  32.029  28.361  1.00  0.00     0.016 A 
ATOM     28  C   UNL A   1      37.052  29.238  28.448  1.00  0.00     0.010 A 
ATOM     29  C   UNL A   1      37.992  31.416  28.696  1.00  0.00     0.010 A 
ATOM     30  C   UNL A   1      38.165  30.009  28.743  1.00  0.00    -0.014 A 
BRANCH  30  31
ATOM     31  C   UNL A   1      39.285  29.339  29.498  1.00  0.00     0.031 A 
ATOM     32  C   UNL A   1      39.360  29.641  30.982  1.00  0.00     0.074 A 
ATOM     33  C   UNL A   1      40.122  28.395  29.007  1.00  0.00     0.049 A 
ATOM     34  N   UNL A   1      40.257  29.303  31.871  1.00  0.00    -0.248 NA
ATOM     35  C   UNL A   1      38.248  30.440  31.529  1.00  0.00     0.031 C 
ATOM     36  C   UNL A   1      40.101  27.838  27.656  1.00  0.00     0.029 A 
ATOM     37  N   UNL A   1      41.167  27.722  29.618  1.00  0.00    -0.354 N 
ATOM     38  C   UNL A   1      39.852  29.904  33.060  1.00  0.00     0.074 A 
ATOM     39  C   UNL A   1      38.632  30.625  32.779  1.00  0.00     0.031 C 
ATOM     40  C   UNL A   1      41.091  26.929  27.536  1.00  0.00     0.029 A 
ATOM     41  C   UNL A   1      41.853  26.862  28.784  1.00  0.00     0.049 A 
ATOM     42  H   UNL A   1      41.401  27.847  30.566  1.00  0.00     0.167 HD
ATOM     43  C   UNL A   1      40.434  29.871  34.282  1.00  0.00     0.031 A 
ATOM     44  C   UNL A   1      42.976  26.132  28.989  1.00  0.00     0.031 A 
ATOM     45  C   UNL A   1      41.627  29.133  34.592  1.00  0.00     0.049 A 
ATOM     46  C   UNL A   1      43.673  26.182  30.335  1.00  0.00     0.074 A 
ATOM     47  C   UNL A   1      42.297  29.052  35.801  1.00  0.00     0.029 A 
ATOM     48  N   UNL A   1      42.324  28.341  33.694  1.00  0.00    -0.354 N 
ATOM     49  N   UNL A   1      43.319  26.815  31.428  1.00  0.00    -0.248 NA
ATOM     50  C   UNL A   1      44.922  25.413  30.472  1.00  0.00     0.031 C 
ATOM     51  C   UNL A   1      43.432  28.259  35.618  1.00  0.00     0.029 A 
ATOM     52  C   UNL A   1      43.426  27.782  34.317  1.00  0.00     0.049 A 
ATOM     53  H   UNL A   1      42.071  28.197  32.753  1.00  0.00     0.167 HD
ATOM     54  C   UNL A   1      44.275  26.485  32.389  1.00  0.00     0.074 A 
ATOM     55  C   UNL A   1      45.217  25.591  31.753  1.00  0.00     0.031 C 
ATOM     56  C   UNL A   1      44.355  26.880  33.686  1.00  0.00     0.031 A 
BRANCH  43  57
ATOM     57  C   UNL A   1      39.823  30.731  35.359  1.00  0.00    -0.014 A 
ATOM     58  C   UNL A   1      40.420  31.930  35.787  1.00  0.00     0.010 A 
ATOM     59  C   UNL A   1      38.614  30.320  35.951  1.00  0.00     0.010 A 
ATOM     60  C   UNL A   1      39.846  32.674  36.821  1.00  0.00     0.020 A 
ATOM     61  C   UNL A   1      38.017  31.081  36.958  1.00  0.00     0.020 A 
ATOM     62  C   UNL A   1      38.647  32.244  37.400  1.00  0.00     0.054 A 
BRANCH  62  63
ATOM     63  S   UNL A   1      37.910  33.240  38.724  1.00  0.00     0.124 S 
ATOM     64  O   UNL A   1      38.453  34.567  38.441  1.00  0.00    -0.237 OA
ATOM     65  O   UNL A   1      36.479  33.084  38.481  1.00  0.00    -0.237 OA
ATOM     66  O   UNL A   1      38.405  32.614  39.948  1.00  0.00    -0.744 OA
ENDBRANCH  62  63
ENDBRANCH  43  57
BRANCH  44  67
ATOM     67  C   UNL A   1      43.569  25.306  27.887  1.00  0.00    -0.014 A 
ATOM     68  C   UNL A   1      44.447  25.874  26.942  1.00  0.00     0.010 A 
ATOM     69  C   UNL A   1      43.211  23.953  27.740  1.00  0.00     0.010 A 
ATOM     70  C   UNL A   1      44.945  25.111  25.877  1.00  0.00     0.020 A 
ATOM     71  C   UNL A   1      43.731  23.178  26.694  1.00  0.00     0.020 A 
ATOM     72  C   UNL A   1      44.590  23.764  25.764  1.00  0.00     0.054 A 
BRANCH  72  73
ATOM     73  S   UNL A   1      45.298  22.777  24.413  1.00  0.00     0.124 S 
ATOM     74  O   UNL A   1      45.836  21.623  25.125  1.00  0.00    -0.237 OA
ATOM     75  O   UNL A   1      44.132  22.516  23.571  1.00  0.00    -0.237 OA
ATOM     76  O   UNL A   1      46.294  23.669  23.823  1.00  0.00    -0.744 OA
ENDBRANCH  72  73
ENDBRANCH  44  67
BRANCH  56  77
ATOM     77  C   UNL A   1      45.452  26.291  34.541  1.00  0.00    -0.014 A 
ATOM     78  C   UNL A   1      46.700  26.920  34.694  1.00  0.00     0.010 A 
ATOM     79  C   UNL A   1      45.201  25.097  35.245  1.00  0.00     0.010 A 
ATOM     80  C   UNL A   1      47.692  26.340  35.492  1.00  0.00     0.020 A 
ATOM     81  C   UNL A   1      46.177  24.532  36.070  1.00  0.00     0.020 A 
ATOM     82  C   UNL A   1      47.426  25.146  36.172  1.00  0.00     0.054 A 
BRANCH  82  83
ATOM     83  S   UNL A   1      48.725  24.418  37.208  1.00  0.00     0.124 S 
ATOM     84  O   UNL A   1      49.739  25.467  37.207  1.00  0.00    -0.237 OA
ATOM     85  O   UNL A   1      48.040  24.207  38.482  1.00  0.00    -0.237 OA
ATOM     86  O   UNL A   1      49.093  23.195  36.496  1.00  0.00    -0.744 OA
ENDBRANCH  82  83
ENDBRANCH  56  77
ENDBRANCH  30  31
ENDBRANCH  23  25
ENDBRANCH  22  23
ENDBRANCH   1  22
TORSDOF 17
ENDMDL
MODEL 3
REMARK VINA RESULT:     -10.4      3.704      4.336
REMARK SMILES CC[C@](C)(NC(=O)Nc1cccnc1)C(=O)OCCOC(=O)c1ccc(-c2c3nc(c(-c4ccc(S(=O)(=O)[O-])cc4)c4ccc([nH]4)c(-c4ccc(S(=O)(=O)[O-])cc4)c4nc(c(-c5ccc(S(=O)(=O)[O-])cc5)c5ccc2[nH]5)C=C4)C=C3)cc1
REMARK SMILES IDX 19 1 18 2 17 3 15 4 16 5 3 6 4 7 2 8 1 9 5 10 6 11 7 13 8 14
REMARK SMILES IDX 9 16 10 17 14 18 11 19 13 20 12 21 20 22 21 23 22 24 23 25
REMARK SMILES IDX 24 26 82 27 25 28 81 29 26 30 27 31 28 32 75 33 29 34 80 35
REMARK SMILES IDX 74 36 76 37 30 38 79 39 73 40 72 41 31 43 61 44 42 45 60 46
REMARK SMILES IDX 43 47 46 48 59 49 77 50 44 51 45 52 58 54 78 55 47 56 32 57
REMARK SMILES IDX 33 58 41 59 34 60 40 61 35 62 36 63 37 64 38 65 39 66 62 67
REMARK SMILES IDX 63 68 71 69 64 70 70 71 65 72 66 73 67 74 68 75 69 76 48 77
REMARK SMILES IDX 49 78 57 79 50 80 56 81 51 82 52 83 53 84 54 85 55 86
REMARK H PARENT 5 12 8 15 76 42 46 53
REMARK Flexibility Score: inf
ROOT
ATOM      1  C   UNL A   1      34.158  27.906  26.470  1.00  0.00     0.275 C 
ENDROOT
BRANCH   1   2
ATOM      2  C   UNL A   1      33.481  27.312  25.053  1.00  0.00     0.274 C 
BRANCH   2   3
ATOM      3  O   UNL A   1      32.859  25.935  25.045  1.00  0.00    -0.460 OA
BRANCH   3   4
ATOM      4  C   UNL A   1      31.701  25.444  25.705  1.00  0.00     0.331 C 
ATOM      5  O   UNL A   1      31.457  25.684  26.885  1.00  0.00    -0.249 OA
BRANCH   4   6
ATOM      6  C   UNL A   1      30.774  24.425  24.775  1.00  0.00     0.136 C 
ATOM      7  C   UNL A   1      31.042  23.012  24.137  1.00  0.00     0.047 C 
BRANCH   6   8
ATOM      8  C   UNL A   1      30.190  25.269  23.620  1.00  0.00     0.037 C 
ATOM      9  C   UNL A   1      29.253  26.367  24.165  1.00  0.00     0.007 C 
ENDBRANCH   6   8
BRANCH   6  10
ATOM     10  N   UNL A   1      29.889  24.052  25.811  1.00  0.00    -0.322 N 
ATOM     11  C   UNL A   1      30.344  23.179  26.729  1.00  0.00     0.320 C 
ATOM     12  H   UNL A   1      28.976  24.417  25.860  1.00  0.00     0.166 HD
ATOM     13  O   UNL A   1      29.566  22.952  27.660  1.00  0.00    -0.248 OA
ATOM     14  N   UNL A   1      31.583  22.554  26.672  1.00  0.00    -0.307 N 
ATOM     15  H   UNL A   1      31.440  21.769  27.250  1.00  0.00     0.171 HD
BRANCH  14  16
ATOM     16  C   UNL A   1      32.964  22.375  26.263  1.00  0.00     0.061 A 
ATOM     17  C   UNL A   1      34.113  23.119  26.511  1.00  0.00     0.029 A 
ATOM     18  C   UNL A   1      33.286  21.115  25.727  1.00  0.00     0.137 A 
ATOM     19  C   UNL A   1      35.405  22.685  26.155  1.00  0.00     0.022 A 
ATOM     20  N   UNL A   1      34.513  20.638  25.374  1.00  0.00    -0.263 NA
ATOM     21  C   UNL A   1      35.553  21.453  25.569  1.00  0.00     0.111 A 
ENDBRANCH  14  16
ENDBRANCH   6  10
ENDBRANCH   4   6
ENDBRANCH   3   4
ENDBRANCH   2   3
ENDBRANCH   1   2
BRANCH   1  22
ATOM     22  O   UNL A   1      33.453  28.992  27.263  1.00  0.00    -0.458 OA
BRANCH  22  23
ATOM     23  C   UNL A   1      34.049  30.190  27.657  1.00  0.00     0.338 C 
ATOM     24  O   UNL A   1      33.466  31.271  27.689  1.00  0.00    -0.246 OA
BRANCH  23  25
ATOM     25  C   UNL A   1      35.533  30.012  28.117  1.00  0.00     0.060 A 
ATOM     26  C   UNL A   1      36.622  30.220  27.236  1.00  0.00     0.016 A 
ATOM     27  C   UNL A   1      35.896  29.636  29.412  1.00  0.00     0.016 A 
ATOM     28  C   UNL A   1      37.977  30.247  27.625  1.00  0.00     0.010 A 
ATOM     29  C   UNL A   1      37.275  29.530  29.789  1.00  0.00     0.010 A 
ATOM     30  C   UNL A   1      38.336  29.836  28.899  1.00  0.00    -0.014 A 
BRANCH  30  31
ATOM     31  C   UNL A   1      39.744  29.329  29.087  1.00  0.00     0.031 A 
ATOM     32  C   UNL A   1      40.704  30.276  29.781  1.00  0.00     0.074 A 
ATOM     33  C   UNL A   1      40.177  28.072  28.831  1.00  0.00     0.049 A 
ATOM     34  N   UNL A   1      41.990  30.172  29.994  1.00  0.00    -0.248 NA
ATOM     35  C   UNL A   1      40.109  31.517  30.308  1.00  0.00     0.031 C 
ATOM     36  C   UNL A   1      39.368  26.963  28.328  1.00  0.00     0.029 A 
ATOM     37  N   UNL A   1      41.436  27.514  28.975  1.00  0.00    -0.354 N 
ATOM     38  C   UNL A   1      42.364  31.359  30.617  1.00  0.00     0.074 A 
ATOM     39  C   UNL A   1      41.173  32.166  30.747  1.00  0.00     0.031 C 
ATOM     40  C   UNL A   1      40.150  25.872  28.191  1.00  0.00     0.029 A 
ATOM     41  C   UNL A   1      41.530  26.204  28.550  1.00  0.00     0.049 A 
ATOM     42  H   UNL A   1      42.200  28.010  29.350  1.00  0.00     0.167 HD
ATOM     43  C   UNL A   1      43.585  31.759  31.046  1.00  0.00     0.031 A 
ATOM     44  C   UNL A   1      42.599  25.380  28.436  1.00  0.00     0.031 A 
ATOM     45  C   UNL A   1      44.775  30.959  30.959  1.00  0.00     0.049 A 
ATOM     46  C   UNL A   1      43.978  25.875  28.828  1.00  0.00     0.074 A 
ATOM     47  C   UNL A   1      46.060  31.286  31.355  1.00  0.00     0.029 A 
ATOM     48  N   UNL A   1      44.829  29.671  30.452  1.00  0.00    -0.354 N 
ATOM     49  N   UNL A   1      44.328  27.029  29.346  1.00  0.00    -0.248 NA
ATOM     50  C   UNL A   1      45.106  24.951  28.622  1.00  0.00     0.031 C 
ATOM     51  C   UNL A   1      46.903  30.219  31.033  1.00  0.00     0.029 A 
ATOM     52  C   UNL A   1      46.128  29.197  30.508  1.00  0.00     0.049 A 
ATOM     53  H   UNL A   1      44.057  29.168  30.103  1.00  0.00     0.167 HD
ATOM     54  C   UNL A   1      45.703  26.950  29.566  1.00  0.00     0.074 A 
ATOM     55  C   UNL A   1      46.121  25.634  29.133  1.00  0.00     0.031 C 
ATOM     56  C   UNL A   1      46.540  27.881  30.091  1.00  0.00     0.031 A 
BRANCH  43  57
ATOM     57  C   UNL A   1      43.703  33.165  31.575  1.00  0.00    -0.014 A 
ATOM     58  C   UNL A   1      44.003  34.255  30.741  1.00  0.00     0.010 A 
ATOM     59  C   UNL A   1      43.503  33.390  32.950  1.00  0.00     0.010 A 
ATOM     60  C   UNL A   1      44.150  35.537  31.279  1.00  0.00     0.020 A 
ATOM     61  C   UNL A   1      43.610  34.676  33.486  1.00  0.00     0.020 A 
ATOM     62  C   UNL A   1      43.953  35.738  32.649  1.00  0.00     0.054 A 
BRANCH  62  63
ATOM     63  S   UNL A   1      44.126  37.414  33.319  1.00  0.00     0.124 S 
ATOM     64  O   UNL A   1      44.490  38.179  32.128  1.00  0.00    -0.237 OA
ATOM     65  O   UNL A   1      42.793  37.683  33.853  1.00  0.00    -0.237 OA
ATOM     66  O   UNL A   1      45.180  37.282  34.321  1.00  0.00    -0.744 OA
ENDBRANCH  62  63
ENDBRANCH  43  57
BRANCH  44  67
ATOM     67  C   UNL A   1      42.448  23.995  27.882  1.00  0.00    -0.014 A 
ATOM     68  C   UNL A   1      42.730  23.715  26.530  1.00  0.00     0.010 A 
ATOM     69  C   UNL A   1      41.962  22.953  28.694  1.00  0.00     0.010 A 
ATOM     70  C   UNL A   1      42.523  22.432  26.004  1.00  0.00     0.020 A 
ATOM     71  C   UNL A   1      41.783  21.661  28.181  1.00  0.00     0.020 A 
ATOM     72  C   UNL A   1      42.058  21.410  26.836  1.00  0.00     0.054 A 
BRANCH  72  73
ATOM     73  S   UNL A   1      41.859  19.740  26.151  1.00  0.00     0.124 S 
ATOM     74  O   UNL A   1      42.751  19.772  24.997  1.00  0.00    -0.237 OA
ATOM     75  O   UNL A   1      42.289  18.892  27.261  1.00  0.00    -0.237 OA
ATOM     76  O   UNL A   1      40.433  19.666  25.839  1.00  0.00    -0.744 OA
ENDBRANCH  72  73
ENDBRANCH  44  67
BRANCH  56  77
ATOM     77  C   UNL A   1      47.984  27.496  30.308  1.00  0.00    -0.014 A 
ATOM     78  C   UNL A   1      48.383  26.653  31.360  1.00  0.00     0.010 A 
ATOM     79  C   UNL A   1      48.957  27.957  29.401  1.00  0.00     0.010 A 
ATOM     80  C   UNL A   1      49.731  26.323  31.531  1.00  0.00     0.020 A 
ATOM     81  C   UNL A   1      50.301  27.603  29.548  1.00  0.00     0.020 A 
ATOM     82  C   UNL A   1      50.684  26.804  30.626  1.00  0.00     0.054 A 
BRANCH  82  83
ATOM     83  S   UNL A   1      52.425  26.355  30.862  1.00  0.00     0.124 S 
ATOM     84  O   UNL A   1      52.871  26.133  29.490  1.00  0.00    -0.237 OA
ATOM     85  O   UNL A   1      52.976  27.537  31.520  1.00  0.00    -0.237 OA
ATOM     86  O   UNL A   1      52.364  25.156  31.698  1.00  0.00    -0.744 OA
ENDBRANCH  82  83
ENDBRANCH  56  77
ENDBRANCH  30  31
ENDBRANCH  23  25
ENDBRANCH  22  23
ENDBRANCH   1  22
TORSDOF 17
ENDMDL
