MODEL 1
REMARK VINA RESULT:     -12.5      0.000      0.000
REMARK SMILES O=C(OCCOC(=O)[C@H]1[C@@H]2C[C@H]3C[C@@H](C2)C[C@]1(n1ncc(N2CCN(c4ccc(F)cc4)CC2)c(Cl)c1=O)C3)c1ccc(-c2c3nc(c(-c4ccc(S(=O)(=O)[O-])cc4)c4ccc([nH]4)c(-c4ccc(S(=O)(=O)[O-])cc4)c4nc(c(-c5ccc(S(=O)(=O)[O-])cc5)c5ccc2[nH]5)C=C4)C=C3)cc1
REMARK SMILES IDX 4 1 3 2 2 3 1 4 40 5 41 6 99 7 42 8 98 9 43 10 44 11 45 12
REMARK SMILES IDX 92 13 46 14 97 15 91 16 93 17 47 18 96 19 90 20 89 21 48 23
REMARK SMILES IDX 78 24 59 25 77 26 60 27 63 28 76 29 94 30 61 31 62 32 75 34
REMARK SMILES IDX 95 35 64 36 49 37 50 38 58 39 51 40 57 41 52 42 53 43 54 44
REMARK SMILES IDX 55 45 56 46 79 47 80 48 88 49 81 50 87 51 82 52 83 53 84 54
REMARK SMILES IDX 85 55 86 56 65 57 66 58 74 59 67 60 73 61 68 62 69 63 70 64
REMARK SMILES IDX 71 65 72 66 5 67 6 68 7 69 8 70 9 71 10 72 17 73 15 74 11 75
REMARK SMILES IDX 39 76 16 77 14 78 12 79 13 80 18 81 19 82 37 83 20 84 35 85
REMARK SMILES IDX 38 86 21 87 36 88 22 89 23 90 34 91 24 92 33 93 25 94 26 95
REMARK SMILES IDX 27 96 32 97 28 98 31 99 29 100 30 101
REMARK H PARENT 93 22 63 33
REMARK Flexibility Score: inf
ROOT
ATOM      1  C   UNL A   1      44.471  41.626  32.848  1.00  0.00     0.275 C 
ENDROOT
BRANCH   1   2
ATOM      2  O   UNL A   1      45.253  40.401  32.756  1.00  0.00    -0.458 OA
BRANCH   2   3
ATOM      3  C   UNL A   1      45.475  39.484  33.745  1.00  0.00     0.338 C 
ATOM      4  O   UNL A   1      46.377  39.633  34.562  1.00  0.00    -0.246 OA
BRANCH   3   5
ATOM      5  C   UNL A   1      44.881  38.125  33.568  1.00  0.00     0.060 A 
ATOM      6  C   UNL A   1      43.281  38.041  33.884  1.00  0.00     0.016 A 
ATOM      7  C   UNL A   1      45.848  36.827  33.535  1.00  0.00     0.016 A 
ATOM      8  C   UNL A   1      42.519  36.568  34.287  1.00  0.00     0.010 A 
ATOM      9  C   UNL A   1      45.311  35.281  34.014  1.00  0.00     0.010 A 
ATOM     10  C   UNL A   1      43.420  34.846  34.140  1.00  0.00    -0.014 A 
BRANCH  10  11
ATOM     11  C   UNL A   1      42.514  33.392  32.997  1.00  0.00     0.031 A 
ATOM     12  C   UNL A   1      42.907  31.538  33.044  1.00  0.00     0.074 A 
ATOM     13  C   UNL A   1      41.306  33.304  32.240  1.00  0.00     0.049 A 
ATOM     14  N   UNL A   1      42.881  30.640  32.040  1.00  0.00    -0.248 NA
ATOM     15  C   UNL A   1      43.682  30.851  34.186  1.00  0.00     0.031 C 
ATOM     16  C   UNL A   1      40.210  34.325  32.209  1.00  0.00     0.029 A 
ATOM     17  N   UNL A   1      40.740  32.299  31.441  1.00  0.00    -0.354 N 
ATOM     18  C   UNL A   1      43.777  29.565  32.396  1.00  0.00     0.074 A 
ATOM     19  C   UNL A   1      44.191  29.744  33.722  1.00  0.00     0.031 C 
ATOM     20  C   UNL A   1      39.163  33.886  31.507  1.00  0.00     0.029 A 
ATOM     21  C   UNL A   1      39.471  32.584  30.942  1.00  0.00     0.049 A 
ATOM     22  H   UNL A   1      41.207  31.454  31.247  1.00  0.00     0.167 HD
ATOM     23  C   UNL A   1      44.358  28.554  31.694  1.00  0.00     0.031 A 
ATOM     24  C   UNL A   1      38.602  31.930  30.130  1.00  0.00     0.031 A 
ATOM     25  C   UNL A   1      43.761  28.075  30.503  1.00  0.00     0.049 A 
ATOM     26  C   UNL A   1      38.934  30.577  29.555  1.00  0.00     0.074 A 
ATOM     27  C   UNL A   1      44.146  27.053  29.660  1.00  0.00     0.029 A 
ATOM     28  N   UNL A   1      42.518  28.508  30.115  1.00  0.00    -0.354 N 
ATOM     29  N   UNL A   1      40.035  29.880  29.674  1.00  0.00    -0.248 NA
ATOM     30  C   UNL A   1      37.898  29.915  28.740  1.00  0.00     0.031 C 
ATOM     31  C   UNL A   1      43.077  26.820  28.789  1.00  0.00     0.029 A 
ATOM     32  C   UNL A   1      42.042  27.671  29.149  1.00  0.00     0.049 A 
ATOM     33  H   UNL A   1      42.046  29.294  30.476  1.00  0.00     0.167 HD
ATOM     34  C   UNL A   1      39.818  28.704  28.957  1.00  0.00     0.074 A 
ATOM     35  C   UNL A   1      38.474  28.756  28.441  1.00  0.00     0.031 C 
ATOM     36  C   UNL A   1      40.680  27.690  28.718  1.00  0.00     0.031 A 
BRANCH  23  37
ATOM     37  C   UNL A   1      45.704  27.954  32.141  1.00  0.00    -0.014 A 
ATOM     38  C   UNL A   1      45.671  26.660  32.707  1.00  0.00     0.010 A 
ATOM     39  C   UNL A   1      46.971  28.558  31.999  1.00  0.00     0.010 A 
ATOM     40  C   UNL A   1      46.841  25.982  33.080  1.00  0.00     0.020 A 
ATOM     41  C   UNL A   1      48.156  27.858  32.305  1.00  0.00     0.020 A 
ATOM     42  C   UNL A   1      48.081  26.577  32.856  1.00  0.00     0.054 A 
BRANCH  42  43
ATOM     43  S   UNL A   1      49.598  25.643  33.225  1.00  0.00     0.124 S 
ATOM     44  O   UNL A   1      49.115  24.615  34.141  1.00  0.00    -0.237 OA
ATOM     45  O   UNL A   1      50.023  25.169  31.909  1.00  0.00    -0.237 OA
ATOM     46  O   UNL A   1      50.477  26.652  33.812  1.00  0.00    -0.744 OA
ENDBRANCH  42  43
ENDBRANCH  23  37
BRANCH  24  47
ATOM     47  C   UNL A   1      37.267  32.563  29.826  1.00  0.00    -0.014 A 
ATOM     48  C   UNL A   1      37.085  33.346  28.667  1.00  0.00     0.010 A 
ATOM     49  C   UNL A   1      36.192  32.452  30.730  1.00  0.00     0.010 A 
ATOM     50  C   UNL A   1      35.895  34.054  28.457  1.00  0.00     0.020 A 
ATOM     51  C   UNL A   1      34.983  33.124  30.501  1.00  0.00     0.020 A 
ATOM     52  C   UNL A   1      34.856  33.950  29.384  1.00  0.00     0.054 A 
BRANCH  52  53
ATOM     53  S   UNL A   1      33.338  34.915  29.117  1.00  0.00     0.124 S 
ATOM     54  O   UNL A   1      33.874  36.187  28.639  1.00  0.00    -0.237 OA
ATOM     55  O   UNL A   1      32.622  34.122  28.122  1.00  0.00    -0.237 OA
ATOM     56  O   UNL A   1      32.722  34.953  30.441  1.00  0.00    -0.744 OA
ENDBRANCH  52  53
ENDBRANCH  24  47
BRANCH  36  57
ATOM     57  C   UNL A   1      40.262  26.495  27.929  1.00  0.00    -0.014 A 
ATOM     58  C   UNL A   1      39.444  25.533  28.550  1.00  0.00     0.010 A 
ATOM     59  C   UNL A   1      40.973  26.178  26.764  1.00  0.00     0.010 A 
ATOM     60  C   UNL A   1      39.413  24.230  28.058  1.00  0.00     0.020 A 
ATOM     61  C   UNL A   1      40.933  24.878  26.265  1.00  0.00     0.020 A 
ATOM     62  C   UNL A   1      40.187  23.906  26.938  1.00  0.00     0.054 A 
BRANCH  62  63
ATOM     63  S   UNL A   1      40.282  22.173  26.424  1.00  0.00     0.124 S 
ATOM     64  O   UNL A   1      41.466  22.172  25.571  1.00  0.00    -0.237 OA
ATOM     65  O   UNL A   1      40.419  21.471  27.698  1.00  0.00    -0.237 OA
ATOM     66  O   UNL A   1      39.014  21.953  25.731  1.00  0.00    -0.744 OA
ENDBRANCH  62  63
ENDBRANCH  36  57
ENDBRANCH  10  11
ENDBRANCH   3   5
ENDBRANCH   2   3
ENDBRANCH   1   2
BRANCH   1  67
ATOM     67  C   UNL A   1      43.291  41.744  31.854  1.00  0.00     0.274 C 
BRANCH  67  68
ATOM     68  O   UNL A   1      43.669  41.337  30.534  1.00  0.00    -0.462 OA
BRANCH  68  69
ATOM     69  C   UNL A   1      42.858  40.360  30.059  1.00  0.00     0.311 C 
ATOM     70  O   UNL A   1      41.665  40.550  29.808  1.00  0.00    -0.252 OA
BRANCH  69  71
ATOM     71  C   UNL A   1      43.561  38.924  29.711  1.00  0.00     0.130 C 
ATOM     72  C   UNL A   1      43.602  36.834  30.547  1.00  0.00     0.006 C 
ATOM     73  C   UNL A   1      43.594  39.069  27.852  1.00  0.00     0.081 C 
ATOM     74  C   UNL A   1      42.209  35.807  29.419  1.00  0.00     0.008 C 
ATOM     75  C   UNL A   1      45.269  35.979  29.710  1.00  0.00     0.008 C 
ATOM     76  C   UNL A   1      45.258  38.423  27.599  1.00  0.00     0.035 C 
ATOM     77  C   UNL A   1      42.148  38.268  27.323  1.00  0.00     0.035 C 
ATOM     78  C   UNL A   1      42.171  36.605  27.579  1.00  0.00    -0.008 C 
ATOM     79  C   UNL A   1      45.398  36.823  27.863  1.00  0.00    -0.008 C 
ATOM     80  C   UNL A   1      43.773  36.712  26.702  1.00  0.00     0.007 C 
BRANCH  73  81
ATOM     81  N   UNL A   1      43.707  40.253  26.917  1.00  0.00    -0.222 N 
ATOM     82  N   UNL A   1      42.583  40.214  26.116  1.00  0.00    -0.175 NA
ATOM     83  C   UNL A   1      44.408  41.440  26.982  1.00  0.00     0.288 A 
ATOM     84  C   UNL A   1      42.368  41.054  25.186  1.00  0.00     0.161 A 
ATOM     85  C   UNL A   1      44.192  42.363  25.779  1.00  0.00     0.132 A 
ATOM     86  O   UNL A   1      45.146  41.758  27.909  1.00  0.00    -0.266 OA
ATOM     87  C   UNL A   1      43.216  42.188  24.862  1.00  0.00     0.082 A 
ATOM     88  Cl  UNL A   1      45.245  43.740  25.699  1.00  0.00    -0.076 Cl
BRANCH  87  89
ATOM     89  N   UNL A   1      42.862  42.863  23.701  1.00  0.00    -0.365 N 
ATOM     90  C   UNL A   1      43.522  44.124  23.232  1.00  0.00     0.138 C 
ATOM     91  C   UNL A   1      41.652  42.552  22.928  1.00  0.00     0.138 C 
ATOM     92  C   UNL A   1      43.906  44.003  21.738  1.00  0.00     0.138 C 
ATOM     93  C   UNL A   1      42.042  42.344  21.461  1.00  0.00     0.138 C 
ATOM     94  N   UNL A   1      42.747  43.533  20.963  1.00  0.00    -0.368 N 
BRANCH  94  95
ATOM     95  C   UNL A   1      42.431  44.048  19.734  1.00  0.00     0.037 A 
ATOM     96  C   UNL A   1      43.441  44.618  18.944  1.00  0.00     0.029 A 
ATOM     97  C   UNL A   1      41.123  44.041  19.243  1.00  0.00     0.029 A 
ATOM     98  C   UNL A   1      43.151  45.199  17.713  1.00  0.00     0.041 A 
ATOM     99  C   UNL A   1      40.821  44.639  18.018  1.00  0.00     0.041 A 
ATOM    100  C   UNL A   1      41.838  45.218  17.268  1.00  0.00     0.123 A 
ATOM    101  F   UNL A   1      41.547  45.808  16.102  1.00  0.00    -0.207 F 
ENDBRANCH  94  95
ENDBRANCH  87  89
ENDBRANCH  73  81
ENDBRANCH  69  71
ENDBRANCH  68  69
ENDBRANCH  67  68
ENDBRANCH   1  67
TORSDOF 17
ENDMDL
MODEL 2
REMARK VINA RESULT:     -11.8      4.681      6.632
REMARK SMILES O=C(OCCOC(=O)[C@H]1[C@@H]2C[C@H]3C[C@@H](C2)C[C@]1(n1ncc(N2CCN(c4ccc(F)cc4)CC2)c(Cl)c1=O)C3)c1ccc(-c2c3nc(c(-c4ccc(S(=O)(=O)[O-])cc4)c4ccc([nH]4)c(-c4ccc(S(=O)(=O)[O-])cc4)c4nc(c(-c5ccc(S(=O)(=O)[O-])cc5)c5ccc2[nH]5)C=C4)C=C3)cc1
REMARK SMILES IDX 4 1 3 2 2 3 1 4 40 5 41 6 99 7 42 8 98 9 43 10 44 11 45 12
REMARK SMILES IDX 92 13 46 14 97 15 91 16 93 17 47 18 96 19 90 20 89 21 48 23
REMARK SMILES IDX 78 24 59 25 77 26 60 27 63 28 76 29 94 30 61 31 62 32 75 34
REMARK SMILES IDX 95 35 64 36 49 37 50 38 58 39 51 40 57 41 52 42 53 43 54 44
REMARK SMILES IDX 55 45 56 46 79 47 80 48 88 49 81 50 87 51 82 52 83 53 84 54
REMARK SMILES IDX 85 55 86 56 65 57 66 58 74 59 67 60 73 61 68 62 69 63 70 64
REMARK SMILES IDX 71 65 72 66 5 67 6 68 7 69 8 70 9 71 10 72 17 73 15 74 11 75
REMARK SMILES IDX 39 76 16 77 14 78 12 79 13 80 18 81 19 82 37 83 20 84 35 85
REMARK SMILES IDX 38 86 21 87 36 88 22 89 23 90 34 91 24 92 33 93 25 94 26 95
REMARK SMILES IDX 27 96 32 97 28 98 31 99 29 100 30 101
REMARK H PARENT 93 22 63 33
REMARK Flexibility Score: inf
ROOT
ATOM      1  C   UNL A   1      47.472  40.591  28.000  1.00  0.00     0.275 C 
ENDROOT
BRANCH   1   2
ATOM      2  O   UNL A   1      46.724  39.352  27.839  1.00  0.00    -0.458 OA
BRANCH   2   3
ATOM      3  C   UNL A   1      46.546  38.637  26.689  1.00  0.00     0.338 C 
ATOM      4  O   UNL A   1      46.017  39.137  25.702  1.00  0.00    -0.246 OA
BRANCH   3   5
ATOM      5  C   UNL A   1      46.626  37.148  26.785  1.00  0.00     0.060 A 
ATOM      6  C   UNL A   1      46.225  36.544  28.249  1.00  0.00     0.016 A 
ATOM      7  C   UNL A   1      47.480  36.320  25.688  1.00  0.00     0.016 A 
ATOM      8  C   UNL A   1      46.754  35.005  28.763  1.00  0.00     0.010 A 
ATOM      9  C   UNL A   1      48.195  34.813  26.040  1.00  0.00     0.010 A 
ATOM     10  C   UNL A   1      47.635  33.745  27.566  1.00  0.00    -0.014 A 
BRANCH  10  11
ATOM     11  C   UNL A   1      46.815  31.864  27.392  1.00  0.00     0.031 A 
ATOM     12  C   UNL A   1      47.781  30.236  27.297  1.00  0.00     0.074 A 
ATOM     13  C   UNL A   1      45.522  31.297  27.614  1.00  0.00     0.049 A 
ATOM     14  N   UNL A   1      47.483  29.112  26.616  1.00  0.00    -0.248 NA
ATOM     15  C   UNL A   1      49.262  30.089  27.701  1.00  0.00     0.031 C 
ATOM     16  C   UNL A   1      44.350  31.993  28.236  1.00  0.00     0.029 A 
ATOM     17  N   UNL A   1      44.993  30.009  27.447  1.00  0.00    -0.354 N 
ATOM     18  C   UNL A   1      48.722  28.410  26.374  1.00  0.00     0.074 A 
ATOM     19  C   UNL A   1      49.745  29.041  27.094  1.00  0.00     0.031 C 
ATOM     20  C   UNL A   1      43.331  31.151  28.418  1.00  0.00     0.029 A 
ATOM     21  C   UNL A   1      43.679  29.848  27.878  1.00  0.00     0.049 A 
ATOM     22  H   UNL A   1      45.514  29.271  27.054  1.00  0.00     0.167 HD
ATOM     23  C   UNL A   1      49.082  27.402  25.534  1.00  0.00     0.031 A 
ATOM     24  C   UNL A   1      42.798  28.815  27.876  1.00  0.00     0.031 A 
ATOM     25  C   UNL A   1      48.113  26.489  25.055  1.00  0.00     0.049 A 
ATOM     26  C   UNL A   1      43.174  27.467  27.317  1.00  0.00     0.074 A 
ATOM     27  C   UNL A   1      48.252  25.386  24.237  1.00  0.00     0.029 A 
ATOM     28  N   UNL A   1      46.831  26.503  25.543  1.00  0.00    -0.354 N 
ATOM     29  N   UNL A   1      44.287  27.099  26.736  1.00  0.00    -0.248 NA
ATOM     30  C   UNL A   1      42.175  26.387  27.421  1.00  0.00     0.031 C 
ATOM     31  C   UNL A   1      47.044  24.684  24.291  1.00  0.00     0.029 A 
ATOM     32  C   UNL A   1      46.208  25.344  25.180  1.00  0.00     0.049 A 
ATOM     33  H   UNL A   1      46.426  27.230  26.070  1.00  0.00     0.167 HD
ATOM     34  C   UNL A   1      44.121  25.752  26.415  1.00  0.00     0.074 A 
ATOM     35  C   UNL A   1      42.823  25.353  26.898  1.00  0.00     0.031 C 
ATOM     36  C   UNL A   1      44.960  24.934  25.742  1.00  0.00     0.031 A 
BRANCH  23  37
ATOM     37  C   UNL A   1      50.534  27.271  25.035  1.00  0.00    -0.014 A 
ATOM     38  C   UNL A   1      50.890  28.028  23.897  1.00  0.00     0.010 A 
ATOM     39  C   UNL A   1      51.551  26.498  25.633  1.00  0.00     0.010 A 
ATOM     40  C   UNL A   1      52.200  28.049  23.398  1.00  0.00     0.020 A 
ATOM     41  C   UNL A   1      52.885  26.566  25.181  1.00  0.00     0.020 A 
ATOM     42  C   UNL A   1      53.198  27.333  24.057  1.00  0.00     0.054 A 
BRANCH  42  43
ATOM     43  S   UNL A   1      54.918  27.463  23.481  1.00  0.00     0.124 S 
ATOM     44  O   UNL A   1      55.112  28.907  23.405  1.00  0.00    -0.237 OA
ATOM     45  O   UNL A   1      55.672  26.777  24.529  1.00  0.00    -0.237 OA
ATOM     46  O   UNL A   1      54.895  26.759  22.200  1.00  0.00    -0.744 OA
ENDBRANCH  42  43
ENDBRANCH  23  37
BRANCH  24  47
ATOM     47  C   UNL A   1      41.428  29.019  28.473  1.00  0.00    -0.014 A 
ATOM     48  C   UNL A   1      40.308  29.255  27.650  1.00  0.00     0.010 A 
ATOM     49  C   UNL A   1      41.248  29.056  29.870  1.00  0.00     0.010 A 
ATOM     50  C   UNL A   1      39.065  29.590  28.204  1.00  0.00     0.020 A 
ATOM     51  C   UNL A   1      39.995  29.347  30.429  1.00  0.00     0.020 A 
ATOM     52  C   UNL A   1      38.921  29.649  29.591  1.00  0.00     0.054 A 
BRANCH  52  53
ATOM     53  S   UNL A   1      37.314  30.133  30.289  1.00  0.00     0.124 S 
ATOM     54  O   UNL A   1      37.645  31.387  30.960  1.00  0.00    -0.237 OA
ATOM     55  O   UNL A   1      36.471  30.260  29.103  1.00  0.00    -0.237 OA
ATOM     56  O   UNL A   1      36.977  29.020  31.173  1.00  0.00    -0.744 OA
ENDBRANCH  52  53
ENDBRANCH  24  47
BRANCH  36  57
ATOM     57  C   UNL A   1      44.611  23.504  25.499  1.00  0.00    -0.014 A 
ATOM     58  C   UNL A   1      45.161  22.526  26.348  1.00  0.00     0.010 A 
ATOM     59  C   UNL A   1      44.076  23.146  24.255  1.00  0.00     0.010 A 
ATOM     60  C   UNL A   1      45.258  21.207  25.911  1.00  0.00     0.020 A 
ATOM     61  C   UNL A   1      44.162  21.825  23.822  1.00  0.00     0.020 A 
ATOM     62  C   UNL A   1      44.789  20.875  24.635  1.00  0.00     0.054 A 
BRANCH  62  63
ATOM     63  S   UNL A   1      45.090  19.203  24.010  1.00  0.00     0.124 S 
ATOM     64  O   UNL A   1      46.545  19.109  24.078  1.00  0.00    -0.237 OA
ATOM     65  O   UNL A   1      44.357  18.372  24.962  1.00  0.00    -0.237 OA
ATOM     66  O   UNL A   1      44.530  19.237  22.661  1.00  0.00    -0.744 OA
ENDBRANCH  62  63
ENDBRANCH  36  57
ENDBRANCH  10  11
ENDBRANCH   3   5
ENDBRANCH   2   3
ENDBRANCH   1   2
BRANCH   1  67
ATOM     67  C   UNL A   1      48.135  40.799  29.383  1.00  0.00     0.274 C 
BRANCH  67  68
ATOM     68  O   UNL A   1      47.165  40.833  30.435  1.00  0.00    -0.462 OA
BRANCH  68  69
ATOM     69  C   UNL A   1      47.072  42.064  30.994  1.00  0.00     0.311 C 
ATOM     70  O   UNL A   1      47.746  43.023  30.607  1.00  0.00    -0.252 OA
BRANCH  69  71
ATOM     71  C   UNL A   1      45.926  42.267  32.145  1.00  0.00     0.130 C 
ATOM     72  C   UNL A   1      45.766  43.144  34.212  1.00  0.00     0.006 C 
ATOM     73  C   UNL A   1      44.447  42.503  31.032  1.00  0.00     0.081 C 
ATOM     74  C   UNL A   1      45.016  45.044  33.903  1.00  0.00     0.008 C 
ATOM     75  C   UNL A   1      44.050  42.328  34.984  1.00  0.00     0.008 C 
ATOM     76  C   UNL A   1      43.293  41.477  31.962  1.00  0.00     0.035 C 
ATOM     77  C   UNL A   1      44.299  44.223  30.858  1.00  0.00     0.035 C 
ATOM     78  C   UNL A   1      43.841  45.003  32.277  1.00  0.00    -0.008 C 
ATOM     79  C   UNL A   1      42.818  42.125  33.377  1.00  0.00    -0.008 C 
ATOM     80  C   UNL A   1      42.499  43.759  32.269  1.00  0.00     0.007 C 
BRANCH  73  81
ATOM     81  N   UNL A   1      44.104  41.975  29.657  1.00  0.00    -0.222 N 
ATOM     82  N   UNL A   1      44.635  42.879  28.759  1.00  0.00    -0.175 NA
ATOM     83  C   UNL A   1      43.773  40.720  29.185  1.00  0.00     0.288 A 
ATOM     84  C   UNL A   1      44.504  42.760  27.499  1.00  0.00     0.161 A 
ATOM     85  C   UNL A   1      43.521  40.664  27.676  1.00  0.00     0.132 A 
ATOM     86  O   UNL A   1      43.685  39.718  29.888  1.00  0.00    -0.266 OA
ATOM     87  C   UNL A   1      43.843  41.658  26.822  1.00  0.00     0.082 A 
ATOM     88  Cl  UNL A   1      42.857  39.172  27.088  1.00  0.00    -0.076 Cl
BRANCH  87  89
ATOM     89  N   UNL A   1      43.680  41.835  25.454  1.00  0.00    -0.365 N 
ATOM     90  C   UNL A   1      42.445  41.442  24.701  1.00  0.00     0.138 C 
ATOM     91  C   UNL A   1      44.781  42.206  24.554  1.00  0.00     0.138 C 
ATOM     92  C   UNL A   1      41.975  42.608  23.798  1.00  0.00     0.138 C 
ATOM     93  C   UNL A   1      44.351  43.417  23.720  1.00  0.00     0.138 C 
ATOM     94  N   UNL A   1      43.107  43.106  23.001  1.00  0.00    -0.368 N 
BRANCH  94  95
ATOM     95  C   UNL A   1      42.978  43.451  21.682  1.00  0.00     0.037 A 
ATOM     96  C   UNL A   1      44.079  43.984  20.996  1.00  0.00     0.029 A 
ATOM     97  C   UNL A   1      41.769  43.305  20.995  1.00  0.00     0.029 A 
ATOM     98  C   UNL A   1      43.972  44.396  19.670  1.00  0.00     0.041 A 
ATOM     99  C   UNL A   1      41.648  43.734  19.672  1.00  0.00     0.041 A 
ATOM    100  C   UNL A   1      42.749  44.281  19.025  1.00  0.00     0.123 A 
ATOM    101  F   UNL A   1      42.631  44.709  17.762  1.00  0.00    -0.207 F 
ENDBRANCH  94  95
ENDBRANCH  87  89
ENDBRANCH  73  81
ENDBRANCH  69  71
ENDBRANCH  68  69
ENDBRANCH  67  68
ENDBRANCH   1  67
TORSDOF 17
ENDMDL
MODEL 3
REMARK VINA RESULT:     -11.6      1.833      7.695
REMARK SMILES O=C(OCCOC(=O)[C@H]1[C@@H]2C[C@H]3C[C@@H](C2)C[C@]1(n1ncc(N2CCN(c4ccc(F)cc4)CC2)c(Cl)c1=O)C3)c1ccc(-c2c3nc(c(-c4ccc(S(=O)(=O)[O-])cc4)c4ccc([nH]4)c(-c4ccc(S(=O)(=O)[O-])cc4)c4nc(c(-c5ccc(S(=O)(=O)[O-])cc5)c5ccc2[nH]5)C=C4)C=C3)cc1
REMARK SMILES IDX 4 1 3 2 2 3 1 4 40 5 41 6 99 7 42 8 98 9 43 10 44 11 45 12
REMARK SMILES IDX 92 13 46 14 97 15 91 16 93 17 47 18 96 19 90 20 89 21 48 23
REMARK SMILES IDX 78 24 59 25 77 26 60 27 63 28 76 29 94 30 61 31 62 32 75 34
REMARK SMILES IDX 95 35 64 36 49 37 50 38 58 39 51 40 57 41 52 42 53 43 54 44
REMARK SMILES IDX 55 45 56 46 79 47 80 48 88 49 81 50 87 51 82 52 83 53 84 54
REMARK SMILES IDX 85 55 86 56 65 57 66 58 74 59 67 60 73 61 68 62 69 63 70 64
REMARK SMILES IDX 71 65 72 66 5 67 6 68 7 69 8 70 9 71 10 72 17 73 15 74 11 75
REMARK SMILES IDX 39 76 16 77 14 78 12 79 13 80 18 81 19 82 37 83 20 84 35 85
REMARK SMILES IDX 38 86 21 87 36 88 22 89 23 90 34 91 24 92 33 93 25 94 26 95
REMARK SMILES IDX 27 96 32 97 28 98 31 99 29 100 30 101
REMARK H PARENT 93 22 63 33
REMARK Flexibility Score: inf
ROOT
ATOM      1  C   UNL A   1      43.447  41.972  32.577  1.00  0.00     0.275 C 
ENDROOT
BRANCH   1   2
ATOM      2  O   UNL A   1      43.382  40.665  33.217  1.00  0.00    -0.458 OA
BRANCH   2   3
ATOM      3  C   UNL A   1      44.401  39.993  33.831  1.00  0.00     0.338 C 
ATOM      4  O   UNL A   1      45.387  40.583  34.259  1.00  0.00    -0.246 OA
BRANCH   3   5
ATOM      5  C   UNL A   1      44.484  38.518  33.610  1.00  0.00     0.060 A 
ATOM      6  C   UNL A   1      43.065  37.728  33.786  1.00  0.00     0.016 A 
ATOM      7  C   UNL A   1      45.923  37.780  33.669  1.00  0.00     0.016 A 
ATOM      8  C   UNL A   1      43.001  36.057  34.127  1.00  0.00     0.010 A 
ATOM      9  C   UNL A   1      46.087  36.140  34.107  1.00  0.00     0.010 A 
ATOM     10  C   UNL A   1      44.578  34.913  34.068  1.00  0.00    -0.014 A 
BRANCH  10  11
ATOM     11  C   UNL A   1      44.502  33.249  32.858  1.00  0.00     0.031 A 
ATOM     12  C   UNL A   1      43.142  32.853  31.599  1.00  0.00     0.074 A 
ATOM     13  C   UNL A   1      45.446  32.268  32.422  1.00  0.00     0.049 A 
ATOM     14  N   UNL A   1      42.649  31.654  31.233  1.00  0.00    -0.248 NA
ATOM     15  C   UNL A   1      42.130  33.889  31.071  1.00  0.00     0.031 C 
ATOM     16  C   UNL A   1      46.925  32.302  32.660  1.00  0.00     0.029 A 
ATOM     17  N   UNL A   1      45.343  31.122  31.621  1.00  0.00    -0.354 N 
ATOM     18  C   UNL A   1      41.309  31.868  30.737  1.00  0.00     0.074 A 
ATOM     19  C   UNL A   1      41.084  33.247  30.632  1.00  0.00     0.031 C 
ATOM     20  C   UNL A   1      47.538  31.307  32.016  1.00  0.00     0.029 A 
ATOM     21  C   UNL A   1      46.548  30.475  31.356  1.00  0.00     0.049 A 
ATOM     22  H   UNL A   1      44.482  30.798  31.271  1.00  0.00     0.167 HD
ATOM     23  C   UNL A   1      40.254  31.045  30.493  1.00  0.00     0.031 A 
ATOM     24  C   UNL A   1      46.894  29.353  30.675  1.00  0.00     0.031 A 
ATOM     25  C   UNL A   1      40.466  29.672  30.222  1.00  0.00     0.049 A 
ATOM     26  C   UNL A   1      45.855  28.501  29.991  1.00  0.00     0.074 A 
ATOM     27  C   UNL A   1      39.565  28.673  29.916  1.00  0.00     0.029 A 
ATOM     28  N   UNL A   1      41.733  29.176  30.047  1.00  0.00    -0.354 N 
ATOM     29  N   UNL A   1      44.554  28.641  29.979  1.00  0.00    -0.248 NA
ATOM     30  C   UNL A   1      46.333  27.340  29.218  1.00  0.00     0.031 C 
ATOM     31  C   UNL A   1      40.310  27.572  29.481  1.00  0.00     0.029 A 
ATOM     32  C   UNL A   1      41.648  27.937  29.481  1.00  0.00     0.049 A 
ATOM     33  H   UNL A   1      42.569  29.639  30.290  1.00  0.00     0.167 HD
ATOM     34  C   UNL A   1      44.067  27.595  29.197  1.00  0.00     0.074 A 
ATOM     35  C   UNL A   1      45.205  26.851  28.717  1.00  0.00     0.031 C 
ATOM     36  C   UNL A   1      42.784  27.262  28.936  1.00  0.00     0.031 A 
BRANCH  23  37
ATOM     37  C   UNL A   1      38.808  31.570  30.570  1.00  0.00    -0.014 A 
ATOM     38  C   UNL A   1      38.195  31.570  31.842  1.00  0.00     0.010 A 
ATOM     39  C   UNL A   1      38.055  32.089  29.496  1.00  0.00     0.010 A 
ATOM     40  C   UNL A   1      36.911  32.095  32.048  1.00  0.00     0.020 A 
ATOM     41  C   UNL A   1      36.793  32.682  29.705  1.00  0.00     0.020 A 
ATOM     42  C   UNL A   1      36.224  32.669  30.980  1.00  0.00     0.054 A 
BRANCH  42  43
ATOM     43  S   UNL A   1      34.613  33.460  31.277  1.00  0.00     0.124 S 
ATOM     44  O   UNL A   1      33.984  33.387  29.963  1.00  0.00    -0.237 OA
ATOM     45  O   UNL A   1      34.015  32.618  32.313  1.00  0.00    -0.237 OA
ATOM     46  O   UNL A   1      34.978  34.800  31.731  1.00  0.00    -0.744 OA
ENDBRANCH  42  43
ENDBRANCH  23  37
BRANCH  24  47
ATOM     47  C   UNL A   1      48.350  28.973  30.579  1.00  0.00    -0.014 A 
ATOM     48  C   UNL A   1      49.145  29.417  29.502  1.00  0.00     0.010 A 
ATOM     49  C   UNL A   1      48.932  28.101  31.521  1.00  0.00     0.010 A 
ATOM     50  C   UNL A   1      50.453  28.947  29.332  1.00  0.00     0.020 A 
ATOM     51  C   UNL A   1      50.256  27.664  31.378  1.00  0.00     0.020 A 
ATOM     52  C   UNL A   1      50.996  28.061  30.264  1.00  0.00     0.054 A 
BRANCH  52  53
ATOM     53  S   UNL A   1      52.678  27.425  29.998  1.00  0.00     0.124 S 
ATOM     54  O   UNL A   1      53.496  28.518  30.520  1.00  0.00    -0.237 OA
ATOM     55  O   UNL A   1      52.690  26.199  30.791  1.00  0.00    -0.237 OA
ATOM     56  O   UNL A   1      52.744  27.229  28.552  1.00  0.00    -0.744 OA
ENDBRANCH  52  53
ENDBRANCH  24  47
BRANCH  36  57
ATOM     57  C   UNL A   1      42.452  26.101  28.060  1.00  0.00    -0.014 A 
ATOM     58  C   UNL A   1      42.401  24.818  28.636  1.00  0.00     0.010 A 
ATOM     59  C   UNL A   1      42.570  26.252  26.672  1.00  0.00     0.010 A 
ATOM     60  C   UNL A   1      42.562  23.692  27.832  1.00  0.00     0.020 A 
ATOM     61  C   UNL A   1      42.718  25.126  25.866  1.00  0.00     0.020 A 
ATOM     62  C   UNL A   1      42.755  23.859  26.456  1.00  0.00     0.054 A 
BRANCH  62  63
ATOM     63  S   UNL A   1      43.147  22.403  25.455  1.00  0.00     0.124 S 
ATOM     64  O   UNL A   1      43.318  22.983  24.126  1.00  0.00    -0.237 OA
ATOM     65  O   UNL A   1      44.365  21.902  26.087  1.00  0.00    -0.237 OA
ATOM     66  O   UNL A   1      41.971  21.550  25.617  1.00  0.00    -0.744 OA
ENDBRANCH  62  63
ENDBRANCH  36  57
ENDBRANCH  10  11
ENDBRANCH   3   5
ENDBRANCH   2   3
ENDBRANCH   1   2
BRANCH   1  67
ATOM     67  C   UNL A   1      42.481  42.184  31.387  1.00  0.00     0.274 C 
BRANCH  67  68
ATOM     68  O   UNL A   1      43.093  41.836  30.140  1.00  0.00    -0.462 OA
BRANCH  68  69
ATOM     69  C   UNL A   1      42.576  40.693  29.629  1.00  0.00     0.311 C 
ATOM     70  O   UNL A   1      41.421  40.617  29.201  1.00  0.00    -0.252 OA
BRANCH  69  71
ATOM     71  C   UNL A   1      43.598  39.421  29.489  1.00  0.00     0.130 C 
ATOM     72  C   UNL A   1      43.834  37.359  30.362  1.00  0.00     0.006 C 
ATOM     73  C   UNL A   1      44.036  39.608  27.686  1.00  0.00     0.081 C 
ATOM     74  C   UNL A   1      42.960  36.112  28.965  1.00  0.00     0.008 C 
ATOM     75  C   UNL A   1      45.779  36.851  29.958  1.00  0.00     0.008 C 
ATOM     76  C   UNL A   1      45.804  39.292  27.844  1.00  0.00     0.035 C 
ATOM     77  C   UNL A   1      42.930  38.561  26.854  1.00  0.00     0.035 C 
ATOM     78  C   UNL A   1      43.204  36.927  27.149  1.00  0.00    -0.008 C 
ATOM     79  C   UNL A   1      46.176  37.742  28.172  1.00  0.00    -0.008 C 
ATOM     80  C   UNL A   1      44.918  37.352  26.667  1.00  0.00     0.007 C 
BRANCH  73  81
ATOM     81  N   UNL A   1      44.140  40.811  26.775  1.00  0.00    -0.222 N 
ATOM     82  N   UNL A   1      43.197  40.622  25.785  1.00  0.00    -0.175 NA
ATOM     83  C   UNL A   1      44.635  42.088  26.954  1.00  0.00     0.288 A 
ATOM     84  C   UNL A   1      43.032  41.437  24.822  1.00  0.00     0.161 A 
ATOM     85  C   UNL A   1      44.506  42.989  25.722  1.00  0.00     0.132 A 
ATOM     86  O   UNL A   1      45.138  42.495  27.996  1.00  0.00    -0.266 OA
ATOM     87  C   UNL A   1      43.748  42.688  24.646  1.00  0.00     0.082 A 
ATOM     88  Cl  UNL A   1      45.342  44.507  25.820  1.00  0.00    -0.076 Cl
BRANCH  87  89
ATOM     89  N   UNL A   1      43.514  43.323  23.433  1.00  0.00    -0.365 N 
ATOM     90  C   UNL A   1      44.579  43.604  22.417  1.00  0.00     0.138 C 
ATOM     91  C   UNL A   1      42.250  43.999  23.110  1.00  0.00     0.138 C 
ATOM     92  C   UNL A   1      44.115  43.143  21.015  1.00  0.00     0.138 C 
ATOM     93  C   UNL A   1      41.742  43.479  21.761  1.00  0.00     0.138 C 
ATOM     94  N   UNL A   1      42.774  43.678  20.734  1.00  0.00    -0.368 N 
BRANCH  94  95
ATOM     95  C   UNL A   1      42.426  44.176  19.506  1.00  0.00     0.037 A 
ATOM     96  C   UNL A   1      41.164  43.879  18.972  1.00  0.00     0.029 A 
ATOM     97  C   UNL A   1      43.303  44.962  18.752  1.00  0.00     0.029 A 
ATOM     98  C   UNL A   1      40.795  44.322  17.705  1.00  0.00     0.041 A 
ATOM     99  C   UNL A   1      42.947  45.394  17.473  1.00  0.00     0.041 A 
ATOM    100  C   UNL A   1      41.699  45.064  16.960  1.00  0.00     0.123 A 
ATOM    101  F   UNL A   1      41.364  45.461  15.726  1.00  0.00    -0.207 F 
ENDBRANCH  94  95
ENDBRANCH  87  89
ENDBRANCH  73  81
ENDBRANCH  69  71
ENDBRANCH  68  69
ENDBRANCH  67  68
ENDBRANCH   1  67
TORSDOF 17
ENDMDL
