MODEL 1
REMARK VINA RESULT:      -9.5      0.000      0.000
REMARK SMILES CCCCCNC(=O)Oc1cccc(-c2ccc([C@@H](C)C(=O)OCCOC(=O)c3ccc(-c4c5nc(c(-c6ccc(S(=O)(=O)[O-])cc6)c6ccc([nH]6)c(-c6ccc(S(=O)(=O)[O-])cc6)c6nc(c(-c7ccc(S(=O)(=O)[O-])cc7)c7ccc4[nH]7)C=C6)C=C5)cc3)cc2F)c1
REMARK SMILES IDX 21 1 22 2 19 3 20 4 18 5 15 6 16 7 90 8 17 9 89 10 91 11
REMARK SMILES IDX 14 12 10 13 11 14 92 15 12 16 13 17 9 18 7 19 6 20 8 22 5 23
REMARK SMILES IDX 4 24 3 25 2 26 1 27 23 28 24 29 25 30 26 31 27 32 28 33
REMARK SMILES IDX 29 34 30 35 88 36 31 37 87 38 32 39 33 40 34 41 81 42 35 43
REMARK SMILES IDX 86 44 80 45 82 46 36 47 85 48 79 49 78 50 37 52 67 53 48 54
REMARK SMILES IDX 66 55 49 56 52 57 65 58 83 59 50 60 51 61 64 63 84 64 53 65
REMARK SMILES IDX 38 66 39 67 47 68 40 69 46 70 41 71 42 72 43 73 44 74 45 75
REMARK SMILES IDX 68 76 69 77 77 78 70 79 76 80 71 81 72 82 73 83 74 84 75 85
REMARK SMILES IDX 54 86 55 87 63 88 56 89 62 90 57 91 58 92 59 93 60 94 61 95
REMARK H PARENT 6 21 82 51 52 62
REMARK Flexibility Score: inf
ROOT
ATOM      1  C   UNL A   1      35.136  32.404  28.627  1.00  0.00     0.313 C 
ATOM      2  O   UNL A   1      35.522  33.282  27.861  1.00  0.00    -0.252 OA
ENDROOT
BRANCH   1   3
ATOM      3  C   UNL A   1      35.373  30.926  28.345  1.00  0.00     0.126 C 
ATOM      4  C   UNL A   1      36.822  30.705  27.914  1.00  0.00     0.025 C 
BRANCH   3   5
ATOM      5  C   UNL A   1      34.385  30.250  27.405  1.00  0.00    -0.031 A 
ATOM      6  C   UNL A   1      32.621  28.990  25.552  1.00  0.00     0.018 A 
ATOM      7  C   UNL A   1      32.322  30.244  26.111  1.00  0.00     0.012 A 
ATOM      8  C   UNL A   1      33.803  28.370  25.974  1.00  0.00     0.131 A 
ATOM      9  C   UNL A   1      33.190  30.867  27.015  1.00  0.00     0.005 A 
ATOM     10  C   UNL A   1      34.672  28.981  26.880  1.00  0.00     0.044 A 
ATOM     11  F   UNL A   1      34.159  27.176  25.473  1.00  0.00    -0.206 F 
BRANCH   6  12
ATOM     12  C   UNL A   1      31.748  28.399  24.519  1.00  0.00    -0.012 A 
ATOM     13  C   UNL A   1      31.158  26.624  22.973  1.00  0.00     0.133 A 
ATOM     14  C   UNL A   1      30.079  27.360  22.489  1.00  0.00     0.047 A 
ATOM     15  C   UNL A   1      31.997  27.130  23.969  1.00  0.00     0.056 A 
ATOM     16  C   UNL A   1      29.818  28.614  23.026  1.00  0.00     0.004 A 
ATOM     17  C   UNL A   1      30.645  29.128  24.027  1.00  0.00     0.009 A 
BRANCH  13  18
ATOM     18  O   UNL A   1      31.433  25.415  22.313  1.00  0.00    -0.410 OA
BRANCH  18  19
ATOM     19  C   UNL A   1      32.704  25.212  21.799  1.00  0.00     0.412 C 
ATOM     20  N   UNL A   1      33.328  24.119  22.340  1.00  0.00    -0.321 N 
ATOM     21  H   UNL A   1      34.220  23.900  21.985  1.00  0.00     0.167 HD
ATOM     22  O   UNL A   1      33.271  25.920  20.976  1.00  0.00    -0.224 OA
BRANCH  20  23
ATOM     23  C   UNL A   1      32.811  23.250  23.378  1.00  0.00     0.119 C 
BRANCH  23  24
ATOM     24  C   UNL A   1      33.919  22.618  24.219  1.00  0.00     0.021 C 
BRANCH  24  25
ATOM     25  C   UNL A   1      35.298  23.273  24.076  1.00  0.00     0.002 C 
BRANCH  25  26
ATOM     26  C   UNL A   1      35.788  24.068  25.290  1.00  0.00    -0.003 C 
ATOM     27  C   UNL A   1      37.197  23.703  25.730  1.00  0.00     0.004 C 
ENDBRANCH  25  26
ENDBRANCH  24  25
ENDBRANCH  23  24
ENDBRANCH  20  23
ENDBRANCH  18  19
ENDBRANCH  13  18
ENDBRANCH   6  12
ENDBRANCH   3   5
ENDBRANCH   1   3
BRANCH   1  28
ATOM     28  O   UNL A   1      34.424  32.640  29.758  1.00  0.00    -0.462 OA
BRANCH  28  29
ATOM     29  C   UNL A   1      34.979  33.593  30.685  1.00  0.00     0.274 C 
BRANCH  29  30
ATOM     30  C   UNL A   1      35.232  32.955  32.053  1.00  0.00     0.275 C 
BRANCH  30  31
ATOM     31  O   UNL A   1      35.979  31.730  31.934  1.00  0.00    -0.458 OA
BRANCH  31  32
ATOM     32  C   UNL A   1      37.060  31.638  32.743  1.00  0.00     0.338 C 
ATOM     33  O   UNL A   1      37.098  31.818  33.947  1.00  0.00    -0.246 OA
BRANCH  32  34
ATOM     34  C   UNL A   1      38.212  31.153  31.972  1.00  0.00     0.060 A 
ATOM     35  C   UNL A   1      39.149  30.349  32.626  1.00  0.00     0.016 A 
ATOM     36  C   UNL A   1      38.418  31.553  30.652  1.00  0.00     0.016 A 
ATOM     37  C   UNL A   1      40.309  29.950  31.969  1.00  0.00     0.010 A 
ATOM     38  C   UNL A   1      39.580  31.142  29.989  1.00  0.00     0.010 A 
ATOM     39  C   UNL A   1      40.538  30.350  30.647  1.00  0.00    -0.014 A 
BRANCH  39  40
ATOM     40  C   UNL A   1      41.801  29.968  29.972  1.00  0.00     0.031 A 
ATOM     41  C   UNL A   1      41.931  28.609  29.343  1.00  0.00     0.074 A 
ATOM     42  C   UNL A   1      42.821  30.845  29.913  1.00  0.00     0.049 A 
ATOM     43  N   UNL A   1      42.975  28.060  28.776  1.00  0.00    -0.248 NA
ATOM     44  C   UNL A   1      40.733  27.754  29.354  1.00  0.00     0.031 C 
ATOM     45  C   UNL A   1      42.797  32.210  30.446  1.00  0.00     0.029 A 
ATOM     46  N   UNL A   1      44.077  30.720  29.376  1.00  0.00    -0.354 N 
ATOM     47  C   UNL A   1      42.571  26.788  28.390  1.00  0.00     0.074 A 
ATOM     48  C   UNL A   1      41.188  26.642  28.790  1.00  0.00     0.031 C 
ATOM     49  C   UNL A   1      43.983  32.794  30.207  1.00  0.00     0.029 A 
ATOM     50  C   UNL A   1      44.863  31.835  29.550  1.00  0.00     0.049 A 
ATOM     51  H   UNL A   1      44.387  29.909  28.912  1.00  0.00     0.167 HD
ATOM     52  C   UNL A   1      43.291  25.828  27.763  1.00  0.00     0.031 A 
ATOM     53  C   UNL A   1      46.157  32.049  29.237  1.00  0.00     0.031 A 
ATOM     54  C   UNL A   1      44.661  25.985  27.350  1.00  0.00     0.049 A 
ATOM     55  C   UNL A   1      46.945  30.946  28.585  1.00  0.00     0.074 A 
ATOM     56  C   UNL A   1      45.464  25.079  26.679  1.00  0.00     0.029 A 
ATOM     57  N   UNL A   1      45.428  27.118  27.565  1.00  0.00    -0.354 N 
ATOM     58  N   UNL A   1      46.545  29.752  28.218  1.00  0.00    -0.248 NA
ATOM     59  C   UNL A   1      48.363  31.217  28.308  1.00  0.00     0.031 C 
ATOM     60  C   UNL A   1      46.734  25.648  26.529  1.00  0.00     0.029 A 
ATOM     61  C   UNL A   1      46.704  26.926  27.064  1.00  0.00     0.049 A 
ATOM     62  H   UNL A   1      45.113  27.938  28.009  1.00  0.00     0.167 HD
ATOM     63  C   UNL A   1      47.654  29.141  27.646  1.00  0.00     0.074 A 
ATOM     64  C   UNL A   1      48.738  30.099  27.703  1.00  0.00     0.031 C 
ATOM     65  C   UNL A   1      47.767  27.896  27.121  1.00  0.00     0.031 A 
BRANCH  52  66
ATOM     66  C   UNL A   1      42.628  24.501  27.514  1.00  0.00    -0.014 A 
ATOM     67  C   UNL A   1      41.994  24.218  26.292  1.00  0.00     0.010 A 
ATOM     68  C   UNL A   1      42.707  23.496  28.495  1.00  0.00     0.010 A 
ATOM     69  C   UNL A   1      41.431  22.958  26.064  1.00  0.00     0.020 A 
ATOM     70  C   UNL A   1      42.164  22.229  28.264  1.00  0.00     0.020 A 
ATOM     71  C   UNL A   1      41.520  21.972  27.053  1.00  0.00     0.054 A 
BRANCH  71  72
ATOM     72  S   UNL A   1      40.824  20.330  26.714  1.00  0.00     0.124 S 
ATOM     73  O   UNL A   1      40.775  19.741  28.049  1.00  0.00    -0.237 OA
ATOM     74  O   UNL A   1      39.527  20.646  26.120  1.00  0.00    -0.237 OA
ATOM     75  O   UNL A   1      41.792  19.724  25.802  1.00  0.00    -0.744 OA
ENDBRANCH  71  72
ENDBRANCH  52  66
BRANCH  53  76
ATOM     76  C   UNL A   1      46.806  33.345  29.574  1.00  0.00    -0.014 A 
ATOM     77  C   UNL A   1      46.822  34.401  28.647  1.00  0.00     0.010 A 
ATOM     78  C   UNL A   1      47.437  33.518  30.819  1.00  0.00     0.010 A 
ATOM     79  C   UNL A   1      47.485  35.595  28.946  1.00  0.00     0.020 A 
ATOM     80  C   UNL A   1      48.078  34.719  31.133  1.00  0.00     0.020 A 
ATOM     81  C   UNL A   1      48.114  35.744  30.186  1.00  0.00     0.054 A 
BRANCH  81  82
ATOM     82  S   UNL A   1      48.952  37.307  30.567  1.00  0.00     0.124 S 
ATOM     83  O   UNL A   1      49.203  37.174  31.998  1.00  0.00    -0.237 OA
ATOM     84  O   UNL A   1      50.134  37.254  29.710  1.00  0.00    -0.237 OA
ATOM     85  O   UNL A   1      47.967  38.321  30.193  1.00  0.00    -0.744 OA
ENDBRANCH  81  82
ENDBRANCH  53  76
BRANCH  65  86
ATOM     86  C   UNL A   1      49.097  27.514  26.531  1.00  0.00    -0.014 A 
ATOM     87  C   UNL A   1      49.403  27.797  25.188  1.00  0.00     0.010 A 
ATOM     88  C   UNL A   1      50.070  26.908  27.346  1.00  0.00     0.010 A 
ATOM     89  C   UNL A   1      50.651  27.452  24.664  1.00  0.00     0.020 A 
ATOM     90  C   UNL A   1      51.326  26.585  26.831  1.00  0.00     0.020 A 
ATOM     91  C   UNL A   1      51.605  26.846  25.487  1.00  0.00     0.054 A 
BRANCH  91  92
ATOM     92  S   UNL A   1      53.234  26.447  24.798  1.00  0.00     0.124 S 
ATOM     93  O   UNL A   1      53.908  27.742  24.840  1.00  0.00    -0.237 OA
ATOM     94  O   UNL A   1      53.743  25.444  25.732  1.00  0.00    -0.237 OA
ATOM     95  O   UNL A   1      52.930  25.945  23.460  1.00  0.00    -0.744 OA
ENDBRANCH  91  92
ENDBRANCH  65  86
ENDBRANCH  39  40
ENDBRANCH  32  34
ENDBRANCH  31  32
ENDBRANCH  30  31
ENDBRANCH  29  30
ENDBRANCH  28  29
ENDBRANCH   1  28
TORSDOF 22
ENDMDL
MODEL 2
REMARK VINA RESULT:      -9.2      5.978     13.231
REMARK SMILES CCCCCNC(=O)Oc1cccc(-c2ccc([C@@H](C)C(=O)OCCOC(=O)c3ccc(-c4c5nc(c(-c6ccc(S(=O)(=O)[O-])cc6)c6ccc([nH]6)c(-c6ccc(S(=O)(=O)[O-])cc6)c6nc(c(-c7ccc(S(=O)(=O)[O-])cc7)c7ccc4[nH]7)C=C6)C=C5)cc3)cc2F)c1
REMARK SMILES IDX 21 1 22 2 19 3 20 4 18 5 15 6 16 7 90 8 17 9 89 10 91 11
REMARK SMILES IDX 14 12 10 13 11 14 92 15 12 16 13 17 9 18 7 19 6 20 8 22 5 23
REMARK SMILES IDX 4 24 3 25 2 26 1 27 23 28 24 29 25 30 26 31 27 32 28 33
REMARK SMILES IDX 29 34 30 35 88 36 31 37 87 38 32 39 33 40 34 41 81 42 35 43
REMARK SMILES IDX 86 44 80 45 82 46 36 47 85 48 79 49 78 50 37 52 67 53 48 54
REMARK SMILES IDX 66 55 49 56 52 57 65 58 83 59 50 60 51 61 64 63 84 64 53 65
REMARK SMILES IDX 38 66 39 67 47 68 40 69 46 70 41 71 42 72 43 73 44 74 45 75
REMARK SMILES IDX 68 76 69 77 77 78 70 79 76 80 71 81 72 82 73 83 74 84 75 85
REMARK SMILES IDX 54 86 55 87 63 88 56 89 62 90 57 91 58 92 59 93 60 94 61 95
REMARK H PARENT 6 21 82 51 52 62
REMARK Flexibility Score: inf
ROOT
ATOM      1  C   UNL A   1      44.943  26.915  26.732  1.00  0.00     0.313 C 
ATOM      2  O   UNL A   1      45.741  26.867  25.801  1.00  0.00    -0.252 OA
ENDROOT
BRANCH   1   3
ATOM      3  C   UNL A   1      45.315  27.513  28.083  1.00  0.00     0.126 C 
ATOM      4  C   UNL A   1      45.085  26.482  29.187  1.00  0.00     0.025 C 
BRANCH   3   5
ATOM      5  C   UNL A   1      44.696  28.862  28.419  1.00  0.00    -0.031 A 
ATOM      6  C   UNL A   1      43.447  31.329  29.116  1.00  0.00     0.018 A 
ATOM      7  C   UNL A   1      43.516  30.895  27.781  1.00  0.00     0.012 A 
ATOM      8  C   UNL A   1      44.052  30.517  30.082  1.00  0.00     0.131 A 
ATOM      9  C   UNL A   1      44.122  29.680  27.439  1.00  0.00     0.005 A 
ATOM     10  C   UNL A   1      44.665  29.307  29.748  1.00  0.00     0.044 A 
ATOM     11  F   UNL A   1      44.015  30.864  31.379  1.00  0.00    -0.206 F 
BRANCH   6  12
ATOM     12  C   UNL A   1      42.709  32.557  29.470  1.00  0.00    -0.012 A 
ATOM     13  C   UNL A   1      42.425  34.967  29.450  1.00  0.00     0.133 A 
ATOM     14  C   UNL A   1      41.288  34.872  30.248  1.00  0.00     0.047 A 
ATOM     15  C   UNL A   1      43.142  33.831  29.067  1.00  0.00     0.056 A 
ATOM     16  C   UNL A   1      40.844  33.619  30.652  1.00  0.00     0.004 A 
ATOM     17  C   UNL A   1      41.549  32.476  30.269  1.00  0.00     0.009 A 
BRANCH  13  18
ATOM     18  O   UNL A   1      42.883  36.265  29.169  1.00  0.00    -0.410 OA
BRANCH  18  19
ATOM     19  C   UNL A   1      44.109  36.662  29.680  1.00  0.00     0.412 C 
ATOM     20  N   UNL A   1      44.977  37.086  28.709  1.00  0.00    -0.321 N 
ATOM     21  H   UNL A   1      45.852  37.419  29.014  1.00  0.00     0.167 HD
ATOM     22  O   UNL A   1      44.445  36.628  30.857  1.00  0.00    -0.224 OA
BRANCH  20  23
ATOM     23  C   UNL A   1      44.741  37.096  27.279  1.00  0.00     0.119 C 
BRANCH  23  24
ATOM     24  C   UNL A   1      45.683  36.161  26.523  1.00  0.00     0.021 C 
BRANCH  24  25
ATOM     25  C   UNL A   1      45.873  34.778  27.157  1.00  0.00     0.002 C 
BRANCH  25  26
ATOM     26  C   UNL A   1      45.572  33.581  26.251  1.00  0.00    -0.003 C 
ATOM     27  C   UNL A   1      44.276  33.719  25.467  1.00  0.00     0.004 C 
ENDBRANCH  25  26
ENDBRANCH  24  25
ENDBRANCH  23  24
ENDBRANCH  20  23
ENDBRANCH  18  19
ENDBRANCH  13  18
ENDBRANCH   6  12
ENDBRANCH   3   5
ENDBRANCH   1   3
BRANCH   1  28
ATOM     28  O   UNL A   1      43.685  26.404  26.685  1.00  0.00    -0.462 OA
BRANCH  28  29
ATOM     29  C   UNL A   1      43.334  25.657  25.505  1.00  0.00     0.274 C 
BRANCH  29  30
ATOM     30  C   UNL A   1      41.849  25.286  25.503  1.00  0.00     0.275 C 
BRANCH  30  31
ATOM     31  O   UNL A   1      41.039  26.353  26.031  1.00  0.00    -0.458 OA
BRANCH  31  32
ATOM     32  C   UNL A   1      40.032  25.957  26.843  1.00  0.00     0.338 C 
ATOM     33  O   UNL A   1      39.325  24.972  26.718  1.00  0.00    -0.246 OA
BRANCH  32  34
ATOM     34  C   UNL A   1      39.971  26.837  28.018  1.00  0.00     0.060 A 
ATOM     35  C   UNL A   1      40.729  28.010  28.001  1.00  0.00     0.016 A 
ATOM     36  C   UNL A   1      39.249  26.474  29.155  1.00  0.00     0.016 A 
ATOM     37  C   UNL A   1      40.785  28.823  29.128  1.00  0.00     0.010 A 
ATOM     38  C   UNL A   1      39.297  27.299  30.284  1.00  0.00     0.010 A 
ATOM     39  C   UNL A   1      40.077  28.470  30.283  1.00  0.00    -0.014 A 
BRANCH  39  40
ATOM     40  C   UNL A   1      40.185  29.312  31.499  1.00  0.00     0.031 A 
ATOM     41  C   UNL A   1      41.319  29.091  32.462  1.00  0.00     0.074 A 
ATOM     42  C   UNL A   1      39.277  30.278  31.727  1.00  0.00     0.049 A 
ATOM     43  N   UNL A   1      41.543  29.668  33.615  1.00  0.00    -0.248 NA
ATOM     44  C   UNL A   1      42.330  28.091  32.081  1.00  0.00     0.031 C 
ATOM     45  C   UNL A   1      38.159  30.617  30.842  1.00  0.00     0.029 A 
ATOM     46  N   UNL A   1      39.149  31.155  32.775  1.00  0.00    -0.354 N 
ATOM     47  C   UNL A   1      42.702  29.082  34.111  1.00  0.00     0.074 A 
ATOM     48  C   UNL A   1      43.132  28.101  33.138  1.00  0.00     0.031 C 
ATOM     49  C   UNL A   1      37.462  31.630  31.385  1.00  0.00     0.029 A 
ATOM     50  C   UNL A   1      38.052  31.978  32.672  1.00  0.00     0.049 A 
ATOM     51  H   UNL A   1      39.781  31.190  33.528  1.00  0.00     0.167 HD
ATOM     52  C   UNL A   1      43.343  29.337  35.276  1.00  0.00     0.031 A 
ATOM     53  C   UNL A   1      37.563  32.893  33.534  1.00  0.00     0.031 A 
ATOM     54  C   UNL A   1      42.922  30.327  36.232  1.00  0.00     0.049 A 
ATOM     55  C   UNL A   1      38.271  33.120  34.842  1.00  0.00     0.074 A 
ATOM     56  C   UNL A   1      43.526  30.679  37.426  1.00  0.00     0.029 A 
ATOM     57  N   UNL A   1      41.794  31.122  36.103  1.00  0.00    -0.354 N 
ATOM     58  N   UNL A   1      39.371  32.564  35.291  1.00  0.00    -0.248 NA
ATOM     59  C   UNL A   1      37.669  34.095  35.762  1.00  0.00     0.031 C 
ATOM     60  C   UNL A   1      42.737  31.657  38.043  1.00  0.00     0.029 A 
ATOM     61  C   UNL A   1      41.670  31.947  37.209  1.00  0.00     0.049 A 
ATOM     62  H   UNL A   1      41.173  31.104  35.339  1.00  0.00     0.167 HD
ATOM     63  C   UNL A   1      39.604  33.140  36.535  1.00  0.00     0.074 A 
ATOM     64  C   UNL A   1      38.540  34.096  36.761  1.00  0.00     0.031 C 
ATOM     65  C   UNL A   1      40.609  32.898  37.412  1.00  0.00     0.031 A 
BRANCH  52  66
ATOM     66  C   UNL A   1      44.554  28.508  35.608  1.00  0.00    -0.014 A 
ATOM     67  C   UNL A   1      45.847  28.929  35.253  1.00  0.00     0.010 A 
ATOM     68  C   UNL A   1      44.397  27.325  36.352  1.00  0.00     0.010 A 
ATOM     69  C   UNL A   1      46.962  28.168  35.620  1.00  0.00     0.020 A 
ATOM     70  C   UNL A   1      45.509  26.572  36.738  1.00  0.00     0.020 A 
ATOM     71  C   UNL A   1      46.785  26.994  36.360  1.00  0.00     0.054 A 
BRANCH  71  72
ATOM     72  S   UNL A   1      48.251  26.050  36.865  1.00  0.00     0.124 S 
ATOM     73  O   UNL A   1      47.674  24.748  37.193  1.00  0.00    -0.237 OA
ATOM     74  O   UNL A   1      49.084  26.082  35.665  1.00  0.00    -0.237 OA
ATOM     75  O   UNL A   1      48.774  26.803  38.003  1.00  0.00    -0.744 OA
ENDBRANCH  71  72
ENDBRANCH  52  66
BRANCH  53  76
ATOM     76  C   UNL A   1      36.315  33.635  33.211  1.00  0.00    -0.014 A 
ATOM     77  C   UNL A   1      35.056  33.074  33.485  1.00  0.00     0.010 A 
ATOM     78  C   UNL A   1      36.382  34.900  32.600  1.00  0.00     0.010 A 
ATOM     79  C   UNL A   1      33.887  33.750  33.124  1.00  0.00     0.020 A 
ATOM     80  C   UNL A   1      35.215  35.592  32.263  1.00  0.00     0.020 A 
ATOM     81  C   UNL A   1      33.974  35.003  32.510  1.00  0.00     0.054 A 
BRANCH  81  82
ATOM     82  S   UNL A   1      32.447  35.877  32.068  1.00  0.00     0.124 S 
ATOM     83  O   UNL A   1      31.425  35.011  32.644  1.00  0.00    -0.237 OA
ATOM     84  O   UNL A   1      32.620  37.174  32.720  1.00  0.00    -0.237 OA
ATOM     85  O   UNL A   1      32.488  35.915  30.607  1.00  0.00    -0.744 OA
ENDBRANCH  81  82
ENDBRANCH  53  76
BRANCH  65  86
ATOM     86  C   UNL A   1      40.628  33.709  38.679  1.00  0.00    -0.014 A 
ATOM     87  C   UNL A   1      39.998  33.246  39.848  1.00  0.00     0.010 A 
ATOM     88  C   UNL A   1      41.329  34.928  38.712  1.00  0.00     0.010 A 
ATOM     89  C   UNL A   1      40.044  34.004  41.020  1.00  0.00     0.020 A 
ATOM     90  C   UNL A   1      41.397  35.676  39.888  1.00  0.00     0.020 A 
ATOM     91  C   UNL A   1      40.741  35.216  41.033  1.00  0.00     0.054 A 
BRANCH  91  92
ATOM     92  S   UNL A   1      40.826  36.164  42.577  1.00  0.00     0.124 S 
ATOM     93  O   UNL A   1      39.432  36.553  42.771  1.00  0.00    -0.237 OA
ATOM     94  O   UNL A   1      41.344  35.184  43.530  1.00  0.00    -0.237 OA
ATOM     95  O   UNL A   1      41.740  37.259  42.260  1.00  0.00    -0.744 OA
ENDBRANCH  91  92
ENDBRANCH  65  86
ENDBRANCH  39  40
ENDBRANCH  32  34
ENDBRANCH  31  32
ENDBRANCH  30  31
ENDBRANCH  29  30
ENDBRANCH  28  29
ENDBRANCH   1  28
TORSDOF 22
ENDMDL
MODEL 3
REMARK VINA RESULT:      -9.0      7.046     13.581
REMARK SMILES CCCCCNC(=O)Oc1cccc(-c2ccc([C@@H](C)C(=O)OCCOC(=O)c3ccc(-c4c5nc(c(-c6ccc(S(=O)(=O)[O-])cc6)c6ccc([nH]6)c(-c6ccc(S(=O)(=O)[O-])cc6)c6nc(c(-c7ccc(S(=O)(=O)[O-])cc7)c7ccc4[nH]7)C=C6)C=C5)cc3)cc2F)c1
REMARK SMILES IDX 21 1 22 2 19 3 20 4 18 5 15 6 16 7 90 8 17 9 89 10 91 11
REMARK SMILES IDX 14 12 10 13 11 14 92 15 12 16 13 17 9 18 7 19 6 20 8 22 5 23
REMARK SMILES IDX 4 24 3 25 2 26 1 27 23 28 24 29 25 30 26 31 27 32 28 33
REMARK SMILES IDX 29 34 30 35 88 36 31 37 87 38 32 39 33 40 34 41 81 42 35 43
REMARK SMILES IDX 86 44 80 45 82 46 36 47 85 48 79 49 78 50 37 52 67 53 48 54
REMARK SMILES IDX 66 55 49 56 52 57 65 58 83 59 50 60 51 61 64 63 84 64 53 65
REMARK SMILES IDX 38 66 39 67 47 68 40 69 46 70 41 71 42 72 43 73 44 74 45 75
REMARK SMILES IDX 68 76 69 77 77 78 70 79 76 80 71 81 72 82 73 83 74 84 75 85
REMARK SMILES IDX 54 86 55 87 63 88 56 89 62 90 57 91 58 92 59 93 60 94 61 95
REMARK H PARENT 6 21 82 51 52 62
REMARK Flexibility Score: inf
ROOT
ATOM      1  C   UNL A   1      45.316  40.194  25.784  1.00  0.00     0.313 C 
ATOM      2  O   UNL A   1      46.197  40.104  24.934  1.00  0.00    -0.252 OA
ENDROOT
BRANCH   1   3
ATOM      3  C   UNL A   1      44.432  41.429  25.903  1.00  0.00     0.126 C 
ATOM      4  C   UNL A   1      43.238  41.126  26.806  1.00  0.00     0.025 C 
BRANCH   3   5
ATOM      5  C   UNL A   1      44.013  42.088  24.597  1.00  0.00    -0.031 A 
ATOM      6  C   UNL A   1      43.184  43.210  22.109  1.00  0.00     0.018 A 
ATOM      7  C   UNL A   1      44.537  43.183  22.486  1.00  0.00     0.012 A 
ATOM      8  C   UNL A   1      42.257  42.698  23.026  1.00  0.00     0.131 A 
ATOM      9  C   UNL A   1      44.946  42.626  23.703  1.00  0.00     0.005 A 
ATOM     10  C   UNL A   1      42.657  42.146  24.245  1.00  0.00     0.044 A 
ATOM     11  F   UNL A   1      40.948  42.680  22.729  1.00  0.00    -0.206 F 
BRANCH   6  12
ATOM     12  C   UNL A   1      42.782  43.701  20.777  1.00  0.00    -0.012 A 
ATOM     13  C   UNL A   1      43.030  45.195  18.881  1.00  0.00     0.133 A 
ATOM     14  C   UNL A   1      41.913  44.642  18.259  1.00  0.00     0.047 A 
ATOM     15  C   UNL A   1      43.463  44.746  20.130  1.00  0.00     0.056 A 
ATOM     16  C   UNL A   1      41.231  43.606  18.883  1.00  0.00     0.004 A 
ATOM     17  C   UNL A   1      41.660  43.143  20.129  1.00  0.00     0.009 A 
BRANCH  13  18
ATOM     18  O   UNL A   1      43.606  46.310  18.251  1.00  0.00    -0.410 OA
BRANCH  18  19
ATOM     19  C   UNL A   1      44.895  46.201  17.754  1.00  0.00     0.412 C 
ATOM     20  N   UNL A   1      45.763  47.091  18.329  1.00  0.00    -0.321 N 
ATOM     21  H   UNL A   1      46.705  47.036  18.045  1.00  0.00     0.167 HD
ATOM     22  O   UNL A   1      45.266  45.435  16.874  1.00  0.00    -0.224 OA
BRANCH  20  23
ATOM     23  C   UNL A   1      45.441  48.106  19.312  1.00  0.00     0.119 C 
BRANCH  23  24
ATOM     24  C   UNL A   1      46.281  47.980  20.582  1.00  0.00     0.021 C 
BRANCH  24  25
ATOM     25  C   UNL A   1      46.060  46.690  21.381  1.00  0.00     0.002 C 
BRANCH  25  26
ATOM     26  C   UNL A   1      47.260  45.741  21.461  1.00  0.00    -0.003 C 
ATOM     27  C   UNL A   1      47.216  44.614  20.442  1.00  0.00     0.004 C 
ENDBRANCH  25  26
ENDBRANCH  24  25
ENDBRANCH  23  24
ENDBRANCH  20  23
ENDBRANCH  18  19
ENDBRANCH  13  18
ENDBRANCH   6  12
ENDBRANCH   3   5
ENDBRANCH   1   3
BRANCH   1  28
ATOM     28  O   UNL A   1      45.070  39.248  26.727  1.00  0.00    -0.462 OA
BRANCH  28  29
ATOM     29  C   UNL A   1      46.040  39.120  27.784  1.00  0.00     0.274 C 
BRANCH  29  30
ATOM     30  C   UNL A   1      45.539  38.187  28.889  1.00  0.00     0.275 C 
BRANCH  30  31
ATOM     31  O   UNL A   1      46.602  37.809  29.783  1.00  0.00    -0.458 OA
BRANCH  31  32
ATOM     32  C   UNL A   1      47.650  37.188  29.195  1.00  0.00     0.338 C 
ATOM     33  O   UNL A   1      48.757  37.651  28.979  1.00  0.00    -0.246 OA
BRANCH  32  34
ATOM     34  C   UNL A   1      47.312  35.780  28.946  1.00  0.00     0.060 A 
ATOM     35  C   UNL A   1      46.925  35.416  27.654  1.00  0.00     0.016 A 
ATOM     36  C   UNL A   1      47.290  34.849  29.983  1.00  0.00     0.016 A 
ATOM     37  C   UNL A   1      46.497  34.118  27.393  1.00  0.00     0.010 A 
ATOM     38  C   UNL A   1      46.871  33.541  29.716  1.00  0.00     0.010 A 
ATOM     39  C   UNL A   1      46.458  33.172  28.423  1.00  0.00    -0.014 A 
BRANCH  39  40
ATOM     40  C   UNL A   1      45.949  31.806  28.149  1.00  0.00     0.031 A 
ATOM     41  C   UNL A   1      44.530  31.453  28.502  1.00  0.00     0.074 A 
ATOM     42  C   UNL A   1      46.754  30.894  27.573  1.00  0.00     0.049 A 
ATOM     43  N   UNL A   1      43.924  30.297  28.413  1.00  0.00    -0.248 NA
ATOM     44  C   UNL A   1      43.684  32.539  29.023  1.00  0.00     0.031 C 
ATOM     45  C   UNL A   1      48.134  31.133  27.145  1.00  0.00     0.029 A 
ATOM     46  N   UNL A   1      46.528  29.581  27.249  1.00  0.00    -0.354 N 
ATOM     47  C   UNL A   1      42.637  30.508  28.895  1.00  0.00     0.074 A 
ATOM     48  C   UNL A   1      42.550  31.900  29.278  1.00  0.00     0.031 C 
ATOM     49  C   UNL A   1      48.630  30.003  26.612  1.00  0.00     0.029 A 
ATOM     50  C   UNL A   1      47.623  28.952  26.705  1.00  0.00     0.049 A 
ATOM     51  H   UNL A   1      45.664  29.131  27.394  1.00  0.00     0.167 HD
ATOM     52  C   UNL A   1      41.623  29.618  29.009  1.00  0.00     0.031 A 
ATOM     53  C   UNL A   1      47.802  27.665  26.346  1.00  0.00     0.031 A 
ATOM     54  C   UNL A   1      41.709  28.238  28.609  1.00  0.00     0.049 A 
ATOM     55  C   UNL A   1      46.673  26.688  26.531  1.00  0.00     0.074 A 
ATOM     56  C   UNL A   1      40.724  27.267  28.657  1.00  0.00     0.029 A 
ATOM     57  N   UNL A   1      42.841  27.635  28.085  1.00  0.00    -0.354 N 
ATOM     58  N   UNL A   1      45.460  26.906  26.979  1.00  0.00    -0.248 NA
ATOM     59  C   UNL A   1      46.939  25.289  26.167  1.00  0.00     0.031 C 
ATOM     60  C   UNL A   1      41.275  26.063  28.205  1.00  0.00     0.029 A 
ATOM     61  C   UNL A   1      42.588  26.297  27.830  1.00  0.00     0.049 A 
ATOM     62  H   UNL A   1      43.699  28.088  27.919  1.00  0.00     0.167 HD
ATOM     63  C   UNL A   1      44.812  25.677  26.926  1.00  0.00     0.074 A 
ATOM     64  C   UNL A   1      45.761  24.724  26.392  1.00  0.00     0.031 C 
ATOM     65  C   UNL A   1      43.543  25.366  27.289  1.00  0.00     0.031 A 
BRANCH  52  66
ATOM     66  C   UNL A   1      40.337  30.092  29.628  1.00  0.00    -0.014 A 
ATOM     67  C   UNL A   1      40.189  30.191  31.022  1.00  0.00     0.010 A 
ATOM     68  C   UNL A   1      39.286  30.517  28.795  1.00  0.00     0.010 A 
ATOM     69  C   UNL A   1      39.003  30.686  31.573  1.00  0.00     0.020 A 
ATOM     70  C   UNL A   1      38.107  31.032  29.340  1.00  0.00     0.020 A 
ATOM     71  C   UNL A   1      37.969  31.103  30.727  1.00  0.00     0.054 A 
BRANCH  71  72
ATOM     72  S   UNL A   1      36.458  31.787  31.465  1.00  0.00     0.124 S 
ATOM     73  O   UNL A   1      36.326  30.986  32.680  1.00  0.00    -0.237 OA
ATOM     74  O   UNL A   1      36.808  33.190  31.675  1.00  0.00    -0.237 OA
ATOM     75  O   UNL A   1      35.436  31.548  30.449  1.00  0.00    -0.744 OA
ENDBRANCH  71  72
ENDBRANCH  52  66
BRANCH  53  76
ATOM     76  C   UNL A   1      49.116  27.210  25.816  1.00  0.00    -0.014 A 
ATOM     77  C   UNL A   1      50.096  26.688  26.678  1.00  0.00     0.010 A 
ATOM     78  C   UNL A   1      49.403  27.325  24.444  1.00  0.00     0.010 A 
ATOM     79  C   UNL A   1      51.349  26.318  26.182  1.00  0.00     0.020 A 
ATOM     80  C   UNL A   1      50.646  26.931  23.940  1.00  0.00     0.020 A 
ATOM     81  C   UNL A   1      51.619  26.447  24.817  1.00  0.00     0.054 A 
BRANCH  81  82
ATOM     82  S   UNL A   1      53.243  25.944  24.186  1.00  0.00     0.124 S 
ATOM     83  O   UNL A   1      53.387  24.607  24.752  1.00  0.00    -0.237 OA
ATOM     84  O   UNL A   1      53.056  26.002  22.738  1.00  0.00    -0.237 OA
ATOM     85  O   UNL A   1      54.148  26.956  24.729  1.00  0.00    -0.744 OA
ENDBRANCH  81  82
ENDBRANCH  53  76
BRANCH  65  86
ATOM     86  C   UNL A   1      43.096  23.944  27.083  1.00  0.00    -0.014 A 
ATOM     87  C   UNL A   1      42.737  23.473  25.807  1.00  0.00     0.010 A 
ATOM     88  C   UNL A   1      43.084  23.056  28.173  1.00  0.00     0.010 A 
ATOM     89  C   UNL A   1      42.344  22.145  25.633  1.00  0.00     0.020 A 
ATOM     90  C   UNL A   1      42.715  21.721  27.997  1.00  0.00     0.020 A 
ATOM     91  C   UNL A   1      42.333  21.276  26.729  1.00  0.00     0.054 A 
BRANCH  91  92
ATOM     92  S   UNL A   1      41.862  19.544  26.473  1.00  0.00     0.124 S 
ATOM     93  O   UNL A   1      42.366  18.909  27.688  1.00  0.00    -0.237 OA
ATOM     94  O   UNL A   1      40.407  19.618  26.360  1.00  0.00    -0.237 OA
ATOM     95  O   UNL A   1      42.558  19.175  25.242  1.00  0.00    -0.744 OA
ENDBRANCH  91  92
ENDBRANCH  65  86
ENDBRANCH  39  40
ENDBRANCH  32  34
ENDBRANCH  31  32
ENDBRANCH  30  31
ENDBRANCH  29  30
ENDBRANCH  28  29
ENDBRANCH   1  28
TORSDOF 22
ENDMDL
