MODEL 1
REMARK VINA RESULT:     -10.2      0.000      0.000
REMARK SMILES CCC1CN(c2cc(F)ccc2C(=O)OCCOC(=O)c2ccc(-c3c4nc(c(-c5ccc(S(=O)(=O)[O-])cc5)c5ccc([nH]5)c(-c5ccc(S(=O)(=O)[O-])cc5)c5nc(c(-c6ccc(S(=O)(=O)[O-])cc6)c6ccc3[nH]6)C=C5)C=C4)cc2)C1
REMARK SMILES IDX 17 1 16 2 15 3 13 4 14 5 12 6 6 7 7 8 8 9 11 10 9 11 10 12
REMARK SMILES IDX 5 13 3 14 4 15 81 16 2 17 1 18 18 19 19 20 20 21 21 22 22 23
REMARK SMILES IDX 80 24 23 25 79 26 24 27 25 28 26 29 73 30 27 31 78 32 72 33
REMARK SMILES IDX 74 34 28 35 77 36 71 37 70 38 29 40 59 41 40 42 58 43 41 44
REMARK SMILES IDX 44 45 57 46 75 47 42 48 43 49 56 51 76 52 45 53 30 54 31 55
REMARK SMILES IDX 39 56 32 57 38 58 33 59 34 60 35 61 36 62 37 63 60 64 61 65
REMARK SMILES IDX 69 66 62 67 68 68 63 69 64 70 65 71 66 72 67 73 46 74 47 75
REMARK SMILES IDX 55 76 48 77 54 78 49 79 50 80 51 81 52 82 53 83
REMARK H PARENT 74 39 44 50
REMARK Flexibility Score: inf
ROOT
ATOM      1  C   UNL A   1      37.604  21.482  24.944  1.00  0.00     0.275 C 
ENDROOT
BRANCH   1   2
ATOM      2  C   UNL A   1      36.134  21.152  25.176  1.00  0.00     0.275 C 
BRANCH   2   3
ATOM      3  O   UNL A   1      35.408  22.338  25.559  1.00  0.00    -0.458 OA
BRANCH   3   4
ATOM      4  C   UNL A   1      34.467  22.792  24.690  1.00  0.00     0.340 C 
ATOM      5  O   UNL A   1      34.606  22.972  23.495  1.00  0.00    -0.246 OA
BRANCH   4   6
ATOM      6  C   UNL A   1      33.168  22.953  25.389  1.00  0.00     0.083 A 
ATOM      7  C   UNL A   1      32.172  21.954  25.380  1.00  0.00     0.054 A 
ATOM      8  C   UNL A   1      30.930  22.272  25.953  1.00  0.00     0.066 A 
ATOM      9  C   UNL A   1      30.717  23.505  26.567  1.00  0.00     0.125 A 
ATOM     10  C   UNL A   1      32.955  24.177  26.051  1.00  0.00     0.021 A 
ATOM     11  F   UNL A   1      29.532  23.758  27.138  1.00  0.00    -0.207 F 
ATOM     12  C   UNL A   1      31.723  24.457  26.633  1.00  0.00     0.040 A 
BRANCH   7  13
ATOM     13  N   UNL A   1      32.402  20.656  24.891  1.00  0.00    -0.370 N 
ATOM     14  C   UNL A   1      33.287  18.992  24.050  1.00  0.00     0.028 C 
ATOM     15  C   UNL A   1      32.495  20.203  23.543  1.00  0.00     0.122 C 
ATOM     16  C   UNL A   1      32.986  19.498  25.472  1.00  0.00     0.122 C 
BRANCH  14  17
ATOM     17  C   UNL A   1      32.750  17.616  23.684  1.00  0.00     0.004 C 
ATOM     18  C   UNL A   1      33.882  16.705  23.230  1.00  0.00     0.004 C 
ENDBRANCH  14  17
ENDBRANCH   7  13
ENDBRANCH   4   6
ENDBRANCH   3   4
ENDBRANCH   2   3
ENDBRANCH   1   2
BRANCH   1  19
ATOM     19  O   UNL A   1      38.097  22.209  26.079  1.00  0.00    -0.458 OA
BRANCH  19  20
ATOM     20  C   UNL A   1      39.379  21.948  26.419  1.00  0.00     0.338 C 
ATOM     21  O   UNL A   1      40.017  20.930  26.220  1.00  0.00    -0.246 OA
BRANCH  20  22
ATOM     22  C   UNL A   1      39.955  23.160  27.009  1.00  0.00     0.060 A 
ATOM     23  C   UNL A   1      39.535  24.393  26.515  1.00  0.00     0.016 A 
ATOM     24  C   UNL A   1      40.978  23.082  27.948  1.00  0.00     0.016 A 
ATOM     25  C   UNL A   1      40.198  25.557  26.893  1.00  0.00     0.010 A 
ATOM     26  C   UNL A   1      41.588  24.261  28.389  1.00  0.00     0.010 A 
ATOM     27  C   UNL A   1      41.236  25.507  27.835  1.00  0.00    -0.014 A 
BRANCH  27  28
ATOM     28  C   UNL A   1      41.996  26.740  28.185  1.00  0.00     0.031 A 
ATOM     29  C   UNL A   1      41.288  27.896  28.848  1.00  0.00     0.074 A 
ATOM     30  C   UNL A   1      43.318  26.826  27.936  1.00  0.00     0.049 A 
ATOM     31  N   UNL A   1      41.726  29.105  29.089  1.00  0.00    -0.248 NA
ATOM     32  C   UNL A   1      39.900  27.664  29.281  1.00  0.00     0.031 C 
ATOM     33  C   UNL A   1      44.144  25.771  27.346  1.00  0.00     0.029 A 
ATOM     34  N   UNL A   1      44.205  27.852  28.160  1.00  0.00    -0.354 N 
ATOM     35  C   UNL A   1      40.651  29.795  29.642  1.00  0.00     0.074 A 
ATOM     36  C   UNL A   1      39.541  28.871  29.698  1.00  0.00     0.031 C 
ATOM     37  C   UNL A   1      45.419  26.186  27.293  1.00  0.00     0.029 A 
ATOM     38  C   UNL A   1      45.490  27.565  27.763  1.00  0.00     0.049 A 
ATOM     39  H   UNL A   1      43.944  28.711  28.563  1.00  0.00     0.167 HD
ATOM     40  C   UNL A   1      40.594  31.083  30.062  1.00  0.00     0.031 A 
ATOM     41  C   UNL A   1      46.597  28.333  27.744  1.00  0.00     0.031 A 
ATOM     42  C   UNL A   1      41.713  31.988  30.050  1.00  0.00     0.049 A 
ATOM     43  C   UNL A   1      46.507  29.762  28.199  1.00  0.00     0.074 A 
ATOM     44  C   UNL A   1      41.759  33.307  30.466  1.00  0.00     0.029 A 
ATOM     45  N   UNL A   1      42.989  31.662  29.615  1.00  0.00    -0.354 N 
ATOM     46  N   UNL A   1      45.468  30.414  28.664  1.00  0.00    -0.248 NA
ATOM     47  C   UNL A   1      47.735  30.564  28.112  1.00  0.00     0.031 C 
ATOM     48  C   UNL A   1      43.055  33.790  30.248  1.00  0.00     0.029 A 
ATOM     49  C   UNL A   1      43.827  32.758  29.741  1.00  0.00     0.049 A 
ATOM     50  H   UNL A   1      43.259  30.782  29.267  1.00  0.00     0.167 HD
ATOM     51  C   UNL A   1      45.919  31.702  28.929  1.00  0.00     0.074 A 
ATOM     52  C   UNL A   1      47.329  31.729  28.600  1.00  0.00     0.031 C 
ATOM     53  C   UNL A   1      45.226  32.770  29.398  1.00  0.00     0.031 A 
BRANCH  40  54
ATOM     54  C   UNL A   1      39.259  31.604  30.529  1.00  0.00    -0.014 A 
ATOM     55  C   UNL A   1      38.877  31.548  31.882  1.00  0.00     0.010 A 
ATOM     56  C   UNL A   1      38.382  32.184  29.595  1.00  0.00     0.010 A 
ATOM     57  C   UNL A   1      37.624  32.024  32.282  1.00  0.00     0.020 A 
ATOM     58  C   UNL A   1      37.140  32.685  29.996  1.00  0.00     0.020 A 
ATOM     59  C   UNL A   1      36.761  32.583  31.335  1.00  0.00     0.054 A 
BRANCH  59  60
ATOM     60  S   UNL A   1      35.145  33.204  31.882  1.00  0.00     0.124 S 
ATOM     61  O   UNL A   1      34.250  32.636  30.876  1.00  0.00    -0.237 OA
ATOM     62  O   UNL A   1      35.020  32.641  33.223  1.00  0.00    -0.237 OA
ATOM     63  O   UNL A   1      35.297  34.656  31.830  1.00  0.00    -0.744 OA
ENDBRANCH  59  60
ENDBRANCH  40  54
BRANCH  41  64
ATOM     64  C   UNL A   1      47.877  27.772  27.232  1.00  0.00    -0.014 A 
ATOM     65  C   UNL A   1      48.195  27.844  25.864  1.00  0.00     0.010 A 
ATOM     66  C   UNL A   1      48.799  27.182  28.117  1.00  0.00     0.010 A 
ATOM     67  C   UNL A   1      49.406  27.331  25.390  1.00  0.00     0.020 A 
ATOM     68  C   UNL A   1      50.023  26.695  27.652  1.00  0.00     0.020 A 
ATOM     69  C   UNL A   1      50.315  26.765  26.288  1.00  0.00     0.054 A 
BRANCH  69  70
ATOM     70  S   UNL A   1      51.913  26.171  25.667  1.00  0.00     0.124 S 
ATOM     71  O   UNL A   1      52.852  27.051  26.355  1.00  0.00    -0.237 OA
ATOM     72  O   UNL A   1      51.923  24.775  26.096  1.00  0.00    -0.237 OA
ATOM     73  O   UNL A   1      51.811  26.369  24.222  1.00  0.00    -0.744 OA
ENDBRANCH  69  70
ENDBRANCH  41  64
BRANCH  53  74
ATOM     74  C   UNL A   1      45.993  34.048  29.599  1.00  0.00    -0.014 A 
ATOM     75  C   UNL A   1      46.589  34.349  30.836  1.00  0.00     0.010 A 
ATOM     76  C   UNL A   1      46.138  34.948  28.529  1.00  0.00     0.010 A 
ATOM     77  C   UNL A   1      47.284  35.548  31.012  1.00  0.00     0.020 A 
ATOM     78  C   UNL A   1      46.853  36.137  28.692  1.00  0.00     0.020 A 
ATOM     79  C   UNL A   1      47.406  36.438  29.939  1.00  0.00     0.054 A 
BRANCH  79  80
ATOM     80  S   UNL A   1      48.329  37.980  30.183  1.00  0.00     0.124 S 
ATOM     81  O   UNL A   1      47.327  38.838  30.809  1.00  0.00    -0.237 OA
ATOM     82  O   UNL A   1      49.430  37.565  31.048  1.00  0.00    -0.237 OA
ATOM     83  O   UNL A   1      48.721  38.365  28.828  1.00  0.00    -0.744 OA
ENDBRANCH  79  80
ENDBRANCH  53  74
ENDBRANCH  27  28
ENDBRANCH  20  22
ENDBRANCH  19  20
ENDBRANCH   1  19
TORSDOF 16
ENDMDL
MODEL 2
REMARK VINA RESULT:     -10.2      3.685      7.788
REMARK SMILES CCC1CN(c2cc(F)ccc2C(=O)OCCOC(=O)c2ccc(-c3c4nc(c(-c5ccc(S(=O)(=O)[O-])cc5)c5ccc([nH]5)c(-c5ccc(S(=O)(=O)[O-])cc5)c5nc(c(-c6ccc(S(=O)(=O)[O-])cc6)c6ccc3[nH]6)C=C5)C=C4)cc2)C1
REMARK SMILES IDX 17 1 16 2 15 3 13 4 14 5 12 6 6 7 7 8 8 9 11 10 9 11 10 12
REMARK SMILES IDX 5 13 3 14 4 15 81 16 2 17 1 18 18 19 19 20 20 21 21 22 22 23
REMARK SMILES IDX 80 24 23 25 79 26 24 27 25 28 26 29 73 30 27 31 78 32 72 33
REMARK SMILES IDX 74 34 28 35 77 36 71 37 70 38 29 40 59 41 40 42 58 43 41 44
REMARK SMILES IDX 44 45 57 46 75 47 42 48 43 49 56 51 76 52 45 53 30 54 31 55
REMARK SMILES IDX 39 56 32 57 38 58 33 59 34 60 35 61 36 62 37 63 60 64 61 65
REMARK SMILES IDX 69 66 62 67 68 68 63 69 64 70 65 71 66 72 67 73 46 74 47 75
REMARK SMILES IDX 55 76 48 77 54 78 49 79 50 80 51 81 52 82 53 83
REMARK H PARENT 74 39 44 50
REMARK Flexibility Score: inf
ROOT
ATOM      1  C   UNL A   1      32.553  30.109  26.773  1.00  0.00     0.275 C 
ENDROOT
BRANCH   1   2
ATOM      2  C   UNL A   1      33.157  29.823  25.403  1.00  0.00     0.275 C 
BRANCH   2   3
ATOM      3  O   UNL A   1      33.796  28.530  25.396  1.00  0.00    -0.458 OA
BRANCH   3   4
ATOM      4  C   UNL A   1      33.433  27.669  24.408  1.00  0.00     0.340 C 
ATOM      5  O   UNL A   1      33.861  27.645  23.271  1.00  0.00    -0.246 OA
BRANCH   4   6
ATOM      6  C   UNL A   1      32.484  26.660  24.940  1.00  0.00     0.083 A 
ATOM      7  C   UNL A   1      31.092  26.742  24.731  1.00  0.00     0.054 A 
ATOM      8  C   UNL A   1      30.280  25.813  25.400  1.00  0.00     0.066 A 
ATOM      9  C   UNL A   1      30.838  24.805  26.185  1.00  0.00     0.125 A 
ATOM     10  C   UNL A   1      33.038  25.611  25.699  1.00  0.00     0.021 A 
ATOM     11  F   UNL A   1      30.034  23.911  26.776  1.00  0.00    -0.207 F 
ATOM     12  C   UNL A   1      32.212  24.687  26.331  1.00  0.00     0.040 A 
BRANCH   7  13
ATOM     13  N   UNL A   1      30.510  27.660  23.838  1.00  0.00    -0.370 N 
ATOM     14  C   UNL A   1      30.205  29.270  22.584  1.00  0.00     0.028 C 
ATOM     15  C   UNL A   1      30.046  28.985  24.082  1.00  0.00     0.122 C 
ATOM     16  C   UNL A   1      30.542  27.776  22.422  1.00  0.00     0.122 C 
BRANCH  14  17
ATOM     17  C   UNL A   1      28.976  29.780  21.845  1.00  0.00     0.004 C 
ATOM     18  C   UNL A   1      29.029  31.295  21.705  1.00  0.00     0.004 C 
ENDBRANCH  14  17
ENDBRANCH   7  13
ENDBRANCH   4   6
ENDBRANCH   3   4
ENDBRANCH   2   3
ENDBRANCH   1   2
BRANCH   1  19
ATOM     19  O   UNL A   1      33.518  29.773  27.780  1.00  0.00    -0.458 OA
BRANCH  19  20
ATOM     20  C   UNL A   1      34.398  30.753  28.084  1.00  0.00     0.338 C 
ATOM     21  O   UNL A   1      34.173  31.935  28.270  1.00  0.00    -0.246 OA
BRANCH  20  22
ATOM     22  C   UNL A   1      35.721  30.144  28.259  1.00  0.00     0.060 A 
ATOM     23  C   UNL A   1      36.040  29.616  29.509  1.00  0.00     0.016 A 
ATOM     24  C   UNL A   1      36.674  30.201  27.248  1.00  0.00     0.016 A 
ATOM     25  C   UNL A   1      37.345  29.219  29.785  1.00  0.00     0.010 A 
ATOM     26  C   UNL A   1      37.965  29.726  27.502  1.00  0.00     0.010 A 
ATOM     27  C   UNL A   1      38.327  29.270  28.785  1.00  0.00    -0.014 A 
BRANCH  27  28
ATOM     28  C   UNL A   1      39.740  28.917  29.099  1.00  0.00     0.031 A 
ATOM     29  C   UNL A   1      40.622  29.910  29.813  1.00  0.00     0.074 A 
ATOM     30  C   UNL A   1      40.235  27.706  28.770  1.00  0.00     0.049 A 
ATOM     31  N   UNL A   1      41.910  29.861  30.038  1.00  0.00    -0.248 NA
ATOM     32  C   UNL A   1      39.971  31.125  30.329  1.00  0.00     0.031 C 
ATOM     33  C   UNL A   1      39.486  26.627  28.122  1.00  0.00     0.029 A 
ATOM     34  N   UNL A   1      41.489  27.175  28.947  1.00  0.00    -0.354 N 
ATOM     35  C   UNL A   1      42.233  31.062  30.661  1.00  0.00     0.074 A 
ATOM     36  C   UNL A   1      41.007  31.820  30.777  1.00  0.00     0.031 C 
ATOM     37  C   UNL A   1      40.280  25.554  27.994  1.00  0.00     0.029 A 
ATOM     38  C   UNL A   1      41.617  25.891  28.470  1.00  0.00     0.049 A 
ATOM     39  H   UNL A   1      42.228  27.668  29.373  1.00  0.00     0.167 HD
ATOM     40  C   UNL A   1      43.442  31.496  31.094  1.00  0.00     0.031 A 
ATOM     41  C   UNL A   1      42.694  25.085  28.390  1.00  0.00     0.031 A 
ATOM     42  C   UNL A   1      44.653  30.722  31.022  1.00  0.00     0.049 A 
ATOM     43  C   UNL A   1      44.027  25.593  28.861  1.00  0.00     0.074 A 
ATOM     44  C   UNL A   1      45.925  31.067  31.445  1.00  0.00     0.029 A 
ATOM     45  N   UNL A   1      44.741  29.436  30.506  1.00  0.00    -0.354 N 
ATOM     46  N   UNL A   1      44.325  26.754  29.395  1.00  0.00    -0.248 NA
ATOM     47  C   UNL A   1      45.173  24.687  28.706  1.00  0.00     0.031 C 
ATOM     48  C   UNL A   1      46.789  30.005  31.152  1.00  0.00     0.029 A 
ATOM     49  C   UNL A   1      46.046  28.980  30.590  1.00  0.00     0.049 A 
ATOM     50  H   UNL A   1      43.986  28.925  30.135  1.00  0.00     0.167 HD
ATOM     51  C   UNL A   1      45.691  26.715  29.643  1.00  0.00     0.074 A 
ATOM     52  C   UNL A   1      46.157  25.408  29.227  1.00  0.00     0.031 C 
ATOM     53  C   UNL A   1      46.493  27.679  30.162  1.00  0.00     0.031 A 
BRANCH  40  54
ATOM     54  C   UNL A   1      43.522  32.896  31.648  1.00  0.00    -0.014 A 
ATOM     55  C   UNL A   1      43.320  33.163  33.014  1.00  0.00     0.010 A 
ATOM     56  C   UNL A   1      43.832  33.961  30.781  1.00  0.00     0.010 A 
ATOM     57  C   UNL A   1      43.384  34.475  33.494  1.00  0.00     0.020 A 
ATOM     58  C   UNL A   1      43.923  35.270  31.263  1.00  0.00     0.020 A 
ATOM     59  C   UNL A   1      43.678  35.521  32.614  1.00  0.00     0.054 A 
BRANCH  59  60
ATOM     60  S   UNL A   1      43.766  37.213  33.263  1.00  0.00     0.124 S 
ATOM     61  O   UNL A   1      43.741  38.007  32.036  1.00  0.00    -0.237 OA
ATOM     62  O   UNL A   1      42.569  37.304  34.094  1.00  0.00    -0.237 OA
ATOM     63  O   UNL A   1      45.031  37.239  33.994  1.00  0.00    -0.744 OA
ENDBRANCH  59  60
ENDBRANCH  40  54
BRANCH  41  64
ATOM     64  C   UNL A   1      42.558  23.727  27.795  1.00  0.00    -0.014 A 
ATOM     65  C   UNL A   1      42.830  23.511  26.433  1.00  0.00     0.010 A 
ATOM     66  C   UNL A   1      42.177  22.635  28.597  1.00  0.00     0.010 A 
ATOM     67  C   UNL A   1      42.718  22.231  25.883  1.00  0.00     0.020 A 
ATOM     68  C   UNL A   1      42.093  21.350  28.059  1.00  0.00     0.020 A 
ATOM     69  C   UNL A   1      42.355  21.157  26.701  1.00  0.00     0.054 A 
BRANCH  69  70
ATOM     70  S   UNL A   1      42.286  19.490  25.986  1.00  0.00     0.124 S 
ATOM     71  O   UNL A   1      42.753  18.665  27.096  1.00  0.00    -0.237 OA
ATOM     72  O   UNL A   1      40.874  19.350  25.643  1.00  0.00    -0.237 OA
ATOM     73  O   UNL A   1      43.191  19.573  24.842  1.00  0.00    -0.744 OA
ENDBRANCH  69  70
ENDBRANCH  41  64
BRANCH  53  74
ATOM     74  C   UNL A   1      47.949  27.343  30.326  1.00  0.00    -0.014 A 
ATOM     75  C   UNL A   1      48.888  27.680  29.336  1.00  0.00     0.010 A 
ATOM     76  C   UNL A   1      48.387  26.701  31.498  1.00  0.00     0.010 A 
ATOM     77  C   UNL A   1      50.235  27.346  29.496  1.00  0.00     0.020 A 
ATOM     78  C   UNL A   1      49.737  26.387  31.674  1.00  0.00     0.020 A 
ATOM     79  C   UNL A   1      50.650  26.695  30.663  1.00  0.00     0.054 A 
BRANCH  79  80
ATOM     80  S   UNL A   1      52.407  26.288  30.860  1.00  0.00     0.124 S 
ATOM     81  O   UNL A   1      52.831  26.100  29.475  1.00  0.00    -0.237 OA
ATOM     82  O   UNL A   1      52.941  27.474  31.525  1.00  0.00    -0.237 OA
ATOM     83  O   UNL A   1      52.390  25.077  31.677  1.00  0.00    -0.744 OA
ENDBRANCH  79  80
ENDBRANCH  53  74
ENDBRANCH  27  28
ENDBRANCH  20  22
ENDBRANCH  19  20
ENDBRANCH   1  19
TORSDOF 16
ENDMDL
MODEL 3
REMARK VINA RESULT:     -10.1      0.947      8.495
REMARK SMILES CCC1CN(c2cc(F)ccc2C(=O)OCCOC(=O)c2ccc(-c3c4nc(c(-c5ccc(S(=O)(=O)[O-])cc5)c5ccc([nH]5)c(-c5ccc(S(=O)(=O)[O-])cc5)c5nc(c(-c6ccc(S(=O)(=O)[O-])cc6)c6ccc3[nH]6)C=C5)C=C4)cc2)C1
REMARK SMILES IDX 17 1 16 2 15 3 13 4 14 5 12 6 6 7 7 8 8 9 11 10 9 11 10 12
REMARK SMILES IDX 5 13 3 14 4 15 81 16 2 17 1 18 18 19 19 20 20 21 21 22 22 23
REMARK SMILES IDX 80 24 23 25 79 26 24 27 25 28 26 29 73 30 27 31 78 32 72 33
REMARK SMILES IDX 74 34 28 35 77 36 71 37 70 38 29 40 59 41 40 42 58 43 41 44
REMARK SMILES IDX 44 45 57 46 75 47 42 48 43 49 56 51 76 52 45 53 30 54 31 55
REMARK SMILES IDX 39 56 32 57 38 58 33 59 34 60 35 61 36 62 37 63 60 64 61 65
REMARK SMILES IDX 69 66 62 67 68 68 63 69 64 70 65 71 66 72 67 73 46 74 47 75
REMARK SMILES IDX 55 76 48 77 54 78 49 79 50 80 51 81 52 82 53 83
REMARK H PARENT 74 39 44 50
REMARK Flexibility Score: inf
ROOT
ATOM      1  C   UNL A   1      37.654  21.532  24.875  1.00  0.00     0.275 C 
ENDROOT
BRANCH   1   2
ATOM      2  C   UNL A   1      36.264  20.968  25.143  1.00  0.00     0.275 C 
BRANCH   2   3
ATOM      3  O   UNL A   1      35.409  21.985  25.705  1.00  0.00    -0.458 OA
BRANCH   3   4
ATOM      4  C   UNL A   1      34.575  22.631  24.847  1.00  0.00     0.340 C 
ATOM      5  O   UNL A   1      34.816  22.948  23.698  1.00  0.00    -0.246 OA
BRANCH   4   6
ATOM      6  C   UNL A   1      33.247  22.822  25.481  1.00  0.00     0.083 A 
ATOM      7  C   UNL A   1      32.234  21.842  25.431  1.00  0.00     0.054 A 
ATOM      8  C   UNL A   1      30.972  22.188  25.940  1.00  0.00     0.066 A 
ATOM      9  C   UNL A   1      30.753  23.429  26.535  1.00  0.00     0.125 A 
ATOM     10  C   UNL A   1      33.026  24.055  26.124  1.00  0.00     0.021 A 
ATOM     11  F   UNL A   1      29.547  23.709  27.046  1.00  0.00    -0.207 F 
ATOM     12  C   UNL A   1      31.772  24.363  26.643  1.00  0.00     0.040 A 
BRANCH   7  13
ATOM     13  N   UNL A   1      32.462  20.536  24.963  1.00  0.00    -0.370 N 
ATOM     14  C   UNL A   1      33.358  18.847  24.186  1.00  0.00     0.028 C 
ATOM     15  C   UNL A   1      32.628  20.073  23.626  1.00  0.00     0.122 C 
ATOM     16  C   UNL A   1      32.982  19.368  25.585  1.00  0.00     0.122 C 
BRANCH  14  17
ATOM     17  C   UNL A   1      32.812  17.481  23.793  1.00  0.00     0.004 C 
ATOM     18  C   UNL A   1      33.934  16.581  23.297  1.00  0.00     0.004 C 
ENDBRANCH  14  17
ENDBRANCH   7  13
ENDBRANCH   4   6
ENDBRANCH   3   4
ENDBRANCH   2   3
ENDBRANCH   1   2
BRANCH   1  19
ATOM     19  O   UNL A   1      38.037  22.359  25.984  1.00  0.00    -0.458 OA
BRANCH  19  20
ATOM     20  C   UNL A   1      39.314  22.211  26.399  1.00  0.00     0.338 C 
ATOM     21  O   UNL A   1      40.043  21.245  26.262  1.00  0.00    -0.246 OA
BRANCH  20  22
ATOM     22  C   UNL A   1      39.756  23.479  26.987  1.00  0.00     0.060 A 
ATOM     23  C   UNL A   1      39.209  24.660  26.489  1.00  0.00     0.016 A 
ATOM     24  C   UNL A   1      40.780  23.514  27.929  1.00  0.00     0.016 A 
ATOM     25  C   UNL A   1      39.743  25.889  26.865  1.00  0.00     0.010 A 
ATOM     26  C   UNL A   1      41.260  24.752  28.367  1.00  0.00     0.010 A 
ATOM     27  C   UNL A   1      40.778  25.952  27.809  1.00  0.00    -0.014 A 
BRANCH  27  28
ATOM     28  C   UNL A   1      41.401  27.260  28.157  1.00  0.00     0.031 A 
ATOM     29  C   UNL A   1      42.878  27.471  27.935  1.00  0.00     0.074 A 
ATOM     30  C   UNL A   1      40.654  28.269  28.649  1.00  0.00     0.049 A 
ATOM     31  N   UNL A   1      43.638  28.467  28.312  1.00  0.00    -0.248 NA
ATOM     32  C   UNL A   1      43.598  26.414  27.205  1.00  0.00     0.031 C 
ATOM     33  C   UNL A   1      39.207  28.227  28.869  1.00  0.00     0.029 A 
ATOM     34  N   UNL A   1      41.010  29.535  29.043  1.00  0.00    -0.354 N 
ATOM     35  C   UNL A   1      44.931  28.128  27.925  1.00  0.00     0.074 A 
ATOM     36  C   UNL A   1      44.853  26.834  27.285  1.00  0.00     0.031 C 
ATOM     37  C   UNL A   1      38.794  29.422  29.319  1.00  0.00     0.029 A 
ATOM     38  C   UNL A   1      39.954  30.288  29.501  1.00  0.00     0.049 A 
ATOM     39  H   UNL A   1      41.935  29.872  29.004  1.00  0.00     0.167 HD
ATOM     40  C   UNL A   1      46.078  28.830  28.090  1.00  0.00     0.031 A 
ATOM     41  C   UNL A   1      39.921  31.522  30.041  1.00  0.00     0.031 A 
ATOM     42  C   UNL A   1      46.148  30.139  28.683  1.00  0.00     0.049 A 
ATOM     43  C   UNL A   1      41.207  32.275  30.229  1.00  0.00     0.074 A 
ATOM     44  C   UNL A   1      47.261  30.938  28.884  1.00  0.00     0.029 A 
ATOM     45  N   UNL A   1      45.056  30.852  29.157  1.00  0.00    -0.354 N 
ATOM     46  N   UNL A   1      42.427  31.914  29.910  1.00  0.00    -0.248 NA
ATOM     47  C   UNL A   1      41.114  33.596  30.865  1.00  0.00     0.031 C 
ATOM     48  C   UNL A   1      46.846  32.118  29.512  1.00  0.00     0.029 A 
ATOM     49  C   UNL A   1      45.470  32.075  29.660  1.00  0.00     0.049 A 
ATOM     50  H   UNL A   1      44.124  30.534  29.139  1.00  0.00     0.167 HD
ATOM     51  C   UNL A   1      43.246  32.966  30.301  1.00  0.00     0.074 A 
ATOM     52  C   UNL A   1      42.381  33.988  30.855  1.00  0.00     0.031 C 
ATOM     53  C   UNL A   1      44.596  33.075  30.217  1.00  0.00     0.031 A 
BRANCH  40  54
ATOM     54  C   UNL A   1      47.365  28.172  27.660  1.00  0.00    -0.014 A 
ATOM     55  C   UNL A   1      48.032  28.555  26.482  1.00  0.00     0.010 A 
ATOM     56  C   UNL A   1      47.927  27.167  28.469  1.00  0.00     0.010 A 
ATOM     57  C   UNL A   1      49.215  27.913  26.100  1.00  0.00     0.020 A 
ATOM     58  C   UNL A   1      49.123  26.543  28.103  1.00  0.00     0.020 A 
ATOM     59  C   UNL A   1      49.749  26.906  26.910  1.00  0.00     0.054 A 
BRANCH  59  60
ATOM     60  S   UNL A   1      51.291  26.097  26.400  1.00  0.00     0.124 S 
ATOM     61  O   UNL A   1      52.299  27.034  26.891  1.00  0.00    -0.237 OA
ATOM     62  O   UNL A   1      51.231  24.816  27.099  1.00  0.00    -0.237 OA
ATOM     63  O   UNL A   1      51.175  26.015  24.945  1.00  0.00    -0.744 OA
ENDBRANCH  59  60
ENDBRANCH  40  54
BRANCH  41  64
ATOM     64  C   UNL A   1      38.623  32.101  30.484  1.00  0.00    -0.014 A 
ATOM     65  C   UNL A   1      37.852  32.886  29.609  1.00  0.00     0.010 A 
ATOM     66  C   UNL A   1      38.139  31.849  31.782  1.00  0.00     0.010 A 
ATOM     67  C   UNL A   1      36.625  33.413  30.025  1.00  0.00     0.020 A 
ATOM     68  C   UNL A   1      36.901  32.348  32.191  1.00  0.00     0.020 A 
ATOM     69  C   UNL A   1      36.155  33.136  31.312  1.00  0.00     0.054 A 
BRANCH  69  70
ATOM     70  S   UNL A   1      34.527  33.766  31.809  1.00  0.00     0.124 S 
ATOM     71  O   UNL A   1      33.920  34.086  30.521  1.00  0.00    -0.237 OA
ATOM     72  O   UNL A   1      33.948  32.627  32.517  1.00  0.00    -0.237 OA
ATOM     73  O   UNL A   1      34.851  34.914  32.653  1.00  0.00    -0.744 OA
ENDBRANCH  69  70
ENDBRANCH  41  64
BRANCH  53  74
ATOM     74  C   UNL A   1      45.212  34.352  30.718  1.00  0.00    -0.014 A 
ATOM     75  C   UNL A   1      45.363  35.466  29.872  1.00  0.00     0.010 A 
ATOM     76  C   UNL A   1      45.623  34.447  32.059  1.00  0.00     0.010 A 
ATOM     77  C   UNL A   1      45.952  36.639  30.348  1.00  0.00     0.020 A 
ATOM     78  C   UNL A   1      46.190  35.627  32.546  1.00  0.00     0.020 A 
ATOM     79  C   UNL A   1      46.368  36.710  31.682  1.00  0.00     0.054 A 
BRANCH  79  80
ATOM     80  S   UNL A   1      47.113  38.250  32.285  1.00  0.00     0.124 S 
ATOM     81  O   UNL A   1      47.170  38.015  33.725  1.00  0.00    -0.237 OA
ATOM     82  O   UNL A   1      48.403  38.276  31.601  1.00  0.00    -0.237 OA
ATOM     83  O   UNL A   1      46.168  39.280  31.859  1.00  0.00    -0.744 OA
ENDBRANCH  79  80
ENDBRANCH  53  74
ENDBRANCH  27  28
ENDBRANCH  20  22
ENDBRANCH  19  20
ENDBRANCH   1  19
TORSDOF 16
ENDMDL
