MODEL 1
REMARK VINA RESULT:     -10.7      0.000      0.000
REMARK SMILES O=Cc1[nH]nc2cc(C(=O)OCCOC(=O)c3ccc(-c4c5nc(c(-c6ccc(S(=O)(=O)[O-])cc6)c6ccc([nH]6)c(-c6ccc(S(=O)(=O)[O-])cc6)c6nc(c(-c7ccc(S(=O)(=O)[O-])cc7)c7ccc4[nH]7)C=C6)C=C5)cc3)ccc12
REMARK SMILES IDX 13 1 12 2 11 3 9 4 10 5 8 6 3 7 4 8 79 9 5 10 6 12 78 13
REMARK SMILES IDX 7 14 77 15 2 16 1 17 14 18 15 19 16 20 17 21 18 22 76 23
REMARK SMILES IDX 19 24 75 25 20 26 21 27 22 28 69 29 23 30 74 31 68 32 70 33
REMARK SMILES IDX 24 34 73 35 67 36 66 37 25 39 55 40 36 41 54 42 37 43 40 44
REMARK SMILES IDX 53 45 71 46 38 47 39 48 52 50 72 51 41 52 26 53 27 54 35 55
REMARK SMILES IDX 28 56 34 57 29 58 30 59 31 60 32 61 33 62 56 63 57 64 65 65
REMARK SMILES IDX 58 66 64 67 59 68 60 69 61 70 62 71 63 72 42 73 43 74 51 75
REMARK SMILES IDX 44 76 50 77 45 78 46 79 47 80 48 81 49 82
REMARK H PARENT 4 11 70 38 40 49
REMARK Flexibility Score: inf
ROOT
ATOM      1  C   UNL A   1      38.207  23.857  25.846  1.00  0.00     0.275 C 
ENDROOT
BRANCH   1   2
ATOM      2  C   UNL A   1      38.206  22.345  26.073  1.00  0.00     0.275 C 
BRANCH   2   3
ATOM      3  O   UNL A   1      39.456  21.742  25.672  1.00  0.00    -0.458 OA
BRANCH   3   4
ATOM      4  C   UNL A   1      40.389  21.635  26.653  1.00  0.00     0.338 C 
ATOM      5  O   UNL A   1      40.206  21.794  27.844  1.00  0.00    -0.246 OA
BRANCH   4   6
ATOM      6  C   UNL A   1      41.699  21.202  26.102  1.00  0.00     0.062 A 
ATOM      7  C   UNL A   1      45.284  19.739  24.815  1.00  0.00     0.105 A 
ATOM      8  N   UNL A   1      44.895  18.424  24.837  1.00  0.00    -0.274 N 
ATOM      9  C   UNL A   1      44.153  20.427  25.189  1.00  0.00     0.030 A 
ATOM     10  N   UNL A   1      43.653  18.213  25.292  1.00  0.00    -0.175 NA
ATOM     11  H   UNL A   1      45.484  17.691  24.542  1.00  0.00     0.190 HD
ATOM     12  C   UNL A   1      43.164  19.437  25.525  1.00  0.00     0.094 A 
ATOM     13  C   UNL A   1      43.992  21.811  25.283  1.00  0.00     0.013 A 
ATOM     14  C   UNL A   1      41.916  19.807  26.034  1.00  0.00     0.046 A 
ATOM     15  C   UNL A   1      42.698  22.163  25.738  1.00  0.00     0.016 A 
BRANCH   7  16
ATOM     16  C   UNL A   1      46.613  20.164  24.480  1.00  0.00     0.280 C 
ATOM     17  O   UNL A   1      47.646  19.573  24.774  1.00  0.00    -0.296 OA
ENDBRANCH   7  16
ENDBRANCH   4   6
ENDBRANCH   3   4
ENDBRANCH   2   3
ENDBRANCH   1   2
BRANCH   1  18
ATOM     18  O   UNL A   1      38.515  24.550  27.068  1.00  0.00    -0.458 OA
BRANCH  18  19
ATOM     19  C   UNL A   1      39.531  25.439  26.987  1.00  0.00     0.338 C 
ATOM     20  O   UNL A   1      40.417  25.477  26.148  1.00  0.00    -0.246 OA
BRANCH  19  21
ATOM     21  C   UNL A   1      39.404  26.454  28.044  1.00  0.00     0.060 A 
ATOM     22  C   UNL A   1      40.045  27.672  27.863  1.00  0.00     0.016 A 
ATOM     23  C   UNL A   1      38.834  26.145  29.275  1.00  0.00     0.016 A 
ATOM     24  C   UNL A   1      40.258  28.521  28.945  1.00  0.00     0.010 A 
ATOM     25  C   UNL A   1      38.920  27.070  30.325  1.00  0.00     0.010 A 
ATOM     26  C   UNL A   1      39.681  28.249  30.193  1.00  0.00    -0.014 A 
BRANCH  26  27
ATOM     27  C   UNL A   1      39.888  29.179  31.348  1.00  0.00     0.031 A 
ATOM     28  C   UNL A   1      41.077  29.014  32.268  1.00  0.00     0.074 A 
ATOM     29  C   UNL A   1      39.014  30.180  31.585  1.00  0.00     0.049 A 
ATOM     30  N   UNL A   1      41.326  29.601  33.412  1.00  0.00    -0.248 NA
ATOM     31  C   UNL A   1      42.107  28.045  31.861  1.00  0.00     0.031 C 
ATOM     32  C   UNL A   1      37.835  30.492  30.772  1.00  0.00     0.029 A 
ATOM     33  N   UNL A   1      38.979  31.127  32.583  1.00  0.00    -0.354 N 
ATOM     34  C   UNL A   1      42.497  29.021  33.895  1.00  0.00     0.074 A 
ATOM     35  C   UNL A   1      42.906  28.034  32.919  1.00  0.00     0.031 C 
ATOM     36  C   UNL A   1      37.224  31.575  31.271  1.00  0.00     0.029 A 
ATOM     37  C   UNL A   1      37.897  31.972  32.502  1.00  0.00     0.049 A 
ATOM     38  H   UNL A   1      39.664  31.194  33.287  1.00  0.00     0.167 HD
ATOM     39  C   UNL A   1      43.164  29.281  35.047  1.00  0.00     0.031 A 
ATOM     40  C   UNL A   1      37.446  32.925  33.341  1.00  0.00     0.031 A 
ATOM     41  C   UNL A   1      42.781  30.300  35.991  1.00  0.00     0.049 A 
ATOM     42  C   UNL A   1      38.189  33.188  34.617  1.00  0.00     0.074 A 
ATOM     43  C   UNL A   1      43.419  30.670  37.163  1.00  0.00     0.029 A 
ATOM     44  N   UNL A   1      41.667  31.117  35.871  1.00  0.00    -0.354 N 
ATOM     45  N   UNL A   1      39.278  32.611  35.067  1.00  0.00    -0.248 NA
ATOM     46  C   UNL A   1      37.639  34.220  35.505  1.00  0.00     0.031 C 
ATOM     47  C   UNL A   1      42.659  31.670  37.780  1.00  0.00     0.029 A 
ATOM     48  C   UNL A   1      41.583  31.970  36.961  1.00  0.00     0.049 A 
ATOM     49  H   UNL A   1      41.028  31.095  35.121  1.00  0.00     0.167 HD
ATOM     50  C   UNL A   1      39.547  33.216  36.289  1.00  0.00     0.074 A 
ATOM     51  C   UNL A   1      38.523  34.220  36.494  1.00  0.00     0.031 C 
ATOM     52  C   UNL A   1      40.551  32.957  37.163  1.00  0.00     0.031 A 
BRANCH  39  53
ATOM     53  C   UNL A   1      44.348  28.408  35.386  1.00  0.00    -0.014 A 
ATOM     54  C   UNL A   1      45.667  28.780  35.067  1.00  0.00     0.010 A 
ATOM     55  C   UNL A   1      44.131  27.195  36.069  1.00  0.00     0.010 A 
ATOM     56  C   UNL A   1      46.737  27.932  35.374  1.00  0.00     0.020 A 
ATOM     57  C   UNL A   1      45.200  26.359  36.406  1.00  0.00     0.020 A 
ATOM     58  C   UNL A   1      46.495  26.722  36.035  1.00  0.00     0.054 A 
BRANCH  58  59
ATOM     59  S   UNL A   1      47.899  25.639  36.419  1.00  0.00     0.124 S 
ATOM     60  O   UNL A   1      48.795  26.548  37.130  1.00  0.00    -0.237 OA
ATOM     61  O   UNL A   1      47.286  24.596  37.237  1.00  0.00    -0.237 OA
ATOM     62  O   UNL A   1      48.370  25.201  35.107  1.00  0.00    -0.744 OA
ENDBRANCH  58  59
ENDBRANCH  39  53
BRANCH  40  63
ATOM     63  C   UNL A   1      36.185  33.648  33.016  1.00  0.00    -0.014 A 
ATOM     64  C   UNL A   1      34.932  33.081  33.303  1.00  0.00     0.010 A 
ATOM     65  C   UNL A   1      36.238  34.946  32.471  1.00  0.00     0.010 A 
ATOM     66  C   UNL A   1      33.757  33.800  33.056  1.00  0.00     0.020 A 
ATOM     67  C   UNL A   1      35.070  35.680  32.255  1.00  0.00     0.020 A 
ATOM     68  C   UNL A   1      33.835  35.099  32.544  1.00  0.00     0.054 A 
BRANCH  68  69
ATOM     69  S   UNL A   1      32.304  36.048  32.320  1.00  0.00     0.124 S 
ATOM     70  O   UNL A   1      32.489  37.148  33.259  1.00  0.00    -0.237 OA
ATOM     71  O   UNL A   1      32.359  36.407  30.905  1.00  0.00    -0.237 OA
ATOM     72  O   UNL A   1      31.255  35.093  32.670  1.00  0.00    -0.744 OA
ENDBRANCH  68  69
ENDBRANCH  40  63
BRANCH  52  73
ATOM     73  C   UNL A   1      40.608  33.794  38.412  1.00  0.00    -0.014 A 
ATOM     74  C   UNL A   1      41.294  35.021  38.439  1.00  0.00     0.010 A 
ATOM     75  C   UNL A   1      39.927  33.365  39.566  1.00  0.00     0.010 A 
ATOM     76  C   UNL A   1      41.328  35.787  39.608  1.00  0.00     0.020 A 
ATOM     77  C   UNL A   1      39.935  34.140  40.728  1.00  0.00     0.020 A 
ATOM     78  C   UNL A   1      40.648  35.341  40.745  1.00  0.00     0.054 A 
BRANCH  78  79
ATOM     79  S   UNL A   1      40.676  36.369  42.239  1.00  0.00     0.124 S 
ATOM     80  O   UNL A   1      40.947  35.383  43.282  1.00  0.00    -0.237 OA
ATOM     81  O   UNL A   1      41.760  37.307  41.963  1.00  0.00    -0.237 OA
ATOM     82  O   UNL A   1      39.341  36.963  42.276  1.00  0.00    -0.744 OA
ENDBRANCH  78  79
ENDBRANCH  52  73
ENDBRANCH  26  27
ENDBRANCH  19  21
ENDBRANCH  18  19
ENDBRANCH   1  18
TORSDOF 15
ENDMDL
MODEL 2
REMARK VINA RESULT:     -10.4      6.872     13.001
REMARK SMILES O=Cc1[nH]nc2cc(C(=O)OCCOC(=O)c3ccc(-c4c5nc(c(-c6ccc(S(=O)(=O)[O-])cc6)c6ccc([nH]6)c(-c6ccc(S(=O)(=O)[O-])cc6)c6nc(c(-c7ccc(S(=O)(=O)[O-])cc7)c7ccc4[nH]7)C=C6)C=C5)cc3)ccc12
REMARK SMILES IDX 13 1 12 2 11 3 9 4 10 5 8 6 3 7 4 8 79 9 5 10 6 12 78 13
REMARK SMILES IDX 7 14 77 15 2 16 1 17 14 18 15 19 16 20 17 21 18 22 76 23
REMARK SMILES IDX 19 24 75 25 20 26 21 27 22 28 69 29 23 30 74 31 68 32 70 33
REMARK SMILES IDX 24 34 73 35 67 36 66 37 25 39 55 40 36 41 54 42 37 43 40 44
REMARK SMILES IDX 53 45 71 46 38 47 39 48 52 50 72 51 41 52 26 53 27 54 35 55
REMARK SMILES IDX 28 56 34 57 29 58 30 59 31 60 32 61 33 62 56 63 57 64 65 65
REMARK SMILES IDX 58 66 64 67 59 68 60 69 61 70 62 71 63 72 42 73 43 74 51 75
REMARK SMILES IDX 44 76 50 77 45 78 46 79 47 80 48 81 49 82
REMARK H PARENT 4 11 70 38 40 49
REMARK Flexibility Score: inf
ROOT
ATOM      1  C   UNL A   1      33.075  28.319  26.464  1.00  0.00     0.275 C 
ENDROOT
BRANCH   1   2
ATOM      2  C   UNL A   1      32.851  26.815  26.300  1.00  0.00     0.275 C 
BRANCH   2   3
ATOM      3  O   UNL A   1      31.736  26.531  25.428  1.00  0.00    -0.458 OA
BRANCH   3   4
ATOM      4  C   UNL A   1      31.976  26.712  24.103  1.00  0.00     0.338 C 
ATOM      5  O   UNL A   1      32.808  26.131  23.434  1.00  0.00    -0.246 OA
BRANCH   4   6
ATOM      6  C   UNL A   1      31.015  27.679  23.511  1.00  0.00     0.062 A 
ATOM      7  C   UNL A   1      28.163  30.058  21.823  1.00  0.00     0.105 A 
ATOM      8  N   UNL A   1      27.103  29.413  22.407  1.00  0.00    -0.274 N 
ATOM      9  C   UNL A   1      29.266  29.408  22.324  1.00  0.00     0.030 A 
ATOM     10  N   UNL A   1      27.434  28.347  23.147  1.00  0.00    -0.175 NA
ATOM     11  H   UNL A   1      26.171  29.709  22.289  1.00  0.00     0.190 HD
ATOM     12  C   UNL A   1      28.771  28.311  23.114  1.00  0.00     0.094 A 
ATOM     13  C   UNL A   1      30.610  29.703  22.082  1.00  0.00     0.013 A 
ATOM     14  C   UNL A   1      29.645  27.388  23.696  1.00  0.00     0.046 A 
ATOM     15  C   UNL A   1      31.477  28.793  22.737  1.00  0.00     0.016 A 
BRANCH   7  16
ATOM     16  C   UNL A   1      28.013  31.144  20.896  1.00  0.00     0.280 C 
ATOM     17  O   UNL A   1      28.017  32.335  21.186  1.00  0.00    -0.296 OA
ENDBRANCH   7  16
ENDBRANCH   4   6
ENDBRANCH   3   4
ENDBRANCH   2   3
ENDBRANCH   1   2
BRANCH   1  18
ATOM     18  O   UNL A   1      33.757  28.596  27.700  1.00  0.00    -0.458 OA
BRANCH  18  19
ATOM     19  C   UNL A   1      34.212  29.861  27.838  1.00  0.00     0.338 C 
ATOM     20  O   UNL A   1      33.574  30.895  27.718  1.00  0.00    -0.246 OA
BRANCH  19  21
ATOM     21  C   UNL A   1      35.627  29.853  28.239  1.00  0.00     0.060 A 
ATOM     22  C   UNL A   1      36.583  30.155  27.278  1.00  0.00     0.016 A 
ATOM     23  C   UNL A   1      36.022  29.364  29.480  1.00  0.00     0.016 A 
ATOM     24  C   UNL A   1      37.918  29.828  27.489  1.00  0.00     0.010 A 
ATOM     25  C   UNL A   1      37.386  29.175  29.745  1.00  0.00     0.010 A 
ATOM     26  C   UNL A   1      38.351  29.352  28.735  1.00  0.00    -0.014 A 
BRANCH  26  27
ATOM     27  C   UNL A   1      39.794  29.028  28.967  1.00  0.00     0.031 A 
ATOM     28  C   UNL A   1      40.739  30.070  29.525  1.00  0.00     0.074 A 
ATOM     29  C   UNL A   1      40.274  27.799  28.682  1.00  0.00     0.049 A 
ATOM     30  N   UNL A   1      42.044  30.034  29.626  1.00  0.00    -0.248 NA
ATOM     31  C   UNL A   1      40.139  31.323  30.010  1.00  0.00     0.031 C 
ATOM     32  C   UNL A   1      39.485  26.675  28.169  1.00  0.00     0.029 A 
ATOM     33  N   UNL A   1      41.546  27.283  28.782  1.00  0.00    -0.354 N 
ATOM     34  C   UNL A   1      42.426  31.282  30.112  1.00  0.00     0.074 A 
ATOM     35  C   UNL A   1      41.213  32.052  30.284  1.00  0.00     0.031 C 
ATOM     36  C   UNL A   1      40.274  25.598  28.046  1.00  0.00     0.029 A 
ATOM     37  C   UNL A   1      41.645  25.978  28.361  1.00  0.00     0.049 A 
ATOM     38  H   UNL A   1      42.311  27.799  29.124  1.00  0.00     0.167 HD
ATOM     39  C   UNL A   1      43.672  31.745  30.383  1.00  0.00     0.031 A 
ATOM     40  C   UNL A   1      42.715  25.178  28.186  1.00  0.00     0.031 A 
ATOM     41  C   UNL A   1      44.873  30.958  30.259  1.00  0.00     0.049 A 
ATOM     42  C   UNL A   1      44.086  25.712  28.477  1.00  0.00     0.074 A 
ATOM     43  C   UNL A   1      46.175  31.324  30.555  1.00  0.00     0.029 A 
ATOM     44  N   UNL A   1      44.921  29.646  29.812  1.00  0.00    -0.354 N 
ATOM     45  N   UNL A   1      44.427  26.902  28.911  1.00  0.00    -0.248 NA
ATOM     46  C   UNL A   1      45.216  24.805  28.245  1.00  0.00     0.031 C 
ATOM     47  C   UNL A   1      47.016  30.254  30.231  1.00  0.00     0.029 A 
ATOM     48  C   UNL A   1      46.232  29.197  29.795  1.00  0.00     0.049 A 
ATOM     49  H   UNL A   1      44.138  29.111  29.545  1.00  0.00     0.167 HD
ATOM     50  C   UNL A   1      45.814  26.884  29.010  1.00  0.00     0.074 A 
ATOM     51  C   UNL A   1      46.243  25.558  28.616  1.00  0.00     0.031 C 
ATOM     52  C   UNL A   1      46.652  27.880  29.389  1.00  0.00     0.031 A 
BRANCH  39  53
ATOM     53  C   UNL A   1      43.811  33.194  30.785  1.00  0.00    -0.014 A 
ATOM     54  C   UNL A   1      43.890  33.592  32.131  1.00  0.00     0.010 A 
ATOM     55  C   UNL A   1      43.892  34.178  29.780  1.00  0.00     0.010 A 
ATOM     56  C   UNL A   1      43.993  34.948  32.465  1.00  0.00     0.020 A 
ATOM     57  C   UNL A   1      44.026  35.530  30.108  1.00  0.00     0.020 A 
ATOM     58  C   UNL A   1      44.052  35.909  31.450  1.00  0.00     0.054 A 
BRANCH  58  59
ATOM     59  S   UNL A   1      44.181  37.660  31.910  1.00  0.00     0.124 S 
ATOM     60  O   UNL A   1      43.723  38.325  30.693  1.00  0.00    -0.237 OA
ATOM     61  O   UNL A   1      43.281  37.758  33.056  1.00  0.00    -0.237 OA
ATOM     62  O   UNL A   1      45.598  37.835  32.219  1.00  0.00    -0.744 OA
ENDBRANCH  58  59
ENDBRANCH  39  53
BRANCH  40  63
ATOM     63  C   UNL A   1      42.519  23.803  27.644  1.00  0.00    -0.014 A 
ATOM     64  C   UNL A   1      42.675  23.538  26.274  1.00  0.00     0.010 A 
ATOM     65  C   UNL A   1      42.234  22.736  28.518  1.00  0.00     0.010 A 
ATOM     66  C   UNL A   1      42.557  22.231  25.788  1.00  0.00     0.020 A 
ATOM     67  C   UNL A   1      42.148  21.426  28.044  1.00  0.00     0.020 A 
ATOM     68  C   UNL A   1      42.304  21.182  26.679  1.00  0.00     0.054 A 
BRANCH  68  69
ATOM     69  S   UNL A   1      42.248  19.483  26.042  1.00  0.00     0.124 S 
ATOM     70  O   UNL A   1      42.689  18.711  27.198  1.00  0.00    -0.237 OA
ATOM     71  O   UNL A   1      40.842  19.330  25.676  1.00  0.00    -0.237 OA
ATOM     72  O   UNL A   1      43.176  19.510  24.914  1.00  0.00    -0.744 OA
ENDBRANCH  68  69
ENDBRANCH  40  63
BRANCH  52  73
ATOM     73  C   UNL A   1      48.123  27.563  29.423  1.00  0.00    -0.014 A 
ATOM     74  C   UNL A   1      48.956  27.849  28.327  1.00  0.00     0.010 A 
ATOM     75  C   UNL A   1      48.687  27.009  30.586  1.00  0.00     0.010 A 
ATOM     76  C   UNL A   1      50.322  27.554  28.382  1.00  0.00     0.020 A 
ATOM     77  C   UNL A   1      50.055  26.739  30.656  1.00  0.00     0.020 A 
ATOM     78  C   UNL A   1      50.862  27.000  29.547  1.00  0.00     0.054 A 
BRANCH  78  79
ATOM     79  S   UNL A   1      52.643  26.659  29.608  1.00  0.00     0.124 S 
ATOM     80  O   UNL A   1      53.203  27.999  29.769  1.00  0.00    -0.237 OA
ATOM     81  O   UNL A   1      52.762  25.784  30.770  1.00  0.00    -0.237 OA
ATOM     82  O   UNL A   1      52.918  26.020  28.322  1.00  0.00    -0.744 OA
ENDBRANCH  78  79
ENDBRANCH  52  73
ENDBRANCH  26  27
ENDBRANCH  19  21
ENDBRANCH  18  19
ENDBRANCH   1  18
TORSDOF 15
ENDMDL
MODEL 3
REMARK VINA RESULT:     -10.2      4.154      5.248
REMARK SMILES O=Cc1[nH]nc2cc(C(=O)OCCOC(=O)c3ccc(-c4c5nc(c(-c6ccc(S(=O)(=O)[O-])cc6)c6ccc([nH]6)c(-c6ccc(S(=O)(=O)[O-])cc6)c6nc(c(-c7ccc(S(=O)(=O)[O-])cc7)c7ccc4[nH]7)C=C6)C=C5)cc3)ccc12
REMARK SMILES IDX 13 1 12 2 11 3 9 4 10 5 8 6 3 7 4 8 79 9 5 10 6 12 78 13
REMARK SMILES IDX 7 14 77 15 2 16 1 17 14 18 15 19 16 20 17 21 18 22 76 23
REMARK SMILES IDX 19 24 75 25 20 26 21 27 22 28 69 29 23 30 74 31 68 32 70 33
REMARK SMILES IDX 24 34 73 35 67 36 66 37 25 39 55 40 36 41 54 42 37 43 40 44
REMARK SMILES IDX 53 45 71 46 38 47 39 48 52 50 72 51 41 52 26 53 27 54 35 55
REMARK SMILES IDX 28 56 34 57 29 58 30 59 31 60 32 61 33 62 56 63 57 64 65 65
REMARK SMILES IDX 58 66 64 67 59 68 60 69 61 70 62 71 63 72 42 73 43 74 51 75
REMARK SMILES IDX 44 76 50 77 45 78 46 79 47 80 48 81 49 82
REMARK H PARENT 4 11 70 38 40 49
REMARK Flexibility Score: inf
ROOT
ATOM      1  C   UNL A   1      40.097  20.628  26.243  1.00  0.00     0.275 C 
ENDROOT
BRANCH   1   2
ATOM      2  C   UNL A   1      41.401  19.895  26.557  1.00  0.00     0.275 C 
BRANCH   2   3
ATOM      3  O   UNL A   1      42.501  20.812  26.745  1.00  0.00    -0.458 OA
BRANCH   3   4
ATOM      4  C   UNL A   1      43.381  20.881  25.713  1.00  0.00     0.338 C 
ATOM      5  O   UNL A   1      43.642  19.993  24.926  1.00  0.00    -0.246 OA
BRANCH   4   6
ATOM      6  C   UNL A   1      43.954  22.247  25.588  1.00  0.00     0.062 A 
ATOM      7  C   UNL A   1      45.714  25.927  25.539  1.00  0.00     0.105 A 
ATOM      8  N   UNL A   1      46.958  25.474  25.900  1.00  0.00    -0.274 N 
ATOM      9  C   UNL A   1      44.955  24.784  25.452  1.00  0.00     0.030 A 
ATOM     10  N   UNL A   1      47.025  24.160  26.152  1.00  0.00    -0.175 NA
ATOM     11  H   UNL A   1      47.740  26.068  25.970  1.00  0.00     0.190 HD
ATOM     12  C   UNL A   1      45.796  23.700  25.889  1.00  0.00     0.094 A 
ATOM     13  C   UNL A   1      43.615  24.680  25.072  1.00  0.00     0.013 A 
ATOM     14  C   UNL A   1      45.295  22.401  26.007  1.00  0.00     0.046 A 
ATOM     15  C   UNL A   1      43.149  23.343  25.137  1.00  0.00     0.016 A 
BRANCH   7  16
ATOM     16  C   UNL A   1      45.405  27.315  25.347  1.00  0.00     0.280 C 
ATOM     17  O   UNL A   1      45.853  28.030  24.456  1.00  0.00    -0.296 OA
ENDBRANCH   7  16
ENDBRANCH   4   6
ENDBRANCH   3   4
ENDBRANCH   2   3
ENDBRANCH   1   2
BRANCH   1  18
ATOM     18  O   UNL A   1      40.161  21.990  26.703  1.00  0.00    -0.458 OA
BRANCH  18  19
ATOM     19  C   UNL A   1      39.109  22.767  26.359  1.00  0.00     0.338 C 
ATOM     20  O   UNL A   1      38.099  22.424  25.765  1.00  0.00    -0.246 OA
BRANCH  19  21
ATOM     21  C   UNL A   1      39.297  24.133  26.869  1.00  0.00     0.060 A 
ATOM     22  C   UNL A   1      39.960  25.048  26.063  1.00  0.00     0.016 A 
ATOM     23  C   UNL A   1      39.005  24.455  28.191  1.00  0.00     0.016 A 
ATOM     24  C   UNL A   1      40.472  26.222  26.608  1.00  0.00     0.010 A 
ATOM     25  C   UNL A   1      39.393  25.704  28.697  1.00  0.00     0.010 A 
ATOM     26  C   UNL A   1      40.180  26.585  27.930  1.00  0.00    -0.014 A 
BRANCH  26  27
ATOM     27  C   UNL A   1      40.709  27.862  28.504  1.00  0.00     0.031 A 
ATOM     28  C   UNL A   1      42.169  27.995  28.875  1.00  0.00     0.074 A 
ATOM     29  C   UNL A   1      39.888  28.916  28.701  1.00  0.00     0.049 A 
ATOM     30  N   UNL A   1      42.770  28.947  29.544  1.00  0.00    -0.248 NA
ATOM     31  C   UNL A   1      43.066  26.903  28.461  1.00  0.00     0.031 C 
ATOM     32  C   UNL A   1      38.462  28.958  28.365  1.00  0.00     0.029 A 
ATOM     33  N   UNL A   1      40.133  30.162  29.231  1.00  0.00    -0.354 N 
ATOM     34  C   UNL A   1      44.093  28.535  29.695  1.00  0.00     0.074 A 
ATOM     35  C   UNL A   1      44.204  27.245  29.049  1.00  0.00     0.031 C 
ATOM     36  C   UNL A   1      37.974  30.173  28.651  1.00  0.00     0.029 A 
ATOM     37  C   UNL A   1      39.017  30.962  29.293  1.00  0.00     0.049 A 
ATOM     38  H   UNL A   1      41.023  30.452  29.536  1.00  0.00     0.167 HD
ATOM     39  C   UNL A   1      45.115  29.170  30.320  1.00  0.00     0.031 A 
ATOM     40  C   UNL A   1      38.820  32.173  29.851  1.00  0.00     0.031 A 
ATOM     41  C   UNL A   1      45.013  30.478  30.917  1.00  0.00     0.049 A 
ATOM     42  C   UNL A   1      39.959  32.852  30.550  1.00  0.00     0.074 A 
ATOM     43  C   UNL A   1      46.005  31.222  31.532  1.00  0.00     0.029 A 
ATOM     44  N   UNL A   1      43.855  31.239  30.969  1.00  0.00    -0.354 N 
ATOM     45  N   UNL A   1      41.193  32.435  30.705  1.00  0.00    -0.248 NA
ATOM     46  C   UNL A   1      39.680  34.158  31.161  1.00  0.00     0.031 C 
ATOM     47  C   UNL A   1      45.434  32.408  32.006  1.00  0.00     0.029 A 
ATOM     48  C   UNL A   1      44.100  32.433  31.630  1.00  0.00     0.049 A 
ATOM     49  H   UNL A   1      42.986  30.972  30.591  1.00  0.00     0.167 HD
ATOM     50  C   UNL A   1      41.840  33.431  31.426  1.00  0.00     0.074 A 
ATOM     51  C   UNL A   1      40.869  34.481  31.653  1.00  0.00     0.031 C 
ATOM     52  C   UNL A   1      43.123  33.467  31.863  1.00  0.00     0.031 A 
BRANCH  39  53
ATOM     53  C   UNL A   1      46.427  28.432  30.447  1.00  0.00    -0.014 A 
ATOM     54  C   UNL A   1      47.474  28.605  29.524  1.00  0.00     0.010 A 
ATOM     55  C   UNL A   1      46.622  27.564  31.538  1.00  0.00     0.010 A 
ATOM     56  C   UNL A   1      48.666  27.885  29.660  1.00  0.00     0.020 A 
ATOM     57  C   UNL A   1      47.822  26.866  31.696  1.00  0.00     0.020 A 
ATOM     58  C   UNL A   1      48.829  27.013  30.742  1.00  0.00     0.054 A 
BRANCH  58  59
ATOM     59  S   UNL A   1      50.383  26.087  30.893  1.00  0.00     0.124 S 
ATOM     60  O   UNL A   1      49.911  24.779  31.339  1.00  0.00    -0.237 OA
ATOM     61  O   UNL A   1      50.917  26.132  29.535  1.00  0.00    -0.237 OA
ATOM     62  O   UNL A   1      51.144  26.846  31.883  1.00  0.00    -0.744 OA
ENDBRANCH  58  59
ENDBRANCH  39  53
BRANCH  40  63
ATOM     63  C   UNL A   1      37.458  32.779  29.819  1.00  0.00    -0.014 A 
ATOM     64  C   UNL A   1      36.626  32.745  30.949  1.00  0.00     0.010 A 
ATOM     65  C   UNL A   1      37.015  33.453  28.664  1.00  0.00     0.010 A 
ATOM     66  C   UNL A   1      35.378  33.379  30.928  1.00  0.00     0.020 A 
ATOM     67  C   UNL A   1      35.786  34.116  28.649  1.00  0.00     0.020 A 
ATOM     68  C   UNL A   1      34.972  34.069  29.781  1.00  0.00     0.054 A 
BRANCH  68  69
ATOM     69  S   UNL A   1      33.392  34.962  29.808  1.00  0.00     0.124 S 
ATOM     70  O   UNL A   1      32.576  34.162  28.900  1.00  0.00    -0.237 OA
ATOM     71  O   UNL A   1      33.017  34.899  31.218  1.00  0.00    -0.237 OA
ATOM     72  O   UNL A   1      33.744  36.295  29.325  1.00  0.00    -0.744 OA
ENDBRANCH  68  69
ENDBRANCH  40  63
BRANCH  52  73
ATOM     73  C   UNL A   1      43.560  34.699  32.610  1.00  0.00    -0.014 A 
ATOM     74  C   UNL A   1      43.571  34.734  34.015  1.00  0.00     0.010 A 
ATOM     75  C   UNL A   1      44.007  35.823  31.892  1.00  0.00     0.010 A 
ATOM     76  C   UNL A   1      43.988  35.886  34.690  1.00  0.00     0.020 A 
ATOM     77  C   UNL A   1      44.450  36.966  32.562  1.00  0.00     0.020 A 
ATOM     78  C   UNL A   1      44.424  36.995  33.958  1.00  0.00     0.054 A 
BRANCH  78  79
ATOM     79  S   UNL A   1      44.995  38.464  34.855  1.00  0.00     0.124 S 
ATOM     80  O   UNL A   1      46.317  38.046  35.314  1.00  0.00    -0.237 OA
ATOM     81  O   UNL A   1      44.985  39.495  33.821  1.00  0.00    -0.237 OA
ATOM     82  O   UNL A   1      43.996  38.637  35.908  1.00  0.00    -0.744 OA
ENDBRANCH  78  79
ENDBRANCH  52  73
ENDBRANCH  26  27
ENDBRANCH  19  21
ENDBRANCH  18  19
ENDBRANCH   1  18
TORSDOF 15
ENDMDL
