MODEL 1
REMARK VINA RESULT:     -11.0      0.000      0.000
REMARK SMILES COCC[C@@]1(C(=O)OCCOC(=O)c2ccc(-c3c4nc(c(-c5ccc(S(=O)(=O)[O-])cc5)c5ccc([nH]5)c(-c5ccc(S(=O)(=O)[O-])cc5)c5nc(c(-c6ccc(S(=O)(=O)[O-])cc6)c6ccc3[nH]6)C=C5)C=C4)cc2)CCCN(C(=O)NCc2ccc(OC)cc2)C1
REMARK SMILES IDX 9 1 8 2 6 3 7 4 5 5 74 6 90 7 75 8 77 9 76 10 4 11 3 12 2 13
REMARK SMILES IDX 1 14 78 15 79 16 80 17 81 19 82 20 83 21 89 22 84 23 88 24
REMARK SMILES IDX 85 25 86 26 87 27 10 28 11 29 12 30 13 31 14 32 15 33 73 34
REMARK SMILES IDX 16 35 72 36 17 37 18 38 19 39 66 40 20 41 71 42 65 43 67 44
REMARK SMILES IDX 21 45 70 46 64 47 63 48 22 50 52 51 33 52 51 53 34 54 37 55
REMARK SMILES IDX 50 56 68 57 35 58 36 59 49 61 69 62 38 63 23 64 24 65 32 66
REMARK SMILES IDX 25 67 31 68 26 69 27 70 28 71 29 72 30 73 53 74 54 75 62 76
REMARK SMILES IDX 55 77 61 78 56 79 57 80 58 81 59 82 60 83 39 84 40 85 48 86
REMARK SMILES IDX 41 87 47 88 42 89 43 90 44 91 45 92 46 93
REMARK H PARENT 80 18 67 49 37 60
REMARK Flexibility Score: inf
ROOT
ATOM      1  C   UNL A   1      36.184  21.102  25.266  1.00  0.00     0.274 C 
ENDROOT
BRANCH   1   2
ATOM      2  O   UNL A   1      34.947  21.733  24.870  1.00  0.00    -0.462 OA
BRANCH   2   3
ATOM      3  C   UNL A   1      33.888  21.470  25.684  1.00  0.00     0.314 C 
ATOM      4  O   UNL A   1      33.954  21.489  26.908  1.00  0.00    -0.252 OA
BRANCH   3   5
ATOM      5  C   UNL A   1      32.602  21.110  24.927  1.00  0.00     0.088 C 
ATOM      6  C   UNL A   1      32.597  21.527  23.433  1.00  0.00     0.022 C 
ATOM      7  C   UNL A   1      31.411  21.745  25.689  1.00  0.00     0.140 C 
ATOM      8  C   UNL A   1      32.231  22.992  23.171  1.00  0.00     0.023 C 
ATOM      9  N   UNL A   1      31.164  23.148  25.337  1.00  0.00    -0.324 N 
ATOM     10  C   UNL A   1      30.965  23.371  23.918  1.00  0.00     0.121 C 
BRANCH   5  11
ATOM     11  C   UNL A   1      32.453  19.551  25.030  1.00  0.00     0.049 C 
BRANCH  11  12
ATOM     12  C   UNL A   1      32.880  18.757  23.790  1.00  0.00     0.161 C 
BRANCH  12  13
ATOM     13  O   UNL A   1      33.414  17.494  24.160  1.00  0.00    -0.385 OA
ATOM     14  C   UNL A   1      33.018  17.057  25.448  1.00  0.00     0.194 C 
ENDBRANCH  12  13
ENDBRANCH  11  12
ENDBRANCH   5  11
BRANCH   9  15
ATOM     15  C   UNL A   1      30.885  24.016  26.350  1.00  0.00     0.317 C 
ATOM     16  O   UNL A   1      30.153  23.695  27.288  1.00  0.00    -0.249 OA
ATOM     17  N   UNL A   1      31.418  25.240  26.440  1.00  0.00    -0.334 N 
ATOM     18  H   UNL A   1      31.187  25.666  27.297  1.00  0.00     0.165 HD
BRANCH  17  19
ATOM     19  C   UNL A   1      32.238  26.112  25.628  1.00  0.00     0.153 C 
BRANCH  19  20
ATOM     20  C   UNL A   1      31.406  27.126  24.865  1.00  0.00    -0.028 A 
ATOM     21  C   UNL A   1      30.318  26.739  24.065  1.00  0.00     0.009 A 
ATOM     22  C   UNL A   1      31.661  28.498  25.005  1.00  0.00     0.009 A 
ATOM     23  C   UNL A   1      29.525  27.688  23.419  1.00  0.00     0.047 A 
ATOM     24  C   UNL A   1      30.860  29.451  24.356  1.00  0.00     0.047 A 
ATOM     25  C   UNL A   1      29.785  29.047  23.564  1.00  0.00     0.118 A 
BRANCH  25  26
ATOM     26  O   UNL A   1      28.935  29.864  22.874  1.00  0.00    -0.497 OA
ATOM     27  C   UNL A   1      29.420  30.420  21.662  1.00  0.00     0.278 C 
ENDBRANCH  25  26
ENDBRANCH  19  20
ENDBRANCH  17  19
ENDBRANCH   9  15
ENDBRANCH   3   5
ENDBRANCH   2   3
ENDBRANCH   1   2
BRANCH   1  28
ATOM     28  C   UNL A   1      37.405  21.789  24.660  1.00  0.00     0.275 C 
BRANCH  28  29
ATOM     29  O   UNL A   1      37.768  22.936  25.442  1.00  0.00    -0.458 OA
BRANCH  29  30
ATOM     30  C   UNL A   1      38.975  22.882  26.050  1.00  0.00     0.338 C 
ATOM     31  O   UNL A   1      39.723  21.918  26.086  1.00  0.00    -0.246 OA
BRANCH  30  32
ATOM     32  C   UNL A   1      39.282  24.174  26.710  1.00  0.00     0.060 A 
ATOM     33  C   UNL A   1      40.092  25.137  26.103  1.00  0.00     0.016 A 
ATOM     34  C   UNL A   1      38.832  24.378  28.014  1.00  0.00     0.016 A 
ATOM     35  C   UNL A   1      40.536  26.246  26.824  1.00  0.00     0.010 A 
ATOM     36  C   UNL A   1      39.200  25.535  28.703  1.00  0.00     0.010 A 
ATOM     37  C   UNL A   1      40.080  26.468  28.126  1.00  0.00    -0.014 A 
BRANCH  37  38
ATOM     38  C   UNL A   1      40.493  27.658  28.914  1.00  0.00     0.031 A 
ATOM     39  C   UNL A   1      41.727  27.586  29.770  1.00  0.00     0.074 A 
ATOM     40  C   UNL A   1      39.722  28.762  28.937  1.00  0.00     0.049 A 
ATOM     41  N   UNL A   1      42.049  28.303  30.815  1.00  0.00    -0.248 NA
ATOM     42  C   UNL A   1      42.716  26.555  29.415  1.00  0.00     0.031 C 
ATOM     43  C   UNL A   1      38.549  29.004  28.094  1.00  0.00     0.029 A 
ATOM     44  N   UNL A   1      39.791  29.876  29.737  1.00  0.00    -0.354 N 
ATOM     45  C   UNL A   1      43.240  27.766  31.287  1.00  0.00     0.074 A 
ATOM     46  C   UNL A   1      43.594  26.675  30.403  1.00  0.00     0.031 C 
ATOM     47  C   UNL A   1      38.003  30.182  28.427  1.00  0.00     0.029 A 
ATOM     48  C   UNL A   1      38.721  30.724  29.574  1.00  0.00     0.049 A 
ATOM     49  H   UNL A   1      40.531  30.050  30.363  1.00  0.00     0.167 HD
ATOM     50  C   UNL A   1      43.954  28.142  32.375  1.00  0.00     0.031 A 
ATOM     51  C   UNL A   1      38.306  31.771  30.312  1.00  0.00     0.031 A 
ATOM     52  C   UNL A   1      43.597  29.254  33.218  1.00  0.00     0.049 A 
ATOM     53  C   UNL A   1      39.070  32.138  31.550  1.00  0.00     0.074 A 
ATOM     54  C   UNL A   1      44.244  29.725  34.348  1.00  0.00     0.029 A 
ATOM     55  N   UNL A   1      42.505  30.084  33.008  1.00  0.00    -0.354 N 
ATOM     56  N   UNL A   1      40.140  31.569  32.051  1.00  0.00    -0.248 NA
ATOM     57  C   UNL A   1      38.562  33.271  32.333  1.00  0.00     0.031 C 
ATOM     58  C   UNL A   1      43.524  30.820  34.839  1.00  0.00     0.029 A 
ATOM     59  C   UNL A   1      42.454  31.058  33.990  1.00  0.00     0.049 A 
ATOM     60  H   UNL A   1      41.859  29.992  32.270  1.00  0.00     0.167 HD
ATOM     61  C   UNL A   1      40.446  32.287  33.200  1.00  0.00     0.074 A 
ATOM     62  C   UNL A   1      39.449  33.333  33.317  1.00  0.00     0.031 C 
ATOM     63  C   UNL A   1      41.460  32.097  34.078  1.00  0.00     0.031 A 
BRANCH  50  64
ATOM     64  C   UNL A   1      45.156  27.318  32.753  1.00  0.00    -0.014 A 
ATOM     65  C   UNL A   1      46.446  27.647  32.305  1.00  0.00     0.010 A 
ATOM     66  C   UNL A   1      44.991  26.220  33.620  1.00  0.00     0.010 A 
ATOM     67  C   UNL A   1      47.548  26.875  32.695  1.00  0.00     0.020 A 
ATOM     68  C   UNL A   1      46.091  25.460  34.028  1.00  0.00     0.020 A 
ATOM     69  C   UNL A   1      47.362  25.783  33.550  1.00  0.00     0.054 A 
BRANCH  69  70
ATOM     70  S   UNL A   1      48.807  24.814  34.065  1.00  0.00     0.124 S 
ATOM     71  O   UNL A   1      48.190  23.577  34.535  1.00  0.00    -0.237 OA
ATOM     72  O   UNL A   1      49.580  24.700  32.830  1.00  0.00    -0.237 OA
ATOM     73  O   UNL A   1      49.423  25.636  35.105  1.00  0.00    -0.744 OA
ENDBRANCH  69  70
ENDBRANCH  50  64
BRANCH  51  74
ATOM     74  C   UNL A   1      37.057  32.483  29.930  1.00  0.00    -0.014 A 
ATOM     75  C   UNL A   1      35.837  32.161  30.546  1.00  0.00     0.010 A 
ATOM     76  C   UNL A   1      37.098  33.535  28.995  1.00  0.00     0.010 A 
ATOM     77  C   UNL A   1      34.679  32.883  30.239  1.00  0.00     0.020 A 
ATOM     78  C   UNL A   1      35.948  34.274  28.705  1.00  0.00     0.020 A 
ATOM     79  C   UNL A   1      34.743  33.939  29.326  1.00  0.00     0.054 A 
BRANCH  79  80
ATOM     80  S   UNL A   1      33.250  34.921  29.009  1.00  0.00     0.124 S 
ATOM     81  O   UNL A   1      33.812  36.183  28.537  1.00  0.00    -0.237 OA
ATOM     82  O   UNL A   1      32.551  34.125  28.003  1.00  0.00    -0.237 OA
ATOM     83  O   UNL A   1      32.595  34.975  30.314  1.00  0.00    -0.744 OA
ENDBRANCH  79  80
ENDBRANCH  51  74
BRANCH  63  84
ATOM     84  C   UNL A   1      41.580  33.072  35.213  1.00  0.00    -0.014 A 
ATOM     85  C   UNL A   1      40.957  32.828  36.448  1.00  0.00     0.010 A 
ATOM     86  C   UNL A   1      42.392  34.210  35.059  1.00  0.00     0.010 A 
ATOM     87  C   UNL A   1      41.140  33.715  37.512  1.00  0.00     0.020 A 
ATOM     88  C   UNL A   1      42.591  35.088  36.126  1.00  0.00     0.020 A 
ATOM     89  C   UNL A   1      41.957  34.838  37.345  1.00  0.00     0.054 A 
BRANCH  89  90
ATOM     90  S   UNL A   1      42.239  35.937  38.761  1.00  0.00     0.124 S 
ATOM     91  O   UNL A   1      43.653  36.271  38.608  1.00  0.00    -0.237 OA
ATOM     92  O   UNL A   1      41.305  37.032  38.511  1.00  0.00    -0.237 OA
ATOM     93  O   UNL A   1      41.916  35.103  39.916  1.00  0.00    -0.744 OA
ENDBRANCH  89  90
ENDBRANCH  63  84
ENDBRANCH  37  38
ENDBRANCH  30  32
ENDBRANCH  29  30
ENDBRANCH  28  29
ENDBRANCH   1  28
TORSDOF 21
ENDMDL
MODEL 2
REMARK VINA RESULT:     -10.6      1.520      4.634
REMARK SMILES COCC[C@@]1(C(=O)OCCOC(=O)c2ccc(-c3c4nc(c(-c5ccc(S(=O)(=O)[O-])cc5)c5ccc([nH]5)c(-c5ccc(S(=O)(=O)[O-])cc5)c5nc(c(-c6ccc(S(=O)(=O)[O-])cc6)c6ccc3[nH]6)C=C5)C=C4)cc2)CCCN(C(=O)NCc2ccc(OC)cc2)C1
REMARK SMILES IDX 9 1 8 2 6 3 7 4 5 5 74 6 90 7 75 8 77 9 76 10 4 11 3 12 2 13
REMARK SMILES IDX 1 14 78 15 79 16 80 17 81 19 82 20 83 21 89 22 84 23 88 24
REMARK SMILES IDX 85 25 86 26 87 27 10 28 11 29 12 30 13 31 14 32 15 33 73 34
REMARK SMILES IDX 16 35 72 36 17 37 18 38 19 39 66 40 20 41 71 42 65 43 67 44
REMARK SMILES IDX 21 45 70 46 64 47 63 48 22 50 52 51 33 52 51 53 34 54 37 55
REMARK SMILES IDX 50 56 68 57 35 58 36 59 49 61 69 62 38 63 23 64 24 65 32 66
REMARK SMILES IDX 25 67 31 68 26 69 27 70 28 71 29 72 30 73 53 74 54 75 62 76
REMARK SMILES IDX 55 77 61 78 56 79 57 80 58 81 59 82 60 83 39 84 40 85 48 86
REMARK SMILES IDX 41 87 47 88 42 89 43 90 44 91 45 92 46 93
REMARK H PARENT 80 18 67 49 37 60
REMARK Flexibility Score: inf
ROOT
ATOM      1  C   UNL A   1      35.100  22.731  25.644  1.00  0.00     0.274 C 
ENDROOT
BRANCH   1   2
ATOM      2  O   UNL A   1      34.834  24.096  26.029  1.00  0.00    -0.462 OA
BRANCH   2   3
ATOM      3  C   UNL A   1      33.515  24.402  26.168  1.00  0.00     0.314 C 
ATOM      4  O   UNL A   1      32.743  23.768  26.879  1.00  0.00    -0.252 OA
BRANCH   3   5
ATOM      5  C   UNL A   1      33.067  25.601  25.319  1.00  0.00     0.088 C 
ATOM      6  C   UNL A   1      31.561  25.951  25.444  1.00  0.00     0.022 C 
ATOM      7  C   UNL A   1      33.454  25.309  23.847  1.00  0.00     0.140 C 
ATOM      8  C   UNL A   1      30.626  25.103  24.573  1.00  0.00     0.023 C 
ATOM      9  N   UNL A   1      32.468  24.497  23.126  1.00  0.00    -0.324 N 
ATOM     10  C   UNL A   1      31.127  25.050  23.141  1.00  0.00     0.121 C 
BRANCH   5  11
ATOM     11  C   UNL A   1      33.923  26.825  25.801  1.00  0.00     0.049 C 
BRANCH  11  12
ATOM     12  C   UNL A   1      33.367  28.209  25.447  1.00  0.00     0.161 C 
BRANCH  12  13
ATOM     13  O   UNL A   1      33.818  29.185  26.374  1.00  0.00    -0.385 OA
ATOM     14  C   UNL A   1      32.831  30.134  26.736  1.00  0.00     0.194 C 
ENDBRANCH  12  13
ENDBRANCH  11  12
ENDBRANCH   5  11
BRANCH   9  15
ATOM     15  C   UNL A   1      32.934  23.500  22.321  1.00  0.00     0.317 C 
ATOM     16  O   UNL A   1      33.501  23.748  21.255  1.00  0.00    -0.249 OA
ATOM     17  N   UNL A   1      32.871  22.203  22.642  1.00  0.00    -0.334 N 
ATOM     18  H   UNL A   1      33.362  21.651  21.991  1.00  0.00     0.165 HD
BRANCH  17  19
ATOM     19  C   UNL A   1      32.282  21.385  23.679  1.00  0.00     0.153 C 
BRANCH  19  20
ATOM     20  C   UNL A   1      32.848  19.977  23.683  1.00  0.00    -0.028 A 
ATOM     21  C   UNL A   1      33.914  19.611  24.522  1.00  0.00     0.009 A 
ATOM     22  C   UNL A   1      32.261  18.977  22.895  1.00  0.00     0.009 A 
ATOM     23  C   UNL A   1      34.384  18.298  24.559  1.00  0.00     0.047 A 
ATOM     24  C   UNL A   1      32.733  17.655  22.936  1.00  0.00     0.047 A 
ATOM     25  C   UNL A   1      33.795  17.311  23.773  1.00  0.00     0.118 A 
BRANCH  25  26
ATOM     26  O   UNL A   1      34.355  16.073  23.904  1.00  0.00    -0.497 OA
ATOM     27  C   UNL A   1      34.760  15.684  25.207  1.00  0.00     0.278 C 
ENDBRANCH  25  26
ENDBRANCH  19  20
ENDBRANCH  17  19
ENDBRANCH   9  15
ENDBRANCH   3   5
ENDBRANCH   2   3
ENDBRANCH   1   2
BRANCH   1  28
ATOM     28  C   UNL A   1      36.539  22.314  25.940  1.00  0.00     0.275 C 
BRANCH  28  29
ATOM     29  O   UNL A   1      37.421  23.434  25.785  1.00  0.00    -0.458 OA
BRANCH  29  30
ATOM     30  C   UNL A   1      38.725  23.205  26.066  1.00  0.00     0.338 C 
ATOM     31  O   UNL A   1      39.377  22.231  25.725  1.00  0.00    -0.246 OA
BRANCH  30  32
ATOM     32  C   UNL A   1      39.280  24.309  26.885  1.00  0.00     0.060 A 
ATOM     33  C   UNL A   1      38.951  24.464  28.234  1.00  0.00     0.016 A 
ATOM     34  C   UNL A   1      40.065  25.275  26.255  1.00  0.00     0.016 A 
ATOM     35  C   UNL A   1      39.313  25.620  28.924  1.00  0.00     0.010 A 
ATOM     36  C   UNL A   1      40.509  26.387  26.974  1.00  0.00     0.010 A 
ATOM     37  C   UNL A   1      40.113  26.586  28.308  1.00  0.00    -0.014 A 
BRANCH  37  38
ATOM     38  C   UNL A   1      40.558  27.812  29.020  1.00  0.00     0.031 A 
ATOM     39  C   UNL A   1      41.846  27.791  29.795  1.00  0.00     0.074 A 
ATOM     40  C   UNL A   1      39.772  28.906  29.051  1.00  0.00     0.049 A 
ATOM     41  N   UNL A   1      42.224  28.553  30.788  1.00  0.00    -0.248 NA
ATOM     42  C   UNL A   1      42.826  26.760  29.416  1.00  0.00     0.031 C 
ATOM     43  C   UNL A   1      38.544  29.099  28.278  1.00  0.00     0.029 A 
ATOM     44  N   UNL A   1      39.876  30.052  29.802  1.00  0.00    -0.354 N 
ATOM     45  C   UNL A   1      43.452  28.051  31.202  1.00  0.00     0.074 A 
ATOM     46  C   UNL A   1      43.765  26.931  30.339  1.00  0.00     0.031 C 
ATOM     47  C   UNL A   1      38.002  30.282  28.601  1.00  0.00     0.029 A 
ATOM     48  C   UNL A   1      38.784  30.878  29.676  1.00  0.00     0.049 A 
ATOM     49  H   UNL A   1      40.652  30.261  30.370  1.00  0.00     0.167 HD
ATOM     50  C   UNL A   1      44.229  28.480  32.225  1.00  0.00     0.031 A 
ATOM     51  C   UNL A   1      38.401  31.948  30.399  1.00  0.00     0.031 A 
ATOM     52  C   UNL A   1      43.911  29.620  33.046  1.00  0.00     0.049 A 
ATOM     53  C   UNL A   1      39.239  32.374  31.569  1.00  0.00     0.074 A 
ATOM     54  C   UNL A   1      44.622  30.143  34.111  1.00  0.00     0.029 A 
ATOM     55  N   UNL A   1      42.793  30.425  32.876  1.00  0.00    -0.354 N 
ATOM     56  N   UNL A   1      40.348  31.840  32.020  1.00  0.00    -0.248 NA
ATOM     57  C   UNL A   1      38.764  33.530  32.339  1.00  0.00     0.031 C 
ATOM     58  C   UNL A   1      43.918  31.247  34.606  1.00  0.00     0.029 A 
ATOM     59  C   UNL A   1      42.792  31.437  33.821  1.00  0.00     0.049 A 
ATOM     60  H   UNL A   1      42.103  30.296  32.186  1.00  0.00     0.167 HD
ATOM     61  C   UNL A   1      40.717  32.606  33.118  1.00  0.00     0.074 A 
ATOM     62  C   UNL A   1      39.713  33.643  33.260  1.00  0.00     0.031 C 
ATOM     63  C   UNL A   1      41.789  32.465  33.933  1.00  0.00     0.031 A 
BRANCH  50  64
ATOM     64  C   UNL A   1      45.466  27.688  32.554  1.00  0.00    -0.014 A 
ATOM     65  C   UNL A   1      45.455  26.670  33.523  1.00  0.00     0.010 A 
ATOM     66  C   UNL A   1      46.653  27.936  31.837  1.00  0.00     0.010 A 
ATOM     67  C   UNL A   1      46.616  25.935  33.789  1.00  0.00     0.020 A 
ATOM     68  C   UNL A   1      47.808  27.190  32.085  1.00  0.00     0.020 A 
ATOM     69  C   UNL A   1      47.787  26.203  33.072  1.00  0.00     0.054 A 
BRANCH  69  70
ATOM     70  S   UNL A   1      49.272  25.217  33.412  1.00  0.00     0.124 S 
ATOM     71  O   UNL A   1      48.716  23.875  33.561  1.00  0.00    -0.237 OA
ATOM     72  O   UNL A   1      50.086  25.430  32.217  1.00  0.00    -0.237 OA
ATOM     73  O   UNL A   1      49.807  25.808  34.637  1.00  0.00    -0.744 OA
ENDBRANCH  69  70
ENDBRANCH  50  64
BRANCH  51  74
ATOM     74  C   UNL A   1      37.119  32.627  30.073  1.00  0.00    -0.014 A 
ATOM     75  C   UNL A   1      35.976  32.403  30.856  1.00  0.00     0.010 A 
ATOM     76  C   UNL A   1      37.056  33.556  29.016  1.00  0.00     0.010 A 
ATOM     77  C   UNL A   1      34.791  33.100  30.593  1.00  0.00     0.020 A 
ATOM     78  C   UNL A   1      35.883  34.272  28.766  1.00  0.00     0.020 A 
ATOM     79  C   UNL A   1      34.755  34.035  29.554  1.00  0.00     0.054 A 
BRANCH  79  80
ATOM     80  S   UNL A   1      33.238  34.994  29.285  1.00  0.00     0.124 S 
ATOM     81  O   UNL A   1      32.568  34.218  28.248  1.00  0.00    -0.237 OA
ATOM     82  O   UNL A   1      32.606  34.969  30.602  1.00  0.00    -0.237 OA
ATOM     83  O   UNL A   1      33.733  36.304  28.867  1.00  0.00    -0.744 OA
ENDBRANCH  79  80
ENDBRANCH  51  74
BRANCH  63  84
ATOM     84  C   UNL A   1      41.967  33.486  35.020  1.00  0.00    -0.014 A 
ATOM     85  C   UNL A   1      42.801  34.602  34.837  1.00  0.00     0.010 A 
ATOM     86  C   UNL A   1      41.226  33.361  36.209  1.00  0.00     0.010 A 
ATOM     87  C   UNL A   1      42.896  35.576  35.835  1.00  0.00     0.020 A 
ATOM     88  C   UNL A   1      41.307  34.341  37.199  1.00  0.00     0.020 A 
ATOM     89  C   UNL A   1      42.148  35.440  37.009  1.00  0.00     0.054 A 
BRANCH  89  90
ATOM     90  S   UNL A   1      42.232  36.752  38.260  1.00  0.00     0.124 S 
ATOM     91  O   UNL A   1      40.825  37.111  38.416  1.00  0.00    -0.237 OA
ATOM     92  O   UNL A   1      42.836  36.070  39.402  1.00  0.00    -0.237 OA
ATOM     93  O   UNL A   1      43.072  37.772  37.637  1.00  0.00    -0.744 OA
ENDBRANCH  89  90
ENDBRANCH  63  84
ENDBRANCH  37  38
ENDBRANCH  30  32
ENDBRANCH  29  30
ENDBRANCH  28  29
ENDBRANCH   1  28
TORSDOF 21
ENDMDL
MODEL 3
REMARK VINA RESULT:     -10.3      4.659      8.859
REMARK SMILES COCC[C@@]1(C(=O)OCCOC(=O)c2ccc(-c3c4nc(c(-c5ccc(S(=O)(=O)[O-])cc5)c5ccc([nH]5)c(-c5ccc(S(=O)(=O)[O-])cc5)c5nc(c(-c6ccc(S(=O)(=O)[O-])cc6)c6ccc3[nH]6)C=C5)C=C4)cc2)CCCN(C(=O)NCc2ccc(OC)cc2)C1
REMARK SMILES IDX 9 1 8 2 6 3 7 4 5 5 74 6 90 7 75 8 77 9 76 10 4 11 3 12 2 13
REMARK SMILES IDX 1 14 78 15 79 16 80 17 81 19 82 20 83 21 89 22 84 23 88 24
REMARK SMILES IDX 85 25 86 26 87 27 10 28 11 29 12 30 13 31 14 32 15 33 73 34
REMARK SMILES IDX 16 35 72 36 17 37 18 38 19 39 66 40 20 41 71 42 65 43 67 44
REMARK SMILES IDX 21 45 70 46 64 47 63 48 22 50 52 51 33 52 51 53 34 54 37 55
REMARK SMILES IDX 50 56 68 57 35 58 36 59 49 61 69 62 38 63 23 64 24 65 32 66
REMARK SMILES IDX 25 67 31 68 26 69 27 70 28 71 29 72 30 73 53 74 54 75 62 76
REMARK SMILES IDX 55 77 61 78 56 79 57 80 58 81 59 82 60 83 39 84 40 85 48 86
REMARK SMILES IDX 41 87 47 88 42 89 43 90 44 91 45 92 46 93
REMARK H PARENT 80 18 67 49 37 60
REMARK Flexibility Score: inf
ROOT
ATOM      1  C   UNL A   1      36.146  21.170  25.631  1.00  0.00     0.274 C 
ENDROOT
BRANCH   1   2
ATOM      2  O   UNL A   1      35.139  22.106  25.192  1.00  0.00    -0.462 OA
BRANCH   2   3
ATOM      3  C   UNL A   1      33.933  21.978  25.812  1.00  0.00     0.314 C 
ATOM      4  O   UNL A   1      33.764  22.174  27.011  1.00  0.00    -0.252 OA
BRANCH   3   5
ATOM      5  C   UNL A   1      32.802  21.528  24.877  1.00  0.00     0.088 C 
ATOM      6  C   UNL A   1      32.897  22.092  23.434  1.00  0.00     0.022 C 
ATOM      7  C   UNL A   1      31.456  21.915  25.541  1.00  0.00     0.140 C 
ATOM      8  C   UNL A   1      32.352  23.514  23.259  1.00  0.00     0.023 C 
ATOM      9  N   UNL A   1      31.047  23.301  25.285  1.00  0.00    -0.324 N 
ATOM     10  C   UNL A   1      30.972  23.640  23.877  1.00  0.00     0.121 C 
BRANCH   5  11
ATOM     11  C   UNL A   1      32.871  19.961  24.825  1.00  0.00     0.049 C 
BRANCH  11  12
ATOM     12  C   UNL A   1      32.419  19.316  23.510  1.00  0.00     0.161 C 
BRANCH  12  13
ATOM     13  O   UNL A   1      32.375  17.902  23.632  1.00  0.00    -0.385 OA
ATOM     14  C   UNL A   1      33.497  17.241  23.075  1.00  0.00     0.194 C 
ENDBRANCH  12  13
ENDBRANCH  11  12
ENDBRANCH   5  11
BRANCH   9  15
ATOM     15  C   UNL A   1      30.537  24.015  26.328  1.00  0.00     0.317 C 
ATOM     16  O   UNL A   1      30.299  23.484  27.415  1.00  0.00    -0.249 OA
ATOM     17  N   UNL A   1      30.314  25.333  26.280  1.00  0.00    -0.334 N 
ATOM     18  H   UNL A   1      30.057  25.683  27.164  1.00  0.00     0.165 HD
BRANCH  17  19
ATOM     19  C   UNL A   1      30.346  26.388  25.291  1.00  0.00     0.153 C 
BRANCH  19  20
ATOM     20  C   UNL A   1      31.296  27.505  25.681  1.00  0.00    -0.028 A 
ATOM     21  C   UNL A   1      31.867  27.577  26.962  1.00  0.00     0.009 A 
ATOM     22  C   UNL A   1      31.692  28.460  24.733  1.00  0.00     0.009 A 
ATOM     23  C   UNL A   1      32.786  28.575  27.288  1.00  0.00     0.047 A 
ATOM     24  C   UNL A   1      32.620  29.462  25.061  1.00  0.00     0.047 A 
ATOM     25  C   UNL A   1      33.173  29.518  26.340  1.00  0.00     0.118 A 
BRANCH  25  26
ATOM     26  O   UNL A   1      34.075  30.439  26.793  1.00  0.00    -0.497 OA
ATOM     27  C   UNL A   1      35.016  29.997  27.759  1.00  0.00     0.278 C 
ENDBRANCH  25  26
ENDBRANCH  19  20
ENDBRANCH  17  19
ENDBRANCH   9  15
ENDBRANCH   3   5
ENDBRANCH   2   3
ENDBRANCH   1   2
BRANCH   1  28
ATOM     28  C   UNL A   1      37.537  21.530  25.115  1.00  0.00     0.275 C 
BRANCH  28  29
ATOM     29  O   UNL A   1      38.126  22.542  25.943  1.00  0.00    -0.458 OA
BRANCH  29  30
ATOM     30  C   UNL A   1      39.368  22.277  26.411  1.00  0.00     0.338 C 
ATOM     31  O   UNL A   1      39.928  21.192  26.397  1.00  0.00    -0.246 OA
BRANCH  30  32
ATOM     32  C   UNL A   1      39.980  23.501  26.981  1.00  0.00     0.060 A 
ATOM     33  C   UNL A   1      39.693  24.772  26.477  1.00  0.00     0.016 A 
ATOM     34  C   UNL A   1      40.946  23.359  27.977  1.00  0.00     0.016 A 
ATOM     35  C   UNL A   1      40.435  25.880  26.886  1.00  0.00     0.010 A 
ATOM     36  C   UNL A   1      41.622  24.484  28.455  1.00  0.00     0.010 A 
ATOM     37  C   UNL A   1      41.394  25.753  27.894  1.00  0.00    -0.014 A 
BRANCH  37  38
ATOM     38  C   UNL A   1      42.176  26.915  28.390  1.00  0.00     0.031 A 
ATOM     39  C   UNL A   1      41.463  28.051  29.069  1.00  0.00     0.074 A 
ATOM     40  C   UNL A   1      43.499  26.998  28.152  1.00  0.00     0.049 A 
ATOM     41  N   UNL A   1      41.838  29.295  29.208  1.00  0.00    -0.248 NA
ATOM     42  C   UNL A   1      40.142  27.748  29.645  1.00  0.00     0.031 C 
ATOM     43  C   UNL A   1      44.335  25.938  27.584  1.00  0.00     0.029 A 
ATOM     44  N   UNL A   1      44.368  28.048  28.325  1.00  0.00    -0.354 N 
ATOM     45  C   UNL A   1      40.773  29.943  29.823  1.00  0.00     0.074 A 
ATOM     46  C   UNL A   1      39.744  28.949  30.048  1.00  0.00     0.031 C 
ATOM     47  C   UNL A   1      45.588  26.393  27.444  1.00  0.00     0.029 A 
ATOM     48  C   UNL A   1      45.619  27.803  27.810  1.00  0.00     0.049 A 
ATOM     49  H   UNL A   1      44.120  28.890  28.771  1.00  0.00     0.167 HD
ATOM     50  C   UNL A   1      40.666  31.254  30.146  1.00  0.00     0.031 A 
ATOM     51  C   UNL A   1      46.653  28.633  27.575  1.00  0.00     0.031 A 
ATOM     52  C   UNL A   1      41.720  32.215  29.943  1.00  0.00     0.049 A 
ATOM     53  C   UNL A   1      46.498  30.093  27.879  1.00  0.00     0.074 A 
ATOM     54  C   UNL A   1      41.722  33.569  30.230  1.00  0.00     0.029 A 
ATOM     55  N   UNL A   1      42.970  31.915  29.421  1.00  0.00    -0.354 N 
ATOM     56  N   UNL A   1      45.457  30.723  28.368  1.00  0.00    -0.248 NA
ATOM     57  C   UNL A   1      47.645  30.959  27.580  1.00  0.00     0.031 C 
ATOM     58  C   UNL A   1      42.962  34.094  29.851  1.00  0.00     0.029 A 
ATOM     59  C   UNL A   1      43.749  33.058  29.370  1.00  0.00     0.049 A 
ATOM     60  H   UNL A   1      43.261  31.021  29.129  1.00  0.00     0.167 HD
ATOM     61  C   UNL A   1      45.829  32.058  28.454  1.00  0.00     0.074 A 
ATOM     62  C   UNL A   1      47.192  32.145  27.969  1.00  0.00     0.031 C 
ATOM     63  C   UNL A   1      45.108  33.116  28.896  1.00  0.00     0.031 A 
BRANCH  50  64
ATOM     64  C   UNL A   1      39.353  31.742  30.697  1.00  0.00    -0.014 A 
ATOM     65  C   UNL A   1      38.278  32.076  29.856  1.00  0.00     0.010 A 
ATOM     66  C   UNL A   1      39.178  31.816  32.093  1.00  0.00     0.010 A 
ATOM     67  C   UNL A   1      37.061  32.504  30.401  1.00  0.00     0.020 A 
ATOM     68  C   UNL A   1      37.958  32.222  32.640  1.00  0.00     0.020 A 
ATOM     69  C   UNL A   1      36.911  32.578  31.790  1.00  0.00     0.054 A 
BRANCH  69  70
ATOM     70  S   UNL A   1      35.315  33.107  32.474  1.00  0.00     0.124 S 
ATOM     71  O   UNL A   1      35.447  32.726  33.878  1.00  0.00    -0.237 OA
ATOM     72  O   UNL A   1      35.308  34.544  32.213  1.00  0.00    -0.237 OA
ATOM     73  O   UNL A   1      34.338  32.335  31.710  1.00  0.00    -0.744 OA
ENDBRANCH  69  70
ENDBRANCH  50  64
BRANCH  51  74
ATOM     74  C   UNL A   1      47.888  28.097  26.943  1.00  0.00    -0.014 A 
ATOM     75  C   UNL A   1      47.966  27.942  25.550  1.00  0.00     0.010 A 
ATOM     76  C   UNL A   1      49.018  27.804  27.731  1.00  0.00     0.010 A 
ATOM     77  C   UNL A   1      49.154  27.509  24.952  1.00  0.00     0.020 A 
ATOM     78  C   UNL A   1      50.215  27.395  27.135  1.00  0.00     0.020 A 
ATOM     79  C   UNL A   1      50.273  27.245  25.749  1.00  0.00     0.054 A 
BRANCH  79  80
ATOM     80  S   UNL A   1      51.832  26.772  24.948  1.00  0.00     0.124 S 
ATOM     81  O   UNL A   1      52.768  27.738  25.513  1.00  0.00    -0.237 OA
ATOM     82  O   UNL A   1      52.009  25.389  25.384  1.00  0.00    -0.237 OA
ATOM     83  O   UNL A   1      51.546  26.934  23.524  1.00  0.00    -0.744 OA
ENDBRANCH  79  80
ENDBRANCH  51  74
BRANCH  63  84
ATOM     84  C   UNL A   1      45.793  34.451  28.929  1.00  0.00    -0.014 A 
ATOM     85  C   UNL A   1      46.545  34.853  30.045  1.00  0.00     0.010 A 
ATOM     86  C   UNL A   1      45.743  35.278  27.792  1.00  0.00     0.010 A 
ATOM     87  C   UNL A   1      47.233  36.070  30.026  1.00  0.00     0.020 A 
ATOM     88  C   UNL A   1      46.443  36.486  27.764  1.00  0.00     0.020 A 
ATOM     89  C   UNL A   1      47.179  36.878  28.886  1.00  0.00     0.054 A 
BRANCH  89  90
ATOM     90  S   UNL A   1      48.136  38.418  28.854  1.00  0.00     0.124 S 
ATOM     91  O   UNL A   1      48.024  38.816  27.453  1.00  0.00    -0.237 OA
ATOM     92  O   UNL A   1      47.420  39.263  29.806  1.00  0.00    -0.237 OA
ATOM     93  O   UNL A   1      49.471  38.005  29.281  1.00  0.00    -0.744 OA
ENDBRANCH  89  90
ENDBRANCH  63  84
ENDBRANCH  37  38
ENDBRANCH  30  32
ENDBRANCH  29  30
ENDBRANCH  28  29
ENDBRANCH   1  28
TORSDOF 21
ENDMDL
