MODEL 1
REMARK VINA RESULT:     -10.5      0.000      0.000
REMARK SMILES Cc1c(I)c(C(=O)OCCOC(=O)c2ccc(-c3c4nc(c(-c5ccc(S(=O)(=O)[O-])cc5)c5ccc([nH]5)c(-c5ccc(S(=O)(=O)[O-])cc5)c5nc(c(-c6ccc(S(=O)(=O)[O-])cc6)c6ccc3[nH]6)C=C5)C=C4)cc2)nn1C(F)F
REMARK SMILES IDX 10 1 9 2 8 3 6 4 7 5 5 6 1 7 2 8 3 9 75 10 4 11 74 12 76 13
REMARK SMILES IDX 77 14 78 15 11 16 12 17 13 18 14 19 15 20 73 21 16 22 72 23
REMARK SMILES IDX 17 24 18 25 19 26 66 27 20 28 71 29 65 30 67 31 21 32 70 33
REMARK SMILES IDX 64 34 63 35 22 37 52 38 33 39 51 40 34 41 37 42 50 43 68 44
REMARK SMILES IDX 35 45 36 46 49 48 69 49 38 50 23 51 24 52 32 53 25 54 31 55
REMARK SMILES IDX 26 56 27 57 28 58 29 59 30 60 53 61 54 62 62 63 55 64 61 65
REMARK SMILES IDX 56 66 57 67 58 68 59 69 60 70 39 71 40 72 48 73 41 74 47 75
REMARK SMILES IDX 42 76 43 77 44 78 45 79 46 80
REMARK H PARENT 67 36 37 47
REMARK Flexibility Score: inf
ROOT
ATOM      1  C   UNL A   1      39.697  21.752  26.158  1.00  0.00     0.275 C 
ENDROOT
BRANCH   1   2
ATOM      2  C   UNL A   1      38.510  22.705  26.224  1.00  0.00     0.275 C 
BRANCH   2   3
ATOM      3  O   UNL A   1      37.490  22.346  25.278  1.00  0.00    -0.457 OA
BRANCH   3   4
ATOM      4  C   UNL A   1      36.271  22.961  25.422  1.00  0.00     0.360 C 
ATOM      5  O   UNL A   1      36.141  24.104  25.858  1.00  0.00    -0.244 OA
BRANCH   4   6
ATOM      6  C   UNL A   1      35.149  22.132  24.943  1.00  0.00     0.184 A 
ATOM      7  C   UNL A   1      32.106  21.129  23.046  1.00  0.00     0.068 C 
ATOM      8  C   UNL A   1      33.321  21.351  23.879  1.00  0.00     0.056 A 
ATOM      9  C   UNL A   1      34.081  22.489  24.080  1.00  0.00     0.069 A 
ATOM     10  N   UNL A   1      33.962  20.370  24.610  1.00  0.00    -0.207 N 
ATOM     11  I   UNL A   1      33.706  24.295  23.216  1.00  0.00    -0.040 I 
ATOM     12  N   UNL A   1      35.029  20.838  25.299  1.00  0.00    -0.159 NA
BRANCH  10  13
ATOM     13  C   UNL A   1      33.591  18.961  24.763  1.00  0.00     0.465 C 
ATOM     14  F   UNL A   1      32.254  18.762  24.624  1.00  0.00    -0.184 F 
ATOM     15  F   UNL A   1      34.209  18.180  23.833  1.00  0.00    -0.184 F 
ENDBRANCH  10  13
ENDBRANCH   4   6
ENDBRANCH   3   4
ENDBRANCH   2   3
ENDBRANCH   1   2
BRANCH   1  16
ATOM     16  O   UNL A   1      40.827  22.296  26.837  1.00  0.00    -0.458 OA
BRANCH  16  17
ATOM     17  C   UNL A   1      41.844  22.683  26.036  1.00  0.00     0.338 C 
ATOM     18  O   UNL A   1      42.494  21.979  25.281  1.00  0.00    -0.246 OA
BRANCH  17  19
ATOM     19  C   UNL A   1      42.202  24.069  26.336  1.00  0.00     0.060 A 
ATOM     20  C   UNL A   1      43.159  24.271  27.339  1.00  0.00     0.016 A 
ATOM     21  C   UNL A   1      41.385  25.106  25.866  1.00  0.00     0.016 A 
ATOM     22  C   UNL A   1      43.156  25.469  28.016  1.00  0.00     0.010 A 
ATOM     23  C   UNL A   1      41.369  26.291  26.554  1.00  0.00     0.010 A 
ATOM     24  C   UNL A   1      42.195  26.419  27.670  1.00  0.00    -0.014 A 
BRANCH  24  25
ATOM     25  C   UNL A   1      42.037  27.571  28.528  1.00  0.00     0.031 A 
ATOM     26  C   UNL A   1      43.152  28.542  28.452  1.00  0.00     0.074 A 
ATOM     27  C   UNL A   1      40.886  27.764  29.197  1.00  0.00     0.049 A 
ATOM     28  N   UNL A   1      43.942  28.929  29.396  1.00  0.00    -0.248 NA
ATOM     29  C   UNL A   1      43.524  29.036  27.115  1.00  0.00     0.031 C 
ATOM     30  C   UNL A   1      39.626  27.021  29.060  1.00  0.00     0.029 A 
ATOM     31  N   UNL A   1      40.551  28.779  30.029  1.00  0.00    -0.354 N 
ATOM     32  C   UNL A   1      44.809  29.848  28.810  1.00  0.00     0.074 A 
ATOM     33  C   UNL A   1      44.619  29.741  27.388  1.00  0.00     0.031 C 
ATOM     34  C   UNL A   1      38.619  27.771  29.562  1.00  0.00     0.029 A 
ATOM     35  C   UNL A   1      39.183  28.973  30.156  1.00  0.00     0.049 A 
ATOM     36  H   UNL A   1      41.218  29.327  30.502  1.00  0.00     0.167 HD
ATOM     37  C   UNL A   1      45.475  30.784  29.540  1.00  0.00     0.031 A 
ATOM     38  C   UNL A   1      38.578  30.107  30.593  1.00  0.00     0.031 A 
ATOM     39  C   UNL A   1      45.438  30.493  30.946  1.00  0.00     0.049 A 
ATOM     40  C   UNL A   1      39.611  30.903  31.314  1.00  0.00     0.074 A 
ATOM     41  C   UNL A   1      45.931  29.471  31.732  1.00  0.00     0.029 A 
ATOM     42  N   UNL A   1      44.471  31.125  31.694  1.00  0.00    -0.354 N 
ATOM     43  N   UNL A   1      40.181  30.507  32.420  1.00  0.00    -0.248 NA
ATOM     44  C   UNL A   1      40.358  31.899  30.558  1.00  0.00     0.031 C 
ATOM     45  C   UNL A   1      44.924  29.246  32.712  1.00  0.00     0.029 A 
ATOM     46  C   UNL A   1      43.903  30.179  32.509  1.00  0.00     0.049 A 
ATOM     47  H   UNL A   1      44.232  32.079  31.652  1.00  0.00     0.167 HD
ATOM     48  C   UNL A   1      41.516  30.875  32.292  1.00  0.00     0.074 A 
ATOM     49  C   UNL A   1      41.545  31.807  31.167  1.00  0.00     0.031 C 
ATOM     50  C   UNL A   1      42.512  30.177  32.917  1.00  0.00     0.031 A 
BRANCH  37  51
ATOM     51  C   UNL A   1      45.846  32.145  29.010  1.00  0.00    -0.014 A 
ATOM     52  C   UNL A   1      44.823  33.082  28.771  1.00  0.00     0.010 A 
ATOM     53  C   UNL A   1      47.122  32.439  28.484  1.00  0.00     0.010 A 
ATOM     54  C   UNL A   1      45.048  34.215  27.978  1.00  0.00     0.020 A 
ATOM     55  C   UNL A   1      47.369  33.588  27.734  1.00  0.00     0.020 A 
ATOM     56  C   UNL A   1      46.318  34.449  27.450  1.00  0.00     0.054 A 
BRANCH  56  57
ATOM     57  S   UNL A   1      46.567  35.833  26.313  1.00  0.00     0.124 S 
ATOM     58  O   UNL A   1      46.101  35.271  25.050  1.00  0.00    -0.237 OA
ATOM     59  O   UNL A   1      45.722  36.870  26.898  1.00  0.00    -0.237 OA
ATOM     60  O   UNL A   1      48.003  36.088  26.394  1.00  0.00    -0.744 OA
ENDBRANCH  56  57
ENDBRANCH  37  51
BRANCH  38  61
ATOM     61  C   UNL A   1      37.326  30.698  30.047  1.00  0.00    -0.014 A 
ATOM     62  C   UNL A   1      36.325  31.210  30.894  1.00  0.00     0.010 A 
ATOM     63  C   UNL A   1      37.224  30.994  28.669  1.00  0.00     0.010 A 
ATOM     64  C   UNL A   1      35.296  32.026  30.388  1.00  0.00     0.020 A 
ATOM     65  C   UNL A   1      36.198  31.795  28.157  1.00  0.00     0.020 A 
ATOM     66  C   UNL A   1      35.250  32.329  29.023  1.00  0.00     0.054 A 
BRANCH  66  67
ATOM     67  S   UNL A   1      34.029  33.523  28.402  1.00  0.00     0.124 S 
ATOM     68  O   UNL A   1      33.053  32.658  27.747  1.00  0.00    -0.237 OA
ATOM     69  O   UNL A   1      33.575  34.179  29.625  1.00  0.00    -0.237 OA
ATOM     70  O   UNL A   1      34.807  34.373  27.501  1.00  0.00    -0.744 OA
ENDBRANCH  66  67
ENDBRANCH  38  61
BRANCH  50  71
ATOM     71  C   UNL A   1      42.131  29.131  33.941  1.00  0.00    -0.014 A 
ATOM     72  C   UNL A   1      41.860  27.787  33.612  1.00  0.00     0.010 A 
ATOM     73  C   UNL A   1      42.253  29.476  35.299  1.00  0.00     0.010 A 
ATOM     74  C   UNL A   1      41.705  26.820  34.618  1.00  0.00     0.020 A 
ATOM     75  C   UNL A   1      42.118  28.515  36.303  1.00  0.00     0.020 A 
ATOM     76  C   UNL A   1      41.839  27.191  35.959  1.00  0.00     0.054 A 
BRANCH  76  77
ATOM     77  S   UNL A   1      41.714  25.925  37.254  1.00  0.00     0.124 S 
ATOM     78  O   UNL A   1      42.747  26.337  38.201  1.00  0.00    -0.237 OA
ATOM     79  O   UNL A   1      40.337  26.071  37.721  1.00  0.00    -0.237 OA
ATOM     80  O   UNL A   1      41.987  24.675  36.545  1.00  0.00    -0.744 OA
ENDBRANCH  76  77
ENDBRANCH  50  71
ENDBRANCH  24  25
ENDBRANCH  17  19
ENDBRANCH  16  17
ENDBRANCH   1  16
TORSDOF 15
ENDMDL
MODEL 2
REMARK VINA RESULT:     -10.4      1.556      2.147
REMARK SMILES Cc1c(I)c(C(=O)OCCOC(=O)c2ccc(-c3c4nc(c(-c5ccc(S(=O)(=O)[O-])cc5)c5ccc([nH]5)c(-c5ccc(S(=O)(=O)[O-])cc5)c5nc(c(-c6ccc(S(=O)(=O)[O-])cc6)c6ccc3[nH]6)C=C5)C=C4)cc2)nn1C(F)F
REMARK SMILES IDX 10 1 9 2 8 3 6 4 7 5 5 6 1 7 2 8 3 9 75 10 4 11 74 12 76 13
REMARK SMILES IDX 77 14 78 15 11 16 12 17 13 18 14 19 15 20 73 21 16 22 72 23
REMARK SMILES IDX 17 24 18 25 19 26 66 27 20 28 71 29 65 30 67 31 21 32 70 33
REMARK SMILES IDX 64 34 63 35 22 37 52 38 33 39 51 40 34 41 37 42 50 43 68 44
REMARK SMILES IDX 35 45 36 46 49 48 69 49 38 50 23 51 24 52 32 53 25 54 31 55
REMARK SMILES IDX 26 56 27 57 28 58 29 59 30 60 53 61 54 62 62 63 55 64 61 65
REMARK SMILES IDX 56 66 57 67 58 68 59 69 60 70 39 71 40 72 48 73 41 74 47 75
REMARK SMILES IDX 42 76 43 77 44 78 45 79 46 80
REMARK H PARENT 67 36 37 47
REMARK Flexibility Score: inf
ROOT
ATOM      1  C   UNL A   1      37.780  21.275  25.328  1.00  0.00     0.275 C 
ENDROOT
BRANCH   1   2
ATOM      2  C   UNL A   1      36.269  21.281  25.139  1.00  0.00     0.275 C 
BRANCH   2   3
ATOM      3  O   UNL A   1      35.595  21.844  26.276  1.00  0.00    -0.457 OA
BRANCH   3   4
ATOM      4  C   UNL A   1      34.344  21.354  26.556  1.00  0.00     0.360 C 
ATOM      5  O   UNL A   1      33.839  21.398  27.676  1.00  0.00    -0.244 OA
BRANCH   4   6
ATOM      6  C   UNL A   1      33.651  20.829  25.364  1.00  0.00     0.184 A 
ATOM      7  C   UNL A   1      31.865  20.782  22.098  1.00  0.00     0.068 C 
ATOM      8  C   UNL A   1      32.569  20.607  23.397  1.00  0.00     0.056 A 
ATOM      9  C   UNL A   1      33.014  21.541  24.316  1.00  0.00     0.069 A 
ATOM     10  N   UNL A   1      32.962  19.390  23.921  1.00  0.00    -0.207 N 
ATOM     11  I   UNL A   1      32.807  23.556  24.104  1.00  0.00    -0.040 I 
ATOM     12  N   UNL A   1      33.563  19.505  25.128  1.00  0.00    -0.159 NA
BRANCH  10  13
ATOM     13  C   UNL A   1      32.752  18.051  23.366  1.00  0.00     0.465 C 
ATOM     14  F   UNL A   1      31.828  18.046  22.368  1.00  0.00    -0.184 F 
ATOM     15  F   UNL A   1      33.904  17.541  22.845  1.00  0.00    -0.184 F 
ENDBRANCH  10  13
ENDBRANCH   4   6
ENDBRANCH   3   4
ENDBRANCH   2   3
ENDBRANCH   1   2
BRANCH   1  16
ATOM     16  O   UNL A   1      38.203  22.400  26.097  1.00  0.00    -0.458 OA
BRANCH  16  17
ATOM     17  C   UNL A   1      39.442  22.298  26.626  1.00  0.00     0.338 C 
ATOM     18  O   UNL A   1      39.957  21.303  27.106  1.00  0.00    -0.246 OA
BRANCH  17  19
ATOM     19  C   UNL A   1      40.043  23.629  26.722  1.00  0.00     0.060 A 
ATOM     20  C   UNL A   1      41.328  23.702  27.272  1.00  0.00     0.016 A 
ATOM     21  C   UNL A   1      39.230  24.761  26.571  1.00  0.00     0.016 A 
ATOM     22  C   UNL A   1      41.723  24.882  27.860  1.00  0.00     0.010 A 
ATOM     23  C   UNL A   1      39.616  25.929  27.175  1.00  0.00     0.010 A 
ATOM     24  C   UNL A   1      40.817  25.943  27.882  1.00  0.00    -0.014 A 
BRANCH  24  25
ATOM     25  C   UNL A   1      41.135  27.092  28.698  1.00  0.00     0.031 A 
ATOM     26  C   UNL A   1      42.224  27.939  28.159  1.00  0.00     0.074 A 
ATOM     27  C   UNL A   1      40.372  27.398  29.763  1.00  0.00     0.049 A 
ATOM     28  N   UNL A   1      43.359  28.224  28.700  1.00  0.00    -0.248 NA
ATOM     29  C   UNL A   1      42.083  28.410  26.770  1.00  0.00     0.031 C 
ATOM     30  C   UNL A   1      39.091  26.797  30.159  1.00  0.00     0.029 A 
ATOM     31  N   UNL A   1      40.504  28.430  30.630  1.00  0.00    -0.354 N 
ATOM     32  C   UNL A   1      44.013  29.053  27.792  1.00  0.00     0.074 A 
ATOM     33  C   UNL A   1      43.263  28.988  26.566  1.00  0.00     0.031 C 
ATOM     34  C   UNL A   1      38.451  27.644  30.997  1.00  0.00     0.029 A 
ATOM     35  C   UNL A   1      39.327  28.769  31.283  1.00  0.00     0.049 A 
ATOM     36  H   UNL A   1      41.356  28.897  30.784  1.00  0.00     0.167 HD
ATOM     37  C   UNL A   1      45.008  29.901  28.170  1.00  0.00     0.031 A 
ATOM     38  C   UNL A   1      39.067  29.955  31.891  1.00  0.00     0.031 A 
ATOM     39  C   UNL A   1      45.502  29.595  29.483  1.00  0.00     0.049 A 
ATOM     40  C   UNL A   1      40.379  30.624  32.119  1.00  0.00     0.074 A 
ATOM     41  C   UNL A   1      46.157  28.514  30.039  1.00  0.00     0.029 A 
ATOM     42  N   UNL A   1      44.984  30.315  30.535  1.00  0.00    -0.354 N 
ATOM     43  N   UNL A   1      41.297  30.152  32.920  1.00  0.00    -0.248 NA
ATOM     44  C   UNL A   1      40.864  31.545  31.100  1.00  0.00     0.031 C 
ATOM     45  C   UNL A   1      45.605  28.384  31.344  1.00  0.00     0.029 A 
ATOM     46  C   UNL A   1      44.691  29.424  31.536  1.00  0.00     0.049 A 
ATOM     47  H   UNL A   1      44.850  31.290  30.564  1.00  0.00     0.167 HD
ATOM     48  C   UNL A   1      42.501  30.377  32.263  1.00  0.00     0.074 A 
ATOM     49  C   UNL A   1      42.178  31.317  31.191  1.00  0.00     0.031 C 
ATOM     50  C   UNL A   1      43.584  29.566  32.462  1.00  0.00     0.031 A 
BRANCH  37  51
ATOM     51  C   UNL A   1      45.278  31.221  27.497  1.00  0.00    -0.014 A 
ATOM     52  C   UNL A   1      46.558  31.460  26.960  1.00  0.00     0.010 A 
ATOM     53  C   UNL A   1      44.414  32.331  27.614  1.00  0.00     0.010 A 
ATOM     54  C   UNL A   1      46.976  32.756  26.631  1.00  0.00     0.020 A 
ATOM     55  C   UNL A   1      44.804  33.618  27.246  1.00  0.00     0.020 A 
ATOM     56  C   UNL A   1      46.099  33.829  26.796  1.00  0.00     0.054 A 
BRANCH  56  57
ATOM     57  S   UNL A   1      46.691  35.513  26.507  1.00  0.00     0.124 S 
ATOM     58  O   UNL A   1      47.544  35.334  25.336  1.00  0.00    -0.237 OA
ATOM     59  O   UNL A   1      45.446  36.244  26.282  1.00  0.00    -0.237 OA
ATOM     60  O   UNL A   1      47.389  35.848  27.745  1.00  0.00    -0.744 OA
ENDBRANCH  56  57
ENDBRANCH  37  51
BRANCH  38  61
ATOM     61  C   UNL A   1      37.771  30.686  31.869  1.00  0.00    -0.014 A 
ATOM     62  C   UNL A   1      37.120  31.062  33.058  1.00  0.00     0.010 A 
ATOM     63  C   UNL A   1      37.292  31.244  30.663  1.00  0.00     0.010 A 
ATOM     64  C   UNL A   1      36.068  31.998  33.043  1.00  0.00     0.020 A 
ATOM     65  C   UNL A   1      36.240  32.165  30.638  1.00  0.00     0.020 A 
ATOM     66  C   UNL A   1      35.647  32.558  31.833  1.00  0.00     0.054 A 
BRANCH  66  67
ATOM     67  S   UNL A   1      34.414  33.893  31.834  1.00  0.00     0.124 S 
ATOM     68  O   UNL A   1      35.217  35.058  32.191  1.00  0.00    -0.237 OA
ATOM     69  O   UNL A   1      33.913  33.864  30.463  1.00  0.00    -0.237 OA
ATOM     70  O   UNL A   1      33.451  33.470  32.850  1.00  0.00    -0.744 OA
ENDBRANCH  66  67
ENDBRANCH  38  61
BRANCH  50  71
ATOM     71  C   UNL A   1      43.534  28.552  33.583  1.00  0.00    -0.014 A 
ATOM     72  C   UNL A   1      43.841  28.864  34.924  1.00  0.00     0.010 A 
ATOM     73  C   UNL A   1      42.962  27.299  33.302  1.00  0.00     0.010 A 
ATOM     74  C   UNL A   1      43.590  27.940  35.950  1.00  0.00     0.020 A 
ATOM     75  C   UNL A   1      42.693  26.383  34.321  1.00  0.00     0.020 A 
ATOM     76  C   UNL A   1      43.014  26.704  35.641  1.00  0.00     0.054 A 
BRANCH  76  77
ATOM     77  S   UNL A   1      42.620  25.542  36.978  1.00  0.00     0.124 S 
ATOM     78  O   UNL A   1      41.794  26.352  37.870  1.00  0.00    -0.237 OA
ATOM     79  O   UNL A   1      41.923  24.464  36.279  1.00  0.00    -0.237 OA
ATOM     80  O   UNL A   1      43.930  25.172  37.514  1.00  0.00    -0.744 OA
ENDBRANCH  76  77
ENDBRANCH  50  71
ENDBRANCH  24  25
ENDBRANCH  17  19
ENDBRANCH  16  17
ENDBRANCH   1  16
TORSDOF 15
ENDMDL
MODEL 3
REMARK VINA RESULT:     -10.4      4.009      9.849
REMARK SMILES Cc1c(I)c(C(=O)OCCOC(=O)c2ccc(-c3c4nc(c(-c5ccc(S(=O)(=O)[O-])cc5)c5ccc([nH]5)c(-c5ccc(S(=O)(=O)[O-])cc5)c5nc(c(-c6ccc(S(=O)(=O)[O-])cc6)c6ccc3[nH]6)C=C5)C=C4)cc2)nn1C(F)F
REMARK SMILES IDX 10 1 9 2 8 3 6 4 7 5 5 6 1 7 2 8 3 9 75 10 4 11 74 12 76 13
REMARK SMILES IDX 77 14 78 15 11 16 12 17 13 18 14 19 15 20 73 21 16 22 72 23
REMARK SMILES IDX 17 24 18 25 19 26 66 27 20 28 71 29 65 30 67 31 21 32 70 33
REMARK SMILES IDX 64 34 63 35 22 37 52 38 33 39 51 40 34 41 37 42 50 43 68 44
REMARK SMILES IDX 35 45 36 46 49 48 69 49 38 50 23 51 24 52 32 53 25 54 31 55
REMARK SMILES IDX 26 56 27 57 28 58 29 59 30 60 53 61 54 62 62 63 55 64 61 65
REMARK SMILES IDX 56 66 57 67 58 68 59 69 60 70 39 71 40 72 48 73 41 74 47 75
REMARK SMILES IDX 42 76 43 77 44 78 45 79 46 80
REMARK H PARENT 67 36 37 47
REMARK Flexibility Score: inf
ROOT
ATOM      1  C   UNL A   1      33.390  29.829  27.449  1.00  0.00     0.275 C 
ENDROOT
BRANCH   1   2
ATOM      2  C   UNL A   1      32.380  29.973  26.317  1.00  0.00     0.275 C 
BRANCH   2   3
ATOM      3  O   UNL A   1      33.017  29.928  25.030  1.00  0.00    -0.457 OA
BRANCH   3   4
ATOM      4  C   UNL A   1      32.912  28.752  24.331  1.00  0.00     0.360 C 
ATOM      5  O   UNL A   1      33.878  28.039  24.065  1.00  0.00    -0.244 OA
BRANCH   4   6
ATOM      6  C   UNL A   1      31.519  28.407  23.992  1.00  0.00     0.184 A 
ATOM      7  C   UNL A   1      28.294  26.547  23.934  1.00  0.00     0.068 C 
ATOM      8  C   UNL A   1      29.496  27.420  23.842  1.00  0.00     0.056 A 
ATOM      9  C   UNL A   1      30.775  27.250  24.342  1.00  0.00     0.069 A 
ATOM     10  N   UNL A   1      29.523  28.659  23.231  1.00  0.00    -0.207 N 
ATOM     11  I   UNL A   1      31.387  25.636  25.423  1.00  0.00    -0.040 I 
ATOM     12  N   UNL A   1      30.746  29.237  23.264  1.00  0.00    -0.159 NA
BRANCH  10  13
ATOM     13  C   UNL A   1      28.439  29.350  22.529  1.00  0.00     0.465 C 
ATOM     14  F   UNL A   1      27.904  30.356  23.271  1.00  0.00    -0.184 F 
ATOM     15  F   UNL A   1      28.875  29.904  21.362  1.00  0.00    -0.184 F 
ENDBRANCH  10  13
ENDBRANCH   4   6
ENDBRANCH   3   4
ENDBRANCH   2   3
ENDBRANCH   1   2
BRANCH   1  16
ATOM     16  O   UNL A   1      34.713  30.103  26.991  1.00  0.00    -0.458 OA
BRANCH  16  17
ATOM     17  C   UNL A   1      35.356  31.087  27.657  1.00  0.00     0.338 C 
ATOM     18  O   UNL A   1      35.208  32.289  27.516  1.00  0.00    -0.246 OA
BRANCH  17  19
ATOM     19  C   UNL A   1      36.425  30.507  28.470  1.00  0.00     0.060 A 
ATOM     20  C   UNL A   1      37.276  31.405  29.128  1.00  0.00     0.016 A 
ATOM     21  C   UNL A   1      36.748  29.153  28.314  1.00  0.00     0.016 A 
ATOM     22  C   UNL A   1      38.547  30.988  29.450  1.00  0.00     0.010 A 
ATOM     23  C   UNL A   1      38.021  28.744  28.617  1.00  0.00     0.010 A 
ATOM     24  C   UNL A   1      38.923  29.691  29.100  1.00  0.00    -0.014 A 
BRANCH  24  25
ATOM     25  C   UNL A   1      40.316  29.331  29.222  1.00  0.00     0.031 A 
ATOM     26  C   UNL A   1      40.824  29.325  30.613  1.00  0.00     0.074 A 
ATOM     27  C   UNL A   1      41.000  28.900  28.146  1.00  0.00     0.049 A 
ATOM     28  N   UNL A   1      41.774  30.034  31.122  1.00  0.00    -0.248 NA
ATOM     29  C   UNL A   1      40.074  28.526  31.598  1.00  0.00     0.031 C 
ATOM     30  C   UNL A   1      40.475  28.568  26.815  1.00  0.00     0.029 A 
ATOM     31  N   UNL A   1      42.295  28.510  28.068  1.00  0.00    -0.354 N 
ATOM     32  C   UNL A   1      41.859  29.650  32.457  1.00  0.00     0.074 A 
ATOM     33  C   UNL A   1      40.688  28.858  32.730  1.00  0.00     0.031 C 
ATOM     34  C   UNL A   1      41.371  27.783  26.175  1.00  0.00     0.029 A 
ATOM     35  C   UNL A   1      42.565  27.667  26.998  1.00  0.00     0.049 A 
ATOM     36  H   UNL A   1      42.983  28.799  28.710  1.00  0.00     0.167 HD
ATOM     37  C   UNL A   1      42.989  29.830  33.194  1.00  0.00     0.031 A 
ATOM     38  C   UNL A   1      43.634  26.839  26.887  1.00  0.00     0.031 A 
ATOM     39  C   UNL A   1      43.906  30.731  32.554  1.00  0.00     0.049 A 
ATOM     40  C   UNL A   1      44.657  27.315  27.862  1.00  0.00     0.074 A 
ATOM     41  C   UNL A   1      43.865  32.068  32.214  1.00  0.00     0.029 A 
ATOM     42  N   UNL A   1      44.919  30.174  31.808  1.00  0.00    -0.354 N 
ATOM     43  N   UNL A   1      45.254  28.473  27.770  1.00  0.00    -0.248 NA
ATOM     44  C   UNL A   1      44.661  26.723  29.193  1.00  0.00     0.031 C 
ATOM     45  C   UNL A   1      44.526  32.146  30.956  1.00  0.00     0.029 A 
ATOM     46  C   UNL A   1      44.986  30.867  30.627  1.00  0.00     0.049 A 
ATOM     47  H   UNL A   1      45.490  29.416  32.073  1.00  0.00     0.167 HD
ATOM     48  C   UNL A   1      45.336  28.943  29.075  1.00  0.00     0.074 A 
ATOM     49  C   UNL A   1      45.037  27.785  29.914  1.00  0.00     0.031 C 
ATOM     50  C   UNL A   1      45.353  30.282  29.352  1.00  0.00     0.031 A 
BRANCH  37  51
ATOM     51  C   UNL A   1      43.410  28.913  34.312  1.00  0.00    -0.014 A 
ATOM     52  C   UNL A   1      43.762  27.585  34.005  1.00  0.00     0.010 A 
ATOM     53  C   UNL A   1      43.212  29.226  35.674  1.00  0.00     0.010 A 
ATOM     54  C   UNL A   1      43.833  26.604  35.003  1.00  0.00     0.020 A 
ATOM     55  C   UNL A   1      43.326  28.268  36.680  1.00  0.00     0.020 A 
ATOM     56  C   UNL A   1      43.595  26.952  36.333  1.00  0.00     0.054 A 
BRANCH  56  57
ATOM     57  S   UNL A   1      43.547  25.657  37.595  1.00  0.00     0.124 S 
ATOM     58  O   UNL A   1      42.441  24.826  37.130  1.00  0.00    -0.237 OA
ATOM     59  O   UNL A   1      44.877  25.066  37.482  1.00  0.00    -0.237 OA
ATOM     60  O   UNL A   1      43.301  26.394  38.832  1.00  0.00    -0.744 OA
ENDBRANCH  56  57
ENDBRANCH  37  51
BRANCH  38  61
ATOM     61  C   UNL A   1      43.622  25.461  26.325  1.00  0.00    -0.014 A 
ATOM     62  C   UNL A   1      44.130  25.187  25.042  1.00  0.00     0.010 A 
ATOM     63  C   UNL A   1      43.337  24.357  27.160  1.00  0.00     0.010 A 
ATOM     64  C   UNL A   1      44.391  23.865  24.634  1.00  0.00     0.020 A 
ATOM     65  C   UNL A   1      43.583  23.040  26.758  1.00  0.00     0.020 A 
ATOM     66  C   UNL A   1      44.133  22.800  25.503  1.00  0.00     0.054 A 
BRANCH  66  67
ATOM     67  S   UNL A   1      44.635  21.115  25.044  1.00  0.00     0.124 S 
ATOM     68  O   UNL A   1      43.611  20.299  25.688  1.00  0.00    -0.237 OA
ATOM     69  O   UNL A   1      44.588  21.156  23.586  1.00  0.00    -0.237 OA
ATOM     70  O   UNL A   1      45.977  20.989  25.613  1.00  0.00    -0.744 OA
ENDBRANCH  66  67
ENDBRANCH  38  61
BRANCH  50  71
ATOM     71  C   UNL A   1      45.514  31.257  28.206  1.00  0.00    -0.014 A 
ATOM     72  C   UNL A   1      44.439  31.695  27.405  1.00  0.00     0.010 A 
ATOM     73  C   UNL A   1      46.755  31.903  28.072  1.00  0.00     0.010 A 
ATOM     74  C   UNL A   1      44.610  32.743  26.487  1.00  0.00     0.020 A 
ATOM     75  C   UNL A   1      46.926  32.958  27.174  1.00  0.00     0.020 A 
ATOM     76  C   UNL A   1      45.855  33.371  26.380  1.00  0.00     0.054 A 
BRANCH  76  77
ATOM     77  S   UNL A   1      46.053  34.776  25.249  1.00  0.00     0.124 S 
ATOM     78  O   UNL A   1      47.482  34.744  24.950  1.00  0.00    -0.237 OA
ATOM     79  O   UNL A   1      45.169  34.429  24.138  1.00  0.00    -0.237 OA
ATOM     80  O   UNL A   1      45.613  35.925  26.041  1.00  0.00    -0.744 OA
ENDBRANCH  76  77
ENDBRANCH  50  71
ENDBRANCH  24  25
ENDBRANCH  17  19
ENDBRANCH  16  17
ENDBRANCH   1  16
TORSDOF 15
ENDMDL
