MODEL 1
REMARK VINA RESULT:     -10.5      0.000      0.000
REMARK SMILES CCn1cccc1C(=O)N(C)c1snc(C)c1C(=O)OCCOC(=O)c1ccc(-c2c3nc(c(-c4ccc(S(=O)(=O)[O-])cc4)c4ccc([nH]4)c(-c4ccc(S(=O)(=O)[O-])cc4)c4nc(c(-c5ccc(S(=O)(=O)[O-])cc5)c5ccc2[nH]5)C=C4)C=C3)cc1
REMARK SMILES IDX 21 1 20 2 18 3 19 4 17 5 12 6 13 7 14 8 15 9 16 10 10 11
REMARK SMILES IDX 11 12 8 13 9 14 7 15 3 16 4 17 5 18 6 19 2 20 1 21 22 22
REMARK SMILES IDX 23 23 24 24 25 25 26 26 27 27 85 28 28 29 84 30 29 31 30 32
REMARK SMILES IDX 31 33 78 34 32 35 83 36 77 37 79 38 33 39 82 40 76 41 75 42
REMARK SMILES IDX 34 44 64 45 45 46 63 47 46 48 49 49 62 50 80 51 47 52 48 53
REMARK SMILES IDX 61 55 81 56 50 57 35 58 36 59 44 60 37 61 43 62 38 63 39 64
REMARK SMILES IDX 40 65 41 66 42 67 65 68 66 69 74 70 67 71 73 72 68 73 69 74
REMARK SMILES IDX 70 75 71 76 72 77 51 78 52 79 60 80 53 81 59 82 54 83 55 84
REMARK SMILES IDX 56 85 57 86 58 87
REMARK H PARENT 79 43 49 54
REMARK Flexibility Score: inf
ROOT
ATOM      1  C   UNL A   1      35.462  33.950  28.412  1.00  0.00     0.275 C 
ENDROOT
BRANCH   1   2
ATOM      2  O   UNL A   1      35.777  33.824  29.805  1.00  0.00    -0.458 OA
BRANCH   2   3
ATOM      3  C   UNL A   1      34.724  33.617  30.654  1.00  0.00     0.343 C 
ATOM      4  O   UNL A   1      34.152  32.550  30.770  1.00  0.00    -0.246 OA
BRANCH   3   5
ATOM      5  C   UNL A   1      34.445  34.769  31.516  1.00  0.00     0.117 A 
ATOM      6  C   UNL A   1      34.868  34.974  32.833  1.00  0.00     0.133 A 
ATOM      7  S   UNL A   1      34.070  36.383  33.415  1.00  0.00    -0.017 S 
ATOM      8  N   UNL A   1      33.358  36.817  32.009  1.00  0.00    -0.195 NA
ATOM      9  C   UNL A   1      33.590  35.875  31.098  1.00  0.00     0.068 A 
ATOM     10  C   UNL A   1      32.909  36.059  29.780  1.00  0.00     0.069 C 
BRANCH   6  11
ATOM     11  N   UNL A   1      35.769  34.309  33.719  1.00  0.00    -0.300 N 
ATOM     12  C   UNL A   1      35.541  34.291  35.153  1.00  0.00     0.154 C 
BRANCH  11  13
ATOM     13  C   UNL A   1      37.023  33.954  33.179  1.00  0.00     0.275 C 
ATOM     14  O   UNL A   1      37.648  34.828  32.559  1.00  0.00    -0.267 OA
BRANCH  13  15
ATOM     15  C   UNL A   1      37.677  32.625  33.319  1.00  0.00     0.107 A 
ATOM     16  N   UNL A   1      38.491  31.974  34.245  1.00  0.00    -0.344 N 
ATOM     17  C   UNL A   1      38.799  30.699  33.793  1.00  0.00     0.086 A 
ATOM     18  C   UNL A   1      38.127  30.463  32.628  1.00  0.00     0.020 A 
ATOM     19  C   UNL A   1      37.430  31.645  32.341  1.00  0.00     0.033 A 
BRANCH  16  20
ATOM     20  C   UNL A   1      38.993  32.374  35.550  1.00  0.00     0.119 C 
ATOM     21  C   UNL A   1      38.082  31.918  36.689  1.00  0.00     0.027 C 
ENDBRANCH  16  20
ENDBRANCH  13  15
ENDBRANCH  11  13
ENDBRANCH   6  11
ENDBRANCH   3   5
ENDBRANCH   2   3
ENDBRANCH   1   2
BRANCH   1  22
ATOM     22  C   UNL A   1      35.338  32.572  27.767  1.00  0.00     0.275 C 
BRANCH  22  23
ATOM     23  O   UNL A   1      36.439  31.700  28.060  1.00  0.00    -0.458 OA
BRANCH  23  24
ATOM     24  C   UNL A   1      36.188  30.390  27.824  1.00  0.00     0.338 C 
ATOM     25  O   UNL A   1      35.119  29.893  27.503  1.00  0.00    -0.246 OA
BRANCH  24  26
ATOM     26  C   UNL A   1      37.358  29.558  28.131  1.00  0.00     0.060 A 
ATOM     27  C   UNL A   1      37.344  28.849  29.338  1.00  0.00     0.016 A 
ATOM     28  C   UNL A   1      38.517  29.643  27.352  1.00  0.00     0.016 A 
ATOM     29  C   UNL A   1      38.512  28.258  29.792  1.00  0.00     0.010 A 
ATOM     30  C   UNL A   1      39.695  29.077  27.823  1.00  0.00     0.010 A 
ATOM     31  C   UNL A   1      39.690  28.392  29.047  1.00  0.00    -0.014 A 
BRANCH  31  32
ATOM     32  C   UNL A   1      40.886  27.648  29.490  1.00  0.00     0.031 A 
ATOM     33  C   UNL A   1      41.062  26.334  28.715  1.00  0.00     0.074 A 
ATOM     34  C   UNL A   1      41.610  28.191  30.517  1.00  0.00     0.049 A 
ATOM     35  N   UNL A   1      41.804  25.309  28.995  1.00  0.00    -0.248 NA
ATOM     36  C   UNL A   1      40.277  26.096  27.468  1.00  0.00     0.031 C 
ATOM     37  C   UNL A   1      41.316  29.491  31.169  1.00  0.00     0.029 A 
ATOM     38  N   UNL A   1      42.725  27.783  31.224  1.00  0.00    -0.354 N 
ATOM     39  C   UNL A   1      41.730  24.417  27.903  1.00  0.00     0.074 A 
ATOM     40  C   UNL A   1      40.716  24.914  27.030  1.00  0.00     0.031 C 
ATOM     41  C   UNL A   1      42.164  29.724  32.196  1.00  0.00     0.029 A 
ATOM     42  C   UNL A   1      43.117  28.634  32.291  1.00  0.00     0.049 A 
ATOM     43  H   UNL A   1      43.215  26.958  31.001  1.00  0.00     0.167 HD
ATOM     44  C   UNL A   1      42.599  23.381  27.729  1.00  0.00     0.031 A 
ATOM     45  C   UNL A   1      44.133  28.481  33.195  1.00  0.00     0.031 A 
ATOM     46  C   UNL A   1      43.458  23.266  28.855  1.00  0.00     0.049 A 
ATOM     47  C   UNL A   1      44.930  27.347  32.716  1.00  0.00     0.074 A 
ATOM     48  C   UNL A   1      43.240  22.853  30.143  1.00  0.00     0.029 A 
ATOM     49  N   UNL A   1      44.650  23.945  28.786  1.00  0.00    -0.354 N 
ATOM     50  N   UNL A   1      45.742  27.401  31.706  1.00  0.00    -0.248 NA
ATOM     51  C   UNL A   1      44.859  26.062  33.422  1.00  0.00     0.031 C 
ATOM     52  C   UNL A   1      44.073  23.699  30.900  1.00  0.00     0.029 A 
ATOM     53  C   UNL A   1      44.884  24.450  30.039  1.00  0.00     0.049 A 
ATOM     54  H   UNL A   1      45.225  24.048  27.993  1.00  0.00     0.167 HD
ATOM     55  C   UNL A   1      45.925  26.077  31.414  1.00  0.00     0.074 A 
ATOM     56  C   UNL A   1      45.673  25.351  32.643  1.00  0.00     0.031 C 
ATOM     57  C   UNL A   1      45.669  25.656  30.150  1.00  0.00     0.031 A 
BRANCH  44  58
ATOM     58  C   UNL A   1      42.937  22.558  26.519  1.00  0.00    -0.014 A 
ATOM     59  C   UNL A   1      42.506  21.206  26.525  1.00  0.00     0.010 A 
ATOM     60  C   UNL A   1      43.930  22.921  25.599  1.00  0.00     0.010 A 
ATOM     61  C   UNL A   1      43.146  20.229  25.764  1.00  0.00     0.020 A 
ATOM     62  C   UNL A   1      44.551  21.949  24.798  1.00  0.00     0.020 A 
ATOM     63  C   UNL A   1      44.195  20.603  24.933  1.00  0.00     0.054 A 
BRANCH  63  64
ATOM     64  S   UNL A   1      45.143  19.296  24.110  1.00  0.00     0.124 S 
ATOM     65  O   UNL A   1      44.775  18.116  24.886  1.00  0.00    -0.237 OA
ATOM     66  O   UNL A   1      44.618  19.335  22.745  1.00  0.00    -0.237 OA
ATOM     67  O   UNL A   1      46.528  19.736  24.249  1.00  0.00    -0.744 OA
ENDBRANCH  63  64
ENDBRANCH  44  58
BRANCH  45  68
ATOM     68  C   UNL A   1      44.654  29.082  34.482  1.00  0.00    -0.014 A 
ATOM     69  C   UNL A   1      45.665  30.040  34.600  1.00  0.00     0.010 A 
ATOM     70  C   UNL A   1      43.924  28.803  35.677  1.00  0.00     0.010 A 
ATOM     71  C   UNL A   1      45.828  30.776  35.802  1.00  0.00     0.020 A 
ATOM     72  C   UNL A   1      44.031  29.560  36.843  1.00  0.00     0.020 A 
ATOM     73  C   UNL A   1      44.972  30.570  36.892  1.00  0.00     0.054 A 
BRANCH  73  74
ATOM     74  S   UNL A   1      44.956  31.701  38.314  1.00  0.00     0.124 S 
ATOM     75  O   UNL A   1      46.373  31.811  38.644  1.00  0.00    -0.237 OA
ATOM     76  O   UNL A   1      44.340  32.907  37.765  1.00  0.00    -0.237 OA
ATOM     77  O   UNL A   1      44.135  30.995  39.298  1.00  0.00    -0.744 OA
ENDBRANCH  73  74
ENDBRANCH  45  68
BRANCH  57  78
ATOM     78  C   UNL A   1      45.821  26.730  29.073  1.00  0.00    -0.014 A 
ATOM     79  C   UNL A   1      47.109  27.167  28.702  1.00  0.00     0.010 A 
ATOM     80  C   UNL A   1      44.727  27.410  28.502  1.00  0.00     0.010 A 
ATOM     81  C   UNL A   1      47.299  28.245  27.822  1.00  0.00     0.020 A 
ATOM     82  C   UNL A   1      44.905  28.488  27.611  1.00  0.00     0.020 A 
ATOM     83  C   UNL A   1      46.194  28.903  27.281  1.00  0.00     0.054 A 
BRANCH  83  84
ATOM     84  S   UNL A   1      46.474  30.311  26.164  1.00  0.00     0.124 S 
ATOM     85  O   UNL A   1      45.294  31.143  26.387  1.00  0.00    -0.237 OA
ATOM     86  O   UNL A   1      47.731  30.866  26.661  1.00  0.00    -0.237 OA
ATOM     87  O   UNL A   1      46.550  29.699  24.838  1.00  0.00    -0.744 OA
ENDBRANCH  83  84
ENDBRANCH  57  78
ENDBRANCH  31  32
ENDBRANCH  24  26
ENDBRANCH  23  24
ENDBRANCH  22  23
ENDBRANCH   1  22
TORSDOF 18
ENDMDL
MODEL 2
REMARK VINA RESULT:     -10.1      5.033     11.590
REMARK SMILES CCn1cccc1C(=O)N(C)c1snc(C)c1C(=O)OCCOC(=O)c1ccc(-c2c3nc(c(-c4ccc(S(=O)(=O)[O-])cc4)c4ccc([nH]4)c(-c4ccc(S(=O)(=O)[O-])cc4)c4nc(c(-c5ccc(S(=O)(=O)[O-])cc5)c5ccc2[nH]5)C=C4)C=C3)cc1
REMARK SMILES IDX 21 1 20 2 18 3 19 4 17 5 12 6 13 7 14 8 15 9 16 10 10 11
REMARK SMILES IDX 11 12 8 13 9 14 7 15 3 16 4 17 5 18 6 19 2 20 1 21 22 22
REMARK SMILES IDX 23 23 24 24 25 25 26 26 27 27 85 28 28 29 84 30 29 31 30 32
REMARK SMILES IDX 31 33 78 34 32 35 83 36 77 37 79 38 33 39 82 40 76 41 75 42
REMARK SMILES IDX 34 44 64 45 45 46 63 47 46 48 49 49 62 50 80 51 47 52 48 53
REMARK SMILES IDX 61 55 81 56 50 57 35 58 36 59 44 60 37 61 43 62 38 63 39 64
REMARK SMILES IDX 40 65 41 66 42 67 65 68 66 69 74 70 67 71 73 72 68 73 69 74
REMARK SMILES IDX 70 75 71 76 72 77 51 78 52 79 60 80 53 81 59 82 54 83 55 84
REMARK SMILES IDX 56 85 57 86 58 87
REMARK H PARENT 79 43 49 54
REMARK Flexibility Score: inf
ROOT
ATOM      1  C   UNL A   1      36.577  23.696  24.931  1.00  0.00     0.275 C 
ENDROOT
BRANCH   1   2
ATOM      2  O   UNL A   1      35.450  24.136  25.700  1.00  0.00    -0.458 OA
BRANCH   2   3
ATOM      3  C   UNL A   1      34.524  23.182  26.028  1.00  0.00     0.343 C 
ATOM      4  O   UNL A   1      34.346  22.777  27.161  1.00  0.00    -0.246 OA
BRANCH   3   5
ATOM      5  C   UNL A   1      33.668  22.801  24.901  1.00  0.00     0.117 A 
ATOM      6  C   UNL A   1      32.878  23.637  24.106  1.00  0.00     0.133 A 
ATOM      7  S   UNL A   1      31.929  22.628  23.086  1.00  0.00    -0.017 S 
ATOM      8  N   UNL A   1      32.612  21.203  23.503  1.00  0.00    -0.195 NA
ATOM      9  C   UNL A   1      33.478  21.413  24.492  1.00  0.00     0.068 A 
ATOM     10  C   UNL A   1      34.111  20.191  25.076  1.00  0.00     0.069 C 
BRANCH   6  11
ATOM     11  N   UNL A   1      32.723  25.050  23.971  1.00  0.00    -0.300 N 
ATOM     12  C   UNL A   1      33.612  25.829  23.127  1.00  0.00     0.154 C 
BRANCH  11  13
ATOM     13  C   UNL A   1      31.888  25.677  24.919  1.00  0.00     0.275 C 
ATOM     14  O   UNL A   1      31.051  24.970  25.502  1.00  0.00    -0.267 OA
BRANCH  13  15
ATOM     15  C   UNL A   1      31.947  27.113  25.304  1.00  0.00     0.107 A 
ATOM     16  N   UNL A   1      31.575  28.339  24.754  1.00  0.00    -0.344 N 
ATOM     17  C   UNL A   1      31.916  29.370  25.618  1.00  0.00     0.086 A 
ATOM     18  C   UNL A   1      32.423  28.840  26.769  1.00  0.00     0.020 A 
ATOM     19  C   UNL A   1      32.434  27.451  26.579  1.00  0.00     0.033 A 
BRANCH  16  20
ATOM     20  C   UNL A   1      30.882  28.683  23.523  1.00  0.00     0.119 C 
ATOM     21  C   UNL A   1      29.869  29.810  23.720  1.00  0.00     0.027 C 
ENDBRANCH  16  20
ENDBRANCH  13  15
ENDBRANCH  11  13
ENDBRANCH   6  11
ENDBRANCH   3   5
ENDBRANCH   2   3
ENDBRANCH   1   2
BRANCH   1  22
ATOM     22  C   UNL A   1      37.730  23.305  25.853  1.00  0.00     0.275 C 
BRANCH  22  23
ATOM     23  O   UNL A   1      38.023  24.287  26.856  1.00  0.00    -0.458 OA
BRANCH  23  24
ATOM     24  C   UNL A   1      39.283  24.220  27.349  1.00  0.00     0.338 C 
ATOM     25  O   UNL A   1      39.938  23.210  27.553  1.00  0.00    -0.246 OA
BRANCH  24  26
ATOM     26  C   UNL A   1      39.768  25.543  27.758  1.00  0.00     0.060 A 
ATOM     27  C   UNL A   1      39.576  25.915  29.094  1.00  0.00     0.016 A 
ATOM     28  C   UNL A   1      40.207  26.468  26.803  1.00  0.00     0.016 A 
ATOM     29  C   UNL A   1      39.781  27.233  29.469  1.00  0.00     0.010 A 
ATOM     30  C   UNL A   1      40.383  27.795  27.174  1.00  0.00     0.010 A 
ATOM     31  C   UNL A   1      40.162  28.175  28.505  1.00  0.00    -0.014 A 
BRANCH  31  32
ATOM     32  C   UNL A   1      40.494  29.540  28.956  1.00  0.00     0.031 A 
ATOM     33  C   UNL A   1      39.234  30.385  29.199  1.00  0.00     0.074 A 
ATOM     34  C   UNL A   1      41.822  29.861  29.047  1.00  0.00     0.049 A 
ATOM     35  N   UNL A   1      39.118  31.670  29.325  1.00  0.00    -0.248 NA
ATOM     36  C   UNL A   1      37.898  29.723  29.274  1.00  0.00     0.031 C 
ATOM     37  C   UNL A   1      42.940  28.922  28.783  1.00  0.00     0.029 A 
ATOM     38  N   UNL A   1      42.510  31.014  29.370  1.00  0.00    -0.354 N 
ATOM     39  C   UNL A   1      37.779  31.946  29.676  1.00  0.00     0.074 A 
ATOM     40  C   UNL A   1      37.057  30.721  29.551  1.00  0.00     0.031 C 
ATOM     41  C   UNL A   1      44.135  29.547  28.886  1.00  0.00     0.029 A 
ATOM     42  C   UNL A   1      43.925  30.931  29.265  1.00  0.00     0.049 A 
ATOM     43  H   UNL A   1      42.051  31.838  29.655  1.00  0.00     0.167 HD
ATOM     44  C   UNL A   1      37.372  33.152  30.165  1.00  0.00     0.031 A 
ATOM     45  C   UNL A   1      44.868  31.902  29.465  1.00  0.00     0.031 A 
ATOM     46  C   UNL A   1      38.442  34.086  30.123  1.00  0.00     0.049 A 
ATOM     47  C   UNL A   1      44.155  33.041  30.053  1.00  0.00     0.074 A 
ATOM     48  C   UNL A   1      39.066  34.728  29.087  1.00  0.00     0.029 A 
ATOM     49  N   UNL A   1      39.218  34.175  31.254  1.00  0.00    -0.354 N 
ATOM     50  N   UNL A   1      43.744  33.088  31.282  1.00  0.00    -0.248 NA
ATOM     51  C   UNL A   1      43.904  34.236  29.239  1.00  0.00     0.031 C 
ATOM     52  C   UNL A   1      40.411  34.779  29.500  1.00  0.00     0.029 A 
ATOM     53  C   UNL A   1      40.510  34.339  30.826  1.00  0.00     0.049 A 
ATOM     54  H   UNL A   1      38.908  34.132  32.186  1.00  0.00     0.167 HD
ATOM     55  C   UNL A   1      42.834  34.109  31.241  1.00  0.00     0.074 A 
ATOM     56  C   UNL A   1      43.222  34.955  30.130  1.00  0.00     0.031 C 
ATOM     57  C   UNL A   1      41.573  33.865  31.680  1.00  0.00     0.031 A 
BRANCH  44  58
ATOM     58  C   UNL A   1      36.136  33.555  30.917  1.00  0.00    -0.014 A 
ATOM     59  C   UNL A   1      34.959  33.757  30.151  1.00  0.00     0.010 A 
ATOM     60  C   UNL A   1      36.169  34.084  32.215  1.00  0.00     0.010 A 
ATOM     61  C   UNL A   1      33.928  34.584  30.596  1.00  0.00     0.020 A 
ATOM     62  C   UNL A   1      35.114  34.884  32.685  1.00  0.00     0.020 A 
ATOM     63  C   UNL A   1      34.033  35.176  31.848  1.00  0.00     0.054 A 
BRANCH  63  64
ATOM     64  S   UNL A   1      32.785  36.402  32.322  1.00  0.00     0.124 S 
ATOM     65  O   UNL A   1      32.707  37.237  31.127  1.00  0.00    -0.237 OA
ATOM     66  O   UNL A   1      31.609  35.573  32.583  1.00  0.00    -0.237 OA
ATOM     67  O   UNL A   1      33.362  37.040  33.502  1.00  0.00    -0.744 OA
ENDBRANCH  63  64
ENDBRANCH  44  58
BRANCH  45  68
ATOM     68  C   UNL A   1      46.345  32.156  29.262  1.00  0.00    -0.014 A 
ATOM     69  C   UNL A   1      47.367  31.883  30.176  1.00  0.00     0.010 A 
ATOM     70  C   UNL A   1      46.772  32.526  27.950  1.00  0.00     0.010 A 
ATOM     71  C   UNL A   1      48.721  31.836  29.755  1.00  0.00     0.020 A 
ATOM     72  C   UNL A   1      48.090  32.423  27.507  1.00  0.00     0.020 A 
ATOM     73  C   UNL A   1      49.064  32.049  28.413  1.00  0.00     0.054 A 
BRANCH  73  74
ATOM     74  S   UNL A   1      50.733  31.691  27.792  1.00  0.00     0.124 S 
ATOM     75  O   UNL A   1      50.483  31.346  26.397  1.00  0.00    -0.237 OA
ATOM     76  O   UNL A   1      51.442  32.950  28.015  1.00  0.00    -0.237 OA
ATOM     77  O   UNL A   1      51.180  30.586  28.641  1.00  0.00    -0.744 OA
ENDBRANCH  73  74
ENDBRANCH  45  68
BRANCH  57  78
ATOM     78  C   UNL A   1      41.461  32.749  32.718  1.00  0.00    -0.014 A 
ATOM     79  C   UNL A   1      41.852  32.994  34.050  1.00  0.00     0.010 A 
ATOM     80  C   UNL A   1      41.096  31.427  32.393  1.00  0.00     0.010 A 
ATOM     81  C   UNL A   1      41.900  31.968  35.007  1.00  0.00     0.020 A 
ATOM     82  C   UNL A   1      41.132  30.391  33.347  1.00  0.00     0.020 A 
ATOM     83  C   UNL A   1      41.540  30.667  34.651  1.00  0.00     0.054 A 
BRANCH  83  84
ATOM     84  S   UNL A   1      41.636  29.356  35.907  1.00  0.00     0.124 S 
ATOM     85  O   UNL A   1      42.304  28.269  35.194  1.00  0.00    -0.237 OA
ATOM     86  O   UNL A   1      42.427  29.986  36.963  1.00  0.00    -0.237 OA
ATOM     87  O   UNL A   1      40.240  29.095  36.252  1.00  0.00    -0.744 OA
ENDBRANCH  83  84
ENDBRANCH  57  78
ENDBRANCH  31  32
ENDBRANCH  24  26
ENDBRANCH  23  24
ENDBRANCH  22  23
ENDBRANCH   1  22
TORSDOF 18
ENDMDL
MODEL 3
REMARK VINA RESULT:      -9.6      1.598      2.241
REMARK SMILES CCn1cccc1C(=O)N(C)c1snc(C)c1C(=O)OCCOC(=O)c1ccc(-c2c3nc(c(-c4ccc(S(=O)(=O)[O-])cc4)c4ccc([nH]4)c(-c4ccc(S(=O)(=O)[O-])cc4)c4nc(c(-c5ccc(S(=O)(=O)[O-])cc5)c5ccc2[nH]5)C=C4)C=C3)cc1
REMARK SMILES IDX 21 1 20 2 18 3 19 4 17 5 12 6 13 7 14 8 15 9 16 10 10 11
REMARK SMILES IDX 11 12 8 13 9 14 7 15 3 16 4 17 5 18 6 19 2 20 1 21 22 22
REMARK SMILES IDX 23 23 24 24 25 25 26 26 27 27 85 28 28 29 84 30 29 31 30 32
REMARK SMILES IDX 31 33 78 34 32 35 83 36 77 37 79 38 33 39 82 40 76 41 75 42
REMARK SMILES IDX 34 44 64 45 45 46 63 47 46 48 49 49 62 50 80 51 47 52 48 53
REMARK SMILES IDX 61 55 81 56 50 57 35 58 36 59 44 60 37 61 43 62 38 63 39 64
REMARK SMILES IDX 40 65 41 66 42 67 65 68 66 69 74 70 67 71 73 72 68 73 69 74
REMARK SMILES IDX 70 75 71 76 72 77 51 78 52 79 60 80 53 81 59 82 54 83 55 84
REMARK SMILES IDX 56 85 57 86 58 87
REMARK H PARENT 79 43 49 54
REMARK Flexibility Score: inf
ROOT
ATOM      1  C   UNL A   1      35.940  33.598  28.983  1.00  0.00     0.275 C 
ENDROOT
BRANCH   1   2
ATOM      2  O   UNL A   1      36.731  33.089  30.064  1.00  0.00    -0.458 OA
BRANCH   2   3
ATOM      3  C   UNL A   1      36.047  32.607  31.148  1.00  0.00     0.343 C 
ATOM      4  O   UNL A   1      35.352  31.610  31.117  1.00  0.00    -0.246 OA
BRANCH   3   5
ATOM      5  C   UNL A   1      36.351  33.329  32.386  1.00  0.00     0.117 A 
ATOM      6  C   UNL A   1      37.330  33.023  33.337  1.00  0.00     0.133 A 
ATOM      7  S   UNL A   1      37.090  34.074  34.678  1.00  0.00    -0.017 S 
ATOM      8  N   UNL A   1      35.913  34.995  34.016  1.00  0.00    -0.195 NA
ATOM      9  C   UNL A   1      35.579  34.484  32.833  1.00  0.00     0.068 A 
ATOM     10  C   UNL A   1      34.430  35.142  32.139  1.00  0.00     0.069 C 
BRANCH   6  11
ATOM     11  N   UNL A   1      38.413  32.095  33.408  1.00  0.00    -0.300 N 
ATOM     12  C   UNL A   1      38.194  30.707  33.778  1.00  0.00     0.154 C 
BRANCH  11  13
ATOM     13  C   UNL A   1      39.709  32.651  33.412  1.00  0.00     0.275 C 
ATOM     14  O   UNL A   1      40.372  32.553  34.456  1.00  0.00    -0.267 OA
BRANCH  13  15
ATOM     15  C   UNL A   1      40.364  33.320  32.255  1.00  0.00     0.107 A 
ATOM     16  N   UNL A   1      41.315  34.318  32.051  1.00  0.00    -0.344 N 
ATOM     17  C   UNL A   1      41.509  34.520  30.692  1.00  0.00     0.086 A 
ATOM     18  C   UNL A   1      40.769  33.608  29.995  1.00  0.00     0.020 A 
ATOM     19  C   UNL A   1      40.071  32.865  30.957  1.00  0.00     0.033 A 
BRANCH  16  20
ATOM     20  C   UNL A   1      42.125  35.094  32.977  1.00  0.00     0.119 C 
ATOM     21  C   UNL A   1      43.472  35.497  32.376  1.00  0.00     0.027 C 
ENDBRANCH  16  20
ENDBRANCH  13  15
ENDBRANCH  11  13
ENDBRANCH   6  11
ENDBRANCH   3   5
ENDBRANCH   2   3
ENDBRANCH   1   2
BRANCH   1  22
ATOM     22  C   UNL A   1      35.238  32.456  28.252  1.00  0.00     0.275 C 
BRANCH  22  23
ATOM     23  O   UNL A   1      36.139  31.564  27.581  1.00  0.00    -0.458 OA
BRANCH  23  24
ATOM     24  C   UNL A   1      35.992  30.263  27.924  1.00  0.00     0.338 C 
ATOM     25  O   UNL A   1      34.960  29.610  27.904  1.00  0.00    -0.246 OA
BRANCH  24  26
ATOM     26  C   UNL A   1      37.235  29.712  28.477  1.00  0.00     0.060 A 
ATOM     27  C   UNL A   1      38.381  29.774  27.675  1.00  0.00     0.016 A 
ATOM     28  C   UNL A   1      37.219  28.970  29.665  1.00  0.00     0.016 A 
ATOM     29  C   UNL A   1      39.505  29.050  28.038  1.00  0.00     0.010 A 
ATOM     30  C   UNL A   1      38.336  28.221  30.012  1.00  0.00     0.010 A 
ATOM     31  C   UNL A   1      39.474  28.258  29.193  1.00  0.00    -0.014 A 
BRANCH  31  32
ATOM     32  C   UNL A   1      40.724  27.600  29.622  1.00  0.00     0.031 A 
ATOM     33  C   UNL A   1      40.989  26.308  28.835  1.00  0.00     0.074 A 
ATOM     34  C   UNL A   1      41.415  28.186  30.647  1.00  0.00     0.049 A 
ATOM     35  N   UNL A   1      41.804  25.336  29.102  1.00  0.00    -0.248 NA
ATOM     36  C   UNL A   1      40.213  26.022  27.592  1.00  0.00     0.031 C 
ATOM     37  C   UNL A   1      41.033  29.456  31.312  1.00  0.00     0.029 A 
ATOM     38  N   UNL A   1      42.562  27.854  31.343  1.00  0.00    -0.354 N 
ATOM     39  C   UNL A   1      41.787  24.449  28.004  1.00  0.00     0.074 A 
ATOM     40  C   UNL A   1      40.733  24.878  27.142  1.00  0.00     0.031 C 
ATOM     41  C   UNL A   1      41.870  29.743  32.334  1.00  0.00     0.029 A 
ATOM     42  C   UNL A   1      42.900  28.724  32.414  1.00  0.00     0.049 A 
ATOM     43  H   UNL A   1      43.109  27.068  31.110  1.00  0.00     0.167 HD
ATOM     44  C   UNL A   1      42.727  23.480  27.815  1.00  0.00     0.031 A 
ATOM     45  C   UNL A   1      43.931  28.638  33.309  1.00  0.00     0.031 A 
ATOM     46  C   UNL A   1      43.601  23.419  28.934  1.00  0.00     0.049 A 
ATOM     47  C   UNL A   1      44.805  27.568  32.815  1.00  0.00     0.074 A 
ATOM     48  C   UNL A   1      43.423  22.982  30.220  1.00  0.00     0.029 A 
ATOM     49  N   UNL A   1      44.740  24.183  28.861  1.00  0.00    -0.354 N 
ATOM     50  N   UNL A   1      45.602  27.688  31.800  1.00  0.00    -0.248 NA
ATOM     51  C   UNL A   1      44.832  26.277  33.512  1.00  0.00     0.031 C 
ATOM     52  C   UNL A   1      44.199  23.881  30.978  1.00  0.00     0.029 A 
ATOM     53  C   UNL A   1      44.946  24.694  30.116  1.00  0.00     0.049 A 
ATOM     54  H   UNL A   1      45.299  24.333  28.066  1.00  0.00     0.167 HD
ATOM     55  C   UNL A   1      45.878  26.383  31.497  1.00  0.00     0.074 A 
ATOM     56  C   UNL A   1      45.689  25.632  32.722  1.00  0.00     0.031 C 
ATOM     57  C   UNL A   1      45.643  25.953  30.231  1.00  0.00     0.031 A 
BRANCH  44  58
ATOM     58  C   UNL A   1      43.114  22.692  26.597  1.00  0.00    -0.014 A 
ATOM     59  C   UNL A   1      42.530  21.406  26.455  1.00  0.00     0.010 A 
ATOM     60  C   UNL A   1      44.249  22.981  25.827  1.00  0.00     0.010 A 
ATOM     61  C   UNL A   1      43.141  20.403  25.704  1.00  0.00     0.020 A 
ATOM     62  C   UNL A   1      44.846  21.986  25.036  1.00  0.00     0.020 A 
ATOM     63  C   UNL A   1      44.322  20.690  25.031  1.00  0.00     0.054 A 
BRANCH  63  64
ATOM     64  S   UNL A   1      45.205  19.324  24.231  1.00  0.00     0.124 S 
ATOM     65  O   UNL A   1      46.595  19.755  24.336  1.00  0.00    -0.237 OA
ATOM     66  O   UNL A   1      44.841  18.180  25.066  1.00  0.00    -0.237 OA
ATOM     67  O   UNL A   1      44.650  19.302  22.881  1.00  0.00    -0.744 OA
ENDBRANCH  63  64
ENDBRANCH  44  58
BRANCH  45  68
ATOM     68  C   UNL A   1      44.418  29.266  34.597  1.00  0.00    -0.014 A 
ATOM     69  C   UNL A   1      44.470  28.652  35.851  1.00  0.00     0.010 A 
ATOM     70  C   UNL A   1      45.069  30.534  34.501  1.00  0.00     0.010 A 
ATOM     71  C   UNL A   1      45.255  29.206  36.895  1.00  0.00     0.020 A 
ATOM     72  C   UNL A   1      45.893  31.057  35.496  1.00  0.00     0.020 A 
ATOM     73  C   UNL A   1      46.005  30.371  36.690  1.00  0.00     0.054 A 
BRANCH  73  74
ATOM     74  S   UNL A   1      47.249  30.923  37.894  1.00  0.00     0.124 S 
ATOM     75  O   UNL A   1      46.889  32.322  38.100  1.00  0.00    -0.237 OA
ATOM     76  O   UNL A   1      47.018  30.036  39.032  1.00  0.00    -0.237 OA
ATOM     77  O   UNL A   1      48.516  30.698  37.197  1.00  0.00    -0.744 OA
ENDBRANCH  73  74
ENDBRANCH  45  68
BRANCH  57  78
ATOM     78  C   UNL A   1      45.709  27.043  29.161  1.00  0.00    -0.014 A 
ATOM     79  C   UNL A   1      46.963  27.481  28.689  1.00  0.00     0.010 A 
ATOM     80  C   UNL A   1      44.574  27.737  28.696  1.00  0.00     0.010 A 
ATOM     81  C   UNL A   1      47.084  28.571  27.813  1.00  0.00     0.020 A 
ATOM     82  C   UNL A   1      44.682  28.827  27.810  1.00  0.00     0.020 A 
ATOM     83  C   UNL A   1      45.940  29.242  27.377  1.00  0.00     0.054 A 
BRANCH  83  84
ATOM     84  S   UNL A   1      46.132  30.666  26.262  1.00  0.00     0.124 S 
ATOM     85  O   UNL A   1      44.828  31.320  26.341  1.00  0.00    -0.237 OA
ATOM     86  O   UNL A   1      47.236  31.402  26.874  1.00  0.00    -0.237 OA
ATOM     87  O   UNL A   1      46.435  30.061  24.966  1.00  0.00    -0.744 OA
ENDBRANCH  83  84
ENDBRANCH  57  78
ENDBRANCH  31  32
ENDBRANCH  24  26
ENDBRANCH  23  24
ENDBRANCH  22  23
ENDBRANCH   1  22
TORSDOF 18
ENDMDL
