MODEL 1
REMARK VINA RESULT:     -10.7      0.000      0.000
REMARK SMILES O=C(OCCOC(=O)c1ccc(S(=O)(=O)NC[C@H]2CCS(=O)(=O)C2)cc1)c1ccc(-c2c3nc(c(-c4ccc(S(=O)(=O)[O-])cc4)c4ccc([nH]4)c(-c4ccc(S(=O)(=O)[O-])cc4)c4nc(c(-c5ccc(S(=O)(=O)[O-])cc5)c5ccc2[nH]5)C=C4)C=C3)cc1
REMARK SMILES IDX 5 1 4 2 3 3 2 4 1 5 27 6 28 7 86 8 29 9 85 10 30 11 31 12
REMARK SMILES IDX 32 13 79 14 33 15 84 16 78 17 80 18 34 19 83 20 77 21 76 22
REMARK SMILES IDX 35 24 65 25 46 26 64 27 47 28 50 29 63 30 81 31 48 32 49 33
REMARK SMILES IDX 62 35 82 36 51 37 36 38 37 39 45 40 38 41 44 42 39 43 40 44
REMARK SMILES IDX 41 45 42 46 43 47 66 48 67 49 75 50 68 51 74 52 69 53 70 54
REMARK SMILES IDX 71 55 72 56 73 57 52 58 53 59 61 60 54 61 60 62 55 63 56 64
REMARK SMILES IDX 57 65 58 66 59 67 6 68 7 69 8 70 9 71 10 72 26 73 11 74
REMARK SMILES IDX 25 75 12 76 13 77 14 78 15 79 16 80 17 82 18 83 19 84 24 85
REMARK SMILES IDX 20 86 21 87 22 88 23 89
REMARK H PARENT 80 23 50 34 16 81
REMARK Flexibility Score: inf
ROOT
ATOM      1  C   UNL A   1      39.020  22.027  26.389  1.00  0.00     0.275 C 
ENDROOT
BRANCH   1   2
ATOM      2  C   UNL A   1      39.932  23.032  27.100  1.00  0.00     0.275 C 
BRANCH   2   3
ATOM      3  O   UNL A   1      39.404  24.366  27.150  1.00  0.00    -0.458 OA
BRANCH   3   4
ATOM      4  C   UNL A   1      40.021  25.554  26.957  1.00  0.00     0.338 C 
ATOM      5  O   UNL A   1      40.625  25.718  25.896  1.00  0.00    -0.246 OA
BRANCH   4   6
ATOM      6  C   UNL A   1      40.126  26.642  27.991  1.00  0.00     0.060 A 
ATOM      7  C   UNL A   1      40.894  27.813  27.924  1.00  0.00     0.016 A 
ATOM      8  C   UNL A   1      39.333  26.465  29.135  1.00  0.00     0.016 A 
ATOM      9  C   UNL A   1      40.825  28.806  28.912  1.00  0.00     0.010 A 
ATOM     10  C   UNL A   1      39.260  27.451  30.122  1.00  0.00     0.010 A 
ATOM     11  C   UNL A   1      40.003  28.638  30.018  1.00  0.00    -0.014 A 
BRANCH  11  12
ATOM     12  C   UNL A   1      40.069  29.551  31.184  1.00  0.00     0.031 A 
ATOM     13  C   UNL A   1      41.099  29.227  32.226  1.00  0.00     0.074 A 
ATOM     14  C   UNL A   1      39.247  30.607  31.345  1.00  0.00     0.049 A 
ATOM     15  N   UNL A   1      41.287  29.763  33.399  1.00  0.00    -0.248 NA
ATOM     16  C   UNL A   1      42.068  28.171  31.877  1.00  0.00     0.031 C 
ATOM     17  C   UNL A   1      38.320  31.136  30.349  1.00  0.00     0.029 A 
ATOM     18  N   UNL A   1      39.015  31.398  32.445  1.00  0.00    -0.354 N 
ATOM     19  C   UNL A   1      42.399  29.114  33.921  1.00  0.00     0.074 A 
ATOM     20  C   UNL A   1      42.792  28.095  32.979  1.00  0.00     0.031 C 
ATOM     21  C   UNL A   1      37.517  32.052  30.922  1.00  0.00     0.029 A 
ATOM     22  C   UNL A   1      37.913  32.216  32.314  1.00  0.00     0.049 A 
ATOM     23  H   UNL A   1      39.583  31.382  33.249  1.00  0.00     0.167 HD
ATOM     24  C   UNL A   1      43.060  29.378  35.069  1.00  0.00     0.031 A 
ATOM     25  C   UNL A   1      37.287  32.984  33.228  1.00  0.00     0.031 A 
ATOM     26  C   UNL A   1      42.626  30.369  36.009  1.00  0.00     0.049 A 
ATOM     27  C   UNL A   1      37.902  33.120  34.586  1.00  0.00     0.074 A 
ATOM     28  C   UNL A   1      43.216  30.752  37.195  1.00  0.00     0.029 A 
ATOM     29  N   UNL A   1      41.463  31.115  35.871  1.00  0.00    -0.354 N 
ATOM     30  N   UNL A   1      38.964  32.516  35.060  1.00  0.00    -0.248 NA
ATOM     31  C   UNL A   1      37.277  34.077  35.506  1.00  0.00     0.031 C 
ATOM     32  C   UNL A   1      42.374  31.684  37.809  1.00  0.00     0.029 A 
ATOM     33  C   UNL A   1      41.298  31.936  36.968  1.00  0.00     0.049 A 
ATOM     34  H   UNL A   1      40.846  31.066  35.105  1.00  0.00     0.167 HD
ATOM     35  C   UNL A   1      39.184  33.076  36.309  1.00  0.00     0.074 A 
ATOM     36  C   UNL A   1      38.111  34.029  36.536  1.00  0.00     0.031 C 
ATOM     37  C   UNL A   1      40.210  32.861  37.166  1.00  0.00     0.031 A 
BRANCH  24  38
ATOM     38  C   UNL A   1      44.277  28.543  35.352  1.00  0.00    -0.014 A 
ATOM     39  C   UNL A   1      44.182  27.338  36.076  1.00  0.00     0.010 A 
ATOM     40  C   UNL A   1      45.543  29.003  34.954  1.00  0.00     0.010 A 
ATOM     41  C   UNL A   1      45.335  26.653  36.466  1.00  0.00     0.020 A 
ATOM     42  C   UNL A   1      46.698  28.303  35.311  1.00  0.00     0.020 A 
ATOM     43  C   UNL A   1      46.587  27.148  36.090  1.00  0.00     0.054 A 
BRANCH  43  44
ATOM     44  S   UNL A   1      48.069  26.264  36.642  1.00  0.00     0.124 S 
ATOM     45  O   UNL A   1      48.410  26.983  37.867  1.00  0.00    -0.237 OA
ATOM     46  O   UNL A   1      47.578  24.902  36.831  1.00  0.00    -0.237 OA
ATOM     47  O   UNL A   1      49.008  26.436  35.536  1.00  0.00    -0.744 OA
ENDBRANCH  43  44
ENDBRANCH  24  38
BRANCH  25  48
ATOM     48  C   UNL A   1      36.003  33.657  32.901  1.00  0.00    -0.014 A 
ATOM     49  C   UNL A   1      34.763  33.058  33.174  1.00  0.00     0.010 A 
ATOM     50  C   UNL A   1      36.031  34.942  32.333  1.00  0.00     0.010 A 
ATOM     51  C   UNL A   1      33.573  33.761  32.949  1.00  0.00     0.020 A 
ATOM     52  C   UNL A   1      34.847  35.655  32.125  1.00  0.00     0.020 A 
ATOM     53  C   UNL A   1      33.625  35.065  32.448  1.00  0.00     0.054 A 
BRANCH  53  54
ATOM     54  S   UNL A   1      32.103  36.052  32.342  1.00  0.00     0.124 S 
ATOM     55  O   UNL A   1      32.389  37.148  33.260  1.00  0.00    -0.237 OA
ATOM     56  O   UNL A   1      32.048  36.400  30.925  1.00  0.00    -0.237 OA
ATOM     57  O   UNL A   1      31.080  35.105  32.780  1.00  0.00    -0.744 OA
ENDBRANCH  53  54
ENDBRANCH  25  48
BRANCH  37  58
ATOM     58  C   UNL A   1      40.270  33.714  38.397  1.00  0.00    -0.014 A 
ATOM     59  C   UNL A   1      39.726  33.281  39.616  1.00  0.00     0.010 A 
ATOM     60  C   UNL A   1      40.996  34.918  38.344  1.00  0.00     0.010 A 
ATOM     61  C   UNL A   1      39.918  34.040  40.770  1.00  0.00     0.020 A 
ATOM     62  C   UNL A   1      41.214  35.663  39.501  1.00  0.00     0.020 A 
ATOM     63  C   UNL A   1      40.673  35.217  40.708  1.00  0.00     0.054 A 
BRANCH  63  64
ATOM     64  S   UNL A   1      41.006  36.121  42.242  1.00  0.00     0.124 S 
ATOM     65  O   UNL A   1      39.768  36.874  42.424  1.00  0.00    -0.237 OA
ATOM     66  O   UNL A   1      41.234  35.044  43.202  1.00  0.00    -0.237 OA
ATOM     67  O   UNL A   1      42.184  36.924  41.924  1.00  0.00    -0.744 OA
ENDBRANCH  63  64
ENDBRANCH  37  58
ENDBRANCH  11  12
ENDBRANCH   4   6
ENDBRANCH   3   4
ENDBRANCH   2   3
ENDBRANCH   1   2
BRANCH   1  68
ATOM     68  O   UNL A   1      38.189  22.623  25.380  1.00  0.00    -0.458 OA
BRANCH  68  69
ATOM     69  C   UNL A   1      37.145  21.866  24.941  1.00  0.00     0.338 C 
ATOM     70  O   UNL A   1      37.042  20.656  25.017  1.00  0.00    -0.246 OA
BRANCH  69  71
ATOM     71  C   UNL A   1      36.057  22.768  24.493  1.00  0.00     0.060 A 
ATOM     72  C   UNL A   1      35.703  23.859  25.299  1.00  0.00     0.017 A 
ATOM     73  C   UNL A   1      35.455  22.601  23.247  1.00  0.00     0.017 A 
ATOM     74  C   UNL A   1      34.803  24.823  24.825  1.00  0.00     0.022 A 
ATOM     75  C   UNL A   1      34.552  23.560  22.784  1.00  0.00     0.022 A 
ATOM     76  C   UNL A   1      34.249  24.686  23.549  1.00  0.00     0.082 A 
BRANCH  76  77
ATOM     77  S   UNL A   1      33.217  25.995  22.915  1.00  0.00     0.240 S 
ATOM     78  O   UNL A   1      33.114  26.985  23.957  1.00  0.00    -0.207 OA
ATOM     79  O   UNL A   1      33.732  26.340  21.605  1.00  0.00    -0.207 OA
BRANCH  77  80
ATOM     80  N   UNL A   1      31.697  25.330  22.651  1.00  0.00    -0.211 NA
ATOM     81  H   UNL A   1      31.842  24.324  22.579  1.00  0.00     0.141 HD
BRANCH  80  82
ATOM     82  C   UNL A   1      30.570  25.508  23.564  1.00  0.00     0.103 C 
BRANCH  82  83
ATOM     83  C   UNL A   1      30.448  24.398  24.586  1.00  0.00     0.020 C 
ATOM     84  C   UNL A   1      31.184  23.105  24.218  1.00  0.00     0.022 C 
ATOM     85  C   UNL A   1      31.055  24.825  25.921  1.00  0.00     0.142 C 
ATOM     86  C   UNL A   1      31.110  22.211  25.459  1.00  0.00     0.137 C 
ATOM     87  S   UNL A   1      31.051  23.319  26.869  1.00  0.00     0.150 S 
ATOM     88  O   UNL A   1      29.752  23.194  27.503  1.00  0.00    -0.229 OA
ATOM     89  O   UNL A   1      32.277  23.225  27.629  1.00  0.00    -0.229 OA
ENDBRANCH  82  83
ENDBRANCH  80  82
ENDBRANCH  77  80
ENDBRANCH  76  77
ENDBRANCH  69  71
ENDBRANCH  68  69
ENDBRANCH   1  68
TORSDOF 18
ENDMDL
MODEL 2
REMARK VINA RESULT:     -10.6      6.632     11.664
REMARK SMILES O=C(OCCOC(=O)c1ccc(S(=O)(=O)NC[C@H]2CCS(=O)(=O)C2)cc1)c1ccc(-c2c3nc(c(-c4ccc(S(=O)(=O)[O-])cc4)c4ccc([nH]4)c(-c4ccc(S(=O)(=O)[O-])cc4)c4nc(c(-c5ccc(S(=O)(=O)[O-])cc5)c5ccc2[nH]5)C=C4)C=C3)cc1
REMARK SMILES IDX 5 1 4 2 3 3 2 4 1 5 27 6 28 7 86 8 29 9 85 10 30 11 31 12
REMARK SMILES IDX 32 13 79 14 33 15 84 16 78 17 80 18 34 19 83 20 77 21 76 22
REMARK SMILES IDX 35 24 65 25 46 26 64 27 47 28 50 29 63 30 81 31 48 32 49 33
REMARK SMILES IDX 62 35 82 36 51 37 36 38 37 39 45 40 38 41 44 42 39 43 40 44
REMARK SMILES IDX 41 45 42 46 43 47 66 48 67 49 75 50 68 51 74 52 69 53 70 54
REMARK SMILES IDX 71 55 72 56 73 57 52 58 53 59 61 60 54 61 60 62 55 63 56 64
REMARK SMILES IDX 57 65 58 66 59 67 6 68 7 69 8 70 9 71 10 72 26 73 11 74
REMARK SMILES IDX 25 75 12 76 13 77 14 78 15 79 16 80 17 82 18 83 19 84 24 85
REMARK SMILES IDX 20 86 21 87 22 88 23 89
REMARK H PARENT 80 23 50 34 16 81
REMARK Flexibility Score: inf
ROOT
ATOM      1  C   UNL A   1      38.886  21.587  25.999  1.00  0.00     0.275 C 
ENDROOT
BRANCH   1   2
ATOM      2  C   UNL A   1      39.114  20.176  25.446  1.00  0.00     0.275 C 
BRANCH   2   3
ATOM      3  O   UNL A   1      40.247  19.502  26.013  1.00  0.00    -0.458 OA
BRANCH   3   4
ATOM      4  C   UNL A   1      41.566  19.790  25.923  1.00  0.00     0.338 C 
ATOM      5  O   UNL A   1      42.311  18.917  25.476  1.00  0.00    -0.246 OA
BRANCH   4   6
ATOM      6  C   UNL A   1      42.204  21.050  26.441  1.00  0.00     0.060 A 
ATOM      7  C   UNL A   1      42.338  21.453  27.777  1.00  0.00     0.016 A 
ATOM      8  C   UNL A   1      42.752  21.895  25.463  1.00  0.00     0.016 A 
ATOM      9  C   UNL A   1      43.050  22.605  28.140  1.00  0.00     0.010 A 
ATOM     10  C   UNL A   1      43.462  23.043  25.818  1.00  0.00     0.010 A 
ATOM     11  C   UNL A   1      43.625  23.409  27.164  1.00  0.00    -0.014 A 
BRANCH  11  12
ATOM     12  C   UNL A   1      44.187  24.742  27.486  1.00  0.00     0.031 A 
ATOM     13  C   UNL A   1      43.196  25.835  27.761  1.00  0.00     0.074 A 
ATOM     14  C   UNL A   1      45.510  25.001  27.511  1.00  0.00     0.049 A 
ATOM     15  N   UNL A   1      43.398  27.111  27.931  1.00  0.00    -0.248 NA
ATOM     16  C   UNL A   1      41.787  25.419  27.891  1.00  0.00     0.031 C 
ATOM     17  C   UNL A   1      46.582  24.013  27.430  1.00  0.00     0.029 A 
ATOM     18  N   UNL A   1      46.185  26.197  27.556  1.00  0.00    -0.354 N 
ATOM     19  C   UNL A   1      42.143  27.645  28.196  1.00  0.00     0.074 A 
ATOM     20  C   UNL A   1      41.181  26.576  28.084  1.00  0.00     0.031 C 
ATOM     21  C   UNL A   1      47.763  24.640  27.273  1.00  0.00     0.029 A 
ATOM     22  C   UNL A   1      47.535  26.080  27.303  1.00  0.00     0.049 A 
ATOM     23  H   UNL A   1      45.746  27.057  27.750  1.00  0.00     0.167 HD
ATOM     24  C   UNL A   1      41.828  28.911  28.546  1.00  0.00     0.031 A 
ATOM     25  C   UNL A   1      48.467  27.030  27.093  1.00  0.00     0.031 A 
ATOM     26  C   UNL A   1      42.796  29.966  28.610  1.00  0.00     0.049 A 
ATOM     27  C   UNL A   1      48.075  28.463  27.274  1.00  0.00     0.074 A 
ATOM     28  C   UNL A   1      42.615  31.284  28.974  1.00  0.00     0.029 A 
ATOM     29  N   UNL A   1      44.134  29.816  28.270  1.00  0.00    -0.354 N 
ATOM     30  N   UNL A   1      46.890  28.954  27.543  1.00  0.00    -0.248 NA
ATOM     31  C   UNL A   1      49.147  29.462  27.183  1.00  0.00     0.031 C 
ATOM     32  C   UNL A   1      43.832  31.948  28.789  1.00  0.00     0.029 A 
ATOM     33  C   UNL A   1      44.787  31.027  28.382  1.00  0.00     0.049 A 
ATOM     34  H   UNL A   1      44.555  28.972  27.988  1.00  0.00     0.167 HD
ATOM     35  C   UNL A   1      47.083  30.313  27.732  1.00  0.00     0.074 A 
ATOM     36  C   UNL A   1      48.492  30.573  27.493  1.00  0.00     0.031 C 
ATOM     37  C   UNL A   1      46.187  31.251  28.122  1.00  0.00     0.031 A 
BRANCH  24  38
ATOM     38  C   UNL A   1      40.379  29.190  28.832  1.00  0.00    -0.014 A 
ATOM     39  C   UNL A   1      39.467  29.449  27.790  1.00  0.00     0.010 A 
ATOM     40  C   UNL A   1      39.937  29.267  30.163  1.00  0.00     0.010 A 
ATOM     41  C   UNL A   1      38.163  29.859  28.076  1.00  0.00     0.020 A 
ATOM     42  C   UNL A   1      38.623  29.642  30.454  1.00  0.00     0.020 A 
ATOM     43  C   UNL A   1      37.754  29.964  29.408  1.00  0.00     0.054 A 
BRANCH  43  44
ATOM     44  S   UNL A   1      36.070  30.537  29.755  1.00  0.00     0.124 S 
ATOM     45  O   UNL A   1      36.211  31.985  29.625  1.00  0.00    -0.237 OA
ATOM     46  O   UNL A   1      35.289  29.888  28.705  1.00  0.00    -0.237 OA
ATOM     47  O   UNL A   1      35.811  30.053  31.108  1.00  0.00    -0.744 OA
ENDBRANCH  43  44
ENDBRANCH  24  38
BRANCH  25  48
ATOM     48  C   UNL A   1      49.843  26.663  26.667  1.00  0.00    -0.014 A 
ATOM     49  C   UNL A   1      50.778  26.128  27.568  1.00  0.00     0.010 A 
ATOM     50  C   UNL A   1      50.207  26.825  25.320  1.00  0.00     0.010 A 
ATOM     51  C   UNL A   1      52.030  25.696  27.114  1.00  0.00     0.020 A 
ATOM     52  C   UNL A   1      51.448  26.378  24.859  1.00  0.00     0.020 A 
ATOM     53  C   UNL A   1      52.347  25.802  25.757  1.00  0.00     0.054 A 
BRANCH  53  54
ATOM     54  S   UNL A   1      53.884  25.065  25.129  1.00  0.00     0.124 S 
ATOM     55  O   UNL A   1      53.867  25.474  23.730  1.00  0.00    -0.237 OA
ATOM     56  O   UNL A   1      54.903  25.691  25.966  1.00  0.00    -0.237 OA
ATOM     57  O   UNL A   1      53.678  23.640  25.379  1.00  0.00    -0.744 OA
ENDBRANCH  53  54
ENDBRANCH  25  48
BRANCH  37  58
ATOM     58  C   UNL A   1      46.706  32.632  28.384  1.00  0.00    -0.014 A 
ATOM     59  C   UNL A   1      47.271  32.981  29.620  1.00  0.00     0.010 A 
ATOM     60  C   UNL A   1      46.731  33.553  27.320  1.00  0.00     0.010 A 
ATOM     61  C   UNL A   1      47.864  34.233  29.784  1.00  0.00     0.020 A 
ATOM     62  C   UNL A   1      47.349  34.791  27.472  1.00  0.00     0.020 A 
ATOM     63  C   UNL A   1      47.913  35.123  28.705  1.00  0.00     0.054 A 
BRANCH  63  64
ATOM     64  S   UNL A   1      48.793  36.693  28.910  1.00  0.00     0.124 S 
ATOM     65  O   UNL A   1      50.188  36.264  28.870  1.00  0.00    -0.237 OA
ATOM     66  O   UNL A   1      48.338  37.464  27.756  1.00  0.00    -0.237 OA
ATOM     67  O   UNL A   1      48.328  37.185  30.205  1.00  0.00    -0.744 OA
ENDBRANCH  63  64
ENDBRANCH  37  58
ENDBRANCH  11  12
ENDBRANCH   4   6
ENDBRANCH   3   4
ENDBRANCH   2   3
ENDBRANCH   1   2
BRANCH   1  68
ATOM     68  O   UNL A   1      37.749  22.249  25.423  1.00  0.00    -0.458 OA
BRANCH  68  69
ATOM     69  C   UNL A   1      37.408  23.446  25.979  1.00  0.00     0.338 C 
ATOM     70  O   UNL A   1      38.169  24.336  26.311  1.00  0.00    -0.246 OA
BRANCH  69  71
ATOM     71  C   UNL A   1      35.932  23.573  25.969  1.00  0.00     0.060 A 
ATOM     72  C   UNL A   1      35.157  22.556  26.546  1.00  0.00     0.017 A 
ATOM     73  C   UNL A   1      35.314  24.726  25.485  1.00  0.00     0.017 A 
ATOM     74  C   UNL A   1      33.775  22.727  26.706  1.00  0.00     0.022 A 
ATOM     75  C   UNL A   1      33.936  24.886  25.641  1.00  0.00     0.022 A 
ATOM     76  C   UNL A   1      33.169  23.911  26.278  1.00  0.00     0.082 A 
BRANCH  76  77
ATOM     77  S   UNL A   1      31.437  24.162  26.620  1.00  0.00     0.240 S 
ATOM     78  O   UNL A   1      31.049  23.152  27.571  1.00  0.00    -0.207 OA
ATOM     79  O   UNL A   1      31.265  25.570  26.913  1.00  0.00    -0.207 OA
BRANCH  77  80
ATOM     80  N   UNL A   1      30.614  23.889  25.180  1.00  0.00    -0.211 NA
ATOM     81  H   UNL A   1      30.220  24.790  24.910  1.00  0.00     0.141 HD
BRANCH  80  82
ATOM     82  C   UNL A   1      31.248  23.352  23.979  1.00  0.00     0.103 C 
BRANCH  82  83
ATOM     83  C   UNL A   1      31.371  24.367  22.862  1.00  0.00     0.020 C 
ATOM     84  C   UNL A   1      30.919  25.784  23.233  1.00  0.00     0.022 C 
ATOM     85  C   UNL A   1      32.828  24.523  22.433  1.00  0.00     0.142 C 
ATOM     86  C   UNL A   1      31.320  26.676  22.055  1.00  0.00     0.137 C 
ATOM     87  S   UNL A   1      32.779  25.921  21.334  1.00  0.00     0.150 S 
ATOM     88  O   UNL A   1      32.444  25.436  20.009  1.00  0.00    -0.229 OA
ATOM     89  O   UNL A   1      33.937  26.755  21.564  1.00  0.00    -0.229 OA
ENDBRANCH  82  83
ENDBRANCH  80  82
ENDBRANCH  77  80
ENDBRANCH  76  77
ENDBRANCH  69  71
ENDBRANCH  68  69
ENDBRANCH   1  68
TORSDOF 18
ENDMDL
MODEL 3
REMARK VINA RESULT:     -10.6      6.759     11.747
REMARK SMILES O=C(OCCOC(=O)c1ccc(S(=O)(=O)NC[C@H]2CCS(=O)(=O)C2)cc1)c1ccc(-c2c3nc(c(-c4ccc(S(=O)(=O)[O-])cc4)c4ccc([nH]4)c(-c4ccc(S(=O)(=O)[O-])cc4)c4nc(c(-c5ccc(S(=O)(=O)[O-])cc5)c5ccc2[nH]5)C=C4)C=C3)cc1
REMARK SMILES IDX 5 1 4 2 3 3 2 4 1 5 27 6 28 7 86 8 29 9 85 10 30 11 31 12
REMARK SMILES IDX 32 13 79 14 33 15 84 16 78 17 80 18 34 19 83 20 77 21 76 22
REMARK SMILES IDX 35 24 65 25 46 26 64 27 47 28 50 29 63 30 81 31 48 32 49 33
REMARK SMILES IDX 62 35 82 36 51 37 36 38 37 39 45 40 38 41 44 42 39 43 40 44
REMARK SMILES IDX 41 45 42 46 43 47 66 48 67 49 75 50 68 51 74 52 69 53 70 54
REMARK SMILES IDX 71 55 72 56 73 57 52 58 53 59 61 60 54 61 60 62 55 63 56 64
REMARK SMILES IDX 57 65 58 66 59 67 6 68 7 69 8 70 9 71 10 72 26 73 11 74
REMARK SMILES IDX 25 75 12 76 13 77 14 78 15 79 16 80 17 82 18 83 19 84 24 85
REMARK SMILES IDX 20 86 21 87 22 88 23 89
REMARK H PARENT 80 23 50 34 16 81
REMARK Flexibility Score: inf
ROOT
ATOM      1  C   UNL A   1      39.357  21.415  26.024  1.00  0.00     0.275 C 
ENDROOT
BRANCH   1   2
ATOM      2  C   UNL A   1      39.481  19.919  25.718  1.00  0.00     0.275 C 
BRANCH   2   3
ATOM      3  O   UNL A   1      40.758  19.357  26.058  1.00  0.00    -0.458 OA
BRANCH   3   4
ATOM      4  C   UNL A   1      42.005  19.789  25.762  1.00  0.00     0.338 C 
ATOM      5  O   UNL A   1      42.727  19.040  25.103  1.00  0.00    -0.246 OA
BRANCH   4   6
ATOM      6  C   UNL A   1      42.615  21.063  26.282  1.00  0.00     0.060 A 
ATOM      7  C   UNL A   1      42.691  21.491  27.615  1.00  0.00     0.016 A 
ATOM      8  C   UNL A   1      43.199  21.892  25.312  1.00  0.00     0.016 A 
ATOM      9  C   UNL A   1      43.381  22.655  27.984  1.00  0.00     0.010 A 
ATOM     10  C   UNL A   1      43.888  23.051  25.674  1.00  0.00     0.010 A 
ATOM     11  C   UNL A   1      43.992  23.443  27.018  1.00  0.00    -0.014 A 
BRANCH  11  12
ATOM     12  C   UNL A   1      44.535  24.785  27.337  1.00  0.00     0.031 A 
ATOM     13  C   UNL A   1      43.528  25.852  27.656  1.00  0.00     0.074 A 
ATOM     14  C   UNL A   1      45.851  25.075  27.323  1.00  0.00     0.049 A 
ATOM     15  N   UNL A   1      43.706  27.130  27.835  1.00  0.00    -0.248 NA
ATOM     16  C   UNL A   1      42.134  25.401  27.827  1.00  0.00     0.031 C 
ATOM     17  C   UNL A   1      46.942  24.113  27.195  1.00  0.00     0.029 A 
ATOM     18  N   UNL A   1      46.500  26.286  27.360  1.00  0.00    -0.354 N 
ATOM     19  C   UNL A   1      42.449  27.632  28.146  1.00  0.00     0.074 A 
ATOM     20  C   UNL A   1      41.508  26.542  28.053  1.00  0.00     0.031 C 
ATOM     21  C   UNL A   1      48.103  24.769  27.008  1.00  0.00     0.029 A 
ATOM     22  C   UNL A   1      47.843  26.202  27.062  1.00  0.00     0.049 A 
ATOM     23  H   UNL A   1      46.047  27.133  27.578  1.00  0.00     0.167 HD
ATOM     24  C   UNL A   1      42.116  28.886  28.521  1.00  0.00     0.031 A 
ATOM     25  C   UNL A   1      48.746  27.177  26.834  1.00  0.00     0.031 A 
ATOM     26  C   UNL A   1      43.061  29.963  28.567  1.00  0.00     0.049 A 
ATOM     27  C   UNL A   1      48.327  28.598  27.044  1.00  0.00     0.074 A 
ATOM     28  C   UNL A   1      42.862  31.272  28.952  1.00  0.00     0.029 A 
ATOM     29  N   UNL A   1      44.390  29.848  28.182  1.00  0.00    -0.354 N 
ATOM     30  N   UNL A   1      47.141  29.058  27.357  1.00  0.00    -0.248 NA
ATOM     31  C   UNL A   1      49.372  29.623  26.930  1.00  0.00     0.031 C 
ATOM     32  C   UNL A   1      44.056  31.967  28.735  1.00  0.00     0.029 A 
ATOM     33  C   UNL A   1      45.019  31.072  28.287  1.00  0.00     0.049 A 
ATOM     34  H   UNL A   1      44.821  29.016  27.877  1.00  0.00     0.167 HD
ATOM     35  C   UNL A   1      47.309  30.419  27.555  1.00  0.00     0.074 A 
ATOM     36  C   UNL A   1      48.702  30.715  27.274  1.00  0.00     0.031 C 
ATOM     37  C   UNL A   1      46.404  31.331  27.984  1.00  0.00     0.031 A 
BRANCH  24  38
ATOM     38  C   UNL A   1      40.671  29.128  28.858  1.00  0.00    -0.014 A 
ATOM     39  C   UNL A   1      39.723  29.391  27.849  1.00  0.00     0.010 A 
ATOM     40  C   UNL A   1      40.268  29.167  30.202  1.00  0.00     0.010 A 
ATOM     41  C   UNL A   1      38.420  29.767  28.183  1.00  0.00     0.020 A 
ATOM     42  C   UNL A   1      38.957  29.508  30.541  1.00  0.00     0.020 A 
ATOM     43  C   UNL A   1      38.050  29.834  29.529  1.00  0.00     0.054 A 
BRANCH  43  44
ATOM     44  S   UNL A   1      36.366  30.363  29.939  1.00  0.00     0.124 S 
ATOM     45  O   UNL A   1      36.515  31.815  30.010  1.00  0.00    -0.237 OA
ATOM     46  O   UNL A   1      35.590  29.869  28.805  1.00  0.00    -0.237 OA
ATOM     47  O   UNL A   1      36.093  29.700  31.212  1.00  0.00    -0.744 OA
ENDBRANCH  43  44
ENDBRANCH  24  38
BRANCH  25  48
ATOM     48  C   UNL A   1      50.115  26.846  26.359  1.00  0.00    -0.014 A 
ATOM     49  C   UNL A   1      50.431  26.789  24.992  1.00  0.00     0.010 A 
ATOM     50  C   UNL A   1      51.129  26.617  27.305  1.00  0.00     0.010 A 
ATOM     51  C   UNL A   1      51.752  26.578  24.580  1.00  0.00     0.020 A 
ATOM     52  C   UNL A   1      52.452  26.425  26.899  1.00  0.00     0.020 A 
ATOM     53  C   UNL A   1      52.758  26.421  25.538  1.00  0.00     0.054 A 
BRANCH  53  54
ATOM     54  S   UNL A   1      54.496  26.346  25.016  1.00  0.00     0.124 S 
ATOM     55  O   UNL A   1      54.463  27.062  23.746  1.00  0.00    -0.237 OA
ATOM     56  O   UNL A   1      55.188  27.018  26.113  1.00  0.00    -0.237 OA
ATOM     57  O   UNL A   1      54.740  24.908  24.930  1.00  0.00    -0.744 OA
ENDBRANCH  53  54
ENDBRANCH  25  48
BRANCH  37  58
ATOM     58  C   UNL A   1      46.899  32.722  28.246  1.00  0.00    -0.014 A 
ATOM     59  C   UNL A   1      47.478  33.075  29.474  1.00  0.00     0.010 A 
ATOM     60  C   UNL A   1      46.888  33.648  27.187  1.00  0.00     0.010 A 
ATOM     61  C   UNL A   1      48.048  34.337  29.636  1.00  0.00     0.020 A 
ATOM     62  C   UNL A   1      47.484  34.898  27.336  1.00  0.00     0.020 A 
ATOM     63  C   UNL A   1      48.062  35.235  28.561  1.00  0.00     0.054 A 
BRANCH  63  64
ATOM     64  S   UNL A   1      48.913  36.820  28.761  1.00  0.00     0.124 S 
ATOM     65  O   UNL A   1      49.863  36.521  29.829  1.00  0.00    -0.237 OA
ATOM     66  O   UNL A   1      49.499  37.035  27.440  1.00  0.00    -0.237 OA
ATOM     67  O   UNL A   1      47.842  37.747  29.119  1.00  0.00    -0.744 OA
ENDBRANCH  63  64
ENDBRANCH  37  58
ENDBRANCH  11  12
ENDBRANCH   4   6
ENDBRANCH   3   4
ENDBRANCH   2   3
ENDBRANCH   1   2
BRANCH   1  68
ATOM     68  O   UNL A   1      37.998  21.882  26.050  1.00  0.00    -0.458 OA
BRANCH  68  69
ATOM     69  C   UNL A   1      37.826  23.228  25.930  1.00  0.00     0.338 C 
ATOM     70  O   UNL A   1      38.545  24.097  26.388  1.00  0.00    -0.246 OA
BRANCH  69  71
ATOM     71  C   UNL A   1      36.699  23.483  25.002  1.00  0.00     0.060 A 
ATOM     72  C   UNL A   1      36.721  22.898  23.728  1.00  0.00     0.017 A 
ATOM     73  C   UNL A   1      35.583  24.213  25.412  1.00  0.00     0.017 A 
ATOM     74  C   UNL A   1      35.596  22.979  22.895  1.00  0.00     0.022 A 
ATOM     75  C   UNL A   1      34.470  24.297  24.573  1.00  0.00     0.022 A 
ATOM     76  C   UNL A   1      34.456  23.656  23.335  1.00  0.00     0.082 A 
BRANCH  76  77
ATOM     77  S   UNL A   1      32.992  23.625  22.317  1.00  0.00     0.240 S 
ATOM     78  O   UNL A   1      32.117  24.657  22.812  1.00  0.00    -0.207 OA
ATOM     79  O   UNL A   1      33.438  23.622  20.938  1.00  0.00    -0.207 OA
BRANCH  77  80
ATOM     80  N   UNL A   1      32.260  22.133  22.566  1.00  0.00    -0.211 NA
ATOM     81  H   UNL A   1      32.632  21.516  21.844  1.00  0.00     0.141 HD
BRANCH  80  82
ATOM     82  C   UNL A   1      32.357  21.387  23.818  1.00  0.00     0.103 C 
BRANCH  82  83
ATOM     83  C   UNL A   1      33.128  20.092  23.685  1.00  0.00     0.020 C 
ATOM     84  C   UNL A   1      34.170  19.853  24.784  1.00  0.00     0.022 C 
ATOM     85  C   UNL A   1      32.187  18.892  23.775  1.00  0.00     0.142 C 
ATOM     86  C   UNL A   1      34.671  18.420  24.584  1.00  0.00     0.137 C 
ATOM     87  S   UNL A   1      33.302  17.508  23.868  1.00  0.00     0.150 S 
ATOM     88  O   UNL A   1      33.655  17.127  22.515  1.00  0.00    -0.229 OA
ATOM     89  O   UNL A   1      32.794  16.544  24.819  1.00  0.00    -0.229 OA
ENDBRANCH  82  83
ENDBRANCH  80  82
ENDBRANCH  77  80
ENDBRANCH  76  77
ENDBRANCH  69  71
ENDBRANCH  68  69
ENDBRANCH   1  68
TORSDOF 18
ENDMDL
