MODEL 1
REMARK VINA RESULT:     -10.4      0.000      0.000
REMARK SMILES O=C(OCCOC(=O)[C@@H]1C[NH2+]CCN1C(=O)N[C@@H]1CCOC1)c1ccc(-c2c3nc(c(-c4ccc(S(=O)(=O)[O-])cc4)c4ccc([nH]4)c(-c4ccc(S(=O)(=O)[O-])cc4)c4nc(c(-c5ccc(S(=O)(=O)[O-])cc5)c5ccc2[nH]5)C=C4)C=C3)cc1
REMARK SMILES IDX 4 1 3 2 2 3 1 4 23 5 24 6 82 7 25 8 81 9 26 10 27 11 28 12
REMARK SMILES IDX 75 13 29 14 80 15 74 16 76 17 30 18 79 19 73 20 72 21 31 23
REMARK SMILES IDX 61 24 42 25 60 26 43 27 46 28 59 29 77 30 44 31 45 32 58 34
REMARK SMILES IDX 78 35 47 36 32 37 33 38 41 39 34 40 40 41 35 42 36 43 37 44
REMARK SMILES IDX 38 45 39 46 62 47 63 48 71 49 64 50 70 51 65 52 66 53 67 54
REMARK SMILES IDX 68 55 69 56 48 57 49 58 57 59 50 60 56 61 51 62 52 63 53 64
REMARK SMILES IDX 54 65 55 66 5 67 6 68 7 69 8 70 9 71 10 72 14 73 11 74 13 75
REMARK SMILES IDX 12 76 15 79 16 80 17 81 18 83 19 84 22 85 20 86 21 87
REMARK H PARENT 76 22 46 33 11 77 11 78 17 82
REMARK Flexibility Score: inf
ROOT
ATOM      1  C   UNL A   1      37.083  23.443  25.151  1.00  0.00     0.275 C 
ENDROOT
BRANCH   1   2
ATOM      2  O   UNL A   1      38.035  22.562  25.777  1.00  0.00    -0.458 OA
BRANCH   2   3
ATOM      3  C   UNL A   1      39.310  22.790  26.175  1.00  0.00     0.338 C 
ATOM      4  O   UNL A   1      40.160  21.907  26.138  1.00  0.00    -0.246 OA
BRANCH   3   5
ATOM      5  C   UNL A   1      39.631  24.078  26.824  1.00  0.00     0.060 A 
ATOM      6  C   UNL A   1      40.201  25.126  26.108  1.00  0.00     0.016 A 
ATOM      7  C   UNL A   1      39.253  24.260  28.167  1.00  0.00     0.016 A 
ATOM      8  C   UNL A   1      40.195  26.402  26.641  1.00  0.00     0.010 A 
ATOM      9  C   UNL A   1      39.366  25.523  28.755  1.00  0.00     0.010 A 
ATOM     10  C   UNL A   1      39.817  26.598  27.974  1.00  0.00    -0.014 A 
BRANCH  10  11
ATOM     11  C   UNL A   1      40.356  27.830  28.569  1.00  0.00     0.031 A 
ATOM     12  C   UNL A   1      41.837  27.985  28.402  1.00  0.00     0.074 A 
ATOM     13  C   UNL A   1      39.574  28.855  28.947  1.00  0.00     0.049 A 
ATOM     14  N   UNL A   1      42.544  29.076  28.412  1.00  0.00    -0.248 NA
ATOM     15  C   UNL A   1      42.585  26.774  28.004  1.00  0.00     0.031 C 
ATOM     16  C   UNL A   1      38.115  28.875  28.889  1.00  0.00     0.029 A 
ATOM     17  N   UNL A   1      39.898  30.097  29.417  1.00  0.00    -0.354 N 
ATOM     18  C   UNL A   1      43.785  28.700  27.919  1.00  0.00     0.074 A 
ATOM     19  C   UNL A   1      43.747  27.285  27.642  1.00  0.00     0.031 C 
ATOM     20  C   UNL A   1      37.663  30.035  29.401  1.00  0.00     0.029 A 
ATOM     21  C   UNL A   1      38.808  30.862  29.763  1.00  0.00     0.049 A 
ATOM     22  H   UNL A   1      40.826  30.416  29.500  1.00  0.00     0.167 HD
ATOM     23  C   UNL A   1      44.866  29.479  27.717  1.00  0.00     0.031 A 
ATOM     24  C   UNL A   1      38.764  32.101  30.290  1.00  0.00     0.031 A 
ATOM     25  C   UNL A   1      44.921  30.834  28.173  1.00  0.00     0.049 A 
ATOM     26  C   UNL A   1      40.066  32.855  30.369  1.00  0.00     0.074 A 
ATOM     27  C   UNL A   1      46.004  31.686  28.216  1.00  0.00     0.029 A 
ATOM     28  N   UNL A   1      43.842  31.508  28.736  1.00  0.00    -0.354 N 
ATOM     29  N   UNL A   1      41.249  32.490  29.926  1.00  0.00    -0.248 NA
ATOM     30  C   UNL A   1      40.029  34.194  30.965  1.00  0.00     0.031 C 
ATOM     31  C   UNL A   1      45.600  32.845  28.889  1.00  0.00     0.029 A 
ATOM     32  C   UNL A   1      44.245  32.750  29.178  1.00  0.00     0.049 A 
ATOM     33  H   UNL A   1      42.928  31.151  28.806  1.00  0.00     0.167 HD
ATOM     34  C   UNL A   1      42.085  33.581  30.128  1.00  0.00     0.074 A 
ATOM     35  C   UNL A   1      41.271  34.610  30.750  1.00  0.00     0.031 C 
ATOM     36  C   UNL A   1      43.394  33.733  29.804  1.00  0.00     0.031 A 
BRANCH  23  37
ATOM     37  C   UNL A   1      46.070  28.797  27.144  1.00  0.00    -0.014 A 
ATOM     38  C   UNL A   1      47.133  28.370  27.964  1.00  0.00     0.010 A 
ATOM     39  C   UNL A   1      46.195  28.700  25.749  1.00  0.00     0.010 A 
ATOM     40  C   UNL A   1      48.316  27.895  27.392  1.00  0.00     0.020 A 
ATOM     41  C   UNL A   1      47.368  28.209  25.175  1.00  0.00     0.020 A 
ATOM     42  C   UNL A   1      48.428  27.827  25.999  1.00  0.00     0.054 A 
BRANCH  42  43
ATOM     43  S   UNL A   1      49.982  27.236  25.275  1.00  0.00     0.124 S 
ATOM     44  O   UNL A   1      50.601  28.483  24.834  1.00  0.00    -0.237 OA
ATOM     45  O   UNL A   1      50.629  26.578  26.407  1.00  0.00    -0.237 OA
ATOM     46  O   UNL A   1      49.547  26.343  24.204  1.00  0.00    -0.744 OA
ENDBRANCH  42  43
ENDBRANCH  23  37
BRANCH  24  47
ATOM     47  C   UNL A   1      37.481  32.691  30.771  1.00  0.00    -0.014 A 
ATOM     48  C   UNL A   1      36.660  33.467  29.935  1.00  0.00     0.010 A 
ATOM     49  C   UNL A   1      37.094  32.509  32.114  1.00  0.00     0.010 A 
ATOM     50  C   UNL A   1      35.499  34.072  30.436  1.00  0.00     0.020 A 
ATOM     51  C   UNL A   1      35.925  33.096  32.615  1.00  0.00     0.020 A 
ATOM     52  C   UNL A   1      35.140  33.886  31.774  1.00  0.00     0.054 A 
BRANCH  52  53
ATOM     53  S   UNL A   1      33.632  34.681  32.402  1.00  0.00     0.124 S 
ATOM     54  O   UNL A   1      34.174  35.784  33.192  1.00  0.00    -0.237 OA
ATOM     55  O   UNL A   1      32.944  35.062  31.172  1.00  0.00    -0.237 OA
ATOM     56  O   UNL A   1      32.981  33.624  33.172  1.00  0.00    -0.744 OA
ENDBRANCH  52  53
ENDBRANCH  24  47
BRANCH  36  57
ATOM     57  C   UNL A   1      44.010  35.076  30.069  1.00  0.00    -0.014 A 
ATOM     58  C   UNL A   1      44.704  35.345  31.259  1.00  0.00     0.010 A 
ATOM     59  C   UNL A   1      43.956  36.055  29.059  1.00  0.00     0.010 A 
ATOM     60  C   UNL A   1      45.306  36.589  31.449  1.00  0.00     0.020 A 
ATOM     61  C   UNL A   1      44.590  37.283  29.230  1.00  0.00     0.020 A 
ATOM     62  C   UNL A   1      45.247  37.548  30.432  1.00  0.00     0.054 A 
BRANCH  62  63
ATOM     63  S   UNL A   1      46.083  39.135  30.682  1.00  0.00     0.124 S 
ATOM     64  O   UNL A   1      47.010  38.821  31.766  1.00  0.00    -0.237 OA
ATOM     65  O   UNL A   1      46.696  39.382  29.379  1.00  0.00    -0.237 OA
ATOM     66  O   UNL A   1      44.996  40.046  31.035  1.00  0.00    -0.744 OA
ENDBRANCH  62  63
ENDBRANCH  36  57
ENDBRANCH  10  11
ENDBRANCH   3   5
ENDBRANCH   2   3
ENDBRANCH   1   2
BRANCH   1  67
ATOM     67  C   UNL A   1      35.706  23.735  25.771  1.00  0.00     0.274 C 
BRANCH  67  68
ATOM     68  O   UNL A   1      35.195  23.027  26.910  1.00  0.00    -0.460 OA
BRANCH  68  69
ATOM     69  C   UNL A   1      33.964  22.454  27.007  1.00  0.00     0.334 C 
ATOM     70  O   UNL A   1      33.416  22.080  28.030  1.00  0.00    -0.250 OA
BRANCH  69  71
ATOM     71  C   UNL A   1      33.301  22.468  25.638  1.00  0.00     0.252 C 
ATOM     72  C   UNL A   1      31.807  22.820  25.647  1.00  0.00     0.298 C 
ATOM     73  N   UNL A   1      33.538  21.370  24.693  1.00  0.00    -0.300 N 
ATOM     74  N   UNL A   1      31.358  23.301  24.314  1.00  0.00    -0.343 N 
ATOM     75  C   UNL A   1      33.153  21.749  23.324  1.00  0.00     0.183 C 
ATOM     76  C   UNL A   1      31.718  22.327  23.255  1.00  0.00     0.282 C 
ATOM     77  H   UNL A   1      31.806  24.195  24.113  1.00  0.00     0.346 HD
ATOM     78  H   UNL A   1      30.343  23.409  24.328  1.00  0.00     0.346 HD
BRANCH  73  79
ATOM     79  C   UNL A   1      34.327  20.274  24.910  1.00  0.00     0.318 C 
ATOM     80  O   UNL A   1      35.551  20.318  24.801  1.00  0.00    -0.249 OA
ATOM     81  N   UNL A   1      33.778  19.084  25.294  1.00  0.00    -0.333 N 
ATOM     82  H   UNL A   1      34.184  18.661  26.084  1.00  0.00     0.165 HD
BRANCH  81  83
ATOM     83  C   UNL A   1      32.656  18.348  24.680  1.00  0.00     0.112 C 
ATOM     84  C   UNL A   1      32.317  17.008  25.322  1.00  0.00     0.056 C 
ATOM     85  C   UNL A   1      33.067  17.833  23.297  1.00  0.00     0.185 C 
ATOM     86  C   UNL A   1      33.293  16.020  24.731  1.00  0.00     0.162 C 
ATOM     87  O   UNL A   1      33.759  16.583  23.505  1.00  0.00    -0.379 OA
ENDBRANCH  81  83
ENDBRANCH  73  79
ENDBRANCH  69  71
ENDBRANCH  68  69
ENDBRANCH  67  68
ENDBRANCH   1  67
TORSDOF 16
ENDMDL
MODEL 2
REMARK VINA RESULT:     -10.3      5.570      9.716
REMARK SMILES O=C(OCCOC(=O)[C@@H]1C[NH2+]CCN1C(=O)N[C@@H]1CCOC1)c1ccc(-c2c3nc(c(-c4ccc(S(=O)(=O)[O-])cc4)c4ccc([nH]4)c(-c4ccc(S(=O)(=O)[O-])cc4)c4nc(c(-c5ccc(S(=O)(=O)[O-])cc5)c5ccc2[nH]5)C=C4)C=C3)cc1
REMARK SMILES IDX 4 1 3 2 2 3 1 4 23 5 24 6 82 7 25 8 81 9 26 10 27 11 28 12
REMARK SMILES IDX 75 13 29 14 80 15 74 16 76 17 30 18 79 19 73 20 72 21 31 23
REMARK SMILES IDX 61 24 42 25 60 26 43 27 46 28 59 29 77 30 44 31 45 32 58 34
REMARK SMILES IDX 78 35 47 36 32 37 33 38 41 39 34 40 40 41 35 42 36 43 37 44
REMARK SMILES IDX 38 45 39 46 62 47 63 48 71 49 64 50 70 51 65 52 66 53 67 54
REMARK SMILES IDX 68 55 69 56 48 57 49 58 57 59 50 60 56 61 51 62 52 63 53 64
REMARK SMILES IDX 54 65 55 66 5 67 6 68 7 69 8 70 9 71 10 72 14 73 11 74 13 75
REMARK SMILES IDX 12 76 15 79 16 80 17 81 18 83 19 84 22 85 20 86 21 87
REMARK H PARENT 76 22 46 33 11 77 11 78 17 82
REMARK Flexibility Score: inf
ROOT
ATOM      1  C   UNL A   1      40.083  23.224  26.615  1.00  0.00     0.275 C 
ENDROOT
BRANCH   1   2
ATOM      2  O   UNL A   1      39.708  24.610  26.506  1.00  0.00    -0.458 OA
BRANCH   2   3
ATOM      3  C   UNL A   1      40.477  25.716  26.354  1.00  0.00     0.338 C 
ATOM      4  O   UNL A   1      41.074  25.941  25.307  1.00  0.00    -0.246 OA
BRANCH   3   5
ATOM      5  C   UNL A   1      40.732  26.570  27.532  1.00  0.00     0.060 A 
ATOM      6  C   UNL A   1      39.831  26.630  28.591  1.00  0.00     0.016 A 
ATOM      7  C   UNL A   1      41.962  27.250  27.609  1.00  0.00     0.016 A 
ATOM      8  C   UNL A   1      40.229  27.171  29.799  1.00  0.00     0.010 A 
ATOM      9  C   UNL A   1      42.317  27.912  28.788  1.00  0.00     0.010 A 
ATOM     10  C   UNL A   1      41.452  27.846  29.890  1.00  0.00    -0.014 A 
BRANCH  10  11
ATOM     11  C   UNL A   1      41.516  28.810  30.999  1.00  0.00     0.031 A 
ATOM     12  C   UNL A   1      40.516  29.922  30.892  1.00  0.00     0.074 A 
ATOM     13  C   UNL A   1      42.179  28.560  32.140  1.00  0.00     0.049 A 
ATOM     14  N   UNL A   1      40.020  30.659  31.840  1.00  0.00    -0.248 NA
ATOM     15  C   UNL A   1      39.873  30.104  29.574  1.00  0.00     0.031 C 
ATOM     16  C   UNL A   1      42.967  27.363  32.419  1.00  0.00     0.029 A 
ATOM     17  N   UNL A   1      42.263  29.283  33.298  1.00  0.00    -0.354 N 
ATOM     18  C   UNL A   1      38.941  31.308  31.258  1.00  0.00     0.074 A 
ATOM     19  C   UNL A   1      38.866  30.901  29.877  1.00  0.00     0.031 C 
ATOM     20  C   UNL A   1      43.538  27.476  33.632  1.00  0.00     0.029 A 
ATOM     21  C   UNL A   1      43.102  28.729  34.238  1.00  0.00     0.049 A 
ATOM     22  H   UNL A   1      41.770  30.122  33.446  1.00  0.00     0.167 HD
ATOM     23  C   UNL A   1      38.086  32.174  31.836  1.00  0.00     0.031 A 
ATOM     24  C   UNL A   1      43.444  29.189  35.457  1.00  0.00     0.031 A 
ATOM     25  C   UNL A   1      38.303  32.691  33.153  1.00  0.00     0.049 A 
ATOM     26  C   UNL A   1      42.693  30.392  35.967  1.00  0.00     0.074 A 
ATOM     27  C   UNL A   1      37.640  33.712  33.799  1.00  0.00     0.029 A 
ATOM     28  N   UNL A   1      39.319  32.257  33.999  1.00  0.00    -0.354 N 
ATOM     29  N   UNL A   1      41.687  31.025  35.406  1.00  0.00    -0.248 NA
ATOM     30  C   UNL A   1      43.078  30.913  37.282  1.00  0.00     0.031 C 
ATOM     31  C   UNL A   1      38.315  33.957  35.000  1.00  0.00     0.029 A 
ATOM     32  C   UNL A   1      39.336  33.026  35.143  1.00  0.00     0.049 A 
ATOM     33  H   UNL A   1      39.933  31.512  33.808  1.00  0.00     0.167 HD
ATOM     34  C   UNL A   1      41.273  31.977  36.328  1.00  0.00     0.074 A 
ATOM     35  C   UNL A   1      42.153  31.845  37.475  1.00  0.00     0.031 C 
ATOM     36  C   UNL A   1      40.245  32.860  36.251  1.00  0.00     0.031 A 
BRANCH  23  37
ATOM     37  C   UNL A   1      36.991  32.701  30.961  1.00  0.00    -0.014 A 
ATOM     38  C   UNL A   1      37.231  33.713  30.010  1.00  0.00     0.010 A 
ATOM     39  C   UNL A   1      35.675  32.265  31.186  1.00  0.00     0.010 A 
ATOM     40  C   UNL A   1      36.164  34.306  29.330  1.00  0.00     0.020 A 
ATOM     41  C   UNL A   1      34.609  32.843  30.494  1.00  0.00     0.020 A 
ATOM     42  C   UNL A   1      34.859  33.872  29.584  1.00  0.00     0.054 A 
BRANCH  42  43
ATOM     43  S   UNL A   1      33.486  34.675  28.714  1.00  0.00     0.124 S 
ATOM     44  O   UNL A   1      33.064  33.629  27.787  1.00  0.00    -0.237 OA
ATOM     45  O   UNL A   1      32.552  34.969  29.797  1.00  0.00    -0.237 OA
ATOM     46  O   UNL A   1      34.105  35.844  28.094  1.00  0.00    -0.744 OA
ENDBRANCH  42  43
ENDBRANCH  23  37
BRANCH  24  47
ATOM     47  C   UNL A   1      44.518  28.533  36.258  1.00  0.00    -0.014 A 
ATOM     48  C   UNL A   1      44.237  27.515  37.185  1.00  0.00     0.010 A 
ATOM     49  C   UNL A   1      45.851  28.969  36.120  1.00  0.00     0.010 A 
ATOM     50  C   UNL A   1      45.256  26.970  37.979  1.00  0.00     0.020 A 
ATOM     51  C   UNL A   1      46.876  28.415  36.896  1.00  0.00     0.020 A 
ATOM     52  C   UNL A   1      46.570  27.426  37.832  1.00  0.00     0.054 A 
BRANCH  52  53
ATOM     53  S   UNL A   1      47.875  26.706  38.871  1.00  0.00     0.124 S 
ATOM     54  O   UNL A   1      47.107  26.132  39.973  1.00  0.00    -0.237 OA
ATOM     55  O   UNL A   1      48.500  25.745  37.967  1.00  0.00    -0.237 OA
ATOM     56  O   UNL A   1      48.707  27.854  39.223  1.00  0.00    -0.744 OA
ENDBRANCH  52  53
ENDBRANCH  24  47
BRANCH  36  57
ATOM     57  C   UNL A   1      39.986  33.712  37.460  1.00  0.00    -0.014 A 
ATOM     58  C   UNL A   1      40.593  34.967  37.619  1.00  0.00     0.010 A 
ATOM     59  C   UNL A   1      39.046  33.268  38.410  1.00  0.00     0.010 A 
ATOM     60  C   UNL A   1      40.290  35.753  38.731  1.00  0.00     0.020 A 
ATOM     61  C   UNL A   1      38.712  34.068  39.500  1.00  0.00     0.020 A 
ATOM     62  C   UNL A   1      39.349  35.299  39.662  1.00  0.00     0.054 A 
BRANCH  62  63
ATOM     63  S   UNL A   1      38.934  36.361  41.069  1.00  0.00     0.124 S 
ATOM     64  O   UNL A   1      38.558  37.607  40.405  1.00  0.00    -0.237 OA
ATOM     65  O   UNL A   1      37.840  35.632  41.707  1.00  0.00    -0.237 OA
ATOM     66  O   UNL A   1      40.173  36.413  41.840  1.00  0.00    -0.744 OA
ENDBRANCH  62  63
ENDBRANCH  36  57
ENDBRANCH  10  11
ENDBRANCH   3   5
ENDBRANCH   2   3
ENDBRANCH   1   2
BRANCH   1  67
ATOM     67  C   UNL A   1      39.095  22.083  26.320  1.00  0.00     0.274 C 
BRANCH  67  68
ATOM     68  O   UNL A   1      38.022  22.203  25.374  1.00  0.00    -0.460 OA
BRANCH  68  69
ATOM     69  C   UNL A   1      36.783  22.704  25.632  1.00  0.00     0.334 C 
ATOM     70  O   UNL A   1      36.517  23.844  25.970  1.00  0.00    -0.250 OA
BRANCH  69  71
ATOM     71  C   UNL A   1      35.742  21.643  25.306  1.00  0.00     0.252 C 
ATOM     72  C   UNL A   1      36.316  20.288  24.868  1.00  0.00     0.298 C 
ATOM     73  N   UNL A   1      34.587  21.978  24.466  1.00  0.00    -0.300 N 
ATOM     74  N   UNL A   1      35.323  19.197  25.055  1.00  0.00    -0.343 N 
ATOM     75  C   UNL A   1      33.520  20.972  24.595  1.00  0.00     0.183 C 
ATOM     76  C   UNL A   1      34.043  19.530  24.382  1.00  0.00     0.282 C 
ATOM     77  H   UNL A   1      35.153  19.066  26.051  1.00  0.00     0.346 HD
ATOM     78  H   UNL A   1      35.696  18.340  24.643  1.00  0.00     0.346 HD
BRANCH  73  79
ATOM     79  C   UNL A   1      34.320  23.198  23.907  1.00  0.00     0.318 C 
ATOM     80  O   UNL A   1      34.881  23.583  22.882  1.00  0.00    -0.249 OA
ATOM     81  N   UNL A   1      33.386  24.028  24.457  1.00  0.00    -0.333 N 
ATOM     82  H   UNL A   1      32.709  24.379  23.835  1.00  0.00     0.165 HD
BRANCH  81  83
ATOM     83  C   UNL A   1      33.258  24.470  25.859  1.00  0.00     0.112 C 
ATOM     84  C   UNL A   1      32.397  23.585  26.752  1.00  0.00     0.056 C 
ATOM     85  C   UNL A   1      32.412  25.745  25.927  1.00  0.00     0.185 C 
ATOM     86  C   UNL A   1      30.973  24.010  26.485  1.00  0.00     0.162 C 
ATOM     87  O   UNL A   1      31.030  25.329  25.944  1.00  0.00    -0.379 OA
ENDBRANCH  81  83
ENDBRANCH  73  79
ENDBRANCH  69  71
ENDBRANCH  68  69
ENDBRANCH  67  68
ENDBRANCH   1  67
TORSDOF 16
ENDMDL
MODEL 3
REMARK VINA RESULT:     -10.3      5.291     10.765
REMARK SMILES O=C(OCCOC(=O)[C@@H]1C[NH2+]CCN1C(=O)N[C@@H]1CCOC1)c1ccc(-c2c3nc(c(-c4ccc(S(=O)(=O)[O-])cc4)c4ccc([nH]4)c(-c4ccc(S(=O)(=O)[O-])cc4)c4nc(c(-c5ccc(S(=O)(=O)[O-])cc5)c5ccc2[nH]5)C=C4)C=C3)cc1
REMARK SMILES IDX 4 1 3 2 2 3 1 4 23 5 24 6 82 7 25 8 81 9 26 10 27 11 28 12
REMARK SMILES IDX 75 13 29 14 80 15 74 16 76 17 30 18 79 19 73 20 72 21 31 23
REMARK SMILES IDX 61 24 42 25 60 26 43 27 46 28 59 29 77 30 44 31 45 32 58 34
REMARK SMILES IDX 78 35 47 36 32 37 33 38 41 39 34 40 40 41 35 42 36 43 37 44
REMARK SMILES IDX 38 45 39 46 62 47 63 48 71 49 64 50 70 51 65 52 66 53 67 54
REMARK SMILES IDX 68 55 69 56 48 57 49 58 57 59 50 60 56 61 51 62 52 63 53 64
REMARK SMILES IDX 54 65 55 66 5 67 6 68 7 69 8 70 9 71 10 72 14 73 11 74 13 75
REMARK SMILES IDX 12 76 15 79 16 80 17 81 18 83 19 84 22 85 20 86 21 87
REMARK H PARENT 76 22 46 33 11 77 11 78 17 82
REMARK Flexibility Score: inf
ROOT
ATOM      1  C   UNL A   1      33.178  30.000  26.145  1.00  0.00     0.275 C 
ENDROOT
BRANCH   1   2
ATOM      2  O   UNL A   1      33.582  30.243  27.506  1.00  0.00    -0.458 OA
BRANCH   2   3
ATOM      3  C   UNL A   1      34.518  31.088  28.004  1.00  0.00     0.338 C 
ATOM      4  O   UNL A   1      34.349  32.302  28.001  1.00  0.00    -0.246 OA
BRANCH   3   5
ATOM      5  C   UNL A   1      35.831  30.540  28.398  1.00  0.00     0.060 A 
ATOM      6  C   UNL A   1      35.970  29.730  29.522  1.00  0.00     0.016 A 
ATOM      7  C   UNL A   1      36.931  30.770  27.551  1.00  0.00     0.016 A 
ATOM      8  C   UNL A   1      37.119  28.980  29.687  1.00  0.00     0.010 A 
ATOM      9  C   UNL A   1      38.141  30.111  27.789  1.00  0.00     0.010 A 
ATOM     10  C   UNL A   1      38.218  29.196  28.849  1.00  0.00    -0.014 A 
BRANCH  10  11
ATOM     11  C   UNL A   1      39.501  28.775  29.432  1.00  0.00     0.031 A 
ATOM     12  C   UNL A   1      39.770  29.360  30.786  1.00  0.00     0.074 A 
ATOM     13  C   UNL A   1      40.212  27.742  28.952  1.00  0.00     0.049 A 
ATOM     14  N   UNL A   1      40.541  28.903  31.727  1.00  0.00    -0.248 NA
ATOM     15  C   UNL A   1      38.931  30.508  31.186  1.00  0.00     0.031 C 
ATOM     16  C   UNL A   1      39.867  26.947  27.777  1.00  0.00     0.029 A 
ATOM     17  N   UNL A   1      41.356  27.154  29.418  1.00  0.00    -0.354 N 
ATOM     18  C   UNL A   1      40.201  29.637  32.853  1.00  0.00     0.074 A 
ATOM     19  C   UNL A   1      39.177  30.580  32.480  1.00  0.00     0.031 C 
ATOM     20  C   UNL A   1      40.831  26.036  27.553  1.00  0.00     0.029 A 
ATOM     21  C   UNL A   1      41.830  26.146  28.610  1.00  0.00     0.049 A 
ATOM     22  H   UNL A   1      41.799  27.427  30.254  1.00  0.00     0.167 HD
ATOM     23  C   UNL A   1      40.707  29.526  34.097  1.00  0.00     0.031 A 
ATOM     24  C   UNL A   1      42.938  25.392  28.744  1.00  0.00     0.031 A 
ATOM     25  C   UNL A   1      41.846  28.708  34.384  1.00  0.00     0.049 A 
ATOM     26  C   UNL A   1      43.703  25.526  30.036  1.00  0.00     0.074 A 
ATOM     27  C   UNL A   1      42.590  28.640  35.542  1.00  0.00     0.029 A 
ATOM     28  N   UNL A   1      42.444  27.860  33.458  1.00  0.00    -0.354 N 
ATOM     29  N   UNL A   1      43.395  26.241  31.096  1.00  0.00    -0.248 NA
ATOM     30  C   UNL A   1      44.924  24.727  30.178  1.00  0.00     0.031 C 
ATOM     31  C   UNL A   1      43.692  27.818  35.286  1.00  0.00     0.029 A 
ATOM     32  C   UNL A   1      43.582  27.302  34.001  1.00  0.00     0.049 A 
ATOM     33  H   UNL A   1      42.105  27.684  32.551  1.00  0.00     0.167 HD
ATOM     34  C   UNL A   1      44.347  25.927  32.057  1.00  0.00     0.074 A 
ATOM     35  C   UNL A   1      45.249  24.971  31.441  1.00  0.00     0.031 C 
ATOM     36  C   UNL A   1      44.453  26.362  33.338  1.00  0.00     0.031 A 
BRANCH  23  37
ATOM     37  C   UNL A   1      40.123  30.442  35.129  1.00  0.00    -0.014 A 
ATOM     38  C   UNL A   1      38.813  30.263  35.614  1.00  0.00     0.010 A 
ATOM     39  C   UNL A   1      40.855  31.574  35.523  1.00  0.00     0.010 A 
ATOM     40  C   UNL A   1      38.232  31.226  36.443  1.00  0.00     0.020 A 
ATOM     41  C   UNL A   1      40.284  32.528  36.366  1.00  0.00     0.020 A 
ATOM     42  C   UNL A   1      38.970  32.358  36.806  1.00  0.00     0.054 A 
BRANCH  42  43
ATOM     43  S   UNL A   1      38.189  33.610  37.858  1.00  0.00     0.124 S 
ATOM     44  O   UNL A   1      38.647  33.216  39.187  1.00  0.00    -0.237 OA
ATOM     45  O   UNL A   1      38.753  34.855  37.342  1.00  0.00    -0.237 OA
ATOM     46  O   UNL A   1      36.760  33.427  37.612  1.00  0.00    -0.744 OA
ENDBRANCH  42  43
ENDBRANCH  23  37
BRANCH  24  47
ATOM     47  C   UNL A   1      43.381  24.469  27.659  1.00  0.00    -0.014 A 
ATOM     48  C   UNL A   1      42.970  23.126  27.612  1.00  0.00     0.010 A 
ATOM     49  C   UNL A   1      44.273  24.935  26.673  1.00  0.00     0.010 A 
ATOM     50  C   UNL A   1      43.463  22.262  26.623  1.00  0.00     0.020 A 
ATOM     51  C   UNL A   1      44.754  24.082  25.672  1.00  0.00     0.020 A 
ATOM     52  C   UNL A   1      44.356  22.745  25.661  1.00  0.00     0.054 A 
BRANCH  52  53
ATOM     53  S   UNL A   1      44.983  21.608  24.391  1.00  0.00     0.124 S 
ATOM     54  O   UNL A   1      46.414  21.585  24.681  1.00  0.00    -0.237 OA
ATOM     55  O   UNL A   1      44.257  20.376  24.686  1.00  0.00    -0.237 OA
ATOM     56  O   UNL A   1      44.613  22.257  23.135  1.00  0.00    -0.744 OA
ENDBRANCH  52  53
ENDBRANCH  24  47
BRANCH  36  57
ATOM     57  C   UNL A   1      45.552  25.768  34.171  1.00  0.00    -0.014 A 
ATOM     58  C   UNL A   1      46.860  26.273  34.132  1.00  0.00     0.010 A 
ATOM     59  C   UNL A   1      45.232  24.734  35.072  1.00  0.00     0.010 A 
ATOM     60  C   UNL A   1      47.844  25.728  34.958  1.00  0.00     0.020 A 
ATOM     61  C   UNL A   1      46.202  24.214  35.925  1.00  0.00     0.020 A 
ATOM     62  C   UNL A   1      47.506  24.704  35.851  1.00  0.00     0.054 A 
BRANCH  62  63
ATOM     63  S   UNL A   1      48.789  24.050  36.949  1.00  0.00     0.124 S 
ATOM     64  O   UNL A   1      48.537  24.792  38.182  1.00  0.00    -0.237 OA
ATOM     65  O   UNL A   1      48.472  22.625  36.996  1.00  0.00    -0.237 OA
ATOM     66  O   UNL A   1      50.035  24.384  36.264  1.00  0.00    -0.744 OA
ENDBRANCH  62  63
ENDBRANCH  36  57
ENDBRANCH  10  11
ENDBRANCH   3   5
ENDBRANCH   2   3
ENDBRANCH   1   2
BRANCH   1  67
ATOM     67  C   UNL A   1      31.699  29.913  25.732  1.00  0.00     0.274 C 
BRANCH  67  68
ATOM     68  O   UNL A   1      31.231  29.060  24.677  1.00  0.00    -0.460 OA
BRANCH  68  69
ATOM     69  C   UNL A   1      31.064  27.711  24.757  1.00  0.00     0.334 C 
ATOM     70  O   UNL A   1      30.350  27.113  25.542  1.00  0.00    -0.250 OA
BRANCH  69  71
ATOM     71  C   UNL A   1      31.816  27.050  23.610  1.00  0.00     0.252 C 
ATOM     72  C   UNL A   1      30.925  26.366  22.563  1.00  0.00     0.298 C 
ATOM     73  N   UNL A   1      32.984  26.205  23.885  1.00  0.00    -0.300 N 
ATOM     74  N   UNL A   1      31.643  26.199  21.272  1.00  0.00    -0.343 N 
ATOM     75  C   UNL A   1      33.790  25.995  22.672  1.00  0.00     0.183 C 
ATOM     76  C   UNL A   1      32.938  25.504  21.476  1.00  0.00     0.282 C 
ATOM     77  H   UNL A   1      31.817  27.117  20.865  1.00  0.00     0.346 HD
ATOM     78  H   UNL A   1      31.065  25.637  20.645  1.00  0.00     0.346 HD
BRANCH  73  79
ATOM     79  C   UNL A   1      33.505  25.922  25.118  1.00  0.00     0.318 C 
ATOM     80  O   UNL A   1      34.531  26.460  25.531  1.00  0.00    -0.249 OA
ATOM     81  N   UNL A   1      32.877  25.048  25.958  1.00  0.00    -0.333 N 
ATOM     82  H   UNL A   1      32.721  25.373  26.873  1.00  0.00     0.165 HD
BRANCH  81  83
ATOM     83  C   UNL A   1      32.403  23.680  25.674  1.00  0.00     0.112 C 
ATOM     84  C   UNL A   1      30.939  23.560  25.270  1.00  0.00     0.056 C 
ATOM     85  C   UNL A   1      32.341  22.871  26.975  1.00  0.00     0.185 C 
ATOM     86  C   UNL A   1      30.163  23.565  26.565  1.00  0.00     0.162 C 
ATOM     87  O   UNL A   1      31.071  23.171  27.592  1.00  0.00    -0.379 OA
ENDBRANCH  81  83
ENDBRANCH  73  79
ENDBRANCH  69  71
ENDBRANCH  68  69
ENDBRANCH  67  68
ENDBRANCH   1  67
TORSDOF 16
ENDMDL
