MODEL 1
REMARK VINA RESULT:     -11.3      0.000      0.000
REMARK SMILES O=C(OCCOC(=O)[C@@H]1C[C@@H]1C(=O)N1CCN(c2ncc(C(F)(F)F)cc2Cl)CC1)c1ccc(-c2c3nc(c(-c4ccc(S(=O)(=O)[O-])cc4)c4ccc([nH]4)c(-c4ccc(S(=O)(=O)[O-])cc4)c4nc(c(-c5ccc(S(=O)(=O)[O-])cc5)c5ccc2[nH]5)C=C4)C=C3)cc1
REMARK SMILES IDX 4 1 3 2 2 3 1 4 31 5 32 6 90 7 33 8 89 9 34 10 35 11 36 12
REMARK SMILES IDX 83 13 37 14 88 15 82 16 84 17 38 18 87 19 81 20 80 21 39 23
REMARK SMILES IDX 69 24 50 25 68 26 51 27 54 28 67 29 85 30 52 31 53 32 66 34
REMARK SMILES IDX 86 35 55 36 40 37 41 38 49 39 42 40 48 41 43 42 44 43 45 44
REMARK SMILES IDX 46 45 47 46 70 47 71 48 79 49 72 50 78 51 73 52 74 53 75 54
REMARK SMILES IDX 76 55 77 56 56 57 57 58 65 59 58 60 64 61 59 62 60 63 61 64
REMARK SMILES IDX 62 65 63 66 5 67 6 68 7 69 8 70 9 71 10 72 11 73 12 74 13 75
REMARK SMILES IDX 14 76 15 77 30 78 16 79 29 80 17 81 18 82 19 83 27 84 20 85
REMARK SMILES IDX 26 86 28 87 21 88 22 89 23 90 24 91 25 92
REMARK H PARENT 84 22 54 33
REMARK Flexibility Score: inf
ROOT
ATOM      1  C   UNL A   1      35.546  31.118  28.503  1.00  0.00     0.275 C 
ENDROOT
BRANCH   1   2
ATOM      2  O   UNL A   1      36.119  29.797  28.528  1.00  0.00    -0.458 OA
BRANCH   2   3
ATOM      3  C   UNL A   1      37.043  29.288  29.381  1.00  0.00     0.338 C 
ATOM      4  O   UNL A   1      36.733  29.124  30.561  1.00  0.00    -0.246 OA
BRANCH   3   5
ATOM      5  C   UNL A   1      38.471  29.063  28.998  1.00  0.00     0.060 A 
ATOM      6  C   UNL A   1      38.981  29.059  27.694  1.00  0.00     0.016 A 
ATOM      7  C   UNL A   1      39.362  28.834  30.056  1.00  0.00     0.016 A 
ATOM      8  C   UNL A   1      40.359  28.967  27.454  1.00  0.00     0.010 A 
ATOM      9  C   UNL A   1      40.727  28.689  29.813  1.00  0.00     0.010 A 
ATOM     10  C   UNL A   1      41.246  28.795  28.514  1.00  0.00    -0.014 A 
BRANCH  10  11
ATOM     11  C   UNL A   1      42.695  28.573  28.282  1.00  0.00     0.031 A 
ATOM     12  C   UNL A   1      43.600  29.772  28.314  1.00  0.00     0.074 A 
ATOM     13  C   UNL A   1      43.169  27.354  27.950  1.00  0.00     0.049 A 
ATOM     14  N   UNL A   1      44.881  29.850  28.076  1.00  0.00    -0.248 NA
ATOM     15  C   UNL A   1      42.969  31.062  28.647  1.00  0.00     0.031 C 
ATOM     16  C   UNL A   1      42.382  26.121  27.888  1.00  0.00     0.029 A 
ATOM     17  N   UNL A   1      44.420  26.964  27.527  1.00  0.00    -0.354 N 
ATOM     18  C   UNL A   1      45.205  31.194  28.201  1.00  0.00     0.074 A 
ATOM     19  C   UNL A   1      43.984  31.899  28.522  1.00  0.00     0.031 C 
ATOM     20  C   UNL A   1      43.145  25.132  27.388  1.00  0.00     0.029 A 
ATOM     21  C   UNL A   1      44.466  25.662  27.069  1.00  0.00     0.049 A 
ATOM     22  H   UNL A   1      45.206  27.556  27.549  1.00  0.00     0.167 HD
ATOM     23  C   UNL A   1      46.409  31.794  28.047  1.00  0.00     0.031 A 
ATOM     24  C   UNL A   1      45.445  25.002  26.413  1.00  0.00     0.031 A 
ATOM     25  C   UNL A   1      47.581  31.106  27.579  1.00  0.00     0.049 A 
ATOM     26  C   UNL A   1      46.747  25.713  26.163  1.00  0.00     0.074 A 
ATOM     27  C   UNL A   1      48.850  31.607  27.361  1.00  0.00     0.029 A 
ATOM     28  N   UNL A   1      47.610  29.765  27.212  1.00  0.00    -0.354 N 
ATOM     29  N   UNL A   1      47.089  26.946  26.457  1.00  0.00    -0.248 NA
ATOM     30  C   UNL A   1      47.811  24.927  25.526  1.00  0.00     0.031 C 
ATOM     31  C   UNL A   1      49.630  30.585  26.807  1.00  0.00     0.029 A 
ATOM     32  C   UNL A   1      48.866  29.429  26.734  1.00  0.00     0.049 A 
ATOM     33  H   UNL A   1      46.848  29.144  27.280  1.00  0.00     0.167 HD
ATOM     34  C   UNL A   1      48.432  27.058  26.115  1.00  0.00     0.074 A 
ATOM     35  C   UNL A   1      48.829  25.776  25.568  1.00  0.00     0.031 C 
ATOM     36  C   UNL A   1      49.261  28.124  26.255  1.00  0.00     0.031 A 
BRANCH  23  37
ATOM     37  C   UNL A   1      46.461  33.268  28.356  1.00  0.00    -0.014 A 
ATOM     38  C   UNL A   1      46.249  34.213  27.332  1.00  0.00     0.010 A 
ATOM     39  C   UNL A   1      46.799  33.724  29.642  1.00  0.00     0.010 A 
ATOM     40  C   UNL A   1      46.450  35.575  27.565  1.00  0.00     0.020 A 
ATOM     41  C   UNL A   1      46.970  35.092  29.889  1.00  0.00     0.020 A 
ATOM     42  C   UNL A   1      46.825  36.004  28.840  1.00  0.00     0.054 A 
BRANCH  42  43
ATOM     43  S   UNL A   1      47.126  37.774  29.104  1.00  0.00     0.124 S 
ATOM     44  O   UNL A   1      48.413  37.961  28.438  1.00  0.00    -0.237 OA
ATOM     45  O   UNL A   1      45.982  38.398  28.444  1.00  0.00    -0.237 OA
ATOM     46  O   UNL A   1      47.151  37.907  30.558  1.00  0.00    -0.744 OA
ENDBRANCH  42  43
ENDBRANCH  23  37
BRANCH  24  47
ATOM     47  C   UNL A   1      45.228  23.628  25.868  1.00  0.00    -0.014 A 
ATOM     48  C   UNL A   1      45.480  22.462  26.607  1.00  0.00     0.010 A 
ATOM     49  C   UNL A   1      44.811  23.489  24.535  1.00  0.00     0.010 A 
ATOM     50  C   UNL A   1      45.308  21.197  26.019  1.00  0.00     0.020 A 
ATOM     51  C   UNL A   1      44.600  22.239  23.951  1.00  0.00     0.020 A 
ATOM     52  C   UNL A   1      44.862  21.093  24.696  1.00  0.00     0.054 A 
BRANCH  52  53
ATOM     53  S   UNL A   1      44.614  19.452  23.958  1.00  0.00     0.124 S 
ATOM     54  O   UNL A   1      45.770  18.715  24.458  1.00  0.00    -0.237 OA
ATOM     55  O   UNL A   1      43.321  19.049  24.505  1.00  0.00    -0.237 OA
ATOM     56  O   UNL A   1      44.618  19.719  22.521  1.00  0.00    -0.744 OA
ENDBRANCH  52  53
ENDBRANCH  24  47
BRANCH  36  57
ATOM     57  C   UNL A   1      50.715  27.933  25.899  1.00  0.00    -0.014 A 
ATOM     58  C   UNL A   1      51.201  28.207  24.610  1.00  0.00     0.010 A 
ATOM     59  C   UNL A   1      51.630  27.564  26.903  1.00  0.00     0.010 A 
ATOM     60  C   UNL A   1      52.566  28.122  24.328  1.00  0.00     0.020 A 
ATOM     61  C   UNL A   1      53.000  27.502  26.634  1.00  0.00     0.020 A 
ATOM     62  C   UNL A   1      53.459  27.782  25.347  1.00  0.00     0.054 A 
BRANCH  62  63
ATOM     63  S   UNL A   1      55.231  27.761  24.967  1.00  0.00     0.124 S 
ATOM     64  O   UNL A   1      55.821  27.475  26.272  1.00  0.00    -0.237 OA
ATOM     65  O   UNL A   1      55.328  26.686  23.984  1.00  0.00    -0.237 OA
ATOM     66  O   UNL A   1      55.491  29.102  24.447  1.00  0.00    -0.744 OA
ENDBRANCH  62  63
ENDBRANCH  36  57
ENDBRANCH  10  11
ENDBRANCH   3   5
ENDBRANCH   2   3
ENDBRANCH   1   2
BRANCH   1  67
ATOM     67  C   UNL A   1      34.203  31.229  27.770  1.00  0.00     0.274 C 
BRANCH  67  68
ATOM     68  O   UNL A   1      34.048  30.173  26.810  1.00  0.00    -0.462 OA
BRANCH  68  69
ATOM     69  C   UNL A   1      32.783  29.959  26.360  1.00  0.00     0.309 C 
ATOM     70  O   UNL A   1      31.778  30.509  26.793  1.00  0.00    -0.252 OA
BRANCH  69  71
ATOM     71  C   UNL A   1      32.802  29.295  25.036  1.00  0.00     0.112 C 
ATOM     72  C   UNL A   1      31.499  28.826  24.445  1.00  0.00     0.030 C 
ATOM     73  C   UNL A   1      32.622  27.838  24.680  1.00  0.00     0.094 C 
BRANCH  73  74
ATOM     74  C   UNL A   1      32.290  26.690  25.575  1.00  0.00     0.226 C 
ATOM     75  O   UNL A   1      31.847  26.915  26.695  1.00  0.00    -0.275 OA
ATOM     76  N   UNL A   1      32.351  25.414  24.996  1.00  0.00    -0.339 N 
ATOM     77  C   UNL A   1      31.585  24.338  25.644  1.00  0.00     0.141 C 
ATOM     78  C   UNL A   1      33.542  24.964  24.257  1.00  0.00     0.141 C 
ATOM     79  C   UNL A   1      31.442  23.054  24.787  1.00  0.00     0.139 C 
ATOM     80  C   UNL A   1      33.365  23.668  23.445  1.00  0.00     0.139 C 
ATOM     81  N   UNL A   1      32.767  22.648  24.300  1.00  0.00    -0.352 N 
BRANCH  81  82
ATOM     82  C   UNL A   1      33.142  21.318  24.304  1.00  0.00     0.147 A 
ATOM     83  N   UNL A   1      32.290  20.451  23.699  1.00  0.00    -0.237 NA
ATOM     84  C   UNL A   1      34.315  20.810  24.903  1.00  0.00     0.084 A 
ATOM     85  C   UNL A   1      32.605  19.131  23.637  1.00  0.00     0.126 A 
ATOM     86  C   UNL A   1      34.617  19.442  24.826  1.00  0.00     0.039 A 
ATOM     87  Cl  UNL A   1      35.440  21.763  25.794  1.00  0.00    -0.080 Cl
ATOM     88  C   UNL A   1      33.758  18.577  24.159  1.00  0.00     0.075 A 
BRANCH  88  89
ATOM     89  C   UNL A   1      34.066  17.129  23.950  1.00  0.00     0.417 C 
ATOM     90  F   UNL A   1      35.164  16.718  24.639  1.00  0.00    -0.166 F 
ATOM     91  F   UNL A   1      33.046  16.329  24.370  1.00  0.00    -0.166 F 
ATOM     92  F   UNL A   1      34.283  16.796  22.650  1.00  0.00    -0.166 F 
ENDBRANCH  88  89
ENDBRANCH  81  82
ENDBRANCH  73  74
ENDBRANCH  69  71
ENDBRANCH  68  69
ENDBRANCH  67  68
ENDBRANCH   1  67
TORSDOF 17
ENDMDL
MODEL 2
REMARK VINA RESULT:     -11.2      6.033     10.820
REMARK SMILES O=C(OCCOC(=O)[C@@H]1C[C@@H]1C(=O)N1CCN(c2ncc(C(F)(F)F)cc2Cl)CC1)c1ccc(-c2c3nc(c(-c4ccc(S(=O)(=O)[O-])cc4)c4ccc([nH]4)c(-c4ccc(S(=O)(=O)[O-])cc4)c4nc(c(-c5ccc(S(=O)(=O)[O-])cc5)c5ccc2[nH]5)C=C4)C=C3)cc1
REMARK SMILES IDX 4 1 3 2 2 3 1 4 31 5 32 6 90 7 33 8 89 9 34 10 35 11 36 12
REMARK SMILES IDX 83 13 37 14 88 15 82 16 84 17 38 18 87 19 81 20 80 21 39 23
REMARK SMILES IDX 69 24 50 25 68 26 51 27 54 28 67 29 85 30 52 31 53 32 66 34
REMARK SMILES IDX 86 35 55 36 40 37 41 38 49 39 42 40 48 41 43 42 44 43 45 44
REMARK SMILES IDX 46 45 47 46 70 47 71 48 79 49 72 50 78 51 73 52 74 53 75 54
REMARK SMILES IDX 76 55 77 56 56 57 57 58 65 59 58 60 64 61 59 62 60 63 61 64
REMARK SMILES IDX 62 65 63 66 5 67 6 68 7 69 8 70 9 71 10 72 11 73 12 74 13 75
REMARK SMILES IDX 14 76 15 77 30 78 16 79 29 80 17 81 18 82 19 83 27 84 20 85
REMARK SMILES IDX 26 86 28 87 21 88 22 89 23 90 24 91 25 92
REMARK H PARENT 84 22 54 33
REMARK Flexibility Score: inf
ROOT
ATOM      1  C   UNL A   1      33.174  31.184  27.168  1.00  0.00     0.275 C 
ENDROOT
BRANCH   1   2
ATOM      2  O   UNL A   1      32.844  32.559  27.441  1.00  0.00    -0.458 OA
BRANCH   2   3
ATOM      3  C   UNL A   1      33.438  33.419  28.306  1.00  0.00     0.338 C 
ATOM      4  O   UNL A   1      32.914  34.514  28.506  1.00  0.00    -0.246 OA
BRANCH   3   5
ATOM      5  C   UNL A   1      34.782  33.168  28.912  1.00  0.00     0.060 A 
ATOM      6  C   UNL A   1      36.008  33.619  28.409  1.00  0.00     0.016 A 
ATOM      7  C   UNL A   1      34.791  32.407  30.090  1.00  0.00     0.016 A 
ATOM      8  C   UNL A   1      37.198  33.437  29.126  1.00  0.00     0.010 A 
ATOM      9  C   UNL A   1      35.983  32.181  30.777  1.00  0.00     0.010 A 
ATOM     10  C   UNL A   1      37.194  32.728  30.325  1.00  0.00    -0.014 A 
BRANCH  10  11
ATOM     11  C   UNL A   1      38.454  32.416  31.044  1.00  0.00     0.031 A 
ATOM     12  C   UNL A   1      39.242  31.220  30.589  1.00  0.00     0.074 A 
ATOM     13  C   UNL A   1      38.827  33.119  32.134  1.00  0.00     0.049 A 
ATOM     14  N   UNL A   1      40.331  30.704  31.092  1.00  0.00    -0.248 NA
ATOM     15  C   UNL A   1      38.722  30.502  29.412  1.00  0.00     0.031 C 
ATOM     16  C   UNL A   1      38.138  34.296  32.666  1.00  0.00     0.029 A 
ATOM     17  N   UNL A   1      39.840  32.897  33.040  1.00  0.00    -0.354 N 
ATOM     18  C   UNL A   1      40.610  29.588  30.315  1.00  0.00     0.074 A 
ATOM     19  C   UNL A   1      39.569  29.492  29.316  1.00  0.00     0.031 C 
ATOM     20  C   UNL A   1      38.702  34.650  33.836  1.00  0.00     0.029 A 
ATOM     21  C   UNL A   1      39.774  33.712  34.152  1.00  0.00     0.049 A 
ATOM     22  H   UNL A   1      40.545  32.223  32.906  1.00  0.00     0.167 HD
ATOM     23  C   UNL A   1      41.633  28.709  30.432  1.00  0.00     0.031 A 
ATOM     24  C   UNL A   1      40.460  33.661  35.314  1.00  0.00     0.031 A 
ATOM     25  C   UNL A   1      42.572  28.728  31.521  1.00  0.00     0.049 A 
ATOM     26  C   UNL A   1      41.532  32.616  35.468  1.00  0.00     0.074 A 
ATOM     27  C   UNL A   1      43.635  27.879  31.761  1.00  0.00     0.029 A 
ATOM     28  N   UNL A   1      42.525  29.626  32.581  1.00  0.00    -0.354 N 
ATOM     29  N   UNL A   1      41.899  31.673  34.631  1.00  0.00    -0.248 NA
ATOM     30  C   UNL A   1      42.312  32.656  36.712  1.00  0.00     0.031 C 
ATOM     31  C   UNL A   1      44.195  28.228  32.996  1.00  0.00     0.029 A 
ATOM     32  C   UNL A   1      43.520  29.331  33.499  1.00  0.00     0.049 A 
ATOM     33  H   UNL A   1      41.879  30.364  32.668  1.00  0.00     0.167 HD
ATOM     34  C   UNL A   1      43.002  31.059  35.212  1.00  0.00     0.074 A 
ATOM     35  C   UNL A   1      43.225  31.723  36.482  1.00  0.00     0.031 C 
ATOM     36  C   UNL A   1      43.768  30.048  34.729  1.00  0.00     0.031 A 
BRANCH  23  37
ATOM     37  C   UNL A   1      41.725  27.651  29.362  1.00  0.00    -0.014 A 
ATOM     38  C   UNL A   1      40.672  26.730  29.187  1.00  0.00     0.010 A 
ATOM     39  C   UNL A   1      42.886  27.514  28.582  1.00  0.00     0.010 A 
ATOM     40  C   UNL A   1      40.808  25.650  28.313  1.00  0.00     0.020 A 
ATOM     41  C   UNL A   1      43.013  26.450  27.679  1.00  0.00     0.020 A 
ATOM     42  C   UNL A   1      41.986  25.508  27.575  1.00  0.00     0.054 A 
BRANCH  42  43
ATOM     43  S   UNL A   1      42.155  24.070  26.482  1.00  0.00     0.124 S 
ATOM     44  O   UNL A   1      40.823  23.475  26.563  1.00  0.00    -0.237 OA
ATOM     45  O   UNL A   1      42.493  24.679  25.197  1.00  0.00    -0.237 OA
ATOM     46  O   UNL A   1      43.225  23.291  27.099  1.00  0.00    -0.744 OA
ENDBRANCH  42  43
ENDBRANCH  23  37
BRANCH  24  47
ATOM     47  C   UNL A   1      40.122  34.558  36.459  1.00  0.00    -0.014 A 
ATOM     48  C   UNL A   1      40.603  35.871  36.573  1.00  0.00     0.010 A 
ATOM     49  C   UNL A   1      39.337  34.048  37.505  1.00  0.00     0.010 A 
ATOM     50  C   UNL A   1      40.292  36.647  37.703  1.00  0.00     0.020 A 
ATOM     51  C   UNL A   1      38.989  34.821  38.616  1.00  0.00     0.020 A 
ATOM     52  C   UNL A   1      39.481  36.119  38.715  1.00  0.00     0.054 A 
BRANCH  52  53
ATOM     53  S   UNL A   1      39.061  37.142  40.156  1.00  0.00     0.124 S 
ATOM     54  O   UNL A   1      38.384  38.276  39.537  1.00  0.00    -0.237 OA
ATOM     55  O   UNL A   1      38.213  36.250  40.943  1.00  0.00    -0.237 OA
ATOM     56  O   UNL A   1      40.361  37.441  40.754  1.00  0.00    -0.744 OA
ENDBRANCH  52  53
ENDBRANCH  24  47
BRANCH  36  57
ATOM     57  C   UNL A   1      44.985  29.646  35.526  1.00  0.00    -0.014 A 
ATOM     58  C   UNL A   1      46.228  30.271  35.341  1.00  0.00     0.010 A 
ATOM     59  C   UNL A   1      44.855  28.688  36.549  1.00  0.00     0.010 A 
ATOM     60  C   UNL A   1      47.316  29.955  36.156  1.00  0.00     0.020 A 
ATOM     61  C   UNL A   1      45.932  28.386  37.387  1.00  0.00     0.020 A 
ATOM     62  C   UNL A   1      47.156  29.024  37.185  1.00  0.00     0.054 A 
BRANCH  62  63
ATOM     63  S   UNL A   1      48.565  28.698  38.278  1.00  0.00     0.124 S 
ATOM     64  O   UNL A   1      49.019  30.046  38.603  1.00  0.00    -0.237 OA
ATOM     65  O   UNL A   1      47.946  27.960  39.376  1.00  0.00    -0.237 OA
ATOM     66  O   UNL A   1      49.478  27.918  37.445  1.00  0.00    -0.744 OA
ENDBRANCH  62  63
ENDBRANCH  36  57
ENDBRANCH  10  11
ENDBRANCH   3   5
ENDBRANCH   2   3
ENDBRANCH   1   2
BRANCH   1  67
ATOM     67  C   UNL A   1      31.982  30.294  26.790  1.00  0.00     0.274 C 
BRANCH  67  68
ATOM     68  O   UNL A   1      31.600  30.492  25.421  1.00  0.00    -0.462 OA
BRANCH  68  69
ATOM     69  C   UNL A   1      31.456  29.365  24.675  1.00  0.00     0.309 C 
ATOM     70  O   UNL A   1      30.432  29.027  24.097  1.00  0.00    -0.252 OA
BRANCH  69  71
ATOM     71  C   UNL A   1      32.780  28.804  24.314  1.00  0.00     0.112 C 
ATOM     72  C   UNL A   1      32.837  27.677  23.316  1.00  0.00     0.030 C 
ATOM     73  C   UNL A   1      33.412  27.488  24.704  1.00  0.00     0.094 C 
BRANCH  73  74
ATOM     74  C   UNL A   1      32.826  26.366  25.494  1.00  0.00     0.226 C 
ATOM     75  O   UNL A   1      32.211  26.617  26.523  1.00  0.00    -0.275 OA
ATOM     76  N   UNL A   1      32.879  25.096  24.901  1.00  0.00    -0.339 N 
ATOM     77  C   UNL A   1      31.918  24.086  25.373  1.00  0.00     0.141 C 
ATOM     78  C   UNL A   1      34.139  24.547  24.374  1.00  0.00     0.141 C 
ATOM     79  C   UNL A   1      31.820  22.830  24.469  1.00  0.00     0.139 C 
ATOM     80  C   UNL A   1      33.998  23.283  23.509  1.00  0.00     0.139 C 
ATOM     81  N   UNL A   1      33.171  22.311  24.215  1.00  0.00    -0.352 N 
BRANCH  81  82
ATOM     82  C   UNL A   1      33.422  20.953  24.250  1.00  0.00     0.147 A 
ATOM     83  N   UNL A   1      32.469  20.151  23.707  1.00  0.00    -0.237 NA
ATOM     84  C   UNL A   1      34.566  20.356  24.820  1.00  0.00     0.084 A 
ATOM     85  C   UNL A   1      32.658  18.806  23.678  1.00  0.00     0.126 A 
ATOM     86  C   UNL A   1      34.737  18.964  24.778  1.00  0.00     0.039 A 
ATOM     87  Cl  UNL A   1      35.810  21.225  25.636  1.00  0.00    -0.080 Cl
ATOM     88  C   UNL A   1      33.776  18.163  24.173  1.00  0.00     0.075 A 
BRANCH  88  89
ATOM     89  C   UNL A   1      33.940  16.687  24.002  1.00  0.00     0.417 C 
ATOM     90  F   UNL A   1      34.397  16.346  22.766  1.00  0.00    -0.166 F 
ATOM     91  F   UNL A   1      34.843  16.172  24.884  1.00  0.00    -0.166 F 
ATOM     92  F   UNL A   1      32.795  15.981  24.194  1.00  0.00    -0.166 F 
ENDBRANCH  88  89
ENDBRANCH  81  82
ENDBRANCH  73  74
ENDBRANCH  69  71
ENDBRANCH  68  69
ENDBRANCH  67  68
ENDBRANCH   1  67
TORSDOF 17
ENDMDL
MODEL 3
REMARK VINA RESULT:     -11.0      7.556     12.906
REMARK SMILES O=C(OCCOC(=O)[C@@H]1C[C@@H]1C(=O)N1CCN(c2ncc(C(F)(F)F)cc2Cl)CC1)c1ccc(-c2c3nc(c(-c4ccc(S(=O)(=O)[O-])cc4)c4ccc([nH]4)c(-c4ccc(S(=O)(=O)[O-])cc4)c4nc(c(-c5ccc(S(=O)(=O)[O-])cc5)c5ccc2[nH]5)C=C4)C=C3)cc1
REMARK SMILES IDX 4 1 3 2 2 3 1 4 31 5 32 6 90 7 33 8 89 9 34 10 35 11 36 12
REMARK SMILES IDX 83 13 37 14 88 15 82 16 84 17 38 18 87 19 81 20 80 21 39 23
REMARK SMILES IDX 69 24 50 25 68 26 51 27 54 28 67 29 85 30 52 31 53 32 66 34
REMARK SMILES IDX 86 35 55 36 40 37 41 38 49 39 42 40 48 41 43 42 44 43 45 44
REMARK SMILES IDX 46 45 47 46 70 47 71 48 79 49 72 50 78 51 73 52 74 53 75 54
REMARK SMILES IDX 76 55 77 56 56 57 57 58 65 59 58 60 64 61 59 62 60 63 61 64
REMARK SMILES IDX 62 65 63 66 5 67 6 68 7 69 8 70 9 71 10 72 11 73 12 74 13 75
REMARK SMILES IDX 14 76 15 77 30 78 16 79 29 80 17 81 18 82 19 83 27 84 20 85
REMARK SMILES IDX 26 86 28 87 21 88 22 89 23 90 24 91 25 92
REMARK H PARENT 84 22 54 33
REMARK Flexibility Score: inf
ROOT
ATOM      1  C   UNL A   1      38.828  23.627  26.546  1.00  0.00     0.275 C 
ENDROOT
BRANCH   1   2
ATOM      2  O   UNL A   1      40.173  24.043  26.848  1.00  0.00    -0.458 OA
BRANCH   2   3
ATOM      3  C   UNL A   1      40.763  25.242  26.615  1.00  0.00     0.338 C 
ATOM      4  O   UNL A   1      41.372  25.408  25.558  1.00  0.00    -0.246 OA
BRANCH   3   5
ATOM      5  C   UNL A   1      40.846  26.324  27.645  1.00  0.00     0.060 A 
ATOM      6  C   UNL A   1      41.827  27.320  27.714  1.00  0.00     0.016 A 
ATOM      7  C   UNL A   1      39.841  26.319  28.622  1.00  0.00     0.016 A 
ATOM      8  C   UNL A   1      41.739  28.364  28.645  1.00  0.00     0.010 A 
ATOM      9  C   UNL A   1      39.783  27.328  29.582  1.00  0.00     0.010 A 
ATOM     10  C   UNL A   1      40.706  28.384  29.580  1.00  0.00    -0.014 A 
BRANCH  10  11
ATOM     11  C   UNL A   1      40.654  29.408  30.653  1.00  0.00     0.031 A 
ATOM     12  C   UNL A   1      41.457  29.158  31.898  1.00  0.00     0.074 A 
ATOM     13  C   UNL A   1      39.833  30.475  30.559  1.00  0.00     0.049 A 
ATOM     14  N   UNL A   1      41.525  29.861  32.996  1.00  0.00    -0.248 NA
ATOM     15  C   UNL A   1      42.288  27.941  31.909  1.00  0.00     0.031 C 
ATOM     16  C   UNL A   1      39.008  30.816  29.398  1.00  0.00     0.029 A 
ATOM     17  N   UNL A   1      39.500  31.434  31.489  1.00  0.00    -0.354 N 
ATOM     18  C   UNL A   1      42.378  29.161  33.837  1.00  0.00     0.074 A 
ATOM     19  C   UNL A   1      42.793  27.970  33.130  1.00  0.00     0.031 C 
ATOM     20  C   UNL A   1      38.215  31.859  29.708  1.00  0.00     0.029 A 
ATOM     21  C   UNL A   1      38.455  32.245  31.095  1.00  0.00     0.049 A 
ATOM     22  H   UNL A   1      39.962  31.531  32.352  1.00  0.00     0.167 HD
ATOM     23  C   UNL A   1      42.771  29.471  35.095  1.00  0.00     0.031 A 
ATOM     24  C   UNL A   1      37.739  33.150  31.796  1.00  0.00     0.031 A 
ATOM     25  C   UNL A   1      42.233  30.576  35.842  1.00  0.00     0.049 A 
ATOM     26  C   UNL A   1      38.125  33.417  33.226  1.00  0.00     0.074 A 
ATOM     27  C   UNL A   1      42.533  30.979  37.129  1.00  0.00     0.029 A 
ATOM     28  N   UNL A   1      41.241  31.431  35.373  1.00  0.00    -0.354 N 
ATOM     29  N   UNL A   1      39.067  32.857  33.950  1.00  0.00    -0.248 NA
ATOM     30  C   UNL A   1      37.376  34.471  33.922  1.00  0.00     0.031 C 
ATOM     31  C   UNL A   1      41.681  32.039  37.460  1.00  0.00     0.029 A 
ATOM     32  C   UNL A   1      40.890  32.338  36.359  1.00  0.00     0.049 A 
ATOM     33  H   UNL A   1      40.844  31.395  34.473  1.00  0.00     0.167 HD
ATOM     34  C   UNL A   1      39.076  33.545  35.158  1.00  0.00     0.074 A 
ATOM     35  C   UNL A   1      38.028  34.544  35.074  1.00  0.00     0.031 C 
ATOM     36  C   UNL A   1      39.887  33.372  36.232  1.00  0.00     0.031 A 
BRANCH  23  37
ATOM     37  C   UNL A   1      43.797  28.558  35.715  1.00  0.00    -0.014 A 
ATOM     38  C   UNL A   1      43.386  27.476  36.519  1.00  0.00     0.010 A 
ATOM     39  C   UNL A   1      45.172  28.815  35.571  1.00  0.00     0.010 A 
ATOM     40  C   UNL A   1      44.321  26.719  37.228  1.00  0.00     0.020 A 
ATOM     41  C   UNL A   1      46.115  28.037  36.255  1.00  0.00     0.020 A 
ATOM     42  C   UNL A   1      45.680  27.015  37.103  1.00  0.00     0.054 A 
BRANCH  42  43
ATOM     43  S   UNL A   1      46.870  26.046  38.071  1.00  0.00     0.124 S 
ATOM     44  O   UNL A   1      46.657  26.571  39.418  1.00  0.00    -0.237 OA
ATOM     45  O   UNL A   1      46.420  24.673  37.855  1.00  0.00    -0.237 OA
ATOM     46  O   UNL A   1      48.158  26.379  37.468  1.00  0.00    -0.744 OA
ENDBRANCH  42  43
ENDBRANCH  23  37
BRANCH  24  47
ATOM     47  C   UNL A   1      36.537  33.817  31.211  1.00  0.00    -0.014 A 
ATOM     48  C   UNL A   1      35.455  34.262  31.984  1.00  0.00     0.010 A 
ATOM     49  C   UNL A   1      36.453  33.950  29.816  1.00  0.00     0.010 A 
ATOM     50  C   UNL A   1      34.328  34.834  31.368  1.00  0.00     0.020 A 
ATOM     51  C   UNL A   1      35.356  34.550  29.194  1.00  0.00     0.020 A 
ATOM     52  C   UNL A   1      34.289  34.980  29.976  1.00  0.00     0.054 A 
BRANCH  52  53
ATOM     53  S   UNL A   1      32.840  35.748  29.194  1.00  0.00     0.124 S 
ATOM     54  O   UNL A   1      32.382  34.691  28.298  1.00  0.00    -0.237 OA
ATOM     55  O   UNL A   1      31.974  36.028  30.337  1.00  0.00    -0.237 OA
ATOM     56  O   UNL A   1      33.392  36.929  28.535  1.00  0.00    -0.744 OA
ENDBRANCH  52  53
ENDBRANCH  24  47
BRANCH  36  57
ATOM     57  C   UNL A   1      39.749  34.341  37.380  1.00  0.00    -0.014 A 
ATOM     58  C   UNL A   1      38.932  34.061  38.487  1.00  0.00     0.010 A 
ATOM     59  C   UNL A   1      40.529  35.512  37.394  1.00  0.00     0.010 A 
ATOM     60  C   UNL A   1      38.894  34.923  39.584  1.00  0.00     0.020 A 
ATOM     61  C   UNL A   1      40.518  36.366  38.500  1.00  0.00     0.020 A 
ATOM     62  C   UNL A   1      39.700  36.064  39.590  1.00  0.00     0.054 A 
BRANCH  62  63
ATOM     63  S   UNL A   1      39.691  37.118  41.064  1.00  0.00     0.124 S 
ATOM     64  O   UNL A   1      38.935  38.280  40.606  1.00  0.00    -0.237 OA
ATOM     65  O   UNL A   1      39.016  36.276  42.048  1.00  0.00    -0.237 OA
ATOM     66  O   UNL A   1      41.107  37.362  41.326  1.00  0.00    -0.744 OA
ENDBRANCH  62  63
ENDBRANCH  36  57
ENDBRANCH  10  11
ENDBRANCH   3   5
ENDBRANCH   2   3
ENDBRANCH   1   2
BRANCH   1  67
ATOM     67  C   UNL A   1      38.700  22.208  25.976  1.00  0.00     0.274 C 
BRANCH  67  68
ATOM     68  O   UNL A   1      37.651  22.134  24.999  1.00  0.00    -0.462 OA
BRANCH  68  69
ATOM     69  C   UNL A   1      36.949  20.970  24.969  1.00  0.00     0.309 C 
ATOM     70  O   UNL A   1      37.430  19.860  24.788  1.00  0.00    -0.252 OA
BRANCH  69  71
ATOM     71  C   UNL A   1      35.607  21.153  25.571  1.00  0.00     0.112 C 
ATOM     72  C   UNL A   1      34.404  20.643  24.820  1.00  0.00     0.030 C 
ATOM     73  C   UNL A   1      34.498  22.108  25.194  1.00  0.00     0.094 C 
BRANCH  73  74
ATOM     74  C   UNL A   1      34.437  23.066  24.051  1.00  0.00     0.226 C 
ATOM     75  O   UNL A   1      35.291  23.008  23.175  1.00  0.00    -0.275 OA
ATOM     76  N   UNL A   1      33.287  23.867  23.974  1.00  0.00    -0.339 N 
ATOM     77  C   UNL A   1      32.947  24.440  22.662  1.00  0.00     0.141 C 
ATOM     78  C   UNL A   1      32.821  24.652  25.128  1.00  0.00     0.141 C 
ATOM     79  C   UNL A   1      31.519  25.039  22.580  1.00  0.00     0.139 C 
ATOM     80  C   UNL A   1      31.411  25.253  24.992  1.00  0.00     0.139 C 
ATOM     81  N   UNL A   1      31.311  25.950  23.714  1.00  0.00    -0.352 N 
BRANCH  81  82
ATOM     82  C   UNL A   1      30.674  27.162  23.535  1.00  0.00     0.147 A 
ATOM     83  N   UNL A   1      29.332  27.112  23.329  1.00  0.00    -0.237 NA
ATOM     84  C   UNL A   1      31.314  28.420  23.531  1.00  0.00     0.084 A 
ATOM     85  C   UNL A   1      28.632  28.266  23.174  1.00  0.00     0.126 A 
ATOM     86  C   UNL A   1      30.568  29.597  23.368  1.00  0.00     0.039 A 
ATOM     87  Cl  UNL A   1      33.016  28.642  23.676  1.00  0.00    -0.080 Cl
ATOM     88  C   UNL A   1      29.189  29.529  23.208  1.00  0.00     0.075 A 
BRANCH  88  89
ATOM     89  C   UNL A   1      28.321  30.744  23.133  1.00  0.00     0.417 C 
ATOM     90  F   UNL A   1      27.777  30.928  21.899  1.00  0.00    -0.166 F 
ATOM     91  F   UNL A   1      27.266  30.667  23.993  1.00  0.00    -0.166 F 
ATOM     92  F   UNL A   1      28.965  31.899  23.443  1.00  0.00    -0.166 F 
ENDBRANCH  88  89
ENDBRANCH  81  82
ENDBRANCH  73  74
ENDBRANCH  69  71
ENDBRANCH  68  69
ENDBRANCH  67  68
ENDBRANCH   1  67
TORSDOF 17
ENDMDL
