MODEL 1
REMARK VINA RESULT:     -10.4      0.000      0.000
REMARK SMILES CCCC[C@H](C(=O)OCCOC(=O)c1ccc(-c2c3nc(c(-c4ccc(S(=O)(=O)[O-])cc4)c4ccc([nH]4)c(-c4ccc(S(=O)(=O)[O-])cc4)c4nc(c(-c5ccc(S(=O)(=O)[O-])cc5)c5ccc2[nH]5)C=C4)C=C3)cc1)[C@H](O)c1ccc(C(F)(F)F)cc1
REMARK SMILES IDX 9 1 8 2 6 3 7 4 5 5 4 6 3 7 2 8 1 9 74 10 76 11 77 12 85 13
REMARK SMILES IDX 78 14 84 15 79 16 80 17 81 18 82 19 83 20 75 21 10 23 11 24
REMARK SMILES IDX 12 25 13 26 14 27 15 28 73 29 16 30 72 31 17 32 18 33 19 34
REMARK SMILES IDX 66 35 20 36 71 37 65 38 67 39 21 40 70 41 64 42 63 43 22 45
REMARK SMILES IDX 52 46 33 47 51 48 34 49 37 50 50 51 68 52 35 53 36 54 49 56
REMARK SMILES IDX 69 57 38 58 23 59 24 60 32 61 25 62 31 63 26 64 27 65 28 66
REMARK SMILES IDX 29 67 30 68 53 69 54 70 62 71 55 72 61 73 56 74 57 75 58 76
REMARK SMILES IDX 59 77 60 78 39 79 40 80 48 81 41 82 47 83 42 84 43 85 44 86
REMARK SMILES IDX 45 87 46 88
REMARK H PARENT 75 22 67 44 37 55
REMARK Flexibility Score: inf
ROOT
ATOM      1  C   UNL A   1      33.123  29.611  27.391  1.00  0.00     0.274 C 
ENDROOT
BRANCH   1   2
ATOM      2  O   UNL A   1      33.362  28.746  26.258  1.00  0.00    -0.462 OA
BRANCH   2   3
ATOM      3  C   UNL A   1      32.903  27.480  26.318  1.00  0.00     0.312 C 
ATOM      4  O   UNL A   1      32.110  27.098  27.174  1.00  0.00    -0.252 OA
BRANCH   3   5
ATOM      5  C   UNL A   1      33.425  26.545  25.217  1.00  0.00     0.132 C 
BRANCH   5   6
ATOM      6  C   UNL A   1      33.190  25.104  25.769  1.00  0.00     0.018 C 
BRANCH   6   7
ATOM      7  C   UNL A   1      34.365  24.136  25.907  1.00  0.00     0.001 C 
BRANCH   7   8
ATOM      8  C   UNL A   1      35.440  24.250  24.833  1.00  0.00    -0.003 C 
ATOM      9  C   UNL A   1      35.046  23.577  23.527  1.00  0.00     0.004 C 
ENDBRANCH   7   8
ENDBRANCH   6   7
ENDBRANCH   5   6
BRANCH   5  10
ATOM     10  C   UNL A   1      32.847  26.643  23.779  1.00  0.00     0.158 C 
BRANCH  10  11
ATOM     11  C   UNL A   1      31.516  27.316  23.512  1.00  0.00    -0.019 A 
ATOM     12  C   UNL A   1      31.496  28.655  23.084  1.00  0.00     0.007 A 
ATOM     13  C   UNL A   1      30.290  26.670  23.722  1.00  0.00     0.007 A 
ATOM     14  C   UNL A   1      30.292  29.310  22.817  1.00  0.00     0.013 A 
ATOM     15  C   UNL A   1      29.082  27.338  23.497  1.00  0.00     0.013 A 
ATOM     16  C   UNL A   1      29.071  28.661  23.031  1.00  0.00     0.056 A 
BRANCH  16  17
ATOM     17  C   UNL A   1      27.770  29.358  22.725  1.00  0.00     0.416 C 
ATOM     18  F   UNL A   1      26.671  28.616  23.038  1.00  0.00    -0.166 F 
ATOM     19  F   UNL A   1      27.636  30.527  23.413  1.00  0.00    -0.166 F 
ATOM     20  F   UNL A   1      27.632  29.684  21.408  1.00  0.00    -0.166 F 
ENDBRANCH  16  17
ENDBRANCH  10  11
BRANCH  10  21
ATOM     21  O   UNL A   1      33.811  27.365  22.986  1.00  0.00    -0.388 OA
ATOM     22  H   UNL A   1      34.648  27.428  23.473  1.00  0.00     0.211 HD
ENDBRANCH  10  21
ENDBRANCH   5  10
ENDBRANCH   3   5
ENDBRANCH   2   3
ENDBRANCH   1   2
BRANCH   1  23
ATOM     23  C   UNL A   1      34.360  30.479  27.616  1.00  0.00     0.275 C 
BRANCH  23  24
ATOM     24  O   UNL A   1      35.270  29.758  28.465  1.00  0.00    -0.458 OA
BRANCH  24  25
ATOM     25  C   UNL A   1      36.075  30.496  29.263  1.00  0.00     0.338 C 
ATOM     26  O   UNL A   1      35.719  31.338  30.077  1.00  0.00    -0.246 OA
BRANCH  25  27
ATOM     27  C   UNL A   1      37.489  30.109  29.039  1.00  0.00     0.060 A 
ATOM     28  C   UNL A   1      37.962  29.853  27.753  1.00  0.00     0.016 A 
ATOM     29  C   UNL A   1      38.345  29.932  30.129  1.00  0.00     0.016 A 
ATOM     30  C   UNL A   1      39.244  29.337  27.561  1.00  0.00     0.010 A 
ATOM     31  C   UNL A   1      39.676  29.538  29.921  1.00  0.00     0.010 A 
ATOM     32  C   UNL A   1      40.141  29.217  28.634  1.00  0.00    -0.014 A 
BRANCH  32  33
ATOM     33  C   UNL A   1      41.559  28.803  28.394  1.00  0.00     0.031 A 
ATOM     34  C   UNL A   1      42.695  29.790  28.520  1.00  0.00     0.074 A 
ATOM     35  C   UNL A   1      41.835  27.527  28.046  1.00  0.00     0.049 A 
ATOM     36  N   UNL A   1      43.956  29.642  28.194  1.00  0.00    -0.248 NA
ATOM     37  C   UNL A   1      42.374  31.119  29.062  1.00  0.00     0.031 C 
ATOM     38  C   UNL A   1      40.847  26.455  27.889  1.00  0.00     0.029 A 
ATOM     39  N   UNL A   1      43.032  26.906  27.776  1.00  0.00    -0.354 N 
ATOM     40  C   UNL A   1      44.561  30.874  28.423  1.00  0.00     0.074 A 
ATOM     41  C   UNL A   1      43.529  31.757  28.926  1.00  0.00     0.031 C 
ATOM     42  C   UNL A   1      41.479  25.304  27.626  1.00  0.00     0.029 A 
ATOM     43  C   UNL A   1      42.906  25.566  27.491  1.00  0.00     0.049 A 
ATOM     44  H   UNL A   1      43.896  27.376  27.787  1.00  0.00     0.167 HD
ATOM     45  C   UNL A   1      45.852  31.239  28.224  1.00  0.00     0.031 A 
ATOM     46  C   UNL A   1      43.819  24.647  27.123  1.00  0.00     0.031 A 
ATOM     47  C   UNL A   1      46.888  30.347  27.769  1.00  0.00     0.049 A 
ATOM     48  C   UNL A   1      45.245  25.067  26.933  1.00  0.00     0.074 A 
ATOM     49  C   UNL A   1      48.229  30.624  27.550  1.00  0.00     0.029 A 
ATOM     50  N   UNL A   1      46.708  29.003  27.482  1.00  0.00    -0.354 N 
ATOM     51  N   UNL A   1      45.778  26.254  27.098  1.00  0.00    -0.248 NA
ATOM     52  C   UNL A   1      46.186  24.033  26.487  1.00  0.00     0.031 C 
ATOM     53  C   UNL A   1      48.852  29.453  27.102  1.00  0.00     0.029 A 
ATOM     54  C   UNL A   1      47.909  28.438  27.083  1.00  0.00     0.049 A 
ATOM     55  H   UNL A   1      45.853  28.520  27.552  1.00  0.00     0.167 HD
ATOM     56  C   UNL A   1      47.119  26.111  26.764  1.00  0.00     0.074 A 
ATOM     57  C   UNL A   1      47.320  24.716  26.424  1.00  0.00     0.031 C 
ATOM     58  C   UNL A   1      48.091  27.055  26.730  1.00  0.00     0.031 A 
BRANCH  45  59
ATOM     59  C   UNL A   1      46.213  32.684  28.455  1.00  0.00    -0.014 A 
ATOM     60  C   UNL A   1      46.421  33.195  29.749  1.00  0.00     0.010 A 
ATOM     61  C   UNL A   1      46.385  33.536  27.349  1.00  0.00     0.010 A 
ATOM     62  C   UNL A   1      46.753  34.541  29.932  1.00  0.00     0.020 A 
ATOM     63  C   UNL A   1      46.739  34.878  27.526  1.00  0.00     0.020 A 
ATOM     64  C   UNL A   1      46.902  35.376  28.819  1.00  0.00     0.054 A 
BRANCH  64  65
ATOM     65  S   UNL A   1      47.343  37.117  29.081  1.00  0.00     0.124 S 
ATOM     66  O   UNL A   1      46.183  37.611  29.820  1.00  0.00    -0.237 OA
ATOM     67  O   UNL A   1      48.582  37.027  29.849  1.00  0.00    -0.237 OA
ATOM     68  O   UNL A   1      47.491  37.645  27.727  1.00  0.00    -0.744 OA
ENDBRANCH  64  65
ENDBRANCH  45  59
BRANCH  46  69
ATOM     69  C   UNL A   1      43.389  23.245  26.871  1.00  0.00    -0.014 A 
ATOM     70  C   UNL A   1      43.451  22.701  25.576  1.00  0.00     0.010 A 
ATOM     71  C   UNL A   1      42.967  22.429  27.936  1.00  0.00     0.010 A 
ATOM     72  C   UNL A   1      43.107  21.365  25.353  1.00  0.00     0.020 A 
ATOM     73  C   UNL A   1      42.650  21.085  27.722  1.00  0.00     0.020 A 
ATOM     74  C   UNL A   1      42.717  20.563  26.429  1.00  0.00     0.054 A 
BRANCH  74  75
ATOM     75  S   UNL A   1      42.371  18.805  26.141  1.00  0.00     0.124 S 
ATOM     76  O   UNL A   1      40.993  18.841  25.664  1.00  0.00    -0.237 OA
ATOM     77  O   UNL A   1      43.377  18.439  25.146  1.00  0.00    -0.237 OA
ATOM     78  O   UNL A   1      42.565  18.202  27.459  1.00  0.00    -0.744 OA
ENDBRANCH  74  75
ENDBRANCH  46  69
BRANCH  58  79
ATOM     79  C   UNL A   1      49.461  26.599  26.312  1.00  0.00    -0.014 A 
ATOM     80  C   UNL A   1      50.026  27.031  25.099  1.00  0.00     0.010 A 
ATOM     81  C   UNL A   1      50.195  25.737  27.147  1.00  0.00     0.010 A 
ATOM     82  C   UNL A   1      51.288  26.576  24.707  1.00  0.00     0.020 A 
ATOM     83  C   UNL A   1      51.466  25.297  26.768  1.00  0.00     0.020 A 
ATOM     84  C   UNL A   1      51.996  25.705  25.542  1.00  0.00     0.054 A 
BRANCH  84  85
ATOM     85  S   UNL A   1      53.638  25.136  25.023  1.00  0.00     0.124 S 
ATOM     86  O   UNL A   1      53.589  23.717  25.362  1.00  0.00    -0.237 OA
ATOM     87  O   UNL A   1      53.651  25.440  23.594  1.00  0.00    -0.237 OA
ATOM     88  O   UNL A   1      54.552  25.940  25.832  1.00  0.00    -0.744 OA
ENDBRANCH  84  85
ENDBRANCH  58  79
ENDBRANCH  32  33
ENDBRANCH  25  27
ENDBRANCH  24  25
ENDBRANCH  23  24
ENDBRANCH   1  23
TORSDOF 21
ENDMDL
MODEL 2
REMARK VINA RESULT:     -10.1      3.150      9.180
REMARK SMILES CCCC[C@H](C(=O)OCCOC(=O)c1ccc(-c2c3nc(c(-c4ccc(S(=O)(=O)[O-])cc4)c4ccc([nH]4)c(-c4ccc(S(=O)(=O)[O-])cc4)c4nc(c(-c5ccc(S(=O)(=O)[O-])cc5)c5ccc2[nH]5)C=C4)C=C3)cc1)[C@H](O)c1ccc(C(F)(F)F)cc1
REMARK SMILES IDX 9 1 8 2 6 3 7 4 5 5 4 6 3 7 2 8 1 9 74 10 76 11 77 12 85 13
REMARK SMILES IDX 78 14 84 15 79 16 80 17 81 18 82 19 83 20 75 21 10 23 11 24
REMARK SMILES IDX 12 25 13 26 14 27 15 28 73 29 16 30 72 31 17 32 18 33 19 34
REMARK SMILES IDX 66 35 20 36 71 37 65 38 67 39 21 40 70 41 64 42 63 43 22 45
REMARK SMILES IDX 52 46 33 47 51 48 34 49 37 50 50 51 68 52 35 53 36 54 49 56
REMARK SMILES IDX 69 57 38 58 23 59 24 60 32 61 25 62 31 63 26 64 27 65 28 66
REMARK SMILES IDX 29 67 30 68 53 69 54 70 62 71 55 72 61 73 56 74 57 75 58 76
REMARK SMILES IDX 59 77 60 78 39 79 40 80 48 81 41 82 47 83 42 84 43 85 44 86
REMARK SMILES IDX 45 87 46 88
REMARK H PARENT 75 22 67 44 37 55
REMARK Flexibility Score: inf
ROOT
ATOM      1  C   UNL A   1      36.271  22.066  24.244  1.00  0.00     0.274 C 
ENDROOT
BRANCH   1   2
ATOM      2  O   UNL A   1      35.019  21.646  24.830  1.00  0.00    -0.462 OA
BRANCH   2   3
ATOM      3  C   UNL A   1      33.882  21.909  24.157  1.00  0.00     0.312 C 
ATOM      4  O   UNL A   1      33.869  22.467  23.062  1.00  0.00    -0.252 OA
BRANCH   3   5
ATOM      5  C   UNL A   1      32.592  21.438  24.845  1.00  0.00     0.132 C 
BRANCH   5   6
ATOM      6  C   UNL A   1      33.020  20.200  25.694  1.00  0.00     0.018 C 
BRANCH   6   7
ATOM      7  C   UNL A   1      32.632  18.792  25.245  1.00  0.00     0.001 C 
BRANCH   7   8
ATOM      8  C   UNL A   1      33.075  18.406  23.839  1.00  0.00    -0.003 C 
ATOM      9  C   UNL A   1      34.307  17.514  23.829  1.00  0.00     0.004 C 
ENDBRANCH   7   8
ENDBRANCH   6   7
ENDBRANCH   5   6
BRANCH   5  10
ATOM     10  C   UNL A   1      31.788  22.419  25.738  1.00  0.00     0.158 C 
BRANCH  10  11
ATOM     11  C   UNL A   1      31.249  23.723  25.185  1.00  0.00    -0.019 A 
ATOM     12  C   UNL A   1      30.870  23.793  23.833  1.00  0.00     0.007 A 
ATOM     13  C   UNL A   1      31.156  24.887  25.960  1.00  0.00     0.007 A 
ATOM     14  C   UNL A   1      30.359  24.971  23.286  1.00  0.00     0.013 A 
ATOM     15  C   UNL A   1      30.684  26.081  25.402  1.00  0.00     0.013 A 
ATOM     16  C   UNL A   1      30.270  26.131  24.063  1.00  0.00     0.056 A 
BRANCH  16  17
ATOM     17  C   UNL A   1      29.701  27.400  23.482  1.00  0.00     0.416 C 
ATOM     18  F   UNL A   1      30.085  27.627  22.194  1.00  0.00    -0.166 F 
ATOM     19  F   UNL A   1      28.338  27.395  23.466  1.00  0.00    -0.166 F 
ATOM     20  F   UNL A   1      30.060  28.518  24.176  1.00  0.00    -0.166 F 
ENDBRANCH  16  17
ENDBRANCH  10  11
BRANCH  10  21
ATOM     21  O   UNL A   1      30.636  21.699  26.223  1.00  0.00    -0.388 OA
ATOM     22  H   UNL A   1      30.168  22.240  26.878  1.00  0.00     0.211 HD
ENDBRANCH  10  21
ENDBRANCH   5  10
ENDBRANCH   3   5
ENDBRANCH   2   3
ENDBRANCH   1   2
BRANCH   1  23
ATOM     23  C   UNL A   1      37.413  21.332  24.944  1.00  0.00     0.275 C 
BRANCH  23  24
ATOM     24  O   UNL A   1      37.940  22.189  25.971  1.00  0.00    -0.458 OA
BRANCH  24  25
ATOM     25  C   UNL A   1      39.234  22.004  26.318  1.00  0.00     0.338 C 
ATOM     26  O   UNL A   1      39.860  20.954  26.256  1.00  0.00    -0.246 OA
BRANCH  25  27
ATOM     27  C   UNL A   1      39.821  23.292  26.761  1.00  0.00     0.060 A 
ATOM     28  C   UNL A   1      39.589  24.464  26.042  1.00  0.00     0.016 A 
ATOM     29  C   UNL A   1      40.669  23.326  27.870  1.00  0.00     0.016 A 
ATOM     30  C   UNL A   1      40.268  25.638  26.369  1.00  0.00     0.010 A 
ATOM     31  C   UNL A   1      41.248  24.539  28.274  1.00  0.00     0.010 A 
ATOM     32  C   UNL A   1      41.071  25.711  27.518  1.00  0.00    -0.014 A 
BRANCH  32  33
ATOM     33  C   UNL A   1      41.674  27.014  27.939  1.00  0.00     0.031 A 
ATOM     34  C   UNL A   1      43.156  27.272  27.806  1.00  0.00     0.074 A 
ATOM     35  C   UNL A   1      40.886  27.980  28.460  1.00  0.00     0.049 A 
ATOM     36  N   UNL A   1      43.863  28.275  28.265  1.00  0.00    -0.248 NA
ATOM     37  C   UNL A   1      43.950  26.267  27.082  1.00  0.00     0.031 C 
ATOM     38  C   UNL A   1      39.435  27.884  28.649  1.00  0.00     0.029 A 
ATOM     39  N   UNL A   1      41.188  29.242  28.914  1.00  0.00    -0.354 N 
ATOM     40  C   UNL A   1      45.188  27.989  27.949  1.00  0.00     0.074 A 
ATOM     41  C   UNL A   1      45.185  26.721  27.249  1.00  0.00     0.031 C 
ATOM     42  C   UNL A   1      38.968  29.055  29.105  1.00  0.00     0.029 A 
ATOM     43  C   UNL A   1      40.090  29.952  29.342  1.00  0.00     0.049 A 
ATOM     44  H   UNL A   1      42.103  29.604  28.929  1.00  0.00     0.167 HD
ATOM     45  C   UNL A   1      46.303  28.710  28.225  1.00  0.00     0.031 A 
ATOM     46  C   UNL A   1      39.985  31.173  29.901  1.00  0.00     0.031 A 
ATOM     47  C   UNL A   1      46.301  29.994  28.878  1.00  0.00     0.049 A 
ATOM     48  C   UNL A   1      41.229  31.962  30.174  1.00  0.00     0.074 A 
ATOM     49  C   UNL A   1      47.382  30.805  29.189  1.00  0.00     0.029 A 
ATOM     50  N   UNL A   1      45.166  30.666  29.304  1.00  0.00    -0.354 N 
ATOM     51  N   UNL A   1      42.476  31.641  29.921  1.00  0.00    -0.248 NA
ATOM     52  C   UNL A   1      41.057  33.266  30.827  1.00  0.00     0.031 C 
ATOM     53  C   UNL A   1      46.900  31.953  29.829  1.00  0.00     0.029 A 
ATOM     54  C   UNL A   1      45.518  31.876  29.879  1.00  0.00     0.049 A 
ATOM     55  H   UNL A   1      44.244  30.332  29.211  1.00  0.00     0.167 HD
ATOM     56  C   UNL A   1      43.239  32.701  30.396  1.00  0.00     0.074 A 
ATOM     57  C   UNL A   1      42.311  33.686  30.916  1.00  0.00     0.031 C 
ATOM     58  C   UNL A   1      44.587  32.838  30.409  1.00  0.00     0.031 A 
BRANCH  45  59
ATOM     59  C   UNL A   1      47.634  28.104  27.859  1.00  0.00    -0.014 A 
ATOM     60  C   UNL A   1      48.308  27.226  28.727  1.00  0.00     0.010 A 
ATOM     61  C   UNL A   1      48.201  28.392  26.603  1.00  0.00     0.010 A 
ATOM     62  C   UNL A   1      49.543  26.681  28.360  1.00  0.00     0.020 A 
ATOM     63  C   UNL A   1      49.424  27.830  26.224  1.00  0.00     0.020 A 
ATOM     64  C   UNL A   1      50.097  26.993  27.115  1.00  0.00     0.054 A 
BRANCH  64  65
ATOM     65  S   UNL A   1      51.696  26.266  26.658  1.00  0.00     0.124 S 
ATOM     66  O   UNL A   1      52.587  26.849  27.659  1.00  0.00    -0.237 OA
ATOM     67  O   UNL A   1      51.452  24.832  26.796  1.00  0.00    -0.237 OA
ATOM     68  O   UNL A   1      51.909  26.729  25.289  1.00  0.00    -0.744 OA
ENDBRANCH  64  65
ENDBRANCH  45  59
BRANCH  46  69
ATOM     69  C   UNL A   1      38.643  31.696  30.276  1.00  0.00    -0.014 A 
ATOM     70  C   UNL A   1      38.139  31.503  31.574  1.00  0.00     0.010 A 
ATOM     71  C   UNL A   1      37.886  32.438  29.351  1.00  0.00     0.010 A 
ATOM     72  C   UNL A   1      36.907  32.051  31.942  1.00  0.00     0.020 A 
ATOM     73  C   UNL A   1      36.668  33.011  29.725  1.00  0.00     0.020 A 
ATOM     74  C   UNL A   1      36.183  32.809  31.018  1.00  0.00     0.054 A 
BRANCH  74  75
ATOM     75  S   UNL A   1      34.634  33.597  31.540  1.00  0.00     0.124 S 
ATOM     76  O   UNL A   1      33.960  33.815  30.265  1.00  0.00    -0.237 OA
ATOM     77  O   UNL A   1      34.037  32.586  32.409  1.00  0.00    -0.237 OA
ATOM     78  O   UNL A   1      35.086  34.806  32.227  1.00  0.00    -0.744 OA
ENDBRANCH  74  75
ENDBRANCH  46  69
BRANCH  58  79
ATOM     79  C   UNL A   1      45.132  34.105  31.006  1.00  0.00    -0.014 A 
ATOM     80  C   UNL A   1      45.339  35.246  30.211  1.00  0.00     0.010 A 
ATOM     81  C   UNL A   1      45.430  34.158  32.379  1.00  0.00     0.010 A 
ATOM     82  C   UNL A   1      45.874  36.408  30.771  1.00  0.00     0.020 A 
ATOM     83  C   UNL A   1      45.946  35.326  32.947  1.00  0.00     0.020 A 
ATOM     84  C   UNL A   1      46.182  36.437  32.135  1.00  0.00     0.054 A 
BRANCH  84  85
ATOM     85  S   UNL A   1      46.864  37.960  32.847  1.00  0.00     0.124 S 
ATOM     86  O   UNL A   1      48.078  38.147  32.057  1.00  0.00    -0.237 OA
ATOM     87  O   UNL A   1      45.802  38.935  32.607  1.00  0.00    -0.237 OA
ATOM     88  O   UNL A   1      47.080  37.617  34.251  1.00  0.00    -0.744 OA
ENDBRANCH  84  85
ENDBRANCH  58  79
ENDBRANCH  32  33
ENDBRANCH  25  27
ENDBRANCH  24  25
ENDBRANCH  23  24
ENDBRANCH   1  23
TORSDOF 21
ENDMDL
MODEL 3
REMARK VINA RESULT:      -9.9      6.743     11.544
REMARK SMILES CCCC[C@H](C(=O)OCCOC(=O)c1ccc(-c2c3nc(c(-c4ccc(S(=O)(=O)[O-])cc4)c4ccc([nH]4)c(-c4ccc(S(=O)(=O)[O-])cc4)c4nc(c(-c5ccc(S(=O)(=O)[O-])cc5)c5ccc2[nH]5)C=C4)C=C3)cc1)[C@H](O)c1ccc(C(F)(F)F)cc1
REMARK SMILES IDX 9 1 8 2 6 3 7 4 5 5 4 6 3 7 2 8 1 9 74 10 76 11 77 12 85 13
REMARK SMILES IDX 78 14 84 15 79 16 80 17 81 18 82 19 83 20 75 21 10 23 11 24
REMARK SMILES IDX 12 25 13 26 14 27 15 28 73 29 16 30 72 31 17 32 18 33 19 34
REMARK SMILES IDX 66 35 20 36 71 37 65 38 67 39 21 40 70 41 64 42 63 43 22 45
REMARK SMILES IDX 52 46 33 47 51 48 34 49 37 50 50 51 68 52 35 53 36 54 49 56
REMARK SMILES IDX 69 57 38 58 23 59 24 60 32 61 25 62 31 63 26 64 27 65 28 66
REMARK SMILES IDX 29 67 30 68 53 69 54 70 62 71 55 72 61 73 56 74 57 75 58 76
REMARK SMILES IDX 59 77 60 78 39 79 40 80 48 81 41 82 47 83 42 84 43 85 44 86
REMARK SMILES IDX 45 87 46 88
REMARK H PARENT 75 22 67 44 37 55
REMARK Flexibility Score: inf
ROOT
ATOM      1  C   UNL A   1      39.862  22.052  26.644  1.00  0.00     0.274 C 
ENDROOT
BRANCH   1   2
ATOM      2  O   UNL A   1      38.617  22.694  26.289  1.00  0.00    -0.462 OA
BRANCH   2   3
ATOM      3  C   UNL A   1      37.837  22.099  25.365  1.00  0.00     0.312 C 
ATOM      4  O   UNL A   1      38.005  20.938  24.997  1.00  0.00    -0.252 OA
BRANCH   3   5
ATOM      5  C   UNL A   1      36.698  22.970  24.815  1.00  0.00     0.132 C 
BRANCH   5   6
ATOM      6  C   UNL A   1      35.685  21.959  24.192  1.00  0.00     0.018 C 
BRANCH   6   7
ATOM      7  C   UNL A   1      34.918  20.990  25.091  1.00  0.00     0.001 C 
BRANCH   7   8
ATOM      8  C   UNL A   1      33.605  20.464  24.521  1.00  0.00    -0.003 C 
ATOM      9  C   UNL A   1      32.829  21.521  23.750  1.00  0.00     0.004 C 
ENDBRANCH   7   8
ENDBRANCH   6   7
ENDBRANCH   5   6
BRANCH   5  10
ATOM     10  C   UNL A   1      35.938  23.939  25.760  1.00  0.00     0.158 C 
BRANCH  10  11
ATOM     11  C   UNL A   1      34.549  24.440  25.420  1.00  0.00    -0.019 A 
ATOM     12  C   UNL A   1      33.478  24.136  26.279  1.00  0.00     0.007 A 
ATOM     13  C   UNL A   1      34.275  25.160  24.249  1.00  0.00     0.007 A 
ATOM     14  C   UNL A   1      32.185  24.587  26.008  1.00  0.00     0.013 A 
ATOM     15  C   UNL A   1      32.972  25.576  23.954  1.00  0.00     0.013 A 
ATOM     16  C   UNL A   1      31.917  25.303  24.836  1.00  0.00     0.056 A 
BRANCH  16  17
ATOM     17  C   UNL A   1      30.526  25.809  24.550  1.00  0.00     0.416 C 
ATOM     18  F   UNL A   1      30.505  27.045  23.976  1.00  0.00    -0.166 F 
ATOM     19  F   UNL A   1      29.845  24.993  23.695  1.00  0.00    -0.166 F 
ATOM     20  F   UNL A   1      29.749  25.907  25.667  1.00  0.00    -0.166 F 
ENDBRANCH  16  17
ENDBRANCH  10  11
BRANCH  10  21
ATOM     21  O   UNL A   1      35.807  23.270  27.031  1.00  0.00    -0.388 OA
ATOM     22  H   UNL A   1      34.905  23.387  27.367  1.00  0.00     0.211 HD
ENDBRANCH  10  21
ENDBRANCH   5  10
ENDBRANCH   3   5
ENDBRANCH   2   3
ENDBRANCH   1   2
BRANCH   1  23
ATOM     23  C   UNL A   1      41.018  22.870  26.073  1.00  0.00     0.275 C 
BRANCH  23  24
ATOM     24  O   UNL A   1      41.291  23.958  26.973  1.00  0.00    -0.458 OA
BRANCH  24  25
ATOM     25  C   UNL A   1      41.045  25.206  26.516  1.00  0.00     0.338 C 
ATOM     26  O   UNL A   1      40.934  25.543  25.345  1.00  0.00    -0.246 OA
BRANCH  25  27
ATOM     27  C   UNL A   1      40.885  26.135  27.661  1.00  0.00     0.060 A 
ATOM     28  C   UNL A   1      41.764  27.202  27.842  1.00  0.00     0.016 A 
ATOM     29  C   UNL A   1      39.885  25.906  28.610  1.00  0.00     0.016 A 
ATOM     30  C   UNL A   1      41.708  27.975  29.001  1.00  0.00     0.010 A 
ATOM     31  C   UNL A   1      39.751  26.767  29.710  1.00  0.00     0.010 A 
ATOM     32  C   UNL A   1      40.672  27.805  29.933  1.00  0.00    -0.014 A 
BRANCH  32  33
ATOM     33  C   UNL A   1      40.538  28.737  31.095  1.00  0.00     0.031 A 
ATOM     34  C   UNL A   1      39.477  29.812  31.120  1.00  0.00     0.074 A 
ATOM     35  C   UNL A   1      41.384  28.628  32.143  1.00  0.00     0.049 A 
ATOM     36  N   UNL A   1      39.323  30.799  31.968  1.00  0.00    -0.248 NA
ATOM     37  C   UNL A   1      38.473  29.789  30.045  1.00  0.00     0.031 C 
ATOM     38  C   UNL A   1      42.458  27.637  32.269  1.00  0.00     0.029 A 
ATOM     39  N   UNL A   1      41.468  29.347  33.311  1.00  0.00    -0.354 N 
ATOM     40  C   UNL A   1      38.254  31.552  31.493  1.00  0.00     0.074 A 
ATOM     41  C   UNL A   1      37.790  30.901  30.285  1.00  0.00     0.031 C 
ATOM     42  C   UNL A   1      43.038  27.763  33.470  1.00  0.00     0.029 A 
ATOM     43  C   UNL A   1      42.456  28.905  34.161  1.00  0.00     0.049 A 
ATOM     44  H   UNL A   1      40.878  30.106  33.520  1.00  0.00     0.167 HD
ATOM     45  C   UNL A   1      37.715  32.685  32.008  1.00  0.00     0.031 A 
ATOM     46  C   UNL A   1      42.883  29.377  35.348  1.00  0.00     0.031 A 
ATOM     47  C   UNL A   1      38.146  33.306  33.235  1.00  0.00     0.049 A 
ATOM     48  C   UNL A   1      42.256  30.617  35.910  1.00  0.00     0.074 A 
ATOM     49  C   UNL A   1      37.651  34.449  33.843  1.00  0.00     0.029 A 
ATOM     50  N   UNL A   1      39.157  32.827  34.054  1.00  0.00    -0.354 N 
ATOM     51  N   UNL A   1      41.287  31.346  35.409  1.00  0.00    -0.248 NA
ATOM     52  C   UNL A   1      42.793  31.111  37.184  1.00  0.00     0.031 C 
ATOM     53  C   UNL A   1      38.385  34.677  35.014  1.00  0.00     0.029 A 
ATOM     54  C   UNL A   1      39.306  33.653  35.156  1.00  0.00     0.049 A 
ATOM     55  H   UNL A   1      39.691  32.019  33.878  1.00  0.00     0.167 HD
ATOM     56  C   UNL A   1      41.106  32.393  36.303  1.00  0.00     0.074 A 
ATOM     57  C   UNL A   1      42.040  32.183  37.392  1.00  0.00     0.031 C 
ATOM     58  C   UNL A   1      40.251  33.442  36.221  1.00  0.00     0.031 A 
BRANCH  45  59
ATOM     59  C   UNL A   1      36.622  33.360  31.219  1.00  0.00    -0.014 A 
ATOM     60  C   UNL A   1      36.827  33.795  29.897  1.00  0.00     0.010 A 
ATOM     61  C   UNL A   1      35.353  33.527  31.804  1.00  0.00     0.010 A 
ATOM     62  C   UNL A   1      35.794  34.420  29.191  1.00  0.00     0.020 A 
ATOM     63  C   UNL A   1      34.311  34.130  31.093  1.00  0.00     0.020 A 
ATOM     64  C   UNL A   1      34.545  34.591  29.797  1.00  0.00     0.054 A 
BRANCH  64  65
ATOM     65  S   UNL A   1      33.217  35.396  28.857  1.00  0.00     0.124 S 
ATOM     66  O   UNL A   1      33.961  36.371  28.063  1.00  0.00    -0.237 OA
ATOM     67  O   UNL A   1      32.635  34.289  28.104  1.00  0.00    -0.237 OA
ATOM     68  O   UNL A   1      32.355  35.963  29.892  1.00  0.00    -0.744 OA
ENDBRANCH  64  65
ENDBRANCH  45  59
BRANCH  46  69
ATOM     69  C   UNL A   1      43.995  28.687  36.056  1.00  0.00    -0.014 A 
ATOM     70  C   UNL A   1      43.732  27.602  36.910  1.00  0.00     0.010 A 
ATOM     71  C   UNL A   1      45.328  29.078  35.835  1.00  0.00     0.010 A 
ATOM     72  C   UNL A   1      44.784  26.915  37.524  1.00  0.00     0.020 A 
ATOM     73  C   UNL A   1      46.383  28.376  36.424  1.00  0.00     0.020 A 
ATOM     74  C   UNL A   1      46.103  27.301  37.270  1.00  0.00     0.054 A 
BRANCH  74  75
ATOM     75  S   UNL A   1      47.460  26.338  37.993  1.00  0.00     0.124 S 
ATOM     76  O   UNL A   1      48.532  26.552  37.027  1.00  0.00    -0.237 OA
ATOM     77  O   UNL A   1      47.645  26.971  39.296  1.00  0.00    -0.237 OA
ATOM     78  O   UNL A   1      46.921  24.980  38.043  1.00  0.00    -0.744 OA
ENDBRANCH  74  75
ENDBRANCH  46  69
BRANCH  58  79
ATOM     79  C   UNL A   1      40.291  34.436  37.347  1.00  0.00    -0.014 A 
ATOM     80  C   UNL A   1      41.174  35.530  37.313  1.00  0.00     0.010 A 
ATOM     81  C   UNL A   1      39.429  34.280  38.448  1.00  0.00     0.010 A 
ATOM     82  C   UNL A   1      41.223  36.431  38.380  1.00  0.00     0.020 A 
ATOM     83  C   UNL A   1      39.461  35.190  39.507  1.00  0.00     0.020 A 
ATOM     84  C   UNL A   1      40.371  36.250  39.474  1.00  0.00     0.054 A 
BRANCH  84  85
ATOM     85  S   UNL A   1      40.439  37.437  40.844  1.00  0.00     0.124 S 
ATOM     86  O   UNL A   1      39.030  37.571  41.200  1.00  0.00    -0.237 OA
ATOM     87  O   UNL A   1      41.273  36.750  41.828  1.00  0.00    -0.237 OA
ATOM     88  O   UNL A   1      41.047  38.622  40.242  1.00  0.00    -0.744 OA
ENDBRANCH  84  85
ENDBRANCH  58  79
ENDBRANCH  32  33
ENDBRANCH  25  27
ENDBRANCH  24  25
ENDBRANCH  23  24
ENDBRANCH   1  23
TORSDOF 21
ENDMDL
