MODEL 1
REMARK VINA RESULT:     -11.4      0.000      0.000
REMARK SMILES Cc1cc(C)c2c(=O)n(CCCC(=O)OCCOC(=O)c3ccc(-c4c5nc(c(-c6ccc(S(=O)(=O)[O-])cc6)c6ccc([nH]6)c(-c6ccc(S(=O)(=O)[O-])cc6)c6nc(c(-c7ccc(S(=O)(=O)[O-])cc7)c7ccc4[nH]7)C=C6)C=C5)cc3)sc2n1
REMARK SMILES IDX 16 1 15 2 13 3 14 4 12 5 11 6 10 7 9 8 1 9 2 10 3 11 83 12
REMARK SMILES IDX 4 13 82 14 5 15 6 16 81 17 7 18 8 19 17 20 18 21 19 22 20 23
REMARK SMILES IDX 21 24 22 25 80 26 23 27 79 28 24 29 25 30 26 31 73 32 27 33
REMARK SMILES IDX 78 34 72 35 74 36 28 37 77 38 71 39 70 40 29 42 59 43 40 44
REMARK SMILES IDX 58 45 41 46 44 47 57 48 75 49 42 50 43 51 56 53 76 54 45 55
REMARK SMILES IDX 30 56 31 57 39 58 32 59 38 60 33 61 34 62 35 63 36 64 37 65
REMARK SMILES IDX 60 66 61 67 69 68 62 69 68 70 63 71 64 72 65 73 66 74 67 75
REMARK SMILES IDX 46 76 47 77 55 78 48 79 54 80 49 81 50 82 51 83 52 84 53 85
REMARK H PARENT 74 41 44 52
REMARK Flexibility Score: inf
ROOT
ATOM      1  C   UNL A   1      36.244  21.427  24.721  1.00  0.00     0.274 C 
ENDROOT
BRANCH   1   2
ATOM      2  O   UNL A   1      35.567  20.227  25.126  1.00  0.00    -0.462 OA
BRANCH   2   3
ATOM      3  C   UNL A   1      34.261  20.067  24.809  1.00  0.00     0.305 C 
ATOM      4  O   UNL A   1      33.794  19.057  24.295  1.00  0.00    -0.252 OA
BRANCH   3   5
ATOM      5  C   UNL A   1      33.428  21.310  25.078  1.00  0.00     0.124 C 
BRANCH   5   6
ATOM      6  C   UNL A   1      31.899  21.275  24.920  1.00  0.00     0.035 C 
BRANCH   6   7
ATOM      7  C   UNL A   1      31.031  22.315  25.648  1.00  0.00     0.139 C 
BRANCH   7   8
ATOM      8  N   UNL A   1      31.212  23.686  25.194  1.00  0.00    -0.262 N 
ATOM      9  C   UNL A   1      30.374  28.995  22.383  1.00  0.00     0.067 C 
ATOM     10  C   UNL A   1      30.784  27.985  23.408  1.00  0.00     0.039 A 
ATOM     11  C   UNL A   1      31.055  28.343  24.737  1.00  0.00     0.027 A 
ATOM     12  N   UNL A   1      30.849  26.712  22.970  1.00  0.00    -0.241 NA
ATOM     13  C   UNL A   1      31.342  27.350  25.691  1.00  0.00    -0.033 A 
ATOM     14  C   UNL A   1      31.108  25.790  23.907  1.00  0.00     0.146 A 
ATOM     15  C   UNL A   1      31.668  27.700  27.108  1.00  0.00     0.045 C 
ATOM     16  C   UNL A   1      31.301  26.036  25.252  1.00  0.00     0.081 A 
ATOM     17  S   UNL A   1      31.221  24.082  23.528  1.00  0.00    -0.035 S 
ATOM     18  C   UNL A   1      31.360  24.779  26.034  1.00  0.00     0.270 A 
ATOM     19  O   UNL A   1      31.463  24.763  27.252  1.00  0.00    -0.268 OA
ENDBRANCH   7   8
ENDBRANCH   6   7
ENDBRANCH   5   6
ENDBRANCH   3   5
ENDBRANCH   2   3
ENDBRANCH   1   2
BRANCH   1  20
ATOM     20  C   UNL A   1      37.706  21.352  25.123  1.00  0.00     0.275 C 
BRANCH  20  21
ATOM     21  O   UNL A   1      38.004  22.369  26.073  1.00  0.00    -0.458 OA
BRANCH  21  22
ATOM     22  C   UNL A   1      39.241  22.289  26.611  1.00  0.00     0.338 C 
ATOM     23  O   UNL A   1      39.812  21.292  27.020  1.00  0.00    -0.246 OA
BRANCH  22  24
ATOM     24  C   UNL A   1      39.785  23.632  26.775  1.00  0.00     0.060 A 
ATOM     25  C   UNL A   1      41.092  23.753  27.258  1.00  0.00     0.016 A 
ATOM     26  C   UNL A   1      38.899  24.714  26.719  1.00  0.00     0.016 A 
ATOM     27  C   UNL A   1      41.463  24.942  27.845  1.00  0.00     0.010 A 
ATOM     28  C   UNL A   1      39.264  25.891  27.318  1.00  0.00     0.010 A 
ATOM     29  C   UNL A   1      40.511  25.961  27.937  1.00  0.00    -0.014 A 
BRANCH  29  30
ATOM     30  C   UNL A   1      40.843  27.143  28.698  1.00  0.00     0.031 A 
ATOM     31  C   UNL A   1      41.946  27.947  28.137  1.00  0.00     0.074 A 
ATOM     32  C   UNL A   1      40.080  27.547  29.729  1.00  0.00     0.049 A 
ATOM     33  N   UNL A   1      43.085  28.208  28.682  1.00  0.00    -0.248 NA
ATOM     34  C   UNL A   1      41.813  28.416  26.750  1.00  0.00     0.031 C 
ATOM     35  C   UNL A   1      38.789  27.004  30.161  1.00  0.00     0.029 A 
ATOM     36  N   UNL A   1      40.234  28.647  30.509  1.00  0.00    -0.354 N 
ATOM     37  C   UNL A   1      43.749  29.035  27.784  1.00  0.00     0.074 A 
ATOM     38  C   UNL A   1      42.997  28.993  26.556  1.00  0.00     0.031 C 
ATOM     39  C   UNL A   1      38.168  27.924  30.932  1.00  0.00     0.029 A 
ATOM     40  C   UNL A   1      39.064  29.052  31.135  1.00  0.00     0.049 A 
ATOM     41  H   UNL A   1      41.094  29.114  30.620  1.00  0.00     0.167 HD
ATOM     42  C   UNL A   1      44.742  29.875  28.181  1.00  0.00     0.031 A 
ATOM     43  C   UNL A   1      38.828  30.277  31.665  1.00  0.00     0.031 A 
ATOM     44  C   UNL A   1      45.215  29.570  29.505  1.00  0.00     0.049 A 
ATOM     45  C   UNL A   1      40.151  30.914  31.910  1.00  0.00     0.074 A 
ATOM     46  C   UNL A   1      45.780  28.458  30.097  1.00  0.00     0.029 A 
ATOM     47  N   UNL A   1      44.774  30.370  30.534  1.00  0.00    -0.354 N 
ATOM     48  N   UNL A   1      41.014  30.469  32.783  1.00  0.00    -0.248 NA
ATOM     49  C   UNL A   1      40.712  31.773  30.876  1.00  0.00     0.031 C 
ATOM     50  C   UNL A   1      45.230  28.422  31.410  1.00  0.00     0.029 A 
ATOM     51  C   UNL A   1      44.404  29.538  31.561  1.00  0.00     0.049 A 
ATOM     52  H   UNL A   1      44.732  31.353  30.534  1.00  0.00     0.167 HD
ATOM     53  C   UNL A   1      42.255  30.629  32.180  1.00  0.00     0.074 A 
ATOM     54  C   UNL A   1      42.015  31.535  31.060  1.00  0.00     0.031 C 
ATOM     55  C   UNL A   1      43.300  29.795  32.464  1.00  0.00     0.031 A 
BRANCH  42  56
ATOM     56  C   UNL A   1      45.009  31.201  27.525  1.00  0.00    -0.014 A 
ATOM     57  C   UNL A   1      46.298  31.461  27.023  1.00  0.00     0.010 A 
ATOM     58  C   UNL A   1      44.127  32.296  27.645  1.00  0.00     0.010 A 
ATOM     59  C   UNL A   1      46.708  32.768  26.731  1.00  0.00     0.020 A 
ATOM     60  C   UNL A   1      44.509  33.593  27.311  1.00  0.00     0.020 A 
ATOM     61  C   UNL A   1      45.813  33.826  26.898  1.00  0.00     0.054 A 
BRANCH  61  62
ATOM     62  S   UNL A   1      46.395  35.522  26.664  1.00  0.00     0.124 S 
ATOM     63  O   UNL A   1      45.148  36.228  26.385  1.00  0.00    -0.237 OA
ATOM     64  O   UNL A   1      47.017  35.817  27.951  1.00  0.00    -0.237 OA
ATOM     65  O   UNL A   1      47.321  35.414  25.539  1.00  0.00    -0.744 OA
ENDBRANCH  61  62
ENDBRANCH  42  56
BRANCH  43  66
ATOM     66  C   UNL A   1      37.544  31.026  31.626  1.00  0.00    -0.014 A 
ATOM     67  C   UNL A   1      36.756  31.177  32.781  1.00  0.00     0.010 A 
ATOM     68  C   UNL A   1      37.205  31.812  30.503  1.00  0.00     0.010 A 
ATOM     69  C   UNL A   1      35.709  32.117  32.825  1.00  0.00     0.020 A 
ATOM     70  C   UNL A   1      36.155  32.735  30.532  1.00  0.00     0.020 A 
ATOM     71  C   UNL A   1      35.428  32.904  31.705  1.00  0.00     0.054 A 
BRANCH  71  72
ATOM     72  S   UNL A   1      34.191  34.229  31.821  1.00  0.00     0.124 S 
ATOM     73  O   UNL A   1      33.686  34.306  30.454  1.00  0.00    -0.237 OA
ATOM     74  O   UNL A   1      33.259  33.702  32.813  1.00  0.00    -0.237 OA
ATOM     75  O   UNL A   1      34.968  35.387  32.262  1.00  0.00    -0.744 OA
ENDBRANCH  71  72
ENDBRANCH  43  66
BRANCH  55  76
ATOM     76  C   UNL A   1      43.188  28.857  33.646  1.00  0.00    -0.014 A 
ATOM     77  C   UNL A   1      43.609  29.199  34.946  1.00  0.00     0.010 A 
ATOM     78  C   UNL A   1      42.450  27.671  33.472  1.00  0.00     0.010 A 
ATOM     79  C   UNL A   1      43.311  28.370  36.038  1.00  0.00     0.020 A 
ATOM     80  C   UNL A   1      42.135  26.851  34.558  1.00  0.00     0.020 A 
ATOM     81  C   UNL A   1      42.570  27.203  35.837  1.00  0.00     0.054 A 
BRANCH  81  82
ATOM     82  S   UNL A   1      42.120  26.179  37.267  1.00  0.00     0.124 S 
ATOM     83  O   UNL A   1      40.782  26.661  37.596  1.00  0.00    -0.237 OA
ATOM     84  O   UNL A   1      42.185  24.823  36.727  1.00  0.00    -0.237 OA
ATOM     85  O   UNL A   1      43.150  26.492  38.258  1.00  0.00    -0.744 OA
ENDBRANCH  81  82
ENDBRANCH  55  76
ENDBRANCH  29  30
ENDBRANCH  22  24
ENDBRANCH  21  22
ENDBRANCH  20  21
ENDBRANCH   1  20
TORSDOF 17
ENDMDL
MODEL 2
REMARK VINA RESULT:     -11.3      2.826      9.361
REMARK SMILES Cc1cc(C)c2c(=O)n(CCCC(=O)OCCOC(=O)c3ccc(-c4c5nc(c(-c6ccc(S(=O)(=O)[O-])cc6)c6ccc([nH]6)c(-c6ccc(S(=O)(=O)[O-])cc6)c6nc(c(-c7ccc(S(=O)(=O)[O-])cc7)c7ccc4[nH]7)C=C6)C=C5)cc3)sc2n1
REMARK SMILES IDX 16 1 15 2 13 3 14 4 12 5 11 6 10 7 9 8 1 9 2 10 3 11 83 12
REMARK SMILES IDX 4 13 82 14 5 15 6 16 81 17 7 18 8 19 17 20 18 21 19 22 20 23
REMARK SMILES IDX 21 24 22 25 80 26 23 27 79 28 24 29 25 30 26 31 73 32 27 33
REMARK SMILES IDX 78 34 72 35 74 36 28 37 77 38 71 39 70 40 29 42 59 43 40 44
REMARK SMILES IDX 58 45 41 46 44 47 57 48 75 49 42 50 43 51 56 53 76 54 45 55
REMARK SMILES IDX 30 56 31 57 39 58 32 59 38 60 33 61 34 62 35 63 36 64 37 65
REMARK SMILES IDX 60 66 61 67 69 68 62 69 68 70 63 71 64 72 65 73 66 74 67 75
REMARK SMILES IDX 46 76 47 77 55 78 48 79 54 80 49 81 50 82 51 83 52 84 53 85
REMARK H PARENT 74 41 44 52
REMARK Flexibility Score: inf
ROOT
ATOM      1  C   UNL A   1      31.871  30.285  25.960  1.00  0.00     0.274 C 
ENDROOT
BRANCH   1   2
ATOM      2  O   UNL A   1      31.807  29.036  25.252  1.00  0.00    -0.462 OA
BRANCH   2   3
ATOM      3  C   UNL A   1      30.893  28.883  24.266  1.00  0.00     0.305 C 
ATOM      4  O   UNL A   1      30.124  29.762  23.895  1.00  0.00    -0.252 OA
BRANCH   3   5
ATOM      5  C   UNL A   1      30.850  27.468  23.710  1.00  0.00     0.124 C 
BRANCH   5   6
ATOM      6  C   UNL A   1      30.112  26.353  24.467  1.00  0.00     0.035 C 
BRANCH   6   7
ATOM      7  C   UNL A   1      30.688  25.812  25.786  1.00  0.00     0.139 C 
BRANCH   7   8
ATOM      8  N   UNL A   1      31.361  24.525  25.676  1.00  0.00    -0.262 N 
ATOM      9  C   UNL A   1      32.534  18.717  24.384  1.00  0.00     0.067 C 
ATOM     10  C   UNL A   1      32.730  20.179  24.637  1.00  0.00     0.039 A 
ATOM     11  C   UNL A   1      33.872  20.862  24.194  1.00  0.00     0.027 A 
ATOM     12  N   UNL A   1      31.726  20.790  25.296  1.00  0.00    -0.241 NA
ATOM     13  C   UNL A   1      33.972  22.254  24.367  1.00  0.00    -0.033 A 
ATOM     14  C   UNL A   1      31.845  22.118  25.429  1.00  0.00     0.146 A 
ATOM     15  C   UNL A   1      35.189  23.009  23.937  1.00  0.00     0.045 C 
ATOM     16  C   UNL A   1      32.886  22.889  24.950  1.00  0.00     0.081 A 
ATOM     17  S   UNL A   1      30.633  23.085  26.247  1.00  0.00    -0.035 S 
ATOM     18  C   UNL A   1      32.603  24.336  25.089  1.00  0.00     0.270 A 
ATOM     19  O   UNL A   1      33.361  25.200  24.674  1.00  0.00    -0.268 OA
ENDBRANCH   7   8
ENDBRANCH   6   7
ENDBRANCH   5   6
ENDBRANCH   3   5
ENDBRANCH   2   3
ENDBRANCH   1   2
BRANCH   1  20
ATOM     20  C   UNL A   1      32.746  30.131  27.191  1.00  0.00     0.275 C 
BRANCH  20  21
ATOM     21  O   UNL A   1      34.113  30.327  26.844  1.00  0.00    -0.458 OA
BRANCH  21  22
ATOM     22  C   UNL A   1      34.737  31.300  27.546  1.00  0.00     0.338 C 
ATOM     23  O   UNL A   1      34.543  32.502  27.486  1.00  0.00    -0.246 OA
BRANCH  22  24
ATOM     24  C   UNL A   1      35.819  30.714  28.327  1.00  0.00     0.060 A 
ATOM     25  C   UNL A   1      36.593  31.572  29.117  1.00  0.00     0.016 A 
ATOM     26  C   UNL A   1      36.208  29.401  28.037  1.00  0.00     0.016 A 
ATOM     27  C   UNL A   1      37.854  31.158  29.484  1.00  0.00     0.010 A 
ATOM     28  C   UNL A   1      37.468  28.998  28.390  1.00  0.00     0.010 A 
ATOM     29  C   UNL A   1      38.298  29.909  29.042  1.00  0.00    -0.014 A 
BRANCH  29  30
ATOM     30  C   UNL A   1      39.674  29.545  29.283  1.00  0.00     0.031 A 
ATOM     31  C   UNL A   1      40.010  29.312  30.702  1.00  0.00     0.074 A 
ATOM     32  C   UNL A   1      40.514  29.276  28.269  1.00  0.00     0.049 A 
ATOM     33  N   UNL A   1      40.855  29.962  31.427  1.00  0.00    -0.248 NA
ATOM     34  C   UNL A   1      39.221  28.312  31.436  1.00  0.00     0.031 C 
ATOM     35  C   UNL A   1      40.196  29.162  26.843  1.00  0.00     0.029 A 
ATOM     36  N   UNL A   1      41.813  28.884  28.332  1.00  0.00    -0.354 N 
ATOM     37  C   UNL A   1      40.845  29.336  32.666  1.00  0.00     0.074 A 
ATOM     38  C   UNL A   1      39.713  28.444  32.666  1.00  0.00     0.031 C 
ATOM     39  C   UNL A   1      41.190  28.483  26.229  1.00  0.00     0.029 A 
ATOM     40  C   UNL A   1      42.249  28.226  27.192  1.00  0.00     0.049 A 
ATOM     41  H   UNL A   1      42.389  29.051  29.112  1.00  0.00     0.167 HD
ATOM     42  C   UNL A   1      41.897  29.422  33.523  1.00  0.00     0.031 A 
ATOM     43  C   UNL A   1      43.342  27.427  27.103  1.00  0.00     0.031 A 
ATOM     44  C   UNL A   1      42.822  30.458  33.146  1.00  0.00     0.049 A 
ATOM     45  C   UNL A   1      44.235  27.775  28.243  1.00  0.00     0.074 A 
ATOM     46  C   UNL A   1      42.723  31.823  32.968  1.00  0.00     0.029 A 
ATOM     47  N   UNL A   1      43.980  30.072  32.512  1.00  0.00    -0.354 N 
ATOM     48  N   UNL A   1      44.828  28.932  28.366  1.00  0.00    -0.248 NA
ATOM     49  C   UNL A   1      44.118  27.011  29.478  1.00  0.00     0.031 C 
ATOM     50  C   UNL A   1      43.556  32.109  31.850  1.00  0.00     0.029 A 
ATOM     51  C   UNL A   1      44.154  30.915  31.443  1.00  0.00     0.049 A 
ATOM     52  H   UNL A   1      44.572  29.331  32.775  1.00  0.00     0.167 HD
ATOM     53  C   UNL A   1      44.771  29.226  29.722  1.00  0.00     0.074 A 
ATOM     54  C   UNL A   1      44.425  27.962  30.367  1.00  0.00     0.031 C 
ATOM     55  C   UNL A   1      44.727  30.516  30.172  1.00  0.00     0.031 A 
BRANCH  42  56
ATOM     56  C   UNL A   1      42.280  28.320  34.471  1.00  0.00    -0.014 A 
ATOM     57  C   UNL A   1      42.642  28.655  35.790  1.00  0.00     0.010 A 
ATOM     58  C   UNL A   1      42.571  27.011  34.031  1.00  0.00     0.010 A 
ATOM     59  C   UNL A   1      43.335  27.747  36.599  1.00  0.00     0.020 A 
ATOM     60  C   UNL A   1      43.217  26.083  34.846  1.00  0.00     0.020 A 
ATOM     61  C   UNL A   1      43.634  26.474  36.111  1.00  0.00     0.054 A 
BRANCH  61  62
ATOM     62  S   UNL A   1      44.658  25.363  37.104  1.00  0.00     0.124 S 
ATOM     63  O   UNL A   1      46.000  25.866  36.825  1.00  0.00    -0.237 OA
ATOM     64  O   UNL A   1      44.158  25.604  38.455  1.00  0.00    -0.237 OA
ATOM     65  O   UNL A   1      44.357  24.041  36.560  1.00  0.00    -0.744 OA
ENDBRANCH  61  62
ENDBRANCH  42  56
BRANCH  43  66
ATOM     66  C   UNL A   1      43.462  26.175  26.312  1.00  0.00    -0.014 A 
ATOM     67  C   UNL A   1      44.556  25.960  25.454  1.00  0.00     0.010 A 
ATOM     68  C   UNL A   1      42.624  25.071  26.582  1.00  0.00     0.010 A 
ATOM     69  C   UNL A   1      44.829  24.680  24.936  1.00  0.00     0.020 A 
ATOM     70  C   UNL A   1      42.877  23.800  26.057  1.00  0.00     0.020 A 
ATOM     71  C   UNL A   1      43.997  23.604  25.257  1.00  0.00     0.054 A 
BRANCH  71  72
ATOM     72  S   UNL A   1      44.449  21.927  24.726  1.00  0.00     0.124 S 
ATOM     73  O   UNL A   1      45.714  21.709  25.421  1.00  0.00    -0.237 OA
ATOM     74  O   UNL A   1      43.319  21.132  25.200  1.00  0.00    -0.237 OA
ATOM     75  O   UNL A   1      44.552  22.042  23.271  1.00  0.00    -0.744 OA
ENDBRANCH  71  72
ENDBRANCH  43  66
BRANCH  55  76
ATOM     76  C   UNL A   1      45.015  31.640  29.201  1.00  0.00    -0.014 A 
ATOM     77  C   UNL A   1      46.283  32.239  29.068  1.00  0.00     0.010 A 
ATOM     78  C   UNL A   1      44.021  31.961  28.257  1.00  0.00     0.010 A 
ATOM     79  C   UNL A   1      46.544  33.143  28.027  1.00  0.00     0.020 A 
ATOM     80  C   UNL A   1      44.281  32.846  27.208  1.00  0.00     0.020 A 
ATOM     81  C   UNL A   1      45.541  33.436  27.099  1.00  0.00     0.054 A 
BRANCH  81  82
ATOM     82  S   UNL A   1      45.912  34.543  25.710  1.00  0.00     0.124 S 
ATOM     83  O   UNL A   1      44.995  34.074  24.675  1.00  0.00    -0.237 OA
ATOM     84  O   UNL A   1      45.617  35.864  26.260  1.00  0.00    -0.237 OA
ATOM     85  O   UNL A   1      47.328  34.298  25.437  1.00  0.00    -0.744 OA
ENDBRANCH  81  82
ENDBRANCH  55  76
ENDBRANCH  29  30
ENDBRANCH  22  24
ENDBRANCH  21  22
ENDBRANCH  20  21
ENDBRANCH   1  20
TORSDOF 17
ENDMDL
MODEL 3
REMARK VINA RESULT:     -11.2      3.099      9.107
REMARK SMILES Cc1cc(C)c2c(=O)n(CCCC(=O)OCCOC(=O)c3ccc(-c4c5nc(c(-c6ccc(S(=O)(=O)[O-])cc6)c6ccc([nH]6)c(-c6ccc(S(=O)(=O)[O-])cc6)c6nc(c(-c7ccc(S(=O)(=O)[O-])cc7)c7ccc4[nH]7)C=C6)C=C5)cc3)sc2n1
REMARK SMILES IDX 16 1 15 2 13 3 14 4 12 5 11 6 10 7 9 8 1 9 2 10 3 11 83 12
REMARK SMILES IDX 4 13 82 14 5 15 6 16 81 17 7 18 8 19 17 20 18 21 19 22 20 23
REMARK SMILES IDX 21 24 22 25 80 26 23 27 79 28 24 29 25 30 26 31 73 32 27 33
REMARK SMILES IDX 78 34 72 35 74 36 28 37 77 38 71 39 70 40 29 42 59 43 40 44
REMARK SMILES IDX 58 45 41 46 44 47 57 48 75 49 42 50 43 51 56 53 76 54 45 55
REMARK SMILES IDX 30 56 31 57 39 58 32 59 38 60 33 61 34 62 35 63 36 64 37 65
REMARK SMILES IDX 60 66 61 67 69 68 62 69 68 70 63 71 64 72 65 73 66 74 67 75
REMARK SMILES IDX 46 76 47 77 55 78 48 79 54 80 49 81 50 82 51 83 52 84 53 85
REMARK H PARENT 74 41 44 52
REMARK Flexibility Score: inf
ROOT
ATOM      1  C   UNL A   1      32.430  28.832  27.462  1.00  0.00     0.274 C 
ENDROOT
BRANCH   1   2
ATOM      2  O   UNL A   1      32.965  27.640  26.866  1.00  0.00    -0.462 OA
BRANCH   2   3
ATOM      3  C   UNL A   1      32.116  26.673  26.447  1.00  0.00     0.305 C 
ATOM      4  O   UNL A   1      30.933  26.608  26.763  1.00  0.00    -0.252 OA
BRANCH   3   5
ATOM      5  C   UNL A   1      32.798  25.609  25.601  1.00  0.00     0.124 C 
BRANCH   5   6
ATOM      6  C   UNL A   1      32.911  25.777  24.078  1.00  0.00     0.035 C 
BRANCH   6   7
ATOM      7  C   UNL A   1      31.651  25.682  23.202  1.00  0.00     0.139 C 
BRANCH   7   8
ATOM      8  N   UNL A   1      30.872  26.910  23.120  1.00  0.00    -0.262 N 
ATOM      9  C   UNL A   1      28.340  32.012  21.037  1.00  0.00     0.067 C 
ATOM     10  C   UNL A   1      28.548  30.748  21.810  1.00  0.00     0.039 A 
ATOM     11  C   UNL A   1      27.482  30.061  22.410  1.00  0.00     0.027 A 
ATOM     12  N   UNL A   1      29.821  30.310  21.867  1.00  0.00    -0.241 NA
ATOM     13  C   UNL A   1      27.708  28.826  23.044  1.00  0.00    -0.033 A 
ATOM     14  C   UNL A   1      29.998  29.122  22.464  1.00  0.00     0.146 A 
ATOM     15  C   UNL A   1      26.601  28.083  23.723  1.00  0.00     0.045 C 
ATOM     16  C   UNL A   1      29.003  28.332  23.004  1.00  0.00     0.081 A 
ATOM     17  S   UNL A   1      31.581  28.387  22.623  1.00  0.00    -0.035 S 
ATOM     18  C   UNL A   1      29.516  27.000  23.396  1.00  0.00     0.270 A 
ATOM     19  O   UNL A   1      28.795  26.118  23.839  1.00  0.00    -0.268 OA
ENDBRANCH   7   8
ENDBRANCH   6   7
ENDBRANCH   5   6
ENDBRANCH   3   5
ENDBRANCH   2   3
ENDBRANCH   1   2
BRANCH   1  20
ATOM     20  C   UNL A   1      32.925  30.051  26.704  1.00  0.00     0.275 C 
BRANCH  20  21
ATOM     21  O   UNL A   1      34.337  30.172  26.844  1.00  0.00    -0.458 OA
BRANCH  21  22
ATOM     22  C   UNL A   1      34.735  31.169  27.665  1.00  0.00     0.338 C 
ATOM     23  O   UNL A   1      34.327  32.317  27.693  1.00  0.00    -0.246 OA
BRANCH  22  24
ATOM     24  C   UNL A   1      35.867  30.715  28.464  1.00  0.00     0.060 A 
ATOM     25  C   UNL A   1      36.763  31.680  28.935  1.00  0.00     0.016 A 
ATOM     26  C   UNL A   1      36.157  29.346  28.480  1.00  0.00     0.016 A 
ATOM     27  C   UNL A   1      38.035  31.277  29.275  1.00  0.00     0.010 A 
ATOM     28  C   UNL A   1      37.427  28.949  28.804  1.00  0.00     0.010 A 
ATOM     29  C   UNL A   1      38.367  29.928  29.123  1.00  0.00    -0.014 A 
BRANCH  29  30
ATOM     30  C   UNL A   1      39.742  29.533  29.318  1.00  0.00     0.031 A 
ATOM     31  C   UNL A   1      40.149  29.394  30.730  1.00  0.00     0.074 A 
ATOM     32  C   UNL A   1      40.516  29.160  28.284  1.00  0.00     0.049 A 
ATOM     33  N   UNL A   1      41.052  30.065  31.359  1.00  0.00    -0.248 NA
ATOM     34  C   UNL A   1      39.369  28.480  31.579  1.00  0.00     0.031 C 
ATOM     35  C   UNL A   1      40.115  28.953  26.889  1.00  0.00     0.029 A 
ATOM     36  N   UNL A   1      41.802  28.727  28.308  1.00  0.00    -0.354 N 
ATOM     37  C   UNL A   1      41.091  29.532  32.641  1.00  0.00     0.074 A 
ATOM     38  C   UNL A   1      39.933  28.684  32.768  1.00  0.00     0.031 C 
ATOM     39  C   UNL A   1      41.051  28.195  26.278  1.00  0.00     0.029 A 
ATOM     40  C   UNL A   1      42.153  27.971  27.200  1.00  0.00     0.049 A 
ATOM     41  H   UNL A   1      42.425  28.930  29.042  1.00  0.00     0.167 HD
ATOM     42  C   UNL A   1      42.191  29.644  33.432  1.00  0.00     0.031 A 
ATOM     43  C   UNL A   1      43.213  27.129  27.114  1.00  0.00     0.031 A 
ATOM     44  C   UNL A   1      43.126  30.614  32.930  1.00  0.00     0.049 A 
ATOM     45  C   UNL A   1      44.178  27.528  28.175  1.00  0.00     0.074 A 
ATOM     46  C   UNL A   1      43.062  31.965  32.654  1.00  0.00     0.029 A 
ATOM     47  N   UNL A   1      44.234  30.141  32.266  1.00  0.00    -0.354 N 
ATOM     48  N   UNL A   1      44.814  28.668  28.179  1.00  0.00    -0.248 NA
ATOM     49  C   UNL A   1      44.105  26.861  29.469  1.00  0.00     0.031 C 
ATOM     50  C   UNL A   1      43.841  32.138  31.475  1.00  0.00     0.029 A 
ATOM     51  C   UNL A   1      44.377  30.895  31.128  1.00  0.00     0.049 A 
ATOM     52  H   UNL A   1      44.816  29.400  32.553  1.00  0.00     0.167 HD
ATOM     53  C   UNL A   1      44.842  29.063  29.510  1.00  0.00     0.074 A 
ATOM     54  C   UNL A   1      44.491  27.863  30.266  1.00  0.00     0.031 C 
ATOM     55  C   UNL A   1      44.865  30.384  29.863  1.00  0.00     0.031 A 
BRANCH  42  56
ATOM     56  C   UNL A   1      42.590  28.600  34.439  1.00  0.00    -0.014 A 
ATOM     57  C   UNL A   1      43.304  29.002  35.584  1.00  0.00     0.010 A 
ATOM     58  C   UNL A   1      42.540  27.219  34.158  1.00  0.00     0.010 A 
ATOM     59  C   UNL A   1      44.001  28.070  36.362  1.00  0.00     0.020 A 
ATOM     60  C   UNL A   1      43.189  26.278  34.954  1.00  0.00     0.020 A 
ATOM     61  C   UNL A   1      43.953  26.716  36.027  1.00  0.00     0.054 A 
BRANCH  61  62
ATOM     62  S   UNL A   1      44.974  25.540  36.945  1.00  0.00     0.124 S 
ATOM     63  O   UNL A   1      45.232  24.518  35.935  1.00  0.00    -0.237 OA
ATOM     64  O   UNL A   1      46.122  26.358  37.328  1.00  0.00    -0.237 OA
ATOM     65  O   UNL A   1      44.113  25.128  38.051  1.00  0.00    -0.744 OA
ENDBRANCH  61  62
ENDBRANCH  42  56
BRANCH  43  66
ATOM     66  C   UNL A   1      43.249  25.818  26.415  1.00  0.00    -0.014 A 
ATOM     67  C   UNL A   1      44.085  25.610  25.302  1.00  0.00     0.010 A 
ATOM     68  C   UNL A   1      42.640  24.680  26.989  1.00  0.00     0.010 A 
ATOM     69  C   UNL A   1      44.344  24.313  24.823  1.00  0.00     0.020 A 
ATOM     70  C   UNL A   1      42.878  23.389  26.508  1.00  0.00     0.020 A 
ATOM     71  C   UNL A   1      43.753  23.208  25.443  1.00  0.00     0.054 A 
BRANCH  71  72
ATOM     72  S   UNL A   1      44.222  21.530  24.930  1.00  0.00     0.124 S 
ATOM     73  O   UNL A   1      44.381  21.677  23.487  1.00  0.00    -0.237 OA
ATOM     74  O   UNL A   1      45.452  21.303  25.685  1.00  0.00    -0.237 OA
ATOM     75  O   UNL A   1      43.084  20.711  25.349  1.00  0.00    -0.744 OA
ENDBRANCH  71  72
ENDBRANCH  43  66
BRANCH  55  76
ATOM     76  C   UNL A   1      45.135  31.422  28.796  1.00  0.00    -0.014 A 
ATOM     77  C   UNL A   1      44.146  31.897  27.914  1.00  0.00     0.010 A 
ATOM     78  C   UNL A   1      46.381  32.077  28.822  1.00  0.00     0.010 A 
ATOM     79  C   UNL A   1      44.401  32.990  27.072  1.00  0.00     0.020 A 
ATOM     80  C   UNL A   1      46.634  33.178  28.000  1.00  0.00     0.020 A 
ATOM     81  C   UNL A   1      45.644  33.628  27.125  1.00  0.00     0.054 A 
BRANCH  81  82
ATOM     82  S   UNL A   1      45.937  35.091  26.091  1.00  0.00     0.124 S 
ATOM     83  O   UNL A   1      45.562  34.620  24.761  1.00  0.00    -0.237 OA
ATOM     84  O   UNL A   1      45.046  36.088  26.680  1.00  0.00    -0.237 OA
ATOM     85  O   UNL A   1      47.363  35.364  26.270  1.00  0.00    -0.744 OA
ENDBRANCH  81  82
ENDBRANCH  55  76
ENDBRANCH  29  30
ENDBRANCH  22  24
ENDBRANCH  21  22
ENDBRANCH  20  21
ENDBRANCH   1  20
TORSDOF 17
ENDMDL
