MODEL 1
REMARK VINA RESULT:     -10.5      0.000      0.000
REMARK SMILES O=C(OCCOC(=O)[C@H]1CCCN(C(=O)CCOc2ccc(F)cc2)C1)c1ccc(-c2c3nc(c(-c4ccc(S(=O)(=O)[O-])cc4)c4ccc([nH]4)c(-c4ccc(S(=O)(=O)[O-])cc4)c4nc(c(-c5ccc(S(=O)(=O)[O-])cc5)c5ccc2[nH]5)C=C4)C=C3)cc1
REMARK SMILES IDX 5 1 4 2 3 3 2 4 1 5 27 6 28 7 86 8 29 9 85 10 30 11 31 12
REMARK SMILES IDX 32 13 79 14 33 15 84 16 78 17 80 18 34 19 83 20 77 21 76 22
REMARK SMILES IDX 35 24 65 25 46 26 64 27 47 28 50 29 63 30 81 31 48 32 49 33
REMARK SMILES IDX 62 35 82 36 51 37 36 38 37 39 45 40 38 41 44 42 39 43 40 44
REMARK SMILES IDX 41 45 42 46 43 47 66 48 67 49 75 50 68 51 74 52 69 53 70 54
REMARK SMILES IDX 71 55 72 56 73 57 52 58 53 59 61 60 54 61 60 62 55 63 56 64
REMARK SMILES IDX 57 65 58 66 59 67 6 68 7 69 8 70 9 71 10 72 26 73 11 74
REMARK SMILES IDX 13 75 12 76 14 77 15 78 16 79 17 80 18 81 19 82 20 83 25 84
REMARK SMILES IDX 21 85 24 86 22 87 23 88
REMARK H PARENT 80 23 50 34
REMARK Flexibility Score: inf
ROOT
ATOM      1  C   UNL A   1      32.739  30.575  27.145  1.00  0.00     0.274 C 
ENDROOT
BRANCH   1   2
ATOM      2  C   UNL A   1      33.713  31.735  27.420  1.00  0.00     0.275 C 
BRANCH   2   3
ATOM      3  O   UNL A   1      33.151  32.956  27.923  1.00  0.00    -0.458 OA
BRANCH   3   4
ATOM      4  C   UNL A   1      33.718  33.863  28.753  1.00  0.00     0.338 C 
ATOM      5  O   UNL A   1      33.414  35.050  28.656  1.00  0.00    -0.246 OA
BRANCH   4   6
ATOM      6  C   UNL A   1      34.844  33.493  29.654  1.00  0.00     0.060 A 
ATOM      7  C   UNL A   1      34.748  32.735  30.823  1.00  0.00     0.016 A 
ATOM      8  C   UNL A   1      36.108  33.933  29.254  1.00  0.00     0.016 A 
ATOM      9  C   UNL A   1      35.897  32.266  31.471  1.00  0.00     0.010 A 
ATOM     10  C   UNL A   1      37.252  33.437  29.876  1.00  0.00     0.010 A 
ATOM     11  C   UNL A   1      37.165  32.564  30.971  1.00  0.00    -0.014 A 
BRANCH  11  12
ATOM     12  C   UNL A   1      38.398  32.031  31.611  1.00  0.00     0.031 A 
ATOM     13  C   UNL A   1      38.918  32.724  32.842  1.00  0.00     0.074 A 
ATOM     14  C   UNL A   1      39.076  30.983  31.086  1.00  0.00     0.049 A 
ATOM     15  N   UNL A   1      39.968  32.442  33.568  1.00  0.00    -0.248 NA
ATOM     16  C   UNL A   1      38.160  33.896  33.325  1.00  0.00     0.031 C 
ATOM     17  C   UNL A   1      38.733  30.258  29.857  1.00  0.00     0.029 A 
ATOM     18  N   UNL A   1      40.245  30.381  31.490  1.00  0.00    -0.354 N 
ATOM     19  C   UNL A   1      39.943  33.354  34.613  1.00  0.00     0.074 A 
ATOM     20  C   UNL A   1      38.910  34.318  34.326  1.00  0.00     0.031 C 
ATOM     21  C   UNL A   1      39.718  29.391  29.556  1.00  0.00     0.029 A 
ATOM     22  C   UNL A   1      40.739  29.457  30.592  1.00  0.00     0.049 A 
ATOM     23  H   UNL A   1      40.689  30.589  32.345  1.00  0.00     0.167 HD
ATOM     24  C   UNL A   1      40.613  33.311  35.784  1.00  0.00     0.031 A 
ATOM     25  C   UNL A   1      41.887  28.749  30.609  1.00  0.00     0.031 A 
ATOM     26  C   UNL A   1      41.627  32.346  36.077  1.00  0.00     0.049 A 
ATOM     27  C   UNL A   1      42.739  28.816  31.853  1.00  0.00     0.074 A 
ATOM     28  C   UNL A   1      42.335  32.162  37.248  1.00  0.00     0.029 A 
ATOM     29  N   UNL A   1      42.080  31.398  35.171  1.00  0.00    -0.354 N 
ATOM     30  N   UNL A   1      42.587  29.567  32.918  1.00  0.00    -0.248 NA
ATOM     31  C   UNL A   1      43.867  27.877  31.936  1.00  0.00     0.031 C 
ATOM     32  C   UNL A   1      43.254  31.129  37.034  1.00  0.00     0.029 A 
ATOM     33  C   UNL A   1      43.077  30.638  35.749  1.00  0.00     0.049 A 
ATOM     34  H   UNL A   1      41.741  31.286  34.254  1.00  0.00     0.167 HD
ATOM     35  C   UNL A   1      43.545  29.135  33.827  1.00  0.00     0.074 A 
ATOM     36  C   UNL A   1      44.281  28.067  33.180  1.00  0.00     0.031 C 
ATOM     37  C   UNL A   1      43.777  29.563  35.093  1.00  0.00     0.031 A 
BRANCH  24  38
ATOM     38  C   UNL A   1      40.161  34.277  36.842  1.00  0.00    -0.014 A 
ATOM     39  C   UNL A   1      40.729  35.567  36.894  1.00  0.00     0.010 A 
ATOM     40  C   UNL A   1      39.214  33.904  37.808  1.00  0.00     0.010 A 
ATOM     41  C   UNL A   1      40.405  36.446  37.925  1.00  0.00     0.020 A 
ATOM     42  C   UNL A   1      38.862  34.796  38.826  1.00  0.00     0.020 A 
ATOM     43  C   UNL A   1      39.474  36.052  38.888  1.00  0.00     0.054 A 
BRANCH  43  44
ATOM     44  S   UNL A   1      39.064  37.220  40.212  1.00  0.00     0.124 S 
ATOM     45  O   UNL A   1      38.304  36.378  41.133  1.00  0.00    -0.237 OA
ATOM     46  O   UNL A   1      40.381  37.638  40.686  1.00  0.00    -0.237 OA
ATOM     47  O   UNL A   1      38.290  38.256  39.533  1.00  0.00    -0.744 OA
ENDBRANCH  43  44
ENDBRANCH  24  38
BRANCH  25  48
ATOM     48  C   UNL A   1      42.278  27.859  29.475  1.00  0.00    -0.014 A 
ATOM     49  C   UNL A   1      43.173  28.303  28.483  1.00  0.00     0.010 A 
ATOM     50  C   UNL A   1      41.695  26.586  29.336  1.00  0.00     0.010 A 
ATOM     51  C   UNL A   1      43.429  27.522  27.349  1.00  0.00     0.020 A 
ATOM     52  C   UNL A   1      41.965  25.791  28.212  1.00  0.00     0.020 A 
ATOM     53  C   UNL A   1      42.815  26.275  27.215  1.00  0.00     0.054 A 
BRANCH  53  54
ATOM     54  S   UNL A   1      43.149  25.293  25.722  1.00  0.00     0.124 S 
ATOM     55  O   UNL A   1      44.598  25.413  25.594  1.00  0.00    -0.237 OA
ATOM     56  O   UNL A   1      42.656  23.970  26.100  1.00  0.00    -0.237 OA
ATOM     57  O   UNL A   1      42.372  25.967  24.684  1.00  0.00    -0.744 OA
ENDBRANCH  53  54
ENDBRANCH  25  48
BRANCH  37  58
ATOM     58  C   UNL A   1      44.814  28.827  35.893  1.00  0.00    -0.014 A 
ATOM     59  C   UNL A   1      44.493  27.673  36.626  1.00  0.00     0.010 A 
ATOM     60  C   UNL A   1      46.149  29.271  35.850  1.00  0.00     0.010 A 
ATOM     61  C   UNL A   1      45.487  26.993  37.332  1.00  0.00     0.020 A 
ATOM     62  C   UNL A   1      47.150  28.572  36.523  1.00  0.00     0.020 A 
ATOM     63  C   UNL A   1      46.809  27.445  37.273  1.00  0.00     0.054 A 
BRANCH  63  64
ATOM     64  S   UNL A   1      48.088  26.514  38.156  1.00  0.00     0.124 S 
ATOM     65  O   UNL A   1      48.982  26.122  37.070  1.00  0.00    -0.237 OA
ATOM     66  O   UNL A   1      48.625  27.508  39.085  1.00  0.00    -0.237 OA
ATOM     67  O   UNL A   1      47.351  25.419  38.783  1.00  0.00    -0.744 OA
ENDBRANCH  63  64
ENDBRANCH  37  58
ENDBRANCH  11  12
ENDBRANCH   4   6
ENDBRANCH   3   4
ENDBRANCH   2   3
ENDBRANCH   1   2
BRANCH   1  68
ATOM     68  O   UNL A   1      33.289  29.256  27.318  1.00  0.00    -0.462 OA
BRANCH  68  69
ATOM     69  C   UNL A   1      32.350  28.248  27.378  1.00  0.00     0.310 C 
ATOM     70  O   UNL A   1      31.468  28.205  28.232  1.00  0.00    -0.252 OA
BRANCH  69  71
ATOM     71  C   UNL A   1      32.473  27.096  26.131  1.00  0.00     0.119 C 
ATOM     72  C   UNL A   1      32.579  24.877  26.114  1.00  0.00     0.019 C 
ATOM     73  C   UNL A   1      31.041  27.834  25.054  1.00  0.00     0.134 C 
ATOM     74  C   UNL A   1      31.088  24.051  25.109  1.00  0.00     0.022 C 
ATOM     75  N   UNL A   1      30.327  26.861  23.866  1.00  0.00    -0.342 N 
ATOM     76  C   UNL A   1      29.896  25.199  24.177  1.00  0.00     0.119 C 
BRANCH  75  77
ATOM     77  C   UNL A   1      30.834  27.288  22.595  1.00  0.00     0.226 C 
ATOM     78  O   UNL A   1      30.308  28.222  21.989  1.00  0.00    -0.275 OA
BRANCH  77  79
ATOM     79  C   UNL A   1      32.256  26.825  22.139  1.00  0.00     0.141 C 
BRANCH  79  80
ATOM     80  C   UNL A   1      32.268  25.449  21.338  1.00  0.00     0.239 C 
BRANCH  80  81
ATOM     81  O   UNL A   1      33.431  24.525  21.235  1.00  0.00    -0.493 OA
BRANCH  81  82
ATOM     82  C   UNL A   1      33.592  23.647  22.264  1.00  0.00     0.119 A 
ATOM     83  C   UNL A   1      32.528  22.389  22.239  1.00  0.00     0.049 A 
ATOM     84  C   UNL A   1      34.779  23.584  23.488  1.00  0.00     0.049 A 
ATOM     85  C   UNL A   1      32.450  20.946  23.541  1.00  0.00     0.043 A 
ATOM     86  C   UNL A   1      34.864  22.297  24.684  1.00  0.00     0.043 A 
ATOM     87  C   UNL A   1      33.730  20.960  24.752  1.00  0.00     0.123 A 
ATOM     88  F   UNL A   1      33.871  19.972  25.637  1.00  0.00    -0.207 F 
ENDBRANCH  81  82
ENDBRANCH  80  81
ENDBRANCH  79  80
ENDBRANCH  77  79
ENDBRANCH  75  77
ENDBRANCH  69  71
ENDBRANCH  68  69
ENDBRANCH   1  68
TORSDOF 19
ENDMDL
MODEL 2
REMARK VINA RESULT:     -10.2      2.499      3.781
REMARK SMILES O=C(OCCOC(=O)[C@H]1CCCN(C(=O)CCOc2ccc(F)cc2)C1)c1ccc(-c2c3nc(c(-c4ccc(S(=O)(=O)[O-])cc4)c4ccc([nH]4)c(-c4ccc(S(=O)(=O)[O-])cc4)c4nc(c(-c5ccc(S(=O)(=O)[O-])cc5)c5ccc2[nH]5)C=C4)C=C3)cc1
REMARK SMILES IDX 5 1 4 2 3 3 2 4 1 5 27 6 28 7 86 8 29 9 85 10 30 11 31 12
REMARK SMILES IDX 32 13 79 14 33 15 84 16 78 17 80 18 34 19 83 20 77 21 76 22
REMARK SMILES IDX 35 24 65 25 46 26 64 27 47 28 50 29 63 30 81 31 48 32 49 33
REMARK SMILES IDX 62 35 82 36 51 37 36 38 37 39 45 40 38 41 44 42 39 43 40 44
REMARK SMILES IDX 41 45 42 46 43 47 66 48 67 49 75 50 68 51 74 52 69 53 70 54
REMARK SMILES IDX 71 55 72 56 73 57 52 58 53 59 61 60 54 61 60 62 55 63 56 64
REMARK SMILES IDX 57 65 58 66 59 67 6 68 7 69 8 70 9 71 10 72 26 73 11 74
REMARK SMILES IDX 13 75 12 76 14 77 15 78 16 79 17 80 18 81 19 82 20 83 25 84
REMARK SMILES IDX 21 85 24 86 22 87 23 88
REMARK H PARENT 80 23 50 34
REMARK Flexibility Score: inf
ROOT
ATOM      1  C   UNL A   1      31.389  30.474  25.389  1.00  0.00     0.274 C 
ENDROOT
BRANCH   1   2
ATOM      2  C   UNL A   1      32.033  30.847  26.737  1.00  0.00     0.275 C 
BRANCH   2   3
ATOM      3  O   UNL A   1      33.384  30.416  26.957  1.00  0.00    -0.458 OA
BRANCH   3   4
ATOM      4  C   UNL A   1      34.396  31.094  27.549  1.00  0.00     0.338 C 
ATOM      5  O   UNL A   1      34.348  32.320  27.621  1.00  0.00    -0.246 OA
BRANCH   4   6
ATOM      6  C   UNL A   1      35.658  30.412  27.949  1.00  0.00     0.060 A 
ATOM      7  C   UNL A   1      36.871  30.458  27.259  1.00  0.00     0.016 A 
ATOM      8  C   UNL A   1      35.604  29.691  29.144  1.00  0.00     0.016 A 
ATOM      9  C   UNL A   1      38.046  29.961  27.837  1.00  0.00     0.010 A 
ATOM     10  C   UNL A   1      36.777  29.229  29.738  1.00  0.00     0.010 A 
ATOM     11  C   UNL A   1      38.023  29.392  29.111  1.00  0.00    -0.014 A 
BRANCH  11  12
ATOM     12  C   UNL A   1      39.266  28.908  29.770  1.00  0.00     0.031 A 
ATOM     13  C   UNL A   1      39.698  29.573  31.050  1.00  0.00     0.074 A 
ATOM     14  C   UNL A   1      40.029  27.933  29.222  1.00  0.00     0.049 A 
ATOM     15  N   UNL A   1      40.740  29.324  31.800  1.00  0.00    -0.248 NA
ATOM     16  C   UNL A   1      38.850  30.669  31.558  1.00  0.00     0.031 C 
ATOM     17  C   UNL A   1      39.774  27.247  27.949  1.00  0.00     0.029 A 
ATOM     18  N   UNL A   1      41.221  27.387  29.641  1.00  0.00    -0.354 N 
ATOM     19  C   UNL A   1      40.620  30.181  32.883  1.00  0.00     0.074 A 
ATOM     20  C   UNL A   1      39.537  31.089  32.604  1.00  0.00     0.031 C 
ATOM     21  C   UNL A   1      40.824  26.460  27.645  1.00  0.00     0.029 A 
ATOM     22  C   UNL A   1      41.803  26.542  28.719  1.00  0.00     0.049 A 
ATOM     23  H   UNL A   1      41.621  27.582  30.519  1.00  0.00     0.167 HD
ATOM     24  C   UNL A   1      41.253  30.124  34.075  1.00  0.00     0.031 A 
ATOM     25  C   UNL A   1      42.994  25.908  28.745  1.00  0.00     0.031 A 
ATOM     26  C   UNL A   1      42.318  29.213  34.360  1.00  0.00     0.049 A 
ATOM     27  C   UNL A   1      43.798  25.969  30.021  1.00  0.00     0.074 A 
ATOM     28  C   UNL A   1      42.997  29.018  35.547  1.00  0.00     0.029 A 
ATOM     29  N   UNL A   1      42.861  28.341  33.429  1.00  0.00    -0.354 N 
ATOM     30  N   UNL A   1      43.562  26.657  31.113  1.00  0.00    -0.248 NA
ATOM     31  C   UNL A   1      44.981  25.101  30.101  1.00  0.00     0.031 C 
ATOM     32  C   UNL A   1      43.988  28.057  35.319  1.00  0.00     0.029 A 
ATOM     33  C   UNL A   1      43.886  27.618  34.007  1.00  0.00     0.049 A 
ATOM     34  H   UNL A   1      42.562  28.251  32.495  1.00  0.00     0.167 HD
ATOM     35  C   UNL A   1      44.515  26.243  32.036  1.00  0.00     0.074 A 
ATOM     36  C   UNL A   1      45.340  25.257  31.368  1.00  0.00     0.031 C 
ATOM     37  C   UNL A   1      44.676  26.624  33.328  1.00  0.00     0.031 A 
BRANCH  24  38
ATOM     38  C   UNL A   1      40.703  31.007  35.159  1.00  0.00    -0.014 A 
ATOM     39  C   UNL A   1      39.480  30.672  35.775  1.00  0.00     0.010 A 
ATOM     40  C   UNL A   1      41.364  32.185  35.539  1.00  0.00     0.010 A 
ATOM     41  C   UNL A   1      38.896  31.526  36.709  1.00  0.00     0.020 A 
ATOM     42  C   UNL A   1      40.797  33.029  36.500  1.00  0.00     0.020 A 
ATOM     43  C   UNL A   1      39.558  32.702  37.063  1.00  0.00     0.054 A 
BRANCH  43  44
ATOM     44  S   UNL A   1      38.780  33.789  38.288  1.00  0.00     0.124 S 
ATOM     45  O   UNL A   1      37.382  33.369  38.219  1.00  0.00    -0.237 OA
ATOM     46  O   UNL A   1      39.482  33.434  39.519  1.00  0.00    -0.237 OA
ATOM     47  O   UNL A   1      39.053  35.132  37.782  1.00  0.00    -0.744 OA
ENDBRANCH  43  44
ENDBRANCH  24  38
BRANCH  25  48
ATOM     48  C   UNL A   1      43.480  25.101  27.586  1.00  0.00    -0.014 A 
ATOM     49  C   UNL A   1      43.210  23.722  27.500  1.00  0.00     0.010 A 
ATOM     50  C   UNL A   1      44.289  25.693  26.598  1.00  0.00     0.010 A 
ATOM     51  C   UNL A   1      43.783  22.943  26.488  1.00  0.00     0.020 A 
ATOM     52  C   UNL A   1      44.848  24.920  25.570  1.00  0.00     0.020 A 
ATOM     53  C   UNL A   1      44.608  23.544  25.535  1.00  0.00     0.054 A 
BRANCH  53  54
ATOM     54  S   UNL A   1      45.357  22.503  24.246  1.00  0.00     0.124 S 
ATOM     55  O   UNL A   1      46.413  23.369  23.729  1.00  0.00    -0.237 OA
ATOM     56  O   UNL A   1      45.811  21.340  25.007  1.00  0.00    -0.237 OA
ATOM     57  O   UNL A   1      44.253  22.245  23.325  1.00  0.00    -0.744 OA
ENDBRANCH  53  54
ENDBRANCH  25  48
BRANCH  37  58
ATOM     58  C   UNL A   1      45.732  25.917  34.130  1.00  0.00    -0.014 A 
ATOM     59  C   UNL A   1      47.051  26.397  34.192  1.00  0.00     0.010 A 
ATOM     60  C   UNL A   1      45.371  24.787  34.886  1.00  0.00     0.010 A 
ATOM     61  C   UNL A   1      48.000  25.735  34.972  1.00  0.00     0.020 A 
ATOM     62  C   UNL A   1      46.308  24.147  35.697  1.00  0.00     0.020 A 
ATOM     63  C   UNL A   1      47.622  24.617  35.722  1.00  0.00     0.054 A 
BRANCH  63  64
ATOM     64  S   UNL A   1      48.861  23.809  36.768  1.00  0.00     0.124 S 
ATOM     65  O   UNL A   1      49.554  24.952  37.355  1.00  0.00    -0.237 OA
ATOM     66  O   UNL A   1      48.040  23.029  37.693  1.00  0.00    -0.237 OA
ATOM     67  O   UNL A   1      49.648  23.017  35.826  1.00  0.00    -0.744 OA
ENDBRANCH  63  64
ENDBRANCH  37  58
ENDBRANCH  11  12
ENDBRANCH   4   6
ENDBRANCH   3   4
ENDBRANCH   2   3
ENDBRANCH   1   2
BRANCH   1  68
ATOM     68  O   UNL A   1      31.098  29.076  25.213  1.00  0.00    -0.462 OA
BRANCH  68  69
ATOM     69  C   UNL A   1      31.910  28.431  24.304  1.00  0.00     0.310 C 
ATOM     70  O   UNL A   1      32.310  28.963  23.271  1.00  0.00    -0.252 OA
BRANCH  69  71
ATOM     71  C   UNL A   1      32.367  26.857  24.759  1.00  0.00     0.119 C 
ATOM     72  C   UNL A   1      31.755  25.514  26.420  1.00  0.00     0.019 C 
ATOM     73  C   UNL A   1      32.161  26.085  22.993  1.00  0.00     0.134 C 
ATOM     74  C   UNL A   1      30.968  23.816  25.776  1.00  0.00     0.022 C 
ATOM     75  N   UNL A   1      32.016  24.404  22.848  1.00  0.00    -0.342 N 
ATOM     76  C   UNL A   1      30.987  23.477  23.908  1.00  0.00     0.119 C 
BRANCH  75  77
ATOM     77  C   UNL A   1      33.273  23.900  22.378  1.00  0.00     0.226 C 
ATOM     78  O   UNL A   1      33.408  23.532  21.212  1.00  0.00    -0.275 OA
BRANCH  77  79
ATOM     79  C   UNL A   1      34.565  24.148  23.224  1.00  0.00     0.141 C 
BRANCH  79  80
ATOM     80  C   UNL A   1      35.310  22.818  23.682  1.00  0.00     0.239 C 
BRANCH  80  81
ATOM     81  O   UNL A   1      34.990  22.033  24.907  1.00  0.00    -0.493 OA
BRANCH  81  82
ATOM     82  C   UNL A   1      34.682  20.720  24.714  1.00  0.00     0.119 A 
ATOM     83  C   UNL A   1      33.193  20.474  24.054  1.00  0.00     0.049 A 
ATOM     84  C   UNL A   1      35.631  19.319  24.935  1.00  0.00     0.049 A 
ATOM     85  C   UNL A   1      32.411  18.743  23.639  1.00  0.00     0.043 A 
ATOM     86  C   UNL A   1      35.070  17.701  24.533  1.00  0.00     0.043 A 
ATOM     87  C   UNL A   1      33.476  17.362  23.884  1.00  0.00     0.123 A 
ATOM     88  F   UNL A   1      33.117  16.125  23.534  1.00  0.00    -0.207 F 
ENDBRANCH  81  82
ENDBRANCH  80  81
ENDBRANCH  79  80
ENDBRANCH  77  79
ENDBRANCH  75  77
ENDBRANCH  69  71
ENDBRANCH  68  69
ENDBRANCH   1  68
TORSDOF 19
ENDMDL
MODEL 3
REMARK VINA RESULT:     -10.0      2.634      9.338
REMARK SMILES O=C(OCCOC(=O)[C@H]1CCCN(C(=O)CCOc2ccc(F)cc2)C1)c1ccc(-c2c3nc(c(-c4ccc(S(=O)(=O)[O-])cc4)c4ccc([nH]4)c(-c4ccc(S(=O)(=O)[O-])cc4)c4nc(c(-c5ccc(S(=O)(=O)[O-])cc5)c5ccc2[nH]5)C=C4)C=C3)cc1
REMARK SMILES IDX 5 1 4 2 3 3 2 4 1 5 27 6 28 7 86 8 29 9 85 10 30 11 31 12
REMARK SMILES IDX 32 13 79 14 33 15 84 16 78 17 80 18 34 19 83 20 77 21 76 22
REMARK SMILES IDX 35 24 65 25 46 26 64 27 47 28 50 29 63 30 81 31 48 32 49 33
REMARK SMILES IDX 62 35 82 36 51 37 36 38 37 39 45 40 38 41 44 42 39 43 40 44
REMARK SMILES IDX 41 45 42 46 43 47 66 48 67 49 75 50 68 51 74 52 69 53 70 54
REMARK SMILES IDX 71 55 72 56 73 57 52 58 53 59 61 60 54 61 60 62 55 63 56 64
REMARK SMILES IDX 57 65 58 66 59 67 6 68 7 69 8 70 9 71 10 72 26 73 11 74
REMARK SMILES IDX 13 75 12 76 14 77 15 78 16 79 17 80 18 81 19 82 20 83 25 84
REMARK SMILES IDX 21 85 24 86 22 87 23 88
REMARK H PARENT 80 23 50 34
REMARK Flexibility Score: inf
ROOT
ATOM      1  C   UNL A   1      42.346  22.399  26.036  1.00  0.00     0.274 C 
ENDROOT
BRANCH   1   2
ATOM      2  C   UNL A   1      43.199  23.328  25.154  1.00  0.00     0.275 C 
BRANCH   2   3
ATOM      3  O   UNL A   1      43.211  24.722  25.494  1.00  0.00    -0.458 OA
BRANCH   3   4
ATOM      4  C   UNL A   1      43.835  25.328  26.532  1.00  0.00     0.338 C 
ATOM      5  O   UNL A   1      44.995  25.026  26.806  1.00  0.00    -0.246 OA
BRANCH   4   6
ATOM      6  C   UNL A   1      43.094  26.213  27.474  1.00  0.00     0.060 A 
ATOM      7  C   UNL A   1      41.916  25.891  28.150  1.00  0.00     0.016 A 
ATOM      8  C   UNL A   1      43.671  27.463  27.708  1.00  0.00     0.016 A 
ATOM      9  C   UNL A   1      41.428  26.713  29.173  1.00  0.00     0.010 A 
ATOM     10  C   UNL A   1      43.208  28.264  28.750  1.00  0.00     0.010 A 
ATOM     11  C   UNL A   1      42.102  27.883  29.526  1.00  0.00    -0.014 A 
BRANCH  11  12
ATOM     12  C   UNL A   1      41.634  28.743  30.646  1.00  0.00     0.031 A 
ATOM     13  C   UNL A   1      42.217  28.508  32.014  1.00  0.00     0.074 A 
ATOM     14  C   UNL A   1      40.676  29.683  30.470  1.00  0.00     0.049 A 
ATOM     15  N   UNL A   1      41.966  29.129  33.137  1.00  0.00    -0.248 NA
ATOM     16  C   UNL A   1      43.214  27.427  32.145  1.00  0.00     0.031 C 
ATOM     17  C   UNL A   1      39.969  29.974  29.217  1.00  0.00     0.029 A 
ATOM     18  N   UNL A   1      40.080  30.533  31.373  1.00  0.00    -0.354 N 
ATOM     19  C   UNL A   1      42.820  28.556  34.068  1.00  0.00     0.074 A 
ATOM     20  C   UNL A   1      43.444  27.416  33.444  1.00  0.00     0.031 C 
ATOM     21  C   UNL A   1      38.973  30.849  29.455  1.00  0.00     0.029 A 
ATOM     22  C   UNL A   1      39.000  31.223  30.862  1.00  0.00     0.049 A 
ATOM     23  H   UNL A   1      40.396  30.640  32.299  1.00  0.00     0.167 HD
ATOM     24  C   UNL A   1      43.175  29.023  35.284  1.00  0.00     0.031 A 
ATOM     25  C   UNL A   1      38.133  32.061  31.467  1.00  0.00     0.031 A 
ATOM     26  C   UNL A   1      42.569  30.165  35.898  1.00  0.00     0.049 A 
ATOM     27  C   UNL A   1      38.423  32.470  32.890  1.00  0.00     0.074 A 
ATOM     28  C   UNL A   1      42.882  30.771  37.098  1.00  0.00     0.029 A 
ATOM     29  N   UNL A   1      41.510  30.870  35.346  1.00  0.00    -0.354 N 
ATOM     30  N   UNL A   1      39.364  32.038  33.697  1.00  0.00    -0.248 NA
ATOM     31  C   UNL A   1      37.592  33.542  33.456  1.00  0.00     0.031 C 
ATOM     32  C   UNL A   1      41.977  31.819  37.297  1.00  0.00     0.029 A 
ATOM     33  C   UNL A   1      41.139  31.895  36.193  1.00  0.00     0.049 A 
ATOM     34  H   UNL A   1      41.086  30.669  34.481  1.00  0.00     0.167 HD
ATOM     35  C   UNL A   1      39.290  32.841  34.829  1.00  0.00     0.074 A 
ATOM     36  C   UNL A   1      38.203  33.774  34.609  1.00  0.00     0.031 C 
ATOM     37  C   UNL A   1      40.070  32.826  35.940  1.00  0.00     0.031 A 
BRANCH  24  38
ATOM     38  C   UNL A   1      44.344  28.344  35.939  1.00  0.00    -0.014 A 
ATOM     39  C   UNL A   1      45.634  28.896  35.804  1.00  0.00     0.010 A 
ATOM     40  C   UNL A   1      44.180  27.144  36.647  1.00  0.00     0.010 A 
ATOM     41  C   UNL A   1      46.749  28.232  36.312  1.00  0.00     0.020 A 
ATOM     42  C   UNL A   1      45.293  26.492  37.188  1.00  0.00     0.020 A 
ATOM     43  C   UNL A   1      46.570  27.030  37.000  1.00  0.00     0.054 A 
BRANCH  43  44
ATOM     44  S   UNL A   1      48.037  26.195  37.659  1.00  0.00     0.124 S 
ATOM     45  O   UNL A   1      49.007  27.285  37.715  1.00  0.00    -0.237 OA
ATOM     46  O   UNL A   1      47.569  25.705  38.954  1.00  0.00    -0.237 OA
ATOM     47  O   UNL A   1      48.320  25.159  36.669  1.00  0.00    -0.744 OA
ENDBRANCH  43  44
ENDBRANCH  24  38
BRANCH  25  48
ATOM     48  C   UNL A   1      36.961  32.638  30.742  1.00  0.00    -0.014 A 
ATOM     49  C   UNL A   1      37.129  33.670  29.801  1.00  0.00     0.010 A 
ATOM     50  C   UNL A   1      35.655  32.212  31.049  1.00  0.00     0.010 A 
ATOM     51  C   UNL A   1      36.020  34.304  29.227  1.00  0.00     0.020 A 
ATOM     52  C   UNL A   1      34.541  32.828  30.461  1.00  0.00     0.020 A 
ATOM     53  C   UNL A   1      34.732  33.886  29.569  1.00  0.00     0.054 A 
BRANCH  53  54
ATOM     54  S   UNL A   1      33.310  34.742  28.826  1.00  0.00     0.124 S 
ATOM     55  O   UNL A   1      32.518  35.094  30.000  1.00  0.00    -0.237 OA
ATOM     56  O   UNL A   1      33.944  35.861  28.133  1.00  0.00    -0.237 OA
ATOM     57  O   UNL A   1      32.717  33.732  27.952  1.00  0.00    -0.744 OA
ENDBRANCH  53  54
ENDBRANCH  25  48
BRANCH  37  58
ATOM     58  C   UNL A   1      39.830  33.897  36.966  1.00  0.00    -0.014 A 
ATOM     59  C   UNL A   1      39.021  33.669  38.091  1.00  0.00     0.010 A 
ATOM     60  C   UNL A   1      40.487  35.134  36.826  1.00  0.00     0.010 A 
ATOM     61  C   UNL A   1      38.845  34.674  39.042  1.00  0.00     0.020 A 
ATOM     62  C   UNL A   1      40.344  36.127  37.794  1.00  0.00     0.020 A 
ATOM     63  C   UNL A   1      39.510  35.895  38.890  1.00  0.00     0.054 A 
BRANCH  63  64
ATOM     64  S   UNL A   1      39.307  37.164  40.167  1.00  0.00     0.124 S 
ATOM     65  O   UNL A   1      38.556  38.194  39.455  1.00  0.00    -0.237 OA
ATOM     66  O   UNL A   1      38.568  36.453  41.210  1.00  0.00    -0.237 OA
ATOM     67  O   UNL A   1      40.679  37.523  40.521  1.00  0.00    -0.744 OA
ENDBRANCH  63  64
ENDBRANCH  37  58
ENDBRANCH  11  12
ENDBRANCH   4   6
ENDBRANCH   3   4
ENDBRANCH   2   3
ENDBRANCH   1   2
BRANCH   1  68
ATOM     68  O   UNL A   1      41.786  21.256  25.364  1.00  0.00    -0.462 OA
BRANCH  68  69
ATOM     69  C   UNL A   1      40.869  20.545  26.110  1.00  0.00     0.310 C 
ATOM     70  O   UNL A   1      40.987  19.346  26.349  1.00  0.00    -0.252 OA
BRANCH  69  71
ATOM     71  C   UNL A   1      39.588  21.480  26.728  1.00  0.00     0.119 C 
ATOM     72  C   UNL A   1      39.440  23.578  27.443  1.00  0.00     0.019 C 
ATOM     73  C   UNL A   1      38.332  21.026  25.323  1.00  0.00     0.134 C 
ATOM     74  C   UNL A   1      38.141  24.648  26.401  1.00  0.00     0.022 C 
ATOM     75  N   UNL A   1      36.977  22.013  25.088  1.00  0.00    -0.342 N 
ATOM     76  C   UNL A   1      37.098  23.754  25.090  1.00  0.00     0.119 C 
BRANCH  75  77
ATOM     77  C   UNL A   1      35.843  21.330  25.639  1.00  0.00     0.226 C 
ATOM     78  O   UNL A   1      35.446  21.585  26.776  1.00  0.00    -0.275 OA
BRANCH  77  79
ATOM     79  C   UNL A   1      34.891  20.532  24.690  1.00  0.00     0.141 C 
BRANCH  79  80
ATOM     80  C   UNL A   1      33.459  21.199  24.491  1.00  0.00     0.239 C 
BRANCH  80  81
ATOM     81  O   UNL A   1      32.644  21.822  25.571  1.00  0.00    -0.493 OA
BRANCH  81  82
ATOM     82  C   UNL A   1      32.476  23.171  25.490  1.00  0.00     0.119 A 
ATOM     83  C   UNL A   1      31.001  23.626  24.911  1.00  0.00     0.049 A 
ATOM     84  C   UNL A   1      33.491  24.445  26.000  1.00  0.00     0.049 A 
ATOM     85  C   UNL A   1      30.401  25.457  24.653  1.00  0.00     0.043 A 
ATOM     86  C   UNL A   1      33.041  26.141  25.888  1.00  0.00     0.043 A 
ATOM     87  C   UNL A   1      31.513  26.697  25.227  1.00  0.00     0.123 A 
ATOM     88  F   UNL A   1      31.188  27.991  25.222  1.00  0.00    -0.207 F 
ENDBRANCH  81  82
ENDBRANCH  80  81
ENDBRANCH  79  80
ENDBRANCH  77  79
ENDBRANCH  75  77
ENDBRANCH  69  71
ENDBRANCH  68  69
ENDBRANCH   1  68
TORSDOF 19
ENDMDL
