MODEL 1
REMARK VINA RESULT:     -10.3      0.000      0.000
REMARK SMILES O=C(NCc1ccsc1)NC[C@H]1CC[C@@H](C(=O)OCCOC(=O)c2ccc(-c3c4nc(c(-c5ccc(S(=O)(=O)[O-])cc5)c5ccc([nH]5)c(-c5ccc(S(=O)(=O)[O-])cc5)c5nc(c(-c6ccc(S(=O)(=O)[O-])cc6)c6ccc3[nH]6)C=C5)C=C4)cc2)CC1
REMARK SMILES IDX 19 1 18 2 16 3 17 4 15 5 12 6 13 7 85 8 14 9 84 10 11 11
REMARK SMILES IDX 10 12 1 13 2 14 3 15 4 18 5 19 6 20 9 21 7 22 8 23 20 24
REMARK SMILES IDX 21 25 22 26 23 27 24 28 25 29 83 30 26 31 82 32 27 33 28 34
REMARK SMILES IDX 29 35 76 36 30 37 81 38 75 39 77 40 31 41 80 42 74 43 73 44
REMARK SMILES IDX 32 46 62 47 43 48 61 49 44 50 47 51 60 52 78 53 45 54 46 55
REMARK SMILES IDX 59 57 79 58 48 59 33 60 34 61 42 62 35 63 41 64 36 65 37 66
REMARK SMILES IDX 38 67 39 68 40 69 63 70 64 71 72 72 65 73 71 74 66 75 67 76
REMARK SMILES IDX 68 77 69 78 70 79 49 80 50 81 58 82 51 83 57 84 52 85 53 86
REMARK SMILES IDX 54 87 55 88 56 89
REMARK H PARENT 3 16 10 17 77 45 47 56
REMARK Flexibility Score: inf
ROOT
ATOM      1  C   UNL A   1      33.775  28.551  25.527  1.00  0.00     0.274 C 
ENDROOT
BRANCH   1   2
ATOM      2  O   UNL A   1      32.891  27.419  25.532  1.00  0.00    -0.462 OA
BRANCH   2   3
ATOM      3  C   UNL A   1      32.877  26.628  24.431  1.00  0.00     0.309 C 
ATOM      4  O   UNL A   1      33.878  26.228  23.850  1.00  0.00    -0.252 OA
BRANCH   3   5
ATOM      5  C   UNL A   1      31.462  26.314  23.948  1.00  0.00     0.099 C 
ATOM      6  C   UNL A   1      30.571  23.803  25.286  1.00  0.00     0.008 C 
ATOM      7  C   UNL A   1      30.668  25.145  26.032  1.00  0.00     0.006 C 
ATOM      8  C   UNL A   1      31.401  23.751  23.995  1.00  0.00     0.006 C 
ATOM      9  C   UNL A   1      30.481  26.346  25.116  1.00  0.00     0.015 C 
ATOM     10  C   UNL A   1      31.305  25.019  23.148  1.00  0.00     0.015 C 
BRANCH   6  11
ATOM     11  C   UNL A   1      30.925  22.617  26.205  1.00  0.00     0.121 C 
BRANCH  11  12
ATOM     12  N   UNL A   1      32.100  21.878  25.761  1.00  0.00    -0.338 N 
ATOM     13  O   UNL A   1      33.214  22.052  27.741  1.00  0.00    -0.249 OA
ATOM     14  C   UNL A   1      33.170  21.678  26.573  1.00  0.00     0.315 C 
ATOM     15  N   UNL A   1      34.241  21.026  26.071  1.00  0.00    -0.334 N 
ATOM     16  H   UNL A   1      34.975  20.915  26.717  1.00  0.00     0.165 HD
ATOM     17  H   UNL A   1      32.119  21.514  24.847  1.00  0.00     0.165 HD
BRANCH  15  18
ATOM     18  C   UNL A   1      34.519  20.460  24.771  1.00  0.00     0.154 C 
BRANCH  18  19
ATOM     19  C   UNL A   1      34.180  18.993  24.732  1.00  0.00    -0.018 A 
ATOM     20  C   UNL A   1      35.169  17.958  24.570  1.00  0.00     0.017 A 
ATOM     21  C   UNL A   1      32.919  18.424  24.820  1.00  0.00     0.070 A 
ATOM     22  C   UNL A   1      34.638  16.688  24.603  1.00  0.00     0.065 A 
ATOM     23  S   UNL A   1      32.940  16.714  24.759  1.00  0.00    -0.152 S 
ENDBRANCH  18  19
ENDBRANCH  15  18
ENDBRANCH  11  12
ENDBRANCH   6  11
ENDBRANCH   3   5
ENDBRANCH   2   3
ENDBRANCH   1   2
BRANCH   1  24
ATOM     24  C   UNL A   1      33.275  29.660  26.449  1.00  0.00     0.275 C 
BRANCH  24  25
ATOM     25  O   UNL A   1      33.825  29.517  27.763  1.00  0.00    -0.458 OA
BRANCH  25  26
ATOM     26  C   UNL A   1      34.577  30.564  28.178  1.00  0.00     0.338 C 
ATOM     27  O   UNL A   1      34.203  31.692  28.442  1.00  0.00    -0.246 OA
BRANCH  26  28
ATOM     28  C   UNL A   1      35.944  30.086  28.391  1.00  0.00     0.060 A 
ATOM     29  C   UNL A   1      36.302  29.632  29.664  1.00  0.00     0.016 A 
ATOM     30  C   UNL A   1      36.872  30.124  27.352  1.00  0.00     0.016 A 
ATOM     31  C   UNL A   1      37.603  29.213  29.910  1.00  0.00     0.010 A 
ATOM     32  C   UNL A   1      38.176  29.702  27.599  1.00  0.00     0.010 A 
ATOM     33  C   UNL A   1      38.548  29.255  28.880  1.00  0.00    -0.014 A 
BRANCH  33  34
ATOM     34  C   UNL A   1      39.959  28.904  29.142  1.00  0.00     0.031 A 
ATOM     35  C   UNL A   1      40.881  29.964  29.665  1.00  0.00     0.074 A 
ATOM     36  C   UNL A   1      40.402  27.663  28.880  1.00  0.00     0.049 A 
ATOM     37  N   UNL A   1      42.183  29.947  29.767  1.00  0.00    -0.248 NA
ATOM     38  C   UNL A   1      40.251  31.212  30.129  1.00  0.00     0.031 C 
ATOM     39  C   UNL A   1      39.572  26.540  28.439  1.00  0.00     0.029 A 
ATOM     40  N   UNL A   1      41.670  27.144  28.928  1.00  0.00    -0.354 N 
ATOM     41  C   UNL A   1      42.533  31.189  30.282  1.00  0.00     0.074 A 
ATOM     42  C   UNL A   1      41.309  31.939  30.460  1.00  0.00     0.031 C 
ATOM     43  C   UNL A   1      40.358  25.467  28.243  1.00  0.00     0.029 A 
ATOM     44  C   UNL A   1      41.747  25.846  28.483  1.00  0.00     0.049 A 
ATOM     45  H   UNL A   1      42.449  27.652  29.250  1.00  0.00     0.167 HD
ATOM     46  C   UNL A   1      43.769  31.656  30.574  1.00  0.00     0.031 A 
ATOM     47  C   UNL A   1      42.823  25.071  28.249  1.00  0.00     0.031 A 
ATOM     48  C   UNL A   1      44.974  30.896  30.378  1.00  0.00     0.049 A 
ATOM     49  C   UNL A   1      44.194  25.645  28.490  1.00  0.00     0.074 A 
ATOM     50  C   UNL A   1      46.282  31.277  30.612  1.00  0.00     0.029 A 
ATOM     51  N   UNL A   1      45.012  29.593  29.905  1.00  0.00    -0.354 N 
ATOM     52  N   UNL A   1      44.520  26.836  28.938  1.00  0.00    -0.248 NA
ATOM     53  C   UNL A   1      45.340  24.779  28.187  1.00  0.00     0.031 C 
ATOM     54  C   UNL A   1      47.115  30.215  30.243  1.00  0.00     0.029 A 
ATOM     55  C   UNL A   1      46.321  29.156  29.829  1.00  0.00     0.049 A 
ATOM     56  H   UNL A   1      44.223  29.056  29.659  1.00  0.00     0.167 HD
ATOM     57  C   UNL A   1      45.908  26.850  28.998  1.00  0.00     0.074 A 
ATOM     58  C   UNL A   1      46.360  25.549  28.545  1.00  0.00     0.031 C 
ATOM     59  C   UNL A   1      46.738  27.847  29.394  1.00  0.00     0.031 A 
BRANCH  46  60
ATOM     60  C   UNL A   1      43.874  33.063  31.095  1.00  0.00    -0.014 A 
ATOM     61  C   UNL A   1      43.839  33.330  32.475  1.00  0.00     0.010 A 
ATOM     62  C   UNL A   1      44.038  34.131  30.195  1.00  0.00     0.010 A 
ATOM     63  C   UNL A   1      43.927  34.644  32.944  1.00  0.00     0.020 A 
ATOM     64  C   UNL A   1      44.152  35.444  30.659  1.00  0.00     0.020 A 
ATOM     65  C   UNL A   1      44.079  35.694  32.032  1.00  0.00     0.054 A 
BRANCH  65  66
ATOM     66  S   UNL A   1      44.208  37.388  32.666  1.00  0.00     0.124 S 
ATOM     67  O   UNL A   1      45.533  37.378  33.282  1.00  0.00    -0.237 OA
ATOM     68  O   UNL A   1      44.085  38.196  31.455  1.00  0.00    -0.237 OA
ATOM     69  O   UNL A   1      43.089  37.495  33.600  1.00  0.00    -0.744 OA
ENDBRANCH  65  66
ENDBRANCH  46  60
BRANCH  47  70
ATOM     70  C   UNL A   1      42.652  23.693  27.717  1.00  0.00    -0.014 A 
ATOM     71  C   UNL A   1      42.771  23.439  26.339  1.00  0.00     0.010 A 
ATOM     72  C   UNL A   1      42.366  22.623  28.586  1.00  0.00     0.010 A 
ATOM     73  C   UNL A   1      42.583  22.147  25.838  1.00  0.00     0.020 A 
ATOM     74  C   UNL A   1      42.205  21.325  28.092  1.00  0.00     0.020 A 
ATOM     75  C   UNL A   1      42.299  21.099  26.718  1.00  0.00     0.054 A 
BRANCH  75  76
ATOM     76  S   UNL A   1      42.087  19.425  26.051  1.00  0.00     0.124 S 
ATOM     77  O   UNL A   1      42.806  19.511  24.783  1.00  0.00    -0.237 OA
ATOM     78  O   UNL A   1      42.713  18.593  27.076  1.00  0.00    -0.237 OA
ATOM     79  O   UNL A   1      40.638  19.281  25.942  1.00  0.00    -0.744 OA
ENDBRANCH  75  76
ENDBRANCH  47  70
BRANCH  59  80
ATOM     80  C   UNL A   1      48.212  27.556  29.412  1.00  0.00    -0.014 A 
ATOM     81  C   UNL A   1      49.046  27.955  28.354  1.00  0.00     0.010 A 
ATOM     82  C   UNL A   1      48.780  26.956  30.551  1.00  0.00     0.010 A 
ATOM     83  C   UNL A   1      50.425  27.750  28.431  1.00  0.00     0.020 A 
ATOM     84  C   UNL A   1      50.161  26.770  30.641  1.00  0.00     0.020 A 
ATOM     85  C   UNL A   1      50.974  27.164  29.576  1.00  0.00     0.054 A 
BRANCH  85  86
ATOM     86  S   UNL A   1      52.775  26.983  29.688  1.00  0.00     0.124 S 
ATOM     87  O   UNL A   1      53.062  26.093  28.566  1.00  0.00    -0.237 OA
ATOM     88  O   UNL A   1      53.246  28.358  29.534  1.00  0.00    -0.237 OA
ATOM     89  O   UNL A   1      52.984  26.405  31.013  1.00  0.00    -0.744 OA
ENDBRANCH  85  86
ENDBRANCH  59  80
ENDBRANCH  33  34
ENDBRANCH  26  28
ENDBRANCH  25  26
ENDBRANCH  24  25
ENDBRANCH   1  24
TORSDOF 18
ENDMDL
MODEL 2
REMARK VINA RESULT:     -10.3      2.651      3.744
REMARK SMILES O=C(NCc1ccsc1)NC[C@H]1CC[C@@H](C(=O)OCCOC(=O)c2ccc(-c3c4nc(c(-c5ccc(S(=O)(=O)[O-])cc5)c5ccc([nH]5)c(-c5ccc(S(=O)(=O)[O-])cc5)c5nc(c(-c6ccc(S(=O)(=O)[O-])cc6)c6ccc3[nH]6)C=C5)C=C4)cc2)CC1
REMARK SMILES IDX 19 1 18 2 16 3 17 4 15 5 12 6 13 7 85 8 14 9 84 10 11 11
REMARK SMILES IDX 10 12 1 13 2 14 3 15 4 18 5 19 6 20 9 21 7 22 8 23 20 24
REMARK SMILES IDX 21 25 22 26 23 27 24 28 25 29 83 30 26 31 82 32 27 33 28 34
REMARK SMILES IDX 29 35 76 36 30 37 81 38 75 39 77 40 31 41 80 42 74 43 73 44
REMARK SMILES IDX 32 46 62 47 43 48 61 49 44 50 47 51 60 52 78 53 45 54 46 55
REMARK SMILES IDX 59 57 79 58 48 59 33 60 34 61 42 62 35 63 41 64 36 65 37 66
REMARK SMILES IDX 38 67 39 68 40 69 63 70 64 71 72 72 65 73 71 74 66 75 67 76
REMARK SMILES IDX 68 77 69 78 70 79 49 80 50 81 58 82 51 83 57 84 52 85 53 86
REMARK SMILES IDX 54 87 55 88 56 89
REMARK H PARENT 3 16 10 17 77 45 47 56
REMARK Flexibility Score: inf
ROOT
ATOM      1  C   UNL A   1      34.023  32.159  28.010  1.00  0.00     0.274 C 
ENDROOT
BRANCH   1   2
ATOM      2  O   UNL A   1      33.922  31.050  27.103  1.00  0.00    -0.462 OA
BRANCH   2   3
ATOM      3  C   UNL A   1      32.732  30.402  27.032  1.00  0.00     0.309 C 
ATOM      4  O   UNL A   1      31.693  30.903  26.622  1.00  0.00    -0.252 OA
BRANCH   3   5
ATOM      5  C   UNL A   1      32.806  28.973  27.567  1.00  0.00     0.099 C 
ATOM      6  C   UNL A   1      32.569  27.113  25.249  1.00  0.00     0.008 C 
ATOM      7  C   UNL A   1      33.845  27.925  25.527  1.00  0.00     0.006 C 
ATOM      8  C   UNL A   1      31.314  27.678  25.932  1.00  0.00     0.006 C 
ATOM      9  C   UNL A   1      34.028  28.255  27.002  1.00  0.00     0.015 C 
ATOM     10  C   UNL A   1      31.546  28.126  27.374  1.00  0.00     0.015 C 
BRANCH   6  11
ATOM     11  C   UNL A   1      32.328  26.935  23.737  1.00  0.00     0.121 C 
BRANCH  11  12
ATOM     12  N   UNL A   1      32.378  25.543  23.308  1.00  0.00    -0.338 N 
ATOM     13  O   UNL A   1      30.139  25.178  23.529  1.00  0.00    -0.249 OA
ATOM     14  C   UNL A   1      31.265  24.766  23.264  1.00  0.00     0.315 C 
ATOM     15  N   UNL A   1      31.402  23.472  22.904  1.00  0.00    -0.334 N 
ATOM     16  H   UNL A   1      30.553  22.973  22.891  1.00  0.00     0.165 HD
ATOM     17  H   UNL A   1      33.242  25.154  23.044  1.00  0.00     0.165 HD
BRANCH  15  18
ATOM     18  C   UNL A   1      32.549  22.677  22.533  1.00  0.00     0.154 C 
BRANCH  18  19
ATOM     19  C   UNL A   1      33.140  21.981  23.731  1.00  0.00    -0.018 A 
ATOM     20  C   UNL A   1      32.540  20.824  24.347  1.00  0.00     0.017 A 
ATOM     21  C   UNL A   1      34.289  22.333  24.420  1.00  0.00     0.070 A 
ATOM     22  C   UNL A   1      33.272  20.330  25.403  1.00  0.00     0.065 A 
ATOM     23  S   UNL A   1      34.651  21.282  25.720  1.00  0.00    -0.152 S 
ENDBRANCH  18  19
ENDBRANCH  15  18
ENDBRANCH  11  12
ENDBRANCH   6  11
ENDBRANCH   3   5
ENDBRANCH   2   3
ENDBRANCH   1   2
BRANCH   1  24
ATOM     24  C   UNL A   1      35.291  32.079  28.857  1.00  0.00     0.275 C 
BRANCH  24  25
ATOM     25  O   UNL A   1      35.827  30.750  28.849  1.00  0.00    -0.458 OA
BRANCH  25  26
ATOM     26  C   UNL A   1      36.417  30.372  30.007  1.00  0.00     0.338 C 
ATOM     27  O   UNL A   1      35.892  30.208  31.092  1.00  0.00    -0.246 OA
BRANCH  26  28
ATOM     28  C   UNL A   1      37.818  30.055  29.721  1.00  0.00     0.060 A 
ATOM     29  C   UNL A   1      38.217  29.940  28.387  1.00  0.00     0.016 A 
ATOM     30  C   UNL A   1      38.716  29.837  30.764  1.00  0.00     0.016 A 
ATOM     31  C   UNL A   1      39.528  29.598  28.083  1.00  0.00     0.010 A 
ATOM     32  C   UNL A   1      40.031  29.496  30.459  1.00  0.00     0.010 A 
ATOM     33  C   UNL A   1      40.438  29.365  29.119  1.00  0.00    -0.014 A 
BRANCH  33  34
ATOM     34  C   UNL A   1      41.812  28.909  28.822  1.00  0.00     0.031 A 
ATOM     35  C   UNL A   1      42.920  29.918  28.806  1.00  0.00     0.074 A 
ATOM     36  C   UNL A   1      42.044  27.615  28.542  1.00  0.00     0.049 A 
ATOM     37  N   UNL A   1      44.145  29.791  28.373  1.00  0.00    -0.248 NA
ATOM     38  C   UNL A   1      42.602  31.252  29.345  1.00  0.00     0.031 C 
ATOM     39  C   UNL A   1      41.051  26.541  28.603  1.00  0.00     0.029 A 
ATOM     40  N   UNL A   1      43.191  26.989  28.128  1.00  0.00    -0.354 N 
ATOM     41  C   UNL A   1      44.739  31.033  28.561  1.00  0.00     0.074 A 
ATOM     42  C   UNL A   1      43.737  31.903  29.136  1.00  0.00     0.031 C 
ATOM     43  C   UNL A   1      41.631  25.389  28.224  1.00  0.00     0.029 A 
ATOM     44  C   UNL A   1      43.012  25.657  27.837  1.00  0.00     0.049 A 
ATOM     45  H   UNL A   1      44.059  27.447  28.049  1.00  0.00     0.167 HD
ATOM     46  C   UNL A   1      46.007  31.407  28.272  1.00  0.00     0.031 A 
ATOM     47  C   UNL A   1      43.855  24.771  27.274  1.00  0.00     0.031 A 
ATOM     48  C   UNL A   1      46.983  30.527  27.690  1.00  0.00     0.049 A 
ATOM     49  C   UNL A   1      45.230  25.235  26.873  1.00  0.00     0.074 A 
ATOM     50  C   UNL A   1      48.289  30.804  27.329  1.00  0.00     0.029 A 
ATOM     51  N   UNL A   1      46.757  29.192  27.389  1.00  0.00    -0.354 N 
ATOM     52  N   UNL A   1      45.772  26.423  27.015  1.00  0.00    -0.248 NA
ATOM     53  C   UNL A   1      46.104  24.247  26.228  1.00  0.00     0.031 C 
ATOM     54  C   UNL A   1      48.840  29.645  26.774  1.00  0.00     0.029 A 
ATOM     55  C   UNL A   1      47.894  28.633  26.838  1.00  0.00     0.049 A 
ATOM     56  H   UNL A   1      45.911  28.712  27.545  1.00  0.00     0.167 HD
ATOM     57  C   UNL A   1      47.060  26.315  26.505  1.00  0.00     0.074 A 
ATOM     58  C   UNL A   1      47.218  24.946  26.055  1.00  0.00     0.031 C 
ATOM     59  C   UNL A   1      48.028  27.260  26.417  1.00  0.00     0.031 A 
BRANCH  46  60
ATOM     60  C   UNL A   1      46.389  32.835  28.548  1.00  0.00    -0.014 A 
ATOM     61  C   UNL A   1      46.955  33.211  29.779  1.00  0.00     0.010 A 
ATOM     62  C   UNL A   1      46.204  33.812  27.552  1.00  0.00     0.010 A 
ATOM     63  C   UNL A   1      47.295  34.545  30.023  1.00  0.00     0.020 A 
ATOM     64  C   UNL A   1      46.565  35.142  27.782  1.00  0.00     0.020 A 
ATOM     65  C   UNL A   1      47.094  35.503  29.024  1.00  0.00     0.054 A 
BRANCH  65  66
ATOM     66  S   UNL A   1      47.558  37.224  29.360  1.00  0.00     0.124 S 
ATOM     67  O   UNL A   1      46.375  37.723  30.057  1.00  0.00    -0.237 OA
ATOM     68  O   UNL A   1      48.756  37.078  30.184  1.00  0.00    -0.237 OA
ATOM     69  O   UNL A   1      47.784  37.789  28.032  1.00  0.00    -0.744 OA
ENDBRANCH  65  66
ENDBRANCH  46  60
BRANCH  47  70
ATOM     70  C   UNL A   1      43.410  23.376  27.012  1.00  0.00    -0.014 A 
ATOM     71  C   UNL A   1      43.263  22.462  28.070  1.00  0.00     0.010 A 
ATOM     72  C   UNL A   1      43.133  22.951  25.699  1.00  0.00     0.010 A 
ATOM     73  C   UNL A   1      42.871  21.144  27.818  1.00  0.00     0.020 A 
ATOM     74  C   UNL A   1      42.715  21.641  25.446  1.00  0.00     0.020 A 
ATOM     75  C   UNL A   1      42.601  20.741  26.507  1.00  0.00     0.054 A 
BRANCH  75  76
ATOM     76  S   UNL A   1      42.065  19.035  26.204  1.00  0.00     0.124 S 
ATOM     77  O   UNL A   1      42.283  18.414  27.508  1.00  0.00    -0.237 OA
ATOM     78  O   UNL A   1      40.669  19.205  25.811  1.00  0.00    -0.237 OA
ATOM     79  O   UNL A   1      42.954  18.581  25.138  1.00  0.00    -0.744 OA
ENDBRANCH  75  76
ENDBRANCH  47  70
BRANCH  59  80
ATOM     80  C   UNL A   1      49.361  26.839  25.868  1.00  0.00    -0.014 A 
ATOM     81  C   UNL A   1      49.719  27.111  24.537  1.00  0.00     0.010 A 
ATOM     82  C   UNL A   1      50.302  26.244  26.729  1.00  0.00     0.010 A 
ATOM     83  C   UNL A   1      50.995  26.785  24.073  1.00  0.00     0.020 A 
ATOM     84  C   UNL A   1      51.586  25.939  26.274  1.00  0.00     0.020 A 
ATOM     85  C   UNL A   1      51.922  26.206  24.945  1.00  0.00     0.054 A 
BRANCH  85  86
ATOM     86  S   UNL A   1      53.599  25.869  24.342  1.00  0.00     0.124 S 
ATOM     87  O   UNL A   1      53.446  26.054  22.901  1.00  0.00    -0.237 OA
ATOM     88  O   UNL A   1      54.396  26.886  25.024  1.00  0.00    -0.237 OA
ATOM     89  O   UNL A   1      53.852  24.496  24.771  1.00  0.00    -0.744 OA
ENDBRANCH  85  86
ENDBRANCH  59  80
ENDBRANCH  33  34
ENDBRANCH  26  28
ENDBRANCH  25  26
ENDBRANCH  24  25
ENDBRANCH   1  24
TORSDOF 18
ENDMDL
MODEL 3
REMARK VINA RESULT:     -10.2      3.431      8.487
REMARK SMILES O=C(NCc1ccsc1)NC[C@H]1CC[C@@H](C(=O)OCCOC(=O)c2ccc(-c3c4nc(c(-c5ccc(S(=O)(=O)[O-])cc5)c5ccc([nH]5)c(-c5ccc(S(=O)(=O)[O-])cc5)c5nc(c(-c6ccc(S(=O)(=O)[O-])cc6)c6ccc3[nH]6)C=C5)C=C4)cc2)CC1
REMARK SMILES IDX 19 1 18 2 16 3 17 4 15 5 12 6 13 7 85 8 14 9 84 10 11 11
REMARK SMILES IDX 10 12 1 13 2 14 3 15 4 18 5 19 6 20 9 21 7 22 8 23 20 24
REMARK SMILES IDX 21 25 22 26 23 27 24 28 25 29 83 30 26 31 82 32 27 33 28 34
REMARK SMILES IDX 29 35 76 36 30 37 81 38 75 39 77 40 31 41 80 42 74 43 73 44
REMARK SMILES IDX 32 46 62 47 43 48 61 49 44 50 47 51 60 52 78 53 45 54 46 55
REMARK SMILES IDX 59 57 79 58 48 59 33 60 34 61 42 62 35 63 41 64 36 65 37 66
REMARK SMILES IDX 38 67 39 68 40 69 63 70 64 71 72 72 65 73 71 74 66 75 67 76
REMARK SMILES IDX 68 77 69 78 70 79 49 80 50 81 58 82 51 83 57 84 52 85 53 86
REMARK SMILES IDX 54 87 55 88 56 89
REMARK H PARENT 3 16 10 17 77 45 47 56
REMARK Flexibility Score: inf
ROOT
ATOM      1  C   UNL A   1      39.283  21.444  25.879  1.00  0.00     0.274 C 
ENDROOT
BRANCH   1   2
ATOM      2  O   UNL A   1      37.880  21.561  26.164  1.00  0.00    -0.462 OA
BRANCH   2   3
ATOM      3  C   UNL A   1      37.023  21.556  25.112  1.00  0.00     0.309 C 
ATOM      4  O   UNL A   1      36.510  20.550  24.639  1.00  0.00    -0.252 OA
BRANCH   3   5
ATOM      5  C   UNL A   1      36.790  22.951  24.535  1.00  0.00     0.099 C 
ATOM      6  C   UNL A   1      33.870  23.533  24.691  1.00  0.00     0.008 C 
ATOM      7  C   UNL A   1      34.779  23.540  25.931  1.00  0.00     0.006 C 
ATOM      8  C   UNL A   1      34.451  22.755  23.501  1.00  0.00     0.006 C 
ATOM      9  C   UNL A   1      36.226  23.882  25.604  1.00  0.00     0.015 C 
ATOM     10  C   UNL A   1      35.939  23.010  23.264  1.00  0.00     0.015 C 
BRANCH   6  11
ATOM     11  C   UNL A   1      32.454  23.026  25.029  1.00  0.00     0.121 C 
BRANCH  11  12
ATOM     12  N   UNL A   1      31.429  24.053  24.890  1.00  0.00    -0.338 N 
ATOM     13  O   UNL A   1      31.142  24.363  27.130  1.00  0.00    -0.249 OA
ATOM     14  C   UNL A   1      30.835  24.624  25.970  1.00  0.00     0.315 C 
ATOM     15  N   UNL A   1      29.859  25.532  25.757  1.00  0.00    -0.334 N 
ATOM     16  H   UNL A   1      29.478  25.904  26.585  1.00  0.00     0.165 HD
ATOM     17  H   UNL A   1      31.159  24.341  23.989  1.00  0.00     0.165 HD
BRANCH  15  18
ATOM     18  C   UNL A   1      29.264  26.064  24.553  1.00  0.00     0.154 C 
BRANCH  18  19
ATOM     19  C   UNL A   1      30.051  27.237  24.029  1.00  0.00    -0.018 A 
ATOM     20  C   UNL A   1      31.090  27.891  24.786  1.00  0.00     0.017 A 
ATOM     21  C   UNL A   1      29.901  27.865  22.804  1.00  0.00     0.070 A 
ATOM     22  C   UNL A   1      31.702  28.913  24.096  1.00  0.00     0.065 A 
ATOM     23  S   UNL A   1      30.999  29.153  22.561  1.00  0.00    -0.152 S 
ENDBRANCH  18  19
ENDBRANCH  15  18
ENDBRANCH  11  12
ENDBRANCH   6  11
ENDBRANCH   3   5
ENDBRANCH   2   3
ENDBRANCH   1   2
BRANCH   1  24
ATOM     24  C   UNL A   1      39.717  19.984  25.783  1.00  0.00     0.275 C 
BRANCH  24  25
ATOM     25  O   UNL A   1      40.788  19.710  26.693  1.00  0.00    -0.458 OA
BRANCH  25  26
ATOM     26  C   UNL A   1      42.019  19.693  26.130  1.00  0.00     0.338 C 
ATOM     27  O   UNL A   1      42.491  18.847  25.394  1.00  0.00    -0.246 OA
BRANCH  26  28
ATOM     28  C   UNL A   1      42.683  20.959  26.450  1.00  0.00     0.060 A 
ATOM     29  C   UNL A   1      42.684  21.395  27.777  1.00  0.00     0.016 A 
ATOM     30  C   UNL A   1      43.262  21.723  25.439  1.00  0.00     0.016 A 
ATOM     31  C   UNL A   1      43.266  22.612  28.107  1.00  0.00     0.010 A 
ATOM     32  C   UNL A   1      43.847  22.943  25.770  1.00  0.00     0.010 A 
ATOM     33  C   UNL A   1      43.842  23.395  27.102  1.00  0.00    -0.014 A 
BRANCH  33  34
ATOM     34  C   UNL A   1      44.383  24.734  27.412  1.00  0.00     0.031 A 
ATOM     35  C   UNL A   1      43.435  25.817  27.831  1.00  0.00     0.074 A 
ATOM     36  C   UNL A   1      45.700  24.973  27.286  1.00  0.00     0.049 A 
ATOM     37  N   UNL A   1      43.647  27.100  27.947  1.00  0.00    -0.248 NA
ATOM     38  C   UNL A   1      42.060  25.397  28.155  1.00  0.00     0.031 C 
ATOM     39  C   UNL A   1      46.717  23.973  26.958  1.00  0.00     0.029 A 
ATOM     40  N   UNL A   1      46.405  26.143  27.401  1.00  0.00    -0.354 N 
ATOM     41  C   UNL A   1      42.429  27.647  28.332  1.00  0.00     0.074 A 
ATOM     42  C   UNL A   1      41.480  26.559  28.418  1.00  0.00     0.031 C 
ATOM     43  C   UNL A   1      47.915  24.576  26.883  1.00  0.00     0.029 A 
ATOM     44  C   UNL A   1      47.739  26.010  27.095  1.00  0.00     0.049 A 
ATOM     45  H   UNL A   1      45.997  26.996  27.676  1.00  0.00     0.167 HD
ATOM     46  C   UNL A   1      42.136  28.944  28.585  1.00  0.00     0.031 A 
ATOM     47  C   UNL A   1      48.695  26.948  26.954  1.00  0.00     0.031 A 
ATOM     48  C   UNL A   1      43.093  30.011  28.481  1.00  0.00     0.049 A 
ATOM     49  C   UNL A   1      48.323  28.394  27.147  1.00  0.00     0.074 A 
ATOM     50  C   UNL A   1      42.902  31.365  28.687  1.00  0.00     0.029 A 
ATOM     51  N   UNL A   1      44.429  29.838  28.148  1.00  0.00    -0.354 N 
ATOM     52  N   UNL A   1      47.159  28.908  27.470  1.00  0.00    -0.248 NA
ATOM     53  C   UNL A   1      49.387  29.386  26.947  1.00  0.00     0.031 C 
ATOM     54  C   UNL A   1      44.116  32.016  28.439  1.00  0.00     0.029 A 
ATOM     55  C   UNL A   1      45.073  31.061  28.131  1.00  0.00     0.049 A 
ATOM     56  H   UNL A   1      44.856  28.973  27.952  1.00  0.00     0.167 HD
ATOM     57  C   UNL A   1      47.359  30.281  27.542  1.00  0.00     0.074 A 
ATOM     58  C   UNL A   1      48.756  30.517  27.233  1.00  0.00     0.031 C 
ATOM     59  C   UNL A   1      46.471  31.262  27.839  1.00  0.00     0.031 A 
BRANCH  46  60
ATOM     60  C   UNL A   1      40.717  29.275  28.957  1.00  0.00    -0.014 A 
ATOM     61  C   UNL A   1      40.354  29.517  30.294  1.00  0.00     0.010 A 
ATOM     62  C   UNL A   1      39.736  29.371  27.954  1.00  0.00     0.010 A 
ATOM     63  C   UNL A   1      39.029  29.813  30.625  1.00  0.00     0.020 A 
ATOM     64  C   UNL A   1      38.415  29.691  28.276  1.00  0.00     0.020 A 
ATOM     65  C   UNL A   1      38.066  29.895  29.614  1.00  0.00     0.054 A 
BRANCH  65  66
ATOM     66  S   UNL A   1      36.357  30.297  30.068  1.00  0.00     0.124 S 
ATOM     67  O   UNL A   1      36.205  29.577  31.330  1.00  0.00    -0.237 OA
ATOM     68  O   UNL A   1      36.387  31.754  30.176  1.00  0.00    -0.237 OA
ATOM     69  O   UNL A   1      35.569  29.773  28.954  1.00  0.00    -0.744 OA
ENDBRANCH  65  66
ENDBRANCH  46  60
BRANCH  47  70
ATOM     70  C   UNL A   1      50.076  26.556  26.567  1.00  0.00    -0.014 A 
ATOM     71  C   UNL A   1      51.039  26.267  27.550  1.00  0.00     0.010 A 
ATOM     72  C   UNL A   1      50.440  26.473  25.210  1.00  0.00     0.010 A 
ATOM     73  C   UNL A   1      52.345  25.925  27.184  1.00  0.00     0.020 A 
ATOM     74  C   UNL A   1      51.737  26.105  24.840  1.00  0.00     0.020 A 
ATOM     75  C   UNL A   1      52.686  25.849  25.831  1.00  0.00     0.054 A 
BRANCH  75  76
ATOM     76  S   UNL A   1      54.377  25.376  25.376  1.00  0.00     0.124 S 
ATOM     77  O   UNL A   1      54.603  26.176  24.176  1.00  0.00    -0.237 OA
ATOM     78  O   UNL A   1      55.145  25.772  26.554  1.00  0.00    -0.237 OA
ATOM     79  O   UNL A   1      54.283  23.934  25.161  1.00  0.00    -0.744 OA
ENDBRANCH  75  76
ENDBRANCH  47  70
BRANCH  59  80
ATOM     80  C   UNL A   1      46.988  32.671  27.902  1.00  0.00    -0.014 A 
ATOM     81  C   UNL A   1      46.961  33.507  26.773  1.00  0.00     0.010 A 
ATOM     82  C   UNL A   1      47.421  33.190  29.136  1.00  0.00     0.010 A 
ATOM     83  C   UNL A   1      47.368  34.839  26.877  1.00  0.00     0.020 A 
ATOM     84  C   UNL A   1      47.806  34.527  29.248  1.00  0.00     0.020 A 
ATOM     85  C   UNL A   1      47.783  35.342  28.114  1.00  0.00     0.054 A 
BRANCH  85  86
ATOM     86  S   UNL A   1      48.228  37.095  28.241  1.00  0.00     0.124 S 
ATOM     87  O   UNL A   1      47.412  37.535  29.370  1.00  0.00    -0.237 OA
ATOM     88  O   UNL A   1      49.667  37.045  28.488  1.00  0.00    -0.237 OA
ATOM     89  O   UNL A   1      47.844  37.645  26.943  1.00  0.00    -0.744 OA
ENDBRANCH  85  86
ENDBRANCH  59  80
ENDBRANCH  33  34
ENDBRANCH  26  28
ENDBRANCH  25  26
ENDBRANCH  24  25
ENDBRANCH   1  24
TORSDOF 18
ENDMDL
