MODEL 1
REMARK VINA RESULT:     -10.5      0.000      0.000
REMARK SMILES Cc1cc(OCC(=O)OCCOC(=O)c2ccc(-c3c4nc(c(-c5ccc(S(=O)(=O)[O-])cc5)c5ccc([nH]5)c(-c5ccc(S(=O)(=O)[O-])cc5)c5nc(c(-c6ccc(S(=O)(=O)[O-])cc6)c6ccc3[nH]6)C=C5)C=C4)cc2)ccc1NC(=O)c1ccc(N2C(=O)[C@@H]3[C@H](C2=O)[C@H]2C=C[C@@H]3C2)cc1
REMARK SMILES IDX 10 1 9 2 7 3 8 4 6 5 5 6 4 7 1 8 2 9 3 10 77 11 76 12 75 13
REMARK SMILES IDX 78 14 79 15 80 17 81 18 82 19 98 20 83 21 97 22 84 23 85 24
REMARK SMILES IDX 86 25 90 26 87 27 88 28 89 29 91 30 95 31 92 32 94 33 96 34
REMARK SMILES IDX 93 35 11 36 12 37 13 38 14 39 15 40 16 41 74 42 17 43 73 44
REMARK SMILES IDX 18 45 19 46 20 47 67 48 21 49 72 50 66 51 68 52 22 53 71 54
REMARK SMILES IDX 65 55 64 56 23 58 53 59 34 60 52 61 35 62 38 63 51 64 69 65
REMARK SMILES IDX 36 66 37 67 50 69 70 70 39 71 24 72 25 73 33 74 26 75 32 76
REMARK SMILES IDX 27 77 28 78 29 79 30 80 31 81 54 82 55 83 63 84 56 85 62 86
REMARK SMILES IDX 57 87 58 88 59 89 60 90 61 91 40 92 41 93 49 94 42 95 48 96
REMARK SMILES IDX 43 97 44 98 45 99 46 100 47 101
REMARK H PARENT 78 16 68 57 38 68
REMARK Flexibility Score: inf
ROOT
ATOM      1  C   UNL A   1      42.356  22.291  27.476  1.00  0.00     0.274 C 
ENDROOT
BRANCH   1   2
ATOM      2  O   UNL A   1      43.078  23.474  27.128  1.00  0.00    -0.460 OA
BRANCH   2   3
ATOM      3  C   UNL A   1      44.187  23.714  27.878  1.00  0.00     0.344 C 
ATOM      4  O   UNL A   1      45.335  23.504  27.501  1.00  0.00    -0.248 OA
BRANCH   3   5
ATOM      5  C   UNL A   1      43.829  24.319  29.235  1.00  0.00     0.351 C 
BRANCH   5   6
ATOM      6  O   UNL A   1      43.800  23.414  30.330  1.00  0.00    -0.482 OA
BRANCH   6   7
ATOM      7  C   UNL A   1      44.301  23.876  31.514  1.00  0.00     0.120 A 
ATOM      8  C   UNL A   1      44.008  22.571  35.043  1.00  0.00     0.047 C 
ATOM      9  C   UNL A   1      44.387  23.504  33.929  1.00  0.00    -0.024 A 
ATOM     10  C   UNL A   1      43.974  23.121  32.635  1.00  0.00     0.052 A 
ATOM     11  C   UNL A   1      45.111  24.702  34.098  1.00  0.00     0.044 A 
ATOM     12  C   UNL A   1      45.506  25.399  32.958  1.00  0.00     0.030 A 
ATOM     13  C   UNL A   1      45.120  24.982  31.674  1.00  0.00     0.048 A 
BRANCH  11  14
ATOM     14  N   UNL A   1      45.527  25.113  35.381  1.00  0.00    -0.322 N 
ATOM     15  C   UNL A   1      45.534  26.348  36.002  1.00  0.00     0.255 C 
ATOM     16  H   UNL A   1      45.877  24.382  35.940  1.00  0.00     0.170 HD
ATOM     17  O   UNL A   1      46.332  26.535  36.926  1.00  0.00    -0.269 OA
BRANCH  15  18
ATOM     18  C   UNL A   1      44.492  27.384  35.767  1.00  0.00     0.040 A 
ATOM     19  C   UNL A   1      43.227  27.249  36.353  1.00  0.00     0.016 A 
ATOM     20  C   UNL A   1      44.668  28.370  34.803  1.00  0.00     0.016 A 
ATOM     21  C   UNL A   1      42.189  28.160  36.061  1.00  0.00     0.027 A 
ATOM     22  C   UNL A   1      43.600  29.222  34.461  1.00  0.00     0.027 A 
ATOM     23  C   UNL A   1      42.360  29.184  35.120  1.00  0.00     0.052 A 
BRANCH  23  24
ATOM     24  N   UNL A   1      41.350  30.170  34.853  1.00  0.00    -0.250 N 
ATOM     25  C   UNL A   1      40.167  29.922  34.180  1.00  0.00     0.238 C 
ATOM     26  C   UNL A   1      41.451  31.495  35.238  1.00  0.00     0.238 C 
ATOM     27  O   UNL A   1      39.797  28.910  33.600  1.00  0.00    -0.274 OA
ATOM     28  C   UNL A   1      39.312  31.164  34.189  1.00  0.00     0.099 C 
ATOM     29  C   UNL A   1      40.222  32.241  34.796  1.00  0.00     0.099 C 
ATOM     30  O   UNL A   1      42.372  32.079  35.798  1.00  0.00    -0.274 OA
ATOM     31  C   UNL A   1      38.094  31.167  35.143  1.00  0.00     0.025 C 
ATOM     32  C   UNL A   1      39.397  32.782  35.980  1.00  0.00     0.025 C 
ATOM     33  C   UNL A   1      37.380  32.490  34.916  1.00  0.00    -0.027 C 
ATOM     34  C   UNL A   1      38.722  31.508  36.500  1.00  0.00     0.017 C 
ATOM     35  C   UNL A   1      38.170  33.459  35.406  1.00  0.00    -0.027 C 
ENDBRANCH  23  24
ENDBRANCH  15  18
ENDBRANCH  11  14
ENDBRANCH   6   7
ENDBRANCH   5   6
ENDBRANCH   3   5
ENDBRANCH   2   3
ENDBRANCH   1   2
BRANCH   1  36
ATOM     36  C   UNL A   1      40.861  22.602  27.603  1.00  0.00     0.275 C 
BRANCH  36  37
ATOM     37  O   UNL A   1      40.397  23.869  28.145  1.00  0.00    -0.458 OA
BRANCH  37  38
ATOM     38  C   UNL A   1      39.322  24.533  27.648  1.00  0.00     0.338 C 
ATOM     39  O   UNL A   1      38.519  24.054  26.864  1.00  0.00    -0.246 OA
BRANCH  38  40
ATOM     40  C   UNL A   1      39.312  25.908  28.136  1.00  0.00     0.060 A 
ATOM     41  C   UNL A   1      38.973  26.223  29.462  1.00  0.00     0.016 A 
ATOM     42  C   UNL A   1      39.891  26.835  27.284  1.00  0.00     0.016 A 
ATOM     43  C   UNL A   1      39.296  27.475  29.964  1.00  0.00     0.010 A 
ATOM     44  C   UNL A   1      40.423  27.945  27.837  1.00  0.00     0.010 A 
ATOM     45  C   UNL A   1      40.034  28.309  29.136  1.00  0.00    -0.014 A 
BRANCH  45  46
ATOM     46  C   UNL A   1      40.244  29.724  29.318  1.00  0.00     0.031 A 
ATOM     47  C   UNL A   1      39.126  30.661  29.149  1.00  0.00     0.074 A 
ATOM     48  C   UNL A   1      41.352  29.897  30.083  1.00  0.00     0.049 A 
ATOM     49  N   UNL A   1      39.223  31.916  29.382  1.00  0.00    -0.248 NA
ATOM     50  C   UNL A   1      37.781  30.282  28.713  1.00  0.00     0.031 C 
ATOM     51  C   UNL A   1      41.685  30.900  31.077  1.00  0.00     0.029 A 
ATOM     52  N   UNL A   1      42.455  29.046  30.185  1.00  0.00    -0.354 N 
ATOM     53  C   UNL A   1      37.943  32.415  29.509  1.00  0.00     0.074 A 
ATOM     54  C   UNL A   1      37.084  31.403  28.954  1.00  0.00     0.031 C 
ATOM     55  C   UNL A   1      43.006  30.804  31.352  1.00  0.00     0.029 A 
ATOM     56  C   UNL A   1      43.571  29.827  30.422  1.00  0.00     0.049 A 
ATOM     57  H   UNL A   1      42.441  28.066  30.102  1.00  0.00     0.167 HD
ATOM     58  C   UNL A   1      37.786  33.558  30.235  1.00  0.00     0.031 A 
ATOM     59  C   UNL A   1      44.395  30.129  29.367  1.00  0.00     0.031 A 
ATOM     60  C   UNL A   1      39.104  34.056  30.642  1.00  0.00     0.049 A 
ATOM     61  C   UNL A   1      44.228  31.600  29.020  1.00  0.00     0.074 A 
ATOM     62  C   UNL A   1      39.817  33.938  31.823  1.00  0.00     0.029 A 
ATOM     63  N   UNL A   1      40.021  34.399  29.654  1.00  0.00    -0.354 N 
ATOM     64  N   UNL A   1      43.099  32.257  29.097  1.00  0.00    -0.248 NA
ATOM     65  C   UNL A   1      45.365  32.461  28.721  1.00  0.00     0.031 C 
ATOM     66  C   UNL A   1      41.197  34.092  31.503  1.00  0.00     0.029 A 
ATOM     67  C   UNL A   1      41.314  34.298  30.136  1.00  0.00     0.049 A 
ATOM     68  H   UNL A   1      39.783  34.675  28.739  1.00  0.00     0.167 HD
ATOM     69  C   UNL A   1      43.357  33.599  29.019  1.00  0.00     0.074 A 
ATOM     70  C   UNL A   1      44.782  33.672  28.731  1.00  0.00     0.031 C 
ATOM     71  C   UNL A   1      42.441  34.585  29.259  1.00  0.00     0.031 A 
BRANCH  58  72
ATOM     72  C   UNL A   1      36.500  34.101  30.816  1.00  0.00    -0.014 A 
ATOM     73  C   UNL A   1      35.443  34.391  29.924  1.00  0.00     0.010 A 
ATOM     74  C   UNL A   1      36.258  34.382  32.174  1.00  0.00     0.010 A 
ATOM     75  C   UNL A   1      34.234  34.959  30.342  1.00  0.00     0.020 A 
ATOM     76  C   UNL A   1      35.043  34.953  32.611  1.00  0.00     0.020 A 
ATOM     77  C   UNL A   1      34.040  35.243  31.688  1.00  0.00     0.054 A 
BRANCH  77  78
ATOM     78  S   UNL A   1      32.460  35.972  32.192  1.00  0.00     0.124 S 
ATOM     79  O   UNL A   1      31.743  34.822  32.739  1.00  0.00    -0.237 OA
ATOM     80  O   UNL A   1      32.872  36.976  33.168  1.00  0.00    -0.237 OA
ATOM     81  O   UNL A   1      31.910  36.507  30.948  1.00  0.00    -0.744 OA
ENDBRANCH  77  78
ENDBRANCH  58  72
BRANCH  59  82
ATOM     82  C   UNL A   1      44.548  28.996  28.385  1.00  0.00    -0.014 A 
ATOM     83  C   UNL A   1      44.240  29.268  27.028  1.00  0.00     0.010 A 
ATOM     84  C   UNL A   1      45.336  27.863  28.665  1.00  0.00     0.010 A 
ATOM     85  C   UNL A   1      44.825  28.534  25.989  1.00  0.00     0.020 A 
ATOM     86  C   UNL A   1      45.909  27.109  27.619  1.00  0.00     0.020 A 
ATOM     87  C   UNL A   1      45.686  27.480  26.290  1.00  0.00     0.054 A 
BRANCH  87  88
ATOM     88  S   UNL A   1      46.674  26.773  24.932  1.00  0.00     0.124 S 
ATOM     89  O   UNL A   1      46.051  25.468  24.740  1.00  0.00    -0.237 OA
ATOM     90  O   UNL A   1      46.444  27.751  23.872  1.00  0.00    -0.237 OA
ATOM     91  O   UNL A   1      48.032  26.751  25.471  1.00  0.00    -0.744 OA
ENDBRANCH  87  88
ENDBRANCH  59  82
BRANCH  71  92
ATOM     92  C   UNL A   1      42.579  35.992  28.739  1.00  0.00    -0.014 A 
ATOM     93  C   UNL A   1      43.321  36.979  29.401  1.00  0.00     0.010 A 
ATOM     94  C   UNL A   1      42.090  36.308  27.449  1.00  0.00     0.010 A 
ATOM     95  C   UNL A   1      43.474  38.254  28.858  1.00  0.00     0.020 A 
ATOM     96  C   UNL A   1      42.304  37.552  26.861  1.00  0.00     0.020 A 
ATOM     97  C   UNL A   1      42.958  38.534  27.593  1.00  0.00     0.054 A 
BRANCH  97  98
ATOM     98  S   UNL A   1      43.180  40.185  26.906  1.00  0.00     0.124 S 
ATOM     99  O   UNL A   1      43.364  40.983  28.115  1.00  0.00    -0.237 OA
ATOM    100  O   UNL A   1      44.370  40.029  26.071  1.00  0.00    -0.237 OA
ATOM    101  O   UNL A   1      41.940  40.425  26.175  1.00  0.00    -0.744 OA
ENDBRANCH  97  98
ENDBRANCH  71  92
ENDBRANCH  45  46
ENDBRANCH  38  40
ENDBRANCH  37  38
ENDBRANCH  36  37
ENDBRANCH   1  36
TORSDOF 19
ENDMDL
MODEL 2
REMARK VINA RESULT:     -10.4      3.489      7.404
REMARK SMILES Cc1cc(OCC(=O)OCCOC(=O)c2ccc(-c3c4nc(c(-c5ccc(S(=O)(=O)[O-])cc5)c5ccc([nH]5)c(-c5ccc(S(=O)(=O)[O-])cc5)c5nc(c(-c6ccc(S(=O)(=O)[O-])cc6)c6ccc3[nH]6)C=C5)C=C4)cc2)ccc1NC(=O)c1ccc(N2C(=O)[C@@H]3[C@H](C2=O)[C@H]2C=C[C@@H]3C2)cc1
REMARK SMILES IDX 10 1 9 2 7 3 8 4 6 5 5 6 4 7 1 8 2 9 3 10 77 11 76 12 75 13
REMARK SMILES IDX 78 14 79 15 80 17 81 18 82 19 98 20 83 21 97 22 84 23 85 24
REMARK SMILES IDX 86 25 90 26 87 27 88 28 89 29 91 30 95 31 92 32 94 33 96 34
REMARK SMILES IDX 93 35 11 36 12 37 13 38 14 39 15 40 16 41 74 42 17 43 73 44
REMARK SMILES IDX 18 45 19 46 20 47 67 48 21 49 72 50 66 51 68 52 22 53 71 54
REMARK SMILES IDX 65 55 64 56 23 58 53 59 34 60 52 61 35 62 38 63 51 64 69 65
REMARK SMILES IDX 36 66 37 67 50 69 70 70 39 71 24 72 25 73 33 74 26 75 32 76
REMARK SMILES IDX 27 77 28 78 29 79 30 80 31 81 54 82 55 83 63 84 56 85 62 86
REMARK SMILES IDX 57 87 58 88 59 89 60 90 61 91 40 92 41 93 49 94 42 95 48 96
REMARK SMILES IDX 43 97 44 98 45 99 46 100 47 101
REMARK H PARENT 78 16 68 57 38 68
REMARK Flexibility Score: inf
ROOT
ATOM      1  C   UNL A   1      40.597  21.177  26.014  1.00  0.00     0.274 C 
ENDROOT
BRANCH   1   2
ATOM      2  O   UNL A   1      39.665  21.822  26.883  1.00  0.00    -0.460 OA
BRANCH   2   3
ATOM      3  C   UNL A   1      38.774  22.644  26.266  1.00  0.00     0.344 C 
ATOM      4  O   UNL A   1      38.838  23.868  26.281  1.00  0.00    -0.248 OA
BRANCH   3   5
ATOM      5  C   UNL A   1      37.704  21.852  25.516  1.00  0.00     0.351 C 
BRANCH   5   6
ATOM      6  O   UNL A   1      37.171  22.473  24.354  1.00  0.00    -0.482 OA
BRANCH   6   7
ATOM      7  C   UNL A   1      35.955  23.078  24.491  1.00  0.00     0.120 A 
ATOM      8  C   UNL A   1      33.205  23.776  22.002  1.00  0.00     0.047 C 
ATOM      9  C   UNL A   1      33.938  23.801  23.313  1.00  0.00    -0.024 A 
ATOM     10  C   UNL A   1      35.197  23.163  23.328  1.00  0.00     0.052 A 
ATOM     11  C   UNL A   1      33.453  24.404  24.491  1.00  0.00     0.044 A 
ATOM     12  C   UNL A   1      34.182  24.233  25.666  1.00  0.00     0.030 A 
ATOM     13  C   UNL A   1      35.415  23.561  25.672  1.00  0.00     0.048 A 
BRANCH  11  14
ATOM     14  N   UNL A   1      32.203  25.056  24.500  1.00  0.00    -0.322 N 
ATOM     15  C   UNL A   1      31.675  26.037  25.318  1.00  0.00     0.255 C 
ATOM     16  H   UNL A   1      31.591  24.756  23.788  1.00  0.00     0.170 HD
ATOM     17  O   UNL A   1      30.446  26.126  25.411  1.00  0.00    -0.269 OA
BRANCH  15  18
ATOM     18  C   UNL A   1      32.494  27.125  25.918  1.00  0.00     0.040 A 
ATOM     19  C   UNL A   1      32.133  27.672  27.156  1.00  0.00     0.016 A 
ATOM     20  C   UNL A   1      33.483  27.766  25.180  1.00  0.00     0.016 A 
ATOM     21  C   UNL A   1      32.830  28.774  27.696  1.00  0.00     0.027 A 
ATOM     22  C   UNL A   1      34.116  28.914  25.693  1.00  0.00     0.027 A 
ATOM     23  C   UNL A   1      33.855  29.409  26.983  1.00  0.00     0.052 A 
BRANCH  23  24
ATOM     24  N   UNL A   1      34.632  30.486  27.531  1.00  0.00    -0.250 N 
ATOM     25  C   UNL A   1      34.136  31.747  27.816  1.00  0.00     0.238 C 
ATOM     26  C   UNL A   1      35.977  30.385  27.835  1.00  0.00     0.238 C 
ATOM     27  O   UNL A   1      33.039  32.228  27.571  1.00  0.00    -0.274 OA
ATOM     28  C   UNL A   1      35.211  32.571  28.481  1.00  0.00     0.099 C 
ATOM     29  C   UNL A   1      36.467  31.695  28.387  1.00  0.00     0.099 C 
ATOM     30  O   UNL A   1      36.748  29.447  27.666  1.00  0.00    -0.274 OA
ATOM     31  C   UNL A   1      35.069  32.805  30.004  1.00  0.00     0.025 C 
ATOM     32  C   UNL A   1      36.939  31.585  29.851  1.00  0.00     0.025 C 
ATOM     33  C   UNL A   1      36.230  33.701  30.406  1.00  0.00    -0.027 C 
ATOM     34  C   UNL A   1      35.606  31.500  30.603  1.00  0.00     0.017 C 
ATOM     35  C   UNL A   1      37.352  32.970  30.299  1.00  0.00    -0.027 C 
ENDBRANCH  23  24
ENDBRANCH  15  18
ENDBRANCH  11  14
ENDBRANCH   6   7
ENDBRANCH   5   6
ENDBRANCH   3   5
ENDBRANCH   2   3
ENDBRANCH   1   2
BRANCH   1  36
ATOM     36  C   UNL A   1      41.923  21.944  25.998  1.00  0.00     0.275 C 
BRANCH  36  37
ATOM     37  O   UNL A   1      42.110  23.147  26.793  1.00  0.00    -0.458 OA
BRANCH  37  38
ATOM     38  C   UNL A   1      42.613  23.126  28.053  1.00  0.00     0.338 C 
ATOM     39  O   UNL A   1      42.916  22.110  28.658  1.00  0.00    -0.246 OA
BRANCH  38  40
ATOM     40  C   UNL A   1      42.672  24.480  28.592  1.00  0.00     0.060 A 
ATOM     41  C   UNL A   1      43.374  24.781  29.771  1.00  0.00     0.016 A 
ATOM     42  C   UNL A   1      42.206  25.470  27.740  1.00  0.00     0.016 A 
ATOM     43  C   UNL A   1      43.682  26.103  30.057  1.00  0.00     0.010 A 
ATOM     44  C   UNL A   1      42.715  26.712  27.887  1.00  0.00     0.010 A 
ATOM     45  C   UNL A   1      43.354  27.044  29.091  1.00  0.00    -0.014 A 
BRANCH  45  46
ATOM     46  C   UNL A   1      43.317  28.474  29.272  1.00  0.00     0.031 A 
ATOM     47  C   UNL A   1      42.092  29.123  29.754  1.00  0.00     0.074 A 
ATOM     48  C   UNL A   1      44.592  28.921  29.410  1.00  0.00     0.049 A 
ATOM     49  N   UNL A   1      42.019  30.374  30.019  1.00  0.00    -0.248 NA
ATOM     50  C   UNL A   1      40.825  28.432  29.999  1.00  0.00     0.031 C 
ATOM     51  C   UNL A   1      45.150  30.003  30.199  1.00  0.00     0.029 A 
ATOM     52  N   UNL A   1      45.754  28.350  28.884  1.00  0.00    -0.354 N 
ATOM     53  C   UNL A   1      40.898  30.569  30.799  1.00  0.00     0.074 A 
ATOM     54  C   UNL A   1      40.117  29.369  30.648  1.00  0.00     0.031 C 
ATOM     55  C   UNL A   1      46.418  30.223  29.784  1.00  0.00     0.029 A 
ATOM     56  C   UNL A   1      46.643  29.373  28.614  1.00  0.00     0.049 A 
ATOM     57  H   UNL A   1      45.911  27.391  28.733  1.00  0.00     0.167 HD
ATOM     58  C   UNL A   1      40.880  31.667  31.607  1.00  0.00     0.031 A 
ATOM     59  C   UNL A   1      46.749  29.825  27.323  1.00  0.00     0.031 A 
ATOM     60  C   UNL A   1      42.084  32.467  31.360  1.00  0.00     0.049 A 
ATOM     61  C   UNL A   1      46.121  31.206  27.232  1.00  0.00     0.074 A 
ATOM     62  C   UNL A   1      43.295  32.551  32.026  1.00  0.00     0.029 A 
ATOM     63  N   UNL A   1      42.293  32.981  30.085  1.00  0.00    -0.354 N 
ATOM     64  N   UNL A   1      45.067  31.588  27.908  1.00  0.00    -0.248 NA
ATOM     65  C   UNL A   1      46.745  32.296  26.493  1.00  0.00     0.031 C 
ATOM     66  C   UNL A   1      44.264  33.010  31.088  1.00  0.00     0.029 A 
ATOM     67  C   UNL A   1      43.641  33.195  29.862  1.00  0.00     0.049 A 
ATOM     68  H   UNL A   1      41.580  33.167  29.431  1.00  0.00     0.167 HD
ATOM     69  C   UNL A   1      44.958  32.951  27.834  1.00  0.00     0.074 A 
ATOM     70  C   UNL A   1      45.999  33.340  26.894  1.00  0.00     0.031 C 
ATOM     71  C   UNL A   1      44.095  33.706  28.576  1.00  0.00     0.031 A 
BRANCH  58  72
ATOM     72  C   UNL A   1      39.969  31.917  32.787  1.00  0.00    -0.014 A 
ATOM     73  C   UNL A   1      39.717  33.257  33.155  1.00  0.00     0.010 A 
ATOM     74  C   UNL A   1      39.363  30.930  33.589  1.00  0.00     0.010 A 
ATOM     75  C   UNL A   1      38.945  33.604  34.270  1.00  0.00     0.020 A 
ATOM     76  C   UNL A   1      38.580  31.265  34.715  1.00  0.00     0.020 A 
ATOM     77  C   UNL A   1      38.381  32.602  35.050  1.00  0.00     0.054 A 
BRANCH  77  78
ATOM     78  S   UNL A   1      37.383  33.090  36.482  1.00  0.00     0.124 S 
ATOM     79  O   UNL A   1      36.113  33.467  35.866  1.00  0.00    -0.237 OA
ATOM     80  O   UNL A   1      37.354  31.867  37.279  1.00  0.00    -0.237 OA
ATOM     81  O   UNL A   1      38.135  34.196  37.071  1.00  0.00    -0.744 OA
ENDBRANCH  77  78
ENDBRANCH  58  72
BRANCH  59  82
ATOM     82  C   UNL A   1      46.634  28.727  26.295  1.00  0.00    -0.014 A 
ATOM     83  C   UNL A   1      47.761  27.887  26.117  1.00  0.00     0.010 A 
ATOM     84  C   UNL A   1      45.388  28.263  25.831  1.00  0.00     0.010 A 
ATOM     85  C   UNL A   1      47.624  26.577  25.641  1.00  0.00     0.020 A 
ATOM     86  C   UNL A   1      45.251  26.951  25.331  1.00  0.00     0.020 A 
ATOM     87  C   UNL A   1      46.362  26.104  25.284  1.00  0.00     0.054 A 
BRANCH  87  88
ATOM     88  S   UNL A   1      46.176  24.314  24.990  1.00  0.00     0.124 S 
ATOM     89  O   UNL A   1      47.011  24.103  23.814  1.00  0.00    -0.237 OA
ATOM     90  O   UNL A   1      46.688  23.765  26.243  1.00  0.00    -0.237 OA
ATOM     91  O   UNL A   1      44.739  24.148  24.782  1.00  0.00    -0.744 OA
ENDBRANCH  87  88
ENDBRANCH  59  82
BRANCH  71  92
ATOM     92  C   UNL A   1      43.651  35.090  28.181  1.00  0.00    -0.014 A 
ATOM     93  C   UNL A   1      42.757  35.331  27.128  1.00  0.00     0.010 A 
ATOM     94  C   UNL A   1      44.002  36.194  28.995  1.00  0.00     0.010 A 
ATOM     95  C   UNL A   1      42.324  36.622  26.830  1.00  0.00     0.020 A 
ATOM     96  C   UNL A   1      43.512  37.475  28.755  1.00  0.00     0.020 A 
ATOM     97  C   UNL A   1      42.710  37.687  27.642  1.00  0.00     0.054 A 
BRANCH  97  98
ATOM     98  S   UNL A   1      42.126  39.345  27.245  1.00  0.00     0.124 S 
ATOM     99  O   UNL A   1      41.558  39.769  28.522  1.00  0.00    -0.237 OA
ATOM    100  O   UNL A   1      43.352  40.032  26.846  1.00  0.00    -0.237 OA
ATOM    101  O   UNL A   1      41.164  39.124  26.170  1.00  0.00    -0.744 OA
ENDBRANCH  97  98
ENDBRANCH  71  92
ENDBRANCH  45  46
ENDBRANCH  38  40
ENDBRANCH  37  38
ENDBRANCH  36  37
ENDBRANCH   1  36
TORSDOF 19
ENDMDL
MODEL 3
REMARK VINA RESULT:      -9.7      4.888     11.625
REMARK SMILES Cc1cc(OCC(=O)OCCOC(=O)c2ccc(-c3c4nc(c(-c5ccc(S(=O)(=O)[O-])cc5)c5ccc([nH]5)c(-c5ccc(S(=O)(=O)[O-])cc5)c5nc(c(-c6ccc(S(=O)(=O)[O-])cc6)c6ccc3[nH]6)C=C5)C=C4)cc2)ccc1NC(=O)c1ccc(N2C(=O)[C@@H]3[C@H](C2=O)[C@H]2C=C[C@@H]3C2)cc1
REMARK SMILES IDX 10 1 9 2 7 3 8 4 6 5 5 6 4 7 1 8 2 9 3 10 77 11 76 12 75 13
REMARK SMILES IDX 78 14 79 15 80 17 81 18 82 19 98 20 83 21 97 22 84 23 85 24
REMARK SMILES IDX 86 25 90 26 87 27 88 28 89 29 91 30 95 31 92 32 94 33 96 34
REMARK SMILES IDX 93 35 11 36 12 37 13 38 14 39 15 40 16 41 74 42 17 43 73 44
REMARK SMILES IDX 18 45 19 46 20 47 67 48 21 49 72 50 66 51 68 52 22 53 71 54
REMARK SMILES IDX 65 55 64 56 23 58 53 59 34 60 52 61 35 62 38 63 51 64 69 65
REMARK SMILES IDX 36 66 37 67 50 69 70 70 39 71 24 72 25 73 33 74 26 75 32 76
REMARK SMILES IDX 27 77 28 78 29 79 30 80 31 81 54 82 55 83 63 84 56 85 62 86
REMARK SMILES IDX 57 87 58 88 59 89 60 90 61 91 40 92 41 93 49 94 42 95 48 96
REMARK SMILES IDX 43 97 44 98 45 99 46 100 47 101
REMARK H PARENT 78 16 68 57 38 68
REMARK Flexibility Score: inf
ROOT
ATOM      1  C   UNL A   1      51.325  31.341  26.093  1.00  0.00     0.274 C 
ENDROOT
BRANCH   1   2
ATOM      2  O   UNL A   1      51.195  32.377  25.118  1.00  0.00    -0.460 OA
BRANCH   2   3
ATOM      3  C   UNL A   1      52.163  33.333  25.159  1.00  0.00     0.344 C 
ATOM      4  O   UNL A   1      52.919  33.510  26.108  1.00  0.00    -0.248 OA
BRANCH   3   5
ATOM      5  C   UNL A   1      52.220  34.132  23.858  1.00  0.00     0.351 C 
BRANCH   5   6
ATOM      6  O   UNL A   1      53.320  33.851  23.004  1.00  0.00    -0.482 OA
BRANCH   6   7
ATOM      7  C   UNL A   1      53.408  32.575  22.526  1.00  0.00     0.120 A 
ATOM      8  C   UNL A   1      51.301  30.677  20.035  1.00  0.00     0.047 C 
ATOM      9  C   UNL A   1      52.375  30.914  21.058  1.00  0.00    -0.024 A 
ATOM     10  C   UNL A   1      52.432  32.215  21.603  1.00  0.00     0.052 A 
ATOM     11  C   UNL A   1      53.300  29.942  21.489  1.00  0.00     0.044 A 
ATOM     12  C   UNL A   1      54.325  30.341  22.345  1.00  0.00     0.030 A 
ATOM     13  C   UNL A   1      54.390  31.651  22.848  1.00  0.00     0.048 A 
BRANCH  11  14
ATOM     14  N   UNL A   1      53.258  28.633  20.968  1.00  0.00    -0.322 N 
ATOM     15  C   UNL A   1      52.778  27.444  21.485  1.00  0.00     0.255 C 
ATOM     16  H   UNL A   1      53.644  28.550  20.065  1.00  0.00     0.170 HD
ATOM     17  O   UNL A   1      53.241  26.385  21.050  1.00  0.00    -0.269 OA
BRANCH  15  18
ATOM     18  C   UNL A   1      51.586  27.365  22.373  1.00  0.00     0.040 A 
ATOM     19  C   UNL A   1      51.711  26.845  23.667  1.00  0.00     0.016 A 
ATOM     20  C   UNL A   1      50.307  27.590  21.876  1.00  0.00     0.016 A 
ATOM     21  C   UNL A   1      50.579  26.661  24.490  1.00  0.00     0.027 A 
ATOM     22  C   UNL A   1      49.180  27.326  22.678  1.00  0.00     0.027 A 
ATOM     23  C   UNL A   1      49.285  26.918  24.019  1.00  0.00     0.052 A 
BRANCH  23  24
ATOM     24  N   UNL A   1      48.119  26.811  24.851  1.00  0.00    -0.250 N 
ATOM     25  C   UNL A   1      47.261  25.725  24.866  1.00  0.00     0.238 C 
ATOM     26  C   UNL A   1      47.714  27.794  25.736  1.00  0.00     0.238 C 
ATOM     27  O   UNL A   1      47.238  24.739  24.142  1.00  0.00    -0.274 OA
ATOM     28  C   UNL A   1      46.220  25.921  25.939  1.00  0.00     0.099 C 
ATOM     29  C   UNL A   1      46.460  27.352  26.438  1.00  0.00     0.099 C 
ATOM     30  O   UNL A   1      48.195  28.902  25.947  1.00  0.00    -0.274 OA
ATOM     31  C   UNL A   1      46.379  25.078  27.227  1.00  0.00     0.025 C 
ATOM     32  C   UNL A   1      46.659  27.175  27.956  1.00  0.00     0.025 C 
ATOM     33  C   UNL A   1      45.185  25.417  28.106  1.00  0.00    -0.027 C 
ATOM     34  C   UNL A   1      47.437  25.856  28.018  1.00  0.00     0.017 C 
ATOM     35  C   UNL A   1      45.348  26.681  28.531  1.00  0.00    -0.027 C 
ENDBRANCH  23  24
ENDBRANCH  15  18
ENDBRANCH  11  14
ENDBRANCH   6   7
ENDBRANCH   5   6
ENDBRANCH   3   5
ENDBRANCH   2   3
ENDBRANCH   1   2
BRANCH   1  36
ATOM     36  C   UNL A   1      50.239  31.483  27.164  1.00  0.00     0.275 C 
BRANCH  36  37
ATOM     37  O   UNL A   1      48.839  31.641  26.804  1.00  0.00    -0.458 OA
BRANCH  37  38
ATOM     38  C   UNL A   1      47.990  32.450  27.487  1.00  0.00     0.338 C 
ATOM     39  O   UNL A   1      48.264  33.579  27.859  1.00  0.00    -0.246 OA
BRANCH  38  40
ATOM     40  C   UNL A   1      46.741  31.748  27.762  1.00  0.00     0.060 A 
ATOM     41  C   UNL A   1      46.609  30.861  28.843  1.00  0.00     0.016 A 
ATOM     42  C   UNL A   1      45.644  32.202  27.045  1.00  0.00     0.016 A 
ATOM     43  C   UNL A   1      45.341  30.485  29.261  1.00  0.00     0.010 A 
ATOM     44  C   UNL A   1      44.424  32.039  27.600  1.00  0.00     0.010 A 
ATOM     45  C   UNL A   1      44.268  31.101  28.632  1.00  0.00    -0.014 A 
BRANCH  45  46
ATOM     46  C   UNL A   1      42.890  30.683  28.691  1.00  0.00     0.031 A 
ATOM     47  C   UNL A   1      42.415  29.588  27.835  1.00  0.00     0.074 A 
ATOM     48  C   UNL A   1      42.376  31.073  29.886  1.00  0.00     0.049 A 
ATOM     49  N   UNL A   1      41.229  29.110  27.903  1.00  0.00    -0.248 NA
ATOM     50  C   UNL A   1      43.229  28.910  26.825  1.00  0.00     0.031 C 
ATOM     51  C   UNL A   1      41.389  30.457  30.754  1.00  0.00     0.029 A 
ATOM     52  N   UNL A   1      42.771  32.162  30.666  1.00  0.00    -0.354 N 
ATOM     53  C   UNL A   1      41.240  27.881  27.275  1.00  0.00     0.074 A 
ATOM     54  C   UNL A   1      42.457  27.858  26.507  1.00  0.00     0.031 C 
ATOM     55  C   UNL A   1      41.015  31.365  31.684  1.00  0.00     0.029 A 
ATOM     56  C   UNL A   1      41.655  32.632  31.332  1.00  0.00     0.049 A 
ATOM     57  H   UNL A   1      43.681  32.531  30.729  1.00  0.00     0.167 HD
ATOM     58  C   UNL A   1      40.284  26.982  27.642  1.00  0.00     0.031 A 
ATOM     59  C   UNL A   1      41.004  33.729  30.827  1.00  0.00     0.031 A 
ATOM     60  C   UNL A   1      39.368  27.614  28.597  1.00  0.00     0.049 A 
ATOM     61  C   UNL A   1      39.676  33.284  30.237  1.00  0.00     0.074 A 
ATOM     62  C   UNL A   1      39.297  27.576  29.979  1.00  0.00     0.029 A 
ATOM     63  N   UNL A   1      38.650  28.734  28.191  1.00  0.00    -0.354 N 
ATOM     64  N   UNL A   1      39.482  32.144  29.623  1.00  0.00    -0.248 NA
ATOM     65  C   UNL A   1      38.442  34.028  30.451  1.00  0.00     0.031 C 
ATOM     66  C   UNL A   1      38.630  28.762  30.403  1.00  0.00     0.029 A 
ATOM     67  C   UNL A   1      38.305  29.511  29.281  1.00  0.00     0.049 A 
ATOM     68  H   UNL A   1      38.420  28.944  27.256  1.00  0.00     0.167 HD
ATOM     69  C   UNL A   1      38.136  31.926  29.499  1.00  0.00     0.074 A 
ATOM     70  C   UNL A   1      37.530  33.158  29.985  1.00  0.00     0.031 C 
ATOM     71  C   UNL A   1      37.570  30.753  29.086  1.00  0.00     0.031 A 
BRANCH  58  72
ATOM     72  C   UNL A   1      40.287  25.492  27.388  1.00  0.00    -0.014 A 
ATOM     73  C   UNL A   1      41.461  24.770  27.702  1.00  0.00     0.010 A 
ATOM     74  C   UNL A   1      39.233  24.744  26.828  1.00  0.00     0.010 A 
ATOM     75  C   UNL A   1      41.599  23.401  27.446  1.00  0.00     0.020 A 
ATOM     76  C   UNL A   1      39.357  23.363  26.565  1.00  0.00     0.020 A 
ATOM     77  C   UNL A   1      40.544  22.702  26.872  1.00  0.00     0.054 A 
BRANCH  77  78
ATOM     78  S   UNL A   1      40.759  20.929  26.560  1.00  0.00     0.124 S 
ATOM     79  O   UNL A   1      39.521  20.581  25.867  1.00  0.00    -0.237 OA
ATOM     80  O   UNL A   1      41.967  20.897  25.741  1.00  0.00    -0.237 OA
ATOM     81  O   UNL A   1      40.900  20.355  27.896  1.00  0.00    -0.744 OA
ENDBRANCH  77  78
ENDBRANCH  58  72
BRANCH  59  82
ATOM     82  C   UNL A   1      41.936  34.759  30.240  1.00  0.00    -0.014 A 
ATOM     83  C   UNL A   1      42.871  35.362  31.118  1.00  0.00     0.010 A 
ATOM     84  C   UNL A   1      42.188  34.840  28.857  1.00  0.00     0.010 A 
ATOM     85  C   UNL A   1      44.082  35.883  30.646  1.00  0.00     0.020 A 
ATOM     86  C   UNL A   1      43.398  35.384  28.377  1.00  0.00     0.020 A 
ATOM     87  C   UNL A   1      44.354  35.858  29.279  1.00  0.00     0.054 A 
BRANCH  87  88
ATOM     88  S   UNL A   1      46.055  36.234  28.743  1.00  0.00     0.124 S 
ATOM     89  O   UNL A   1      46.076  35.711  27.382  1.00  0.00    -0.237 OA
ATOM     90  O   UNL A   1      46.078  37.690  28.867  1.00  0.00    -0.237 OA
ATOM     91  O   UNL A   1      46.886  35.517  29.708  1.00  0.00    -0.744 OA
ENDBRANCH  87  88
ENDBRANCH  59  82
BRANCH  71  92
ATOM     92  C   UNL A   1      36.178  30.657  28.517  1.00  0.00    -0.014 A 
ATOM     93  C   UNL A   1      35.428  31.782  28.146  1.00  0.00     0.010 A 
ATOM     94  C   UNL A   1      35.651  29.389  28.178  1.00  0.00     0.010 A 
ATOM     95  C   UNL A   1      34.167  31.650  27.568  1.00  0.00     0.020 A 
ATOM     96  C   UNL A   1      34.427  29.246  27.528  1.00  0.00     0.020 A 
ATOM     97  C   UNL A   1      33.672  30.381  27.269  1.00  0.00     0.054 A 
BRANCH  97  98
ATOM     98  S   UNL A   1      32.044  30.237  26.509  1.00  0.00     0.124 S 
ATOM     99  O   UNL A   1      32.393  29.910  25.129  1.00  0.00    -0.237 OA
ATOM    100  O   UNL A   1      31.426  29.154  27.272  1.00  0.00    -0.237 OA
ATOM    101  O   UNL A   1      31.449  31.554  26.713  1.00  0.00    -0.744 OA
ENDBRANCH  97  98
ENDBRANCH  71  92
ENDBRANCH  45  46
ENDBRANCH  38  40
ENDBRANCH  37  38
ENDBRANCH  36  37
ENDBRANCH   1  36
TORSDOF 19
ENDMDL
