MODEL 1
REMARK VINA RESULT:     -11.2      0.000      0.000
REMARK SMILES CCOc1ccc(C(=O)N2CCC(C(=O)OCCOC(=O)c3ccc(-c4c5nc(c(-c6ccc(S(=O)(=O)[O-])cc6)c6ccc([nH]6)c(-c6ccc(S(=O)(=O)[O-])cc6)c6nc(c(-c7ccc(S(=O)(=O)[O-])cc7)c7ccc4[nH]7)C=C6)C=C5)cc3)(c3ccccc3)CC2)cc1OC
REMARK SMILES IDX 17 1 16 2 14 3 15 4 13 5 8 6 9 7 10 8 11 9 89 10 12 11 88 12
REMARK SMILES IDX 7 13 4 14 5 15 91 16 6 17 90 18 3 19 2 20 1 21 92 22 93 23
REMARK SMILES IDX 82 24 83 25 87 26 84 27 86 28 85 29 18 30 19 31 20 32 21 33
REMARK SMILES IDX 22 34 23 35 81 36 24 37 80 38 25 39 26 40 27 41 74 42 28 43
REMARK SMILES IDX 79 44 73 45 75 46 29 47 78 48 72 49 71 50 30 52 60 53 41 54
REMARK SMILES IDX 59 55 42 56 45 57 58 58 76 59 43 60 44 61 57 63 77 64 46 65
REMARK SMILES IDX 31 66 32 67 40 68 33 69 39 70 34 71 35 72 36 73 37 74 38 75
REMARK SMILES IDX 61 76 62 77 70 78 63 79 69 80 64 81 65 82 66 83 67 84 68 85
REMARK SMILES IDX 47 86 48 87 56 88 49 89 55 90 50 91 51 92 52 93 53 94 54 95
REMARK H PARENT 75 51 45 62
REMARK Flexibility Score: inf
ROOT
ATOM      1  C   UNL A   1      33.198  30.737  27.242  1.00  0.00     0.274 C 
ENDROOT
BRANCH   1   2
ATOM      2  O   UNL A   1      33.407  29.311  27.219  1.00  0.00    -0.461 OA
BRANCH   2   3
ATOM      3  C   UNL A   1      32.295  28.521  27.175  1.00  0.00     0.316 C 
ATOM      4  O   UNL A   1      31.324  28.718  27.896  1.00  0.00    -0.251 OA
BRANCH   3   5
ATOM      5  C   UNL A   1      32.464  27.300  26.207  1.00  0.00     0.096 C 
ATOM      6  C   UNL A   1      34.369  23.377  25.780  1.00  0.00     0.253 C 
ATOM      7  O   UNL A   1      35.598  23.287  25.833  1.00  0.00    -0.269 OA
ATOM      8  N   UNL A   1      33.715  24.608  25.932  1.00  0.00    -0.339 N 
ATOM      9  C   UNL A   1      34.416  25.752  25.368  1.00  0.00     0.121 C 
ATOM     10  C   UNL A   1      32.312  24.772  26.308  1.00  0.00     0.121 C 
ATOM     11  C   UNL A   1      33.971  27.130  25.853  1.00  0.00     0.045 C 
ATOM     12  C   UNL A   1      32.050  26.071  27.051  1.00  0.00     0.045 C 
BRANCH   6  13
ATOM     13  C   UNL A   1      33.615  22.136  25.429  1.00  0.00     0.043 A 
ATOM     14  C   UNL A   1      32.507  19.650  24.712  1.00  0.00     0.161 A 
ATOM     15  C   UNL A   1      33.006  19.859  26.007  1.00  0.00     0.051 A 
ATOM     16  C   UNL A   1      32.512  20.694  23.788  1.00  0.00     0.161 A 
ATOM     17  C   UNL A   1      33.553  21.097  26.364  1.00  0.00     0.018 A 
ATOM     18  C   UNL A   1      33.128  21.900  24.142  1.00  0.00     0.064 A 
BRANCH  14  19
ATOM     19  O   UNL A   1      32.013  18.419  24.379  1.00  0.00    -0.490 OA
BRANCH  19  20
ATOM     20  C   UNL A   1      32.952  17.366  24.637  1.00  0.00     0.226 C 
ATOM     21  C   UNL A   1      33.529  16.900  23.311  1.00  0.00     0.049 C 
ENDBRANCH  19  20
ENDBRANCH  14  19
BRANCH  16  22
ATOM     22  O   UNL A   1      32.037  20.718  22.509  1.00  0.00    -0.493 OA
ATOM     23  C   UNL A   1      32.235  21.879  21.720  1.00  0.00     0.278 C 
ENDBRANCH  16  22
ENDBRANCH   6  13
BRANCH   5  24
ATOM     24  C   UNL A   1      31.524  27.420  24.960  1.00  0.00    -0.031 A 
ATOM     25  C   UNL A   1      30.313  26.695  24.888  1.00  0.00     0.005 A 
ATOM     26  C   UNL A   1      31.831  28.213  23.839  1.00  0.00     0.005 A 
ATOM     27  C   UNL A   1      29.449  26.794  23.789  1.00  0.00     0.000 A 
ATOM     28  C   UNL A   1      30.993  28.273  22.716  1.00  0.00     0.000 A 
ATOM     29  C   UNL A   1      29.795  27.575  22.695  1.00  0.00     0.000 A 
ENDBRANCH   5  24
ENDBRANCH   3   5
ENDBRANCH   2   3
ENDBRANCH   1   2
BRANCH   1  30
ATOM     30  C   UNL A   1      34.319  31.419  28.019  1.00  0.00     0.275 C 
BRANCH  30  31
ATOM     31  O   UNL A   1      35.440  30.525  28.120  1.00  0.00    -0.458 OA
BRANCH  31  32
ATOM     32  C   UNL A   1      36.206  30.656  29.228  1.00  0.00     0.338 C 
ATOM     33  O   UNL A   1      35.900  31.174  30.287  1.00  0.00    -0.246 OA
BRANCH  32  34
ATOM     34  C   UNL A   1      37.515  30.033  28.977  1.00  0.00     0.060 A 
ATOM     35  C   UNL A   1      38.349  29.747  30.055  1.00  0.00     0.016 A 
ATOM     36  C   UNL A   1      37.958  29.826  27.671  1.00  0.00     0.016 A 
ATOM     37  C   UNL A   1      39.648  29.300  29.836  1.00  0.00     0.010 A 
ATOM     38  C   UNL A   1      39.243  29.314  27.456  1.00  0.00     0.010 A 
ATOM     39  C   UNL A   1      40.112  29.069  28.536  1.00  0.00    -0.014 A 
BRANCH  39  40
ATOM     40  C   UNL A   1      41.522  28.650  28.304  1.00  0.00     0.031 A 
ATOM     41  C   UNL A   1      42.625  29.670  28.407  1.00  0.00     0.074 A 
ATOM     42  C   UNL A   1      41.835  27.363  28.052  1.00  0.00     0.049 A 
ATOM     43  N   UNL A   1      43.878  29.572  28.047  1.00  0.00    -0.248 NA
ATOM     44  C   UNL A   1      42.268  30.974  28.992  1.00  0.00     0.031 C 
ATOM     45  C   UNL A   1      40.889  26.245  28.024  1.00  0.00     0.029 A 
ATOM     46  N   UNL A   1      43.047  26.775  27.779  1.00  0.00    -0.354 N 
ATOM     47  C   UNL A   1      44.448  30.810  28.316  1.00  0.00     0.074 A 
ATOM     48  C   UNL A   1      43.406  31.644  28.874  1.00  0.00     0.031 C 
ATOM     49  C   UNL A   1      41.560  25.108  27.777  1.00  0.00     0.029 A 
ATOM     50  C   UNL A   1      42.966  25.423  27.543  1.00  0.00     0.049 A 
ATOM     51  H   UNL A   1      43.895  27.276  27.755  1.00  0.00     0.167 HD
ATOM     52  C   UNL A   1      45.723  31.218  28.110  1.00  0.00     0.031 A 
ATOM     53  C   UNL A   1      43.902  24.543  27.136  1.00  0.00     0.031 A 
ATOM     54  C   UNL A   1      46.762  30.381  27.575  1.00  0.00     0.049 A 
ATOM     55  C   UNL A   1      45.295  25.034  26.842  1.00  0.00     0.074 A 
ATOM     56  C   UNL A   1      48.065  30.721  27.254  1.00  0.00     0.029 A 
ATOM     57  N   UNL A   1      46.626  29.028  27.309  1.00  0.00    -0.354 N 
ATOM     58  N   UNL A   1      45.789  26.241  26.982  1.00  0.00    -0.248 NA
ATOM     59  C   UNL A   1      46.250  24.051  26.310  1.00  0.00     0.031 C 
ATOM     60  C   UNL A   1      48.710  29.576  26.771  1.00  0.00     0.029 A 
ATOM     61  C   UNL A   1      47.820  28.517  26.834  1.00  0.00     0.049 A 
ATOM     62  H   UNL A   1      45.800  28.506  27.440  1.00  0.00     0.167 HD
ATOM     63  C   UNL A   1      47.112  26.158  26.562  1.00  0.00     0.074 A 
ATOM     64  C   UNL A   1      47.351  24.781  26.188  1.00  0.00     0.031 C 
ATOM     65  C   UNL A   1      48.044  27.139  26.483  1.00  0.00     0.031 A 
BRANCH  52  66
ATOM     66  C   UNL A   1      46.053  32.651  28.420  1.00  0.00    -0.014 A 
ATOM     67  C   UNL A   1      46.806  32.997  29.555  1.00  0.00     0.010 A 
ATOM     68  C   UNL A   1      45.632  33.664  27.538  1.00  0.00     0.010 A 
ATOM     69  C   UNL A   1      47.109  34.336  29.818  1.00  0.00     0.020 A 
ATOM     70  C   UNL A   1      45.951  35.001  27.787  1.00  0.00     0.020 A 
ATOM     71  C   UNL A   1      46.676  35.330  28.934  1.00  0.00     0.054 A 
BRANCH  71  72
ATOM     72  S   UNL A   1      47.101  37.059  29.285  1.00  0.00     0.124 S 
ATOM     73  O   UNL A   1      47.557  37.526  27.979  1.00  0.00    -0.237 OA
ATOM     74  O   UNL A   1      45.830  37.617  29.742  1.00  0.00    -0.237 OA
ATOM     75  O   UNL A   1      48.138  36.960  30.308  1.00  0.00    -0.744 OA
ENDBRANCH  71  72
ENDBRANCH  52  66
BRANCH  53  76
ATOM     76  C   UNL A   1      43.540  23.118  26.896  1.00  0.00    -0.014 A 
ATOM     77  C   UNL A   1      43.508  22.590  25.593  1.00  0.00     0.010 A 
ATOM     78  C   UNL A   1      43.194  22.286  27.978  1.00  0.00     0.010 A 
ATOM     79  C   UNL A   1      43.114  21.266  25.375  1.00  0.00     0.020 A 
ATOM     80  C   UNL A   1      42.830  20.955  27.767  1.00  0.00     0.020 A 
ATOM     81  C   UNL A   1      42.772  20.458  26.463  1.00  0.00     0.054 A 
BRANCH  81  82
ATOM     82  S   UNL A   1      42.290  18.734  26.171  1.00  0.00     0.124 S 
ATOM     83  O   UNL A   1      43.261  18.315  25.167  1.00  0.00    -0.237 OA
ATOM     84  O   UNL A   1      42.443  18.128  27.492  1.00  0.00    -0.237 OA
ATOM     85  O   UNL A   1      40.910  18.844  25.704  1.00  0.00    -0.744 OA
ENDBRANCH  81  82
ENDBRANCH  53  76
BRANCH  65  86
ATOM     86  C   UNL A   1      49.418  26.756  26.010  1.00  0.00    -0.014 A 
ATOM     87  C   UNL A   1      49.801  26.945  24.671  1.00  0.00     0.010 A 
ATOM     88  C   UNL A   1      50.360  26.273  26.935  1.00  0.00     0.010 A 
ATOM     89  C   UNL A   1      51.102  26.641  24.261  1.00  0.00     0.020 A 
ATOM     90  C   UNL A   1      51.667  25.986  26.533  1.00  0.00     0.020 A 
ATOM     91  C   UNL A   1      52.028  26.163  25.196  1.00  0.00     0.054 A 
BRANCH  91  92
ATOM     92  S   UNL A   1      53.729  25.838  24.656  1.00  0.00     0.124 S 
ATOM     93  O   UNL A   1      53.834  24.392  24.837  1.00  0.00    -0.237 OA
ATOM     94  O   UNL A   1      53.723  26.299  23.270  1.00  0.00    -0.237 OA
ATOM     95  O   UNL A   1      54.540  26.640  25.569  1.00  0.00    -0.744 OA
ENDBRANCH  91  92
ENDBRANCH  65  86
ENDBRANCH  39  40
ENDBRANCH  32  34
ENDBRANCH  31  32
ENDBRANCH  30  31
ENDBRANCH   1  30
TORSDOF 19
ENDMDL
MODEL 2
REMARK VINA RESULT:     -11.2      6.292     12.045
REMARK SMILES CCOc1ccc(C(=O)N2CCC(C(=O)OCCOC(=O)c3ccc(-c4c5nc(c(-c6ccc(S(=O)(=O)[O-])cc6)c6ccc([nH]6)c(-c6ccc(S(=O)(=O)[O-])cc6)c6nc(c(-c7ccc(S(=O)(=O)[O-])cc7)c7ccc4[nH]7)C=C6)C=C5)cc3)(c3ccccc3)CC2)cc1OC
REMARK SMILES IDX 17 1 16 2 14 3 15 4 13 5 8 6 9 7 10 8 11 9 89 10 12 11 88 12
REMARK SMILES IDX 7 13 4 14 5 15 91 16 6 17 90 18 3 19 2 20 1 21 92 22 93 23
REMARK SMILES IDX 82 24 83 25 87 26 84 27 86 28 85 29 18 30 19 31 20 32 21 33
REMARK SMILES IDX 22 34 23 35 81 36 24 37 80 38 25 39 26 40 27 41 74 42 28 43
REMARK SMILES IDX 79 44 73 45 75 46 29 47 78 48 72 49 71 50 30 52 60 53 41 54
REMARK SMILES IDX 59 55 42 56 45 57 58 58 76 59 43 60 44 61 57 63 77 64 46 65
REMARK SMILES IDX 31 66 32 67 40 68 33 69 39 70 34 71 35 72 36 73 37 74 38 75
REMARK SMILES IDX 61 76 62 77 70 78 63 79 69 80 64 81 65 82 66 83 67 84 68 85
REMARK SMILES IDX 47 86 48 87 56 88 49 89 55 90 50 91 51 92 52 93 53 94 54 95
REMARK H PARENT 75 51 45 62
REMARK Flexibility Score: inf
ROOT
ATOM      1  C   UNL A   1      38.215  22.108  25.700  1.00  0.00     0.274 C 
ENDROOT
BRANCH   1   2
ATOM      2  O   UNL A   1      36.995  22.866  25.577  1.00  0.00    -0.461 OA
BRANCH   2   3
ATOM      3  C   UNL A   1      36.395  22.882  24.351  1.00  0.00     0.316 C 
ATOM      4  O   UNL A   1      36.993  22.571  23.327  1.00  0.00    -0.251 OA
BRANCH   3   5
ATOM      5  C   UNL A   1      34.934  23.446  24.403  1.00  0.00     0.096 C 
ATOM      6  C   UNL A   1      32.582  27.085  25.057  1.00  0.00     0.253 C 
ATOM      7  O   UNL A   1      32.670  27.683  26.133  1.00  0.00    -0.269 OA
ATOM      8  N   UNL A   1      33.331  25.928  24.796  1.00  0.00    -0.339 N 
ATOM      9  C   UNL A   1      33.537  25.055  25.942  1.00  0.00     0.121 C 
ATOM     10  C   UNL A   1      33.629  25.405  23.465  1.00  0.00     0.121 C 
ATOM     11  C   UNL A   1      34.659  24.027  25.822  1.00  0.00     0.045 C 
ATOM     12  C   UNL A   1      34.938  24.635  23.414  1.00  0.00     0.045 C 
BRANCH   6  13
ATOM     13  C   UNL A   1      31.556  27.579  24.092  1.00  0.00     0.043 A 
ATOM     14  C   UNL A   1      29.586  28.787  22.484  1.00  0.00     0.161 A 
ATOM     15  C   UNL A   1      30.921  29.212  22.412  1.00  0.00     0.051 A 
ATOM     16  C   UNL A   1      29.239  27.725  23.319  1.00  0.00     0.161 A 
ATOM     17  C   UNL A   1      31.901  28.608  23.208  1.00  0.00     0.018 A 
ATOM     18  C   UNL A   1      30.219  27.184  24.159  1.00  0.00     0.064 A 
BRANCH  14  19
ATOM     19  O   UNL A   1      28.643  29.419  21.723  1.00  0.00    -0.490 OA
BRANCH  19  20
ATOM     20  C   UNL A   1      28.772  30.847  21.769  1.00  0.00     0.226 C 
ATOM     21  C   UNL A   1      27.971  31.364  22.953  1.00  0.00     0.049 C 
ENDBRANCH  19  20
ENDBRANCH  14  19
BRANCH  16  22
ATOM     22  O   UNL A   1      28.023  27.130  23.500  1.00  0.00    -0.493 OA
ATOM     23  C   UNL A   1      26.887  27.941  23.741  1.00  0.00     0.278 C 
ENDBRANCH  16  22
ENDBRANCH   6  13
BRANCH   5  24
ATOM     24  C   UNL A   1      33.888  22.379  23.936  1.00  0.00    -0.031 A 
ATOM     25  C   UNL A   1      33.708  21.174  24.651  1.00  0.00     0.005 A 
ATOM     26  C   UNL A   1      33.100  22.528  22.779  1.00  0.00     0.005 A 
ATOM     27  C   UNL A   1      32.771  20.207  24.261  1.00  0.00     0.000 A 
ATOM     28  C   UNL A   1      32.199  21.540  22.358  1.00  0.00     0.000 A 
ATOM     29  C   UNL A   1      32.023  20.385  23.105  1.00  0.00     0.000 A 
ENDBRANCH   5  24
ENDBRANCH   3   5
ENDBRANCH   2   3
ENDBRANCH   1   2
BRANCH   1  30
ATOM     30  C   UNL A   1      39.159  22.791  26.684  1.00  0.00     0.275 C 
BRANCH  30  31
ATOM     31  O   UNL A   1      38.931  24.209  26.656  1.00  0.00    -0.458 OA
BRANCH  31  32
ATOM     32  C   UNL A   1      40.017  24.982  26.424  1.00  0.00     0.338 C 
ATOM     33  O   UNL A   1      40.754  24.958  25.455  1.00  0.00    -0.246 OA
BRANCH  32  34
ATOM     34  C   UNL A   1      40.181  25.920  27.546  1.00  0.00     0.060 A 
ATOM     35  C   UNL A   1      39.392  25.764  28.683  1.00  0.00     0.016 A 
ATOM     36  C   UNL A   1      41.042  27.010  27.433  1.00  0.00     0.016 A 
ATOM     37  C   UNL A   1      39.419  26.722  29.692  1.00  0.00     0.010 A 
ATOM     38  C   UNL A   1      41.117  27.938  28.479  1.00  0.00     0.010 A 
ATOM     39  C   UNL A   1      40.286  27.818  29.609  1.00  0.00    -0.014 A 
BRANCH  39  40
ATOM     40  C   UNL A   1      40.268  28.871  30.661  1.00  0.00     0.031 A 
ATOM     41  C   UNL A   1      41.269  28.816  31.784  1.00  0.00     0.074 A 
ATOM     42  C   UNL A   1      39.400  29.902  30.600  1.00  0.00     0.049 A 
ATOM     43  N   UNL A   1      41.299  29.499  32.899  1.00  0.00    -0.248 NA
ATOM     44  C   UNL A   1      42.383  27.864  31.631  1.00  0.00     0.031 C 
ATOM     45  C   UNL A   1      38.441  30.148  29.521  1.00  0.00     0.029 A 
ATOM     46  N   UNL A   1      39.193  30.947  31.469  1.00  0.00    -0.354 N 
ATOM     47  C   UNL A   1      42.404  29.029  33.600  1.00  0.00     0.074 A 
ATOM     48  C   UNL A   1      43.021  28.005  32.785  1.00  0.00     0.031 C 
ATOM     49  C   UNL A   1      37.771  31.283  29.778  1.00  0.00     0.029 A 
ATOM     50  C   UNL A   1      38.186  31.799  31.079  1.00  0.00     0.049 A 
ATOM     51  H   UNL A   1      39.717  31.074  32.293  1.00  0.00     0.167 HD
ATOM     52  C   UNL A   1      42.857  29.411  34.818  1.00  0.00     0.031 A 
ATOM     53  C   UNL A   1      37.624  32.847  31.714  1.00  0.00     0.031 A 
ATOM     54  C   UNL A   1      42.256  30.443  35.617  1.00  0.00     0.049 A 
ATOM     55  C   UNL A   1      38.096  33.206  33.098  1.00  0.00     0.074 A 
ATOM     56  C   UNL A   1      42.591  30.851  36.897  1.00  0.00     0.029 A 
ATOM     57  N   UNL A   1      41.210  31.253  35.202  1.00  0.00    -0.354 N 
ATOM     58  N   UNL A   1      39.064  32.670  33.804  1.00  0.00    -0.248 NA
ATOM     59  C   UNL A   1      37.385  34.297  33.782  1.00  0.00     0.031 C 
ATOM     60  C   UNL A   1      41.732  31.892  37.265  1.00  0.00     0.029 A 
ATOM     61  C   UNL A   1      40.892  32.160  36.196  1.00  0.00     0.049 A 
ATOM     62  H   UNL A   1      40.760  31.191  34.327  1.00  0.00     0.167 HD
ATOM     63  C   UNL A   1      39.078  33.361  35.010  1.00  0.00     0.074 A 
ATOM     64  C   UNL A   1      38.044  34.371  34.931  1.00  0.00     0.031 C 
ATOM     65  C   UNL A   1      39.871  33.170  36.093  1.00  0.00     0.031 A 
BRANCH  52  66
ATOM     66  C   UNL A   1      44.040  28.673  35.381  1.00  0.00    -0.014 A 
ATOM     67  C   UNL A   1      43.886  27.429  36.017  1.00  0.00     0.010 A 
ATOM     68  C   UNL A   1      45.328  29.218  35.236  1.00  0.00     0.010 A 
ATOM     69  C   UNL A   1      45.002  26.756  36.525  1.00  0.00     0.020 A 
ATOM     70  C   UNL A   1      46.447  28.538  35.723  1.00  0.00     0.020 A 
ATOM     71  C   UNL A   1      46.275  27.317  36.378  1.00  0.00     0.054 A 
BRANCH  71  72
ATOM     72  S   UNL A   1      47.710  26.413  37.024  1.00  0.00     0.124 S 
ATOM     73  O   UNL A   1      47.839  25.325  36.059  1.00  0.00    -0.237 OA
ATOM     74  O   UNL A   1      48.769  27.418  36.983  1.00  0.00    -0.237 OA
ATOM     75  O   UNL A   1      47.290  26.010  38.364  1.00  0.00    -0.744 OA
ENDBRANCH  71  72
ENDBRANCH  52  66
BRANCH  53  76
ATOM     76  C   UNL A   1      36.491  33.585  31.090  1.00  0.00    -0.014 A 
ATOM     77  C   UNL A   1      35.344  33.912  31.834  1.00  0.00     0.010 A 
ATOM     78  C   UNL A   1      36.545  33.939  29.728  1.00  0.00     0.010 A 
ATOM     79  C   UNL A   1      34.264  34.556  31.224  1.00  0.00     0.020 A 
ATOM     80  C   UNL A   1      35.480  34.610  29.123  1.00  0.00     0.020 A 
ATOM     81  C   UNL A   1      34.337  34.897  29.870  1.00  0.00     0.054 A 
BRANCH  81  82
ATOM     82  S   UNL A   1      32.941  35.758  29.095  1.00  0.00     0.124 S 
ATOM     83  O   UNL A   1      32.116  36.094  30.251  1.00  0.00    -0.237 OA
ATOM     84  O   UNL A   1      33.587  36.886  28.429  1.00  0.00    -0.237 OA
ATOM     85  O   UNL A   1      32.381  34.752  28.195  1.00  0.00    -0.744 OA
ENDBRANCH  81  82
ENDBRANCH  53  76
BRANCH  65  86
ATOM     86  C   UNL A   1      39.682  34.091  37.265  1.00  0.00    -0.014 A 
ATOM     87  C   UNL A   1      38.877  33.719  38.355  1.00  0.00     0.010 A 
ATOM     88  C   UNL A   1      40.381  35.310  37.309  1.00  0.00     0.010 A 
ATOM     89  C   UNL A   1      38.760  34.560  39.465  1.00  0.00     0.020 A 
ATOM     90  C   UNL A   1      40.282  36.146  38.424  1.00  0.00     0.020 A 
ATOM     91  C   UNL A   1      39.465  35.769  39.492  1.00  0.00     0.054 A 
BRANCH  91  92
ATOM     92  S   UNL A   1      39.352  36.816  40.970  1.00  0.00     0.124 S 
ATOM     93  O   UNL A   1      40.754  36.941  41.361  1.00  0.00    -0.237 OA
ATOM     94  O   UNL A   1      38.732  38.035  40.457  1.00  0.00    -0.237 OA
ATOM     95  O   UNL A   1      38.517  36.036  41.882  1.00  0.00    -0.744 OA
ENDBRANCH  91  92
ENDBRANCH  65  86
ENDBRANCH  39  40
ENDBRANCH  32  34
ENDBRANCH  31  32
ENDBRANCH  30  31
ENDBRANCH   1  30
TORSDOF 19
ENDMDL
MODEL 3
REMARK VINA RESULT:     -11.1      6.021     10.322
REMARK SMILES CCOc1ccc(C(=O)N2CCC(C(=O)OCCOC(=O)c3ccc(-c4c5nc(c(-c6ccc(S(=O)(=O)[O-])cc6)c6ccc([nH]6)c(-c6ccc(S(=O)(=O)[O-])cc6)c6nc(c(-c7ccc(S(=O)(=O)[O-])cc7)c7ccc4[nH]7)C=C6)C=C5)cc3)(c3ccccc3)CC2)cc1OC
REMARK SMILES IDX 17 1 16 2 14 3 15 4 13 5 8 6 9 7 10 8 11 9 89 10 12 11 88 12
REMARK SMILES IDX 7 13 4 14 5 15 91 16 6 17 90 18 3 19 2 20 1 21 92 22 93 23
REMARK SMILES IDX 82 24 83 25 87 26 84 27 86 28 85 29 18 30 19 31 20 32 21 33
REMARK SMILES IDX 22 34 23 35 81 36 24 37 80 38 25 39 26 40 27 41 74 42 28 43
REMARK SMILES IDX 79 44 73 45 75 46 29 47 78 48 72 49 71 50 30 52 60 53 41 54
REMARK SMILES IDX 59 55 42 56 45 57 58 58 76 59 43 60 44 61 57 63 77 64 46 65
REMARK SMILES IDX 31 66 32 67 40 68 33 69 39 70 34 71 35 72 36 73 37 74 38 75
REMARK SMILES IDX 61 76 62 77 70 78 63 79 69 80 64 81 65 82 66 83 67 84 68 85
REMARK SMILES IDX 47 86 48 87 56 88 49 89 55 90 50 91 51 92 52 93 53 94 54 95
REMARK H PARENT 75 51 45 62
REMARK Flexibility Score: inf
ROOT
ATOM      1  C   UNL A   1      32.601  30.553  27.072  1.00  0.00     0.274 C 
ENDROOT
BRANCH   1   2
ATOM      2  O   UNL A   1      33.016  29.175  26.994  1.00  0.00    -0.461 OA
BRANCH   2   3
ATOM      3  C   UNL A   1      32.034  28.228  27.043  1.00  0.00     0.316 C 
ATOM      4  O   UNL A   1      31.235  28.162  27.970  1.00  0.00    -0.251 OA
BRANCH   3   5
ATOM      5  C   UNL A   1      32.135  27.196  25.867  1.00  0.00     0.096 C 
ATOM      6  C   UNL A   1      34.503  23.860  24.297  1.00  0.00     0.253 C 
ATOM      7  O   UNL A   1      35.693  24.034  24.021  1.00  0.00    -0.269 OA
ATOM      8  N   UNL A   1      33.712  24.894  24.822  1.00  0.00    -0.339 N 
ATOM      9  C   UNL A   1      34.011  26.221  24.306  1.00  0.00     0.121 C 
ATOM     10  C   UNL A   1      32.468  24.702  25.563  1.00  0.00     0.121 C 
ATOM     11  C   UNL A   1      33.486  27.402  25.119  1.00  0.00     0.045 C 
ATOM     12  C   UNL A   1      32.201  25.816  26.562  1.00  0.00     0.045 C 
BRANCH   6  13
ATOM     13  C   UNL A   1      33.913  22.537  23.939  1.00  0.00     0.043 A 
ATOM     14  C   UNL A   1      32.506  20.154  23.419  1.00  0.00     0.161 A 
ATOM     15  C   UNL A   1      32.323  21.280  22.602  1.00  0.00     0.051 A 
ATOM     16  C   UNL A   1      33.427  20.197  24.465  1.00  0.00     0.161 A 
ATOM     17  C   UNL A   1      33.026  22.464  22.858  1.00  0.00     0.018 A 
ATOM     18  C   UNL A   1      34.066  21.409  24.748  1.00  0.00     0.064 A 
BRANCH  14  19
ATOM     19  O   UNL A   1      31.778  19.024  23.169  1.00  0.00    -0.490 OA
BRANCH  19  20
ATOM     20  C   UNL A   1      32.332  18.243  22.101  1.00  0.00     0.226 C 
ATOM     21  C   UNL A   1      33.265  17.204  22.698  1.00  0.00     0.049 C 
ENDBRANCH  19  20
ENDBRANCH  14  19
BRANCH  16  22
ATOM     22  O   UNL A   1      33.790  19.211  25.338  1.00  0.00    -0.493 OA
ATOM     23  C   UNL A   1      32.780  18.495  26.028  1.00  0.00     0.278 C 
ENDBRANCH  16  22
ENDBRANCH   6  13
BRANCH   5  24
ATOM     24  C   UNL A   1      30.875  27.257  24.940  1.00  0.00    -0.031 A 
ATOM     25  C   UNL A   1      30.648  28.363  24.091  1.00  0.00     0.005 A 
ATOM     26  C   UNL A   1      29.888  26.253  24.915  1.00  0.00     0.005 A 
ATOM     27  C   UNL A   1      29.534  28.437  23.243  1.00  0.00     0.000 A 
ATOM     28  C   UNL A   1      28.747  26.349  24.105  1.00  0.00     0.000 A 
ATOM     29  C   UNL A   1      28.576  27.433  23.259  1.00  0.00     0.000 A 
ENDBRANCH   5  24
ENDBRANCH   3   5
ENDBRANCH   2   3
ENDBRANCH   1   2
BRANCH   1  30
ATOM     30  C   UNL A   1      33.664  31.382  27.785  1.00  0.00     0.275 C 
BRANCH  30  31
ATOM     31  O   UNL A   1      33.533  32.759  27.396  1.00  0.00    -0.458 OA
BRANCH  31  32
ATOM     32  C   UNL A   1      33.502  33.662  28.404  1.00  0.00     0.338 C 
ATOM     33  O   UNL A   1      32.666  34.525  28.604  1.00  0.00    -0.246 OA
BRANCH  32  34
ATOM     34  C   UNL A   1      34.658  33.431  29.284  1.00  0.00     0.060 A 
ATOM     35  C   UNL A   1      35.903  33.937  28.917  1.00  0.00     0.016 A 
ATOM     36  C   UNL A   1      34.532  32.631  30.419  1.00  0.00     0.016 A 
ATOM     37  C   UNL A   1      37.038  33.606  29.652  1.00  0.00     0.010 A 
ATOM     38  C   UNL A   1      35.665  32.354  31.193  1.00  0.00     0.010 A 
ATOM     39  C   UNL A   1      36.935  32.817  30.803  1.00  0.00    -0.014 A 
BRANCH  39  40
ATOM     40  C   UNL A   1      38.159  32.415  31.549  1.00  0.00     0.031 A 
ATOM     41  C   UNL A   1      39.056  31.347  30.983  1.00  0.00     0.074 A 
ATOM     42  C   UNL A   1      38.506  33.025  32.701  1.00  0.00     0.049 A 
ATOM     43  N   UNL A   1      40.042  30.706  31.554  1.00  0.00    -0.248 NA
ATOM     44  C   UNL A   1      38.807  30.946  29.587  1.00  0.00     0.031 C 
ATOM     45  C   UNL A   1      37.794  34.145  33.321  1.00  0.00     0.029 A 
ATOM     46  N   UNL A   1      39.558  32.791  33.555  1.00  0.00    -0.354 N 
ATOM     47  C   UNL A   1      40.501  29.797  30.609  1.00  0.00     0.074 A 
ATOM     48  C   UNL A   1      39.689  29.970  29.424  1.00  0.00     0.031 C 
ATOM     49  C   UNL A   1      38.445  34.516  34.436  1.00  0.00     0.029 A 
ATOM     50  C   UNL A   1      39.566  33.609  34.660  1.00  0.00     0.049 A 
ATOM     51  H   UNL A   1      40.241  32.101  33.390  1.00  0.00     0.167 HD
ATOM     52  C   UNL A   1      41.505  28.894  30.722  1.00  0.00     0.031 A 
ATOM     53  C   UNL A   1      40.352  33.601  35.755  1.00  0.00     0.031 A 
ATOM     54  C   UNL A   1      42.324  28.738  31.892  1.00  0.00     0.049 A 
ATOM     55  C   UNL A   1      41.413  32.541  35.891  1.00  0.00     0.074 A 
ATOM     56  C   UNL A   1      43.313  27.800  32.135  1.00  0.00     0.029 A 
ATOM     57  N   UNL A   1      42.271  29.560  33.007  1.00  0.00    -0.354 N 
ATOM     58  N   UNL A   1      41.754  31.603  35.038  1.00  0.00    -0.248 NA
ATOM     59  C   UNL A   1      42.178  32.520  37.146  1.00  0.00     0.031 C 
ATOM     60  C   UNL A   1      43.842  28.042  33.408  1.00  0.00     0.029 A 
ATOM     61  C   UNL A   1      43.211  29.156  33.937  1.00  0.00     0.049 A 
ATOM     62  H   UNL A   1      41.654  30.320  33.119  1.00  0.00     0.167 HD
ATOM     63  C   UNL A   1      42.776  30.889  35.653  1.00  0.00     0.074 A 
ATOM     64  C   UNL A   1      43.017  31.514  36.936  1.00  0.00     0.031 C 
ATOM     65  C   UNL A   1      43.448  29.802  35.201  1.00  0.00     0.031 A 
BRANCH  52  66
ATOM     66  C   UNL A   1      41.739  27.969  29.560  1.00  0.00    -0.014 A 
ATOM     67  C   UNL A   1      42.829  28.152  28.691  1.00  0.00     0.010 A 
ATOM     68  C   UNL A   1      40.875  26.877  29.361  1.00  0.00     0.010 A 
ATOM     69  C   UNL A   1      43.032  27.273  27.623  1.00  0.00     0.020 A 
ATOM     70  C   UNL A   1      41.088  25.984  28.307  1.00  0.00     0.020 A 
ATOM     71  C   UNL A   1      42.158  26.197  27.436  1.00  0.00     0.054 A 
BRANCH  71  72
ATOM     72  S   UNL A   1      42.457  25.056  26.056  1.00  0.00     0.124 S 
ATOM     73  O   UNL A   1      41.653  23.901  26.443  1.00  0.00    -0.237 OA
ATOM     74  O   UNL A   1      41.964  25.807  24.904  1.00  0.00    -0.237 OA
ATOM     75  O   UNL A   1      43.902  24.847  26.086  1.00  0.00    -0.744 OA
ENDBRANCH  71  72
ENDBRANCH  52  66
BRANCH  53  76
ATOM     76  C   UNL A   1      40.117  34.576  36.856  1.00  0.00    -0.014 A 
ATOM     77  C   UNL A   1      39.158  34.323  37.852  1.00  0.00     0.010 A 
ATOM     78  C   UNL A   1      40.838  35.784  36.895  1.00  0.00     0.010 A 
ATOM     79  C   UNL A   1      38.906  35.270  38.850  1.00  0.00     0.020 A 
ATOM     80  C   UNL A   1      40.611  36.719  37.907  1.00  0.00     0.020 A 
ATOM     81  C   UNL A   1      39.632  36.464  38.869  1.00  0.00     0.054 A 
BRANCH  81  82
ATOM     82  S   UNL A   1      39.317  37.673  40.184  1.00  0.00     0.124 S 
ATOM     83  O   UNL A   1      40.596  38.371  40.263  1.00  0.00    -0.237 OA
ATOM     84  O   UNL A   1      38.203  38.450  39.647  1.00  0.00    -0.237 OA
ATOM     85  O   UNL A   1      38.984  36.839  41.337  1.00  0.00    -0.744 OA
ENDBRANCH  81  82
ENDBRANCH  53  76
BRANCH  65  86
ATOM     86  C   UNL A   1      44.534  29.241  36.076  1.00  0.00    -0.014 A 
ATOM     87  C   UNL A   1      45.804  29.840  36.128  1.00  0.00     0.010 A 
ATOM     88  C   UNL A   1      44.254  28.146  36.912  1.00  0.00     0.010 A 
ATOM     89  C   UNL A   1      46.783  29.343  36.992  1.00  0.00     0.020 A 
ATOM     90  C   UNL A   1      45.223  27.657  37.791  1.00  0.00     0.020 A 
ATOM     91  C   UNL A   1      46.485  28.254  37.819  1.00  0.00     0.054 A 
BRANCH  91  92
ATOM     92  S   UNL A   1      47.749  27.666  38.981  1.00  0.00     0.124 S 
ATOM     93  O   UNL A   1      48.750  28.727  38.905  1.00  0.00    -0.237 OA
ATOM     94  O   UNL A   1      47.015  27.584  40.243  1.00  0.00    -0.237 OA
ATOM     95  O   UNL A   1      48.160  26.379  38.423  1.00  0.00    -0.744 OA
ENDBRANCH  91  92
ENDBRANCH  65  86
ENDBRANCH  39  40
ENDBRANCH  32  34
ENDBRANCH  31  32
ENDBRANCH  30  31
ENDBRANCH   1  30
TORSDOF 19
ENDMDL
