MODEL 1
REMARK VINA RESULT:      -8.6      0.000      0.000
REMARK SMILES O=C(CC[N@@H+]1CCC[C@@H](C(=O)OCCOC(=O)c2ccc(-c3c4nc(c(-c5ccc(S(=O)(=O)[O-])cc5)c5ccc([nH]5)c(-c5ccc(S(=O)(=O)[O-])cc5)c5nc(c(-c6ccc(S(=O)(=O)[O-])cc6)c6ccc3[nH]6)C=C5)C=C4)cc2)C1)Nc1cccc(F)c1
REMARK SMILES IDX 13 1 12 2 10 3 11 4 9 5 5 6 6 7 78 8 7 10 8 11 4 12 3 13
REMARK SMILES IDX 2 14 1 15 79 16 80 18 81 19 86 20 82 21 84 22 83 23 85 24
REMARK SMILES IDX 14 25 15 26 16 27 17 28 18 29 19 30 77 31 20 32 76 33 21 34
REMARK SMILES IDX 22 35 23 36 70 37 24 38 75 39 69 40 71 41 25 42 74 43 68 44
REMARK SMILES IDX 67 45 26 47 56 48 37 49 55 50 38 51 41 52 54 53 72 54 39 55
REMARK SMILES IDX 40 56 53 58 73 59 42 60 27 61 28 62 36 63 29 64 35 65 30 66
REMARK SMILES IDX 31 67 32 68 33 69 34 70 57 71 58 72 66 73 59 74 65 75 60 76
REMARK SMILES IDX 61 77 62 78 63 79 64 80 43 81 44 82 52 83 45 84 51 85 46 86
REMARK SMILES IDX 47 87 48 88 49 89 50 90
REMARK H PARENT 5 9 79 17 71 46 41 57
REMARK Flexibility Score: inf
ROOT
ATOM      1  C   UNL A   1      34.250  33.275  28.819  1.00  0.00     0.274 C 
ENDROOT
BRANCH   1   2
ATOM      2  O   UNL A   1      35.124  32.663  29.790  1.00  0.00    -0.462 OA
BRANCH   2   3
ATOM      3  C   UNL A   1      34.959  33.050  31.080  1.00  0.00     0.314 C 
ATOM      4  O   UNL A   1      34.029  32.698  31.797  1.00  0.00    -0.252 OA
BRANCH   3   5
ATOM      5  C   UNL A   1      36.046  33.985  31.586  1.00  0.00     0.154 C 
ATOM      6  N   UNL A   1      37.486  33.652  33.620  1.00  0.00    -0.334 N 
ATOM      7  C   UNL A   1      38.606  34.380  32.996  1.00  0.00     0.262 C 
ATOM      8  C   UNL A   1      36.180  34.120  33.118  1.00  0.00     0.277 C 
ATOM      9  H   UNL A   1      37.558  32.670  33.354  1.00  0.00     0.348 HD
ATOM     10  C   UNL A   1      38.456  34.577  31.483  1.00  0.00     0.062 C 
ATOM     11  C   UNL A   1      37.370  33.694  30.884  1.00  0.00     0.027 C 
BRANCH   6  12
ATOM     12  C   UNL A   1      37.582  33.722  35.100  1.00  0.00     0.272 C 
BRANCH  12  13
ATOM     13  C   UNL A   1      38.943  33.300  35.677  1.00  0.00     0.161 C 
BRANCH  13  14
ATOM     14  C   UNL A   1      39.280  31.811  35.626  1.00  0.00     0.230 C 
ATOM     15  O   UNL A   1      38.758  31.025  36.414  1.00  0.00    -0.275 OA
ATOM     16  N   UNL A   1      40.128  31.464  34.599  1.00  0.00    -0.326 N 
ATOM     17  H   UNL A   1      40.610  32.212  34.179  1.00  0.00     0.169 HD
BRANCH  16  18
ATOM     18  C   UNL A   1      40.404  30.198  34.067  1.00  0.00     0.044 A 
ATOM     19  C   UNL A   1      41.740  29.772  34.120  1.00  0.00     0.026 A 
ATOM     20  C   UNL A   1      39.459  29.403  33.427  1.00  0.00     0.065 A 
ATOM     21  C   UNL A   1      42.142  28.587  33.505  1.00  0.00     0.005 A 
ATOM     22  C   UNL A   1      39.869  28.222  32.814  1.00  0.00     0.125 A 
ATOM     23  C   UNL A   1      41.199  27.812  32.839  1.00  0.00     0.039 A 
ATOM     24  F   UNL A   1      38.970  27.472  32.161  1.00  0.00    -0.207 F 
ENDBRANCH  16  18
ENDBRANCH  13  14
ENDBRANCH  12  13
ENDBRANCH   6  12
ENDBRANCH   3   5
ENDBRANCH   2   3
ENDBRANCH   1   2
BRANCH   1  25
ATOM     25  C   UNL A   1      33.423  32.214  28.092  1.00  0.00     0.275 C 
BRANCH  25  26
ATOM     26  O   UNL A   1      34.262  31.401  27.250  1.00  0.00    -0.458 OA
BRANCH  26  27
ATOM     27  C   UNL A   1      34.407  30.114  27.635  1.00  0.00     0.338 C 
ATOM     28  O   UNL A   1      33.595  29.204  27.523  1.00  0.00    -0.246 OA
BRANCH  27  29
ATOM     29  C   UNL A   1      35.783  29.895  28.093  1.00  0.00     0.060 A 
ATOM     30  C   UNL A   1      36.807  30.068  27.165  1.00  0.00     0.016 A 
ATOM     31  C   UNL A   1      36.064  29.426  29.374  1.00  0.00     0.016 A 
ATOM     32  C   UNL A   1      38.121  29.762  27.493  1.00  0.00     0.010 A 
ATOM     33  C   UNL A   1      37.394  29.149  29.719  1.00  0.00     0.010 A 
ATOM     34  C   UNL A   1      38.429  29.305  28.777  1.00  0.00    -0.014 A 
BRANCH  34  35
ATOM     35  C   UNL A   1      39.832  28.961  29.113  1.00  0.00     0.031 A 
ATOM     36  C   UNL A   1      40.696  29.958  29.830  1.00  0.00     0.074 A 
ATOM     37  C   UNL A   1      40.317  27.742  28.806  1.00  0.00     0.049 A 
ATOM     38  N   UNL A   1      41.975  29.902  30.091  1.00  0.00    -0.248 NA
ATOM     39  C   UNL A   1      40.032  31.177  30.319  1.00  0.00     0.031 C 
ATOM     40  C   UNL A   1      39.554  26.660  28.180  1.00  0.00     0.029 A 
ATOM     41  N   UNL A   1      41.568  27.208  28.982  1.00  0.00    -0.354 N 
ATOM     42  C   UNL A   1      42.282  31.093  30.737  1.00  0.00     0.074 A 
ATOM     43  C   UNL A   1      41.051  31.851  30.834  1.00  0.00     0.031 C 
ATOM     44  C   UNL A   1      40.351  25.588  28.035  1.00  0.00     0.029 A 
ATOM     45  C   UNL A   1      41.694  25.931  28.491  1.00  0.00     0.049 A 
ATOM     46  H   UNL A   1      42.305  27.694  29.419  1.00  0.00     0.167 HD
ATOM     47  C   UNL A   1      43.482  31.519  31.198  1.00  0.00     0.031 A 
ATOM     48  C   UNL A   1      42.777  25.140  28.376  1.00  0.00     0.031 A 
ATOM     49  C   UNL A   1      44.698  30.755  31.105  1.00  0.00     0.049 A 
ATOM     50  C   UNL A   1      44.111  25.660  28.831  1.00  0.00     0.074 A 
ATOM     51  C   UNL A   1      45.970  31.104  31.526  1.00  0.00     0.029 A 
ATOM     52  N   UNL A   1      44.792  29.485  30.557  1.00  0.00    -0.354 N 
ATOM     53  N   UNL A   1      44.398  26.813  29.389  1.00  0.00    -0.248 NA
ATOM     54  C   UNL A   1      45.271  24.783  28.626  1.00  0.00     0.031 C 
ATOM     55  C   UNL A   1      46.840  30.058  31.197  1.00  0.00     0.029 A 
ATOM     56  C   UNL A   1      46.102  29.041  30.612  1.00  0.00     0.049 A 
ATOM     57  H   UNL A   1      44.039  28.975  30.183  1.00  0.00     0.167 HD
ATOM     58  C   UNL A   1      45.770  26.798  29.603  1.00  0.00     0.074 A 
ATOM     59  C   UNL A   1      46.253  25.514  29.136  1.00  0.00     0.031 C 
ATOM     60  C   UNL A   1      46.561  27.763  30.134  1.00  0.00     0.031 A 
BRANCH  47  61
ATOM     61  C   UNL A   1      43.543  32.900  31.791  1.00  0.00    -0.014 A 
ATOM     62  C   UNL A   1      43.872  34.021  31.008  1.00  0.00     0.010 A 
ATOM     63  C   UNL A   1      43.250  33.076  33.156  1.00  0.00     0.010 A 
ATOM     64  C   UNL A   1      43.945  35.290  31.591  1.00  0.00     0.020 A 
ATOM     65  C   UNL A   1      43.302  34.347  33.736  1.00  0.00     0.020 A 
ATOM     66  C   UNL A   1      43.668  35.443  32.952  1.00  0.00     0.054 A 
BRANCH  66  67
ATOM     67  S   UNL A   1      43.764  37.100  33.685  1.00  0.00     0.124 S 
ATOM     68  O   UNL A   1      45.101  37.090  34.274  1.00  0.00    -0.237 OA
ATOM     69  O   UNL A   1      43.594  37.975  32.529  1.00  0.00    -0.237 OA
ATOM     70  O   UNL A   1      42.662  37.120  34.643  1.00  0.00    -0.744 OA
ENDBRANCH  66  67
ENDBRANCH  47  61
BRANCH  48  71
ATOM     71  C   UNL A   1      42.651  23.799  27.745  1.00  0.00    -0.014 A 
ATOM     72  C   UNL A   1      42.916  23.621  26.376  1.00  0.00     0.010 A 
ATOM     73  C   UNL A   1      42.287  22.684  28.524  1.00  0.00     0.010 A 
ATOM     74  C   UNL A   1      42.816  22.353  25.797  1.00  0.00     0.020 A 
ATOM     75  C   UNL A   1      42.211  21.411  27.953  1.00  0.00     0.020 A 
ATOM     76  C   UNL A   1      42.467  21.254  26.591  1.00  0.00     0.054 A 
BRANCH  76  77
ATOM     77  S   UNL A   1      42.414  19.604  25.838  1.00  0.00     0.124 S 
ATOM     78  O   UNL A   1      43.416  19.720  24.783  1.00  0.00    -0.237 OA
ATOM     79  O   UNL A   1      42.769  18.732  26.955  1.00  0.00    -0.237 OA
ATOM     80  O   UNL A   1      41.031  19.485  25.381  1.00  0.00    -0.744 OA
ENDBRANCH  76  77
ENDBRANCH  48  71
BRANCH  60  81
ATOM     81  C   UNL A   1      48.028  27.456  30.250  1.00  0.00    -0.014 A 
ATOM     82  C   UNL A   1      48.928  27.842  29.242  1.00  0.00     0.010 A 
ATOM     83  C   UNL A   1      48.516  26.813  31.401  1.00  0.00     0.010 A 
ATOM     84  C   UNL A   1      50.291  27.565  29.371  1.00  0.00     0.020 A 
ATOM     85  C   UNL A   1      49.880  26.552  31.543  1.00  0.00     0.020 A 
ATOM     86  C   UNL A   1      50.757  26.918  30.519  1.00  0.00     0.054 A 
BRANCH  86  87
ATOM     87  S   UNL A   1      52.536  26.603  30.687  1.00  0.00     0.124 S 
ATOM     88  O   UNL A   1      53.068  27.950  30.866  1.00  0.00    -0.237 OA
ATOM     89  O   UNL A   1      52.603  25.739  31.863  1.00  0.00    -0.237 OA
ATOM     90  O   UNL A   1      52.891  25.954  29.426  1.00  0.00    -0.744 OA
ENDBRANCH  86  87
ENDBRANCH  60  81
ENDBRANCH  34  35
ENDBRANCH  27  29
ENDBRANCH  26  27
ENDBRANCH  25  26
ENDBRANCH   1  25
TORSDOF 18
ENDMDL
MODEL 2
REMARK VINA RESULT:      -8.5      4.651     11.789
REMARK SMILES O=C(CC[N@@H+]1CCC[C@@H](C(=O)OCCOC(=O)c2ccc(-c3c4nc(c(-c5ccc(S(=O)(=O)[O-])cc5)c5ccc([nH]5)c(-c5ccc(S(=O)(=O)[O-])cc5)c5nc(c(-c6ccc(S(=O)(=O)[O-])cc6)c6ccc3[nH]6)C=C5)C=C4)cc2)C1)Nc1cccc(F)c1
REMARK SMILES IDX 13 1 12 2 10 3 11 4 9 5 5 6 6 7 78 8 7 10 8 11 4 12 3 13
REMARK SMILES IDX 2 14 1 15 79 16 80 18 81 19 86 20 82 21 84 22 83 23 85 24
REMARK SMILES IDX 14 25 15 26 16 27 17 28 18 29 19 30 77 31 20 32 76 33 21 34
REMARK SMILES IDX 22 35 23 36 70 37 24 38 75 39 69 40 71 41 25 42 74 43 68 44
REMARK SMILES IDX 67 45 26 47 56 48 37 49 55 50 38 51 41 52 54 53 72 54 39 55
REMARK SMILES IDX 40 56 53 58 73 59 42 60 27 61 28 62 36 63 29 64 35 65 30 66
REMARK SMILES IDX 31 67 32 68 33 69 34 70 57 71 58 72 66 73 59 74 65 75 60 76
REMARK SMILES IDX 61 77 62 78 63 79 64 80 43 81 44 82 52 83 45 84 51 85 46 86
REMARK SMILES IDX 47 87 48 88 49 89 50 90
REMARK H PARENT 5 9 79 17 71 46 41 57
REMARK Flexibility Score: inf
ROOT
ATOM      1  C   UNL A   1      37.171  22.588  25.913  1.00  0.00     0.274 C 
ENDROOT
BRANCH   1   2
ATOM      2  O   UNL A   1      36.856  22.048  24.613  1.00  0.00    -0.462 OA
BRANCH   2   3
ATOM      3  C   UNL A   1      35.949  22.737  23.877  1.00  0.00     0.314 C 
ATOM      4  O   UNL A   1      36.181  23.245  22.785  1.00  0.00    -0.252 OA
BRANCH   3   5
ATOM      5  C   UNL A   1      34.578  22.839  24.529  1.00  0.00     0.154 C 
ATOM      6  N   UNL A   1      32.579  24.077  23.638  1.00  0.00    -0.334 N 
ATOM      7  C   UNL A   1      31.654  23.119  24.270  1.00  0.00     0.262 C 
ATOM      8  C   UNL A   1      33.846  24.191  24.386  1.00  0.00     0.277 C 
ATOM      9  H   UNL A   1      32.825  23.719  22.715  1.00  0.00     0.348 HD
ATOM     10  C   UNL A   1      32.322  21.820  24.736  1.00  0.00     0.062 C 
ATOM     11  C   UNL A   1      33.716  21.638  24.150  1.00  0.00     0.027 C 
BRANCH   6  12
ATOM     12  C   UNL A   1      31.915  25.390  23.445  1.00  0.00     0.272 C 
BRANCH  12  13
ATOM     13  C   UNL A   1      30.783  25.691  24.441  1.00  0.00     0.161 C 
BRANCH  13  14
ATOM     14  C   UNL A   1      31.111  26.647  25.586  1.00  0.00     0.230 C 
ATOM     15  O   UNL A   1      30.712  26.417  26.726  1.00  0.00    -0.275 OA
ATOM     16  N   UNL A   1      31.928  27.694  25.225  1.00  0.00    -0.326 N 
ATOM     17  H   UNL A   1      32.005  27.854  24.256  1.00  0.00     0.169 HD
BRANCH  16  18
ATOM     18  C   UNL A   1      32.665  28.565  26.037  1.00  0.00     0.044 A 
ATOM     19  C   UNL A   1      32.052  29.780  26.373  1.00  0.00     0.026 A 
ATOM     20  C   UNL A   1      33.974  28.326  26.442  1.00  0.00     0.065 A 
ATOM     21  C   UNL A   1      32.747  30.769  27.070  1.00  0.00     0.005 A 
ATOM     22  C   UNL A   1      34.663  29.318  27.135  1.00  0.00     0.125 A 
ATOM     23  C   UNL A   1      34.066  30.537  27.444  1.00  0.00     0.039 A 
ATOM     24  F   UNL A   1      35.937  29.109  27.493  1.00  0.00    -0.207 F 
ENDBRANCH  16  18
ENDBRANCH  13  14
ENDBRANCH  12  13
ENDBRANCH   6  12
ENDBRANCH   3   5
ENDBRANCH   2   3
ENDBRANCH   1   2
BRANCH   1  25
ATOM     25  C   UNL A   1      38.669  22.873  26.031  1.00  0.00     0.275 C 
BRANCH  25  26
ATOM     26  O   UNL A   1      38.905  24.051  26.826  1.00  0.00    -0.458 OA
BRANCH  26  27
ATOM     27  C   UNL A   1      40.168  24.528  26.804  1.00  0.00     0.338 C 
ATOM     28  O   UNL A   1      41.047  24.282  25.989  1.00  0.00    -0.246 OA
BRANCH  27  29
ATOM     29  C   UNL A   1      40.320  25.547  27.849  1.00  0.00     0.060 A 
ATOM     30  C   UNL A   1      39.277  25.698  28.759  1.00  0.00     0.016 A 
ATOM     31  C   UNL A   1      41.412  26.411  27.879  1.00  0.00     0.016 A 
ATOM     32  C   UNL A   1      39.297  26.720  29.699  1.00  0.00     0.010 A 
ATOM     33  C   UNL A   1      41.452  27.423  28.848  1.00  0.00     0.010 A 
ATOM     34  C   UNL A   1      40.389  27.590  29.757  1.00  0.00    -0.014 A 
BRANCH  34  35
ATOM     35  C   UNL A   1      40.394  28.691  30.750  1.00  0.00     0.031 A 
ATOM     36  C   UNL A   1      41.394  28.684  31.871  1.00  0.00     0.074 A 
ATOM     37  C   UNL A   1      39.526  29.713  30.625  1.00  0.00     0.049 A 
ATOM     38  N   UNL A   1      41.474  29.476  32.908  1.00  0.00    -0.248 NA
ATOM     39  C   UNL A   1      42.442  27.653  31.815  1.00  0.00     0.031 C 
ATOM     40  C   UNL A   1      38.558  29.874  29.537  1.00  0.00     0.029 A 
ATOM     41  N   UNL A   1      39.318  30.812  31.419  1.00  0.00    -0.354 N 
ATOM     42  C   UNL A   1      42.553  29.015  33.652  1.00  0.00     0.074 A 
ATOM     43  C   UNL A   1      43.102  27.878  32.943  1.00  0.00     0.031 C 
ATOM     44  C   UNL A   1      37.869  31.011  29.727  1.00  0.00     0.029 A 
ATOM     45  C   UNL A   1      38.295  31.620  30.983  1.00  0.00     0.049 A 
ATOM     46  H   UNL A   1      39.852  31.004  32.224  1.00  0.00     0.167 HD
ATOM     47  C   UNL A   1      43.035  29.492  34.824  1.00  0.00     0.031 A 
ATOM     48  C   UNL A   1      37.730  32.701  31.552  1.00  0.00     0.031 A 
ATOM     49  C   UNL A   1      42.490  30.629  35.517  1.00  0.00     0.049 A 
ATOM     50  C   UNL A   1      38.236  33.171  32.886  1.00  0.00     0.074 A 
ATOM     51  C   UNL A   1      42.894  31.183  36.720  1.00  0.00     0.029 A 
ATOM     52  N   UNL A   1      41.422  31.391  35.066  1.00  0.00    -0.354 N 
ATOM     53  N   UNL A   1      39.222  32.691  33.607  1.00  0.00    -0.248 NA
ATOM     54  C   UNL A   1      37.545  34.316  33.492  1.00  0.00     0.031 C 
ATOM     55  C   UNL A   1      42.046  32.257  37.013  1.00  0.00     0.029 A 
ATOM     56  C   UNL A   1      41.142  32.398  35.972  1.00  0.00     0.049 A 
ATOM     57  H   UNL A   1      40.935  31.237  34.225  1.00  0.00     0.167 HD
ATOM     58  C   UNL A   1      39.270  33.478  34.752  1.00  0.00     0.074 A 
ATOM     59  C   UNL A   1      38.230  34.478  34.616  1.00  0.00     0.031 C 
ATOM     60  C   UNL A   1      40.097  33.377  35.821  1.00  0.00     0.031 A 
BRANCH  47  61
ATOM     61  C   UNL A   1      44.178  28.745  35.457  1.00  0.00    -0.014 A 
ATOM     62  C   UNL A   1      45.504  28.936  35.032  1.00  0.00     0.010 A 
ATOM     63  C   UNL A   1      43.915  27.846  36.507  1.00  0.00     0.010 A 
ATOM     64  C   UNL A   1      46.544  28.211  35.621  1.00  0.00     0.020 A 
ATOM     65  C   UNL A   1      44.955  27.135  37.112  1.00  0.00     0.020 A 
ATOM     66  C   UNL A   1      46.262  27.309  36.651  1.00  0.00     0.054 A 
BRANCH  66  67
ATOM     67  S   UNL A   1      47.628  26.383  37.404  1.00  0.00     0.124 S 
ATOM     68  O   UNL A   1      47.559  26.826  38.794  1.00  0.00    -0.237 OA
ATOM     69  O   UNL A   1      47.245  24.994  37.169  1.00  0.00    -0.237 OA
ATOM     70  O   UNL A   1      48.803  26.835  36.664  1.00  0.00    -0.744 OA
ENDBRANCH  66  67
ENDBRANCH  47  61
BRANCH  48  71
ATOM     71  C   UNL A   1      36.579  33.370  30.888  1.00  0.00    -0.014 A 
ATOM     72  C   UNL A   1      35.350  33.512  31.553  1.00  0.00     0.010 A 
ATOM     73  C   UNL A   1      36.720  33.893  29.589  1.00  0.00     0.010 A 
ATOM     74  C   UNL A   1      34.280  34.162  30.930  1.00  0.00     0.020 A 
ATOM     75  C   UNL A   1      35.662  34.564  28.973  1.00  0.00     0.020 A 
ATOM     76  C   UNL A   1      34.445  34.688  29.644  1.00  0.00     0.054 A 
BRANCH  76  77
ATOM     77  S   UNL A   1      33.070  35.592  28.878  1.00  0.00     0.124 S 
ATOM     78  O   UNL A   1      32.460  34.564  28.041  1.00  0.00    -0.237 OA
ATOM     79  O   UNL A   1      32.283  36.015  30.034  1.00  0.00    -0.237 OA
ATOM     80  O   UNL A   1      33.736  36.675  28.159  1.00  0.00    -0.744 OA
ENDBRANCH  76  77
ENDBRANCH  48  71
BRANCH  60  81
ATOM     81  C   UNL A   1      39.917  34.386  36.920  1.00  0.00    -0.014 A 
ATOM     82  C   UNL A   1      40.591  35.619  36.886  1.00  0.00     0.010 A 
ATOM     83  C   UNL A   1      39.029  34.114  37.976  1.00  0.00     0.010 A 
ATOM     84  C   UNL A   1      40.402  36.554  37.907  1.00  0.00     0.020 A 
ATOM     85  C   UNL A   1      38.822  35.055  38.988  1.00  0.00     0.020 A 
ATOM     86  C   UNL A   1      39.521  36.264  38.953  1.00  0.00     0.054 A 
BRANCH  86  87
ATOM     87  S   UNL A   1      39.258  37.507  40.248  1.00  0.00     0.124 S 
ATOM     88  O   UNL A   1      38.825  36.686  41.374  1.00  0.00    -0.237 OA
ATOM     89  O   UNL A   1      40.578  38.117  40.384  1.00  0.00    -0.237 OA
ATOM     90  O   UNL A   1      38.232  38.381  39.682  1.00  0.00    -0.744 OA
ENDBRANCH  86  87
ENDBRANCH  60  81
ENDBRANCH  34  35
ENDBRANCH  27  29
ENDBRANCH  26  27
ENDBRANCH  25  26
ENDBRANCH   1  25
TORSDOF 18
ENDMDL
MODEL 3
REMARK VINA RESULT:      -8.3      3.985     10.969
REMARK SMILES O=C(CC[N@@H+]1CCC[C@@H](C(=O)OCCOC(=O)c2ccc(-c3c4nc(c(-c5ccc(S(=O)(=O)[O-])cc5)c5ccc([nH]5)c(-c5ccc(S(=O)(=O)[O-])cc5)c5nc(c(-c6ccc(S(=O)(=O)[O-])cc6)c6ccc3[nH]6)C=C5)C=C4)cc2)C1)Nc1cccc(F)c1
REMARK SMILES IDX 13 1 12 2 10 3 11 4 9 5 5 6 6 7 78 8 7 10 8 11 4 12 3 13
REMARK SMILES IDX 2 14 1 15 79 16 80 18 81 19 86 20 82 21 84 22 83 23 85 24
REMARK SMILES IDX 14 25 15 26 16 27 17 28 18 29 19 30 77 31 20 32 76 33 21 34
REMARK SMILES IDX 22 35 23 36 70 37 24 38 75 39 69 40 71 41 25 42 74 43 68 44
REMARK SMILES IDX 67 45 26 47 56 48 37 49 55 50 38 51 41 52 54 53 72 54 39 55
REMARK SMILES IDX 40 56 53 58 73 59 42 60 27 61 28 62 36 63 29 64 35 65 30 66
REMARK SMILES IDX 31 67 32 68 33 69 34 70 57 71 58 72 66 73 59 74 65 75 60 76
REMARK SMILES IDX 61 77 62 78 63 79 64 80 43 81 44 82 52 83 45 84 51 85 46 86
REMARK SMILES IDX 47 87 48 88 49 89 50 90
REMARK H PARENT 5 9 79 17 71 46 41 57
REMARK Flexibility Score: inf
ROOT
ATOM      1  C   UNL A   1      35.750  22.233  25.768  1.00  0.00     0.274 C 
ENDROOT
BRANCH   1   2
ATOM      2  O   UNL A   1      35.597  21.833  24.390  1.00  0.00    -0.462 OA
BRANCH   2   3
ATOM      3  C   UNL A   1      35.241  22.806  23.516  1.00  0.00     0.314 C 
ATOM      4  O   UNL A   1      35.946  23.205  22.595  1.00  0.00    -0.252 OA
BRANCH   3   5
ATOM      5  C   UNL A   1      33.858  23.386  23.770  1.00  0.00     0.154 C 
ATOM      6  N   UNL A   1      32.624  25.025  22.316  1.00  0.00    -0.334 N 
ATOM      7  C   UNL A   1      31.322  24.468  22.724  1.00  0.00     0.262 C 
ATOM      8  C   UNL A   1      33.646  24.861  23.369  1.00  0.00     0.277 C 
ATOM      9  H   UNL A   1      32.959  24.494  21.512  1.00  0.00     0.348 HD
ATOM     10  C   UNL A   1      31.416  23.103  23.417  1.00  0.00     0.062 C 
ATOM     11  C   UNL A   1      32.779  22.449  23.235  1.00  0.00     0.027 C 
BRANCH   6  12
ATOM     12  C   UNL A   1      32.474  26.438  21.887  1.00  0.00     0.272 C 
BRANCH  12  13
ATOM     13  C   UNL A   1      31.137  27.089  22.276  1.00  0.00     0.161 C 
BRANCH  13  14
ATOM     14  C   UNL A   1      31.060  27.728  23.661  1.00  0.00     0.230 C 
ATOM     15  O   UNL A   1      30.184  27.392  24.456  1.00  0.00    -0.275 OA
ATOM     16  N   UNL A   1      32.078  28.615  23.926  1.00  0.00    -0.326 N 
ATOM     17  H   UNL A   1      32.583  28.924  23.139  1.00  0.00     0.169 HD
BRANCH  16  18
ATOM     18  C   UNL A   1      32.499  29.140  25.154  1.00  0.00     0.044 A 
ATOM     19  C   UNL A   1      31.801  30.259  25.630  1.00  0.00     0.026 A 
ATOM     20  C   UNL A   1      33.602  28.672  25.861  1.00  0.00     0.065 A 
ATOM     21  C   UNL A   1      32.220  30.934  26.777  1.00  0.00     0.005 A 
ATOM     22  C   UNL A   1      34.015  29.352  27.003  1.00  0.00     0.125 A 
ATOM     23  C   UNL A   1      33.342  30.482  27.461  1.00  0.00     0.039 A 
ATOM     24  F   UNL A   1      35.100  28.930  27.665  1.00  0.00    -0.207 F 
ENDBRANCH  16  18
ENDBRANCH  13  14
ENDBRANCH  12  13
ENDBRANCH   6  12
ENDBRANCH   3   5
ENDBRANCH   2   3
ENDBRANCH   1   2
BRANCH   1  25
ATOM     25  C   UNL A   1      36.706  23.421  25.883  1.00  0.00     0.275 C 
BRANCH  25  26
ATOM     26  O   UNL A   1      38.023  23.063  25.423  1.00  0.00    -0.458 OA
BRANCH  26  27
ATOM     27  C   UNL A   1      38.955  22.898  26.386  1.00  0.00     0.338 C 
ATOM     28  O   UNL A   1      39.561  21.874  26.674  1.00  0.00    -0.246 OA
BRANCH  27  29
ATOM     29  C   UNL A   1      39.277  24.201  26.980  1.00  0.00     0.060 A 
ATOM     30  C   UNL A   1      39.993  25.105  26.199  1.00  0.00     0.016 A 
ATOM     31  C   UNL A   1      38.979  24.497  28.308  1.00  0.00     0.016 A 
ATOM     32  C   UNL A   1      40.437  26.308  26.734  1.00  0.00     0.010 A 
ATOM     33  C   UNL A   1      39.396  25.724  28.840  1.00  0.00     0.010 A 
ATOM     34  C   UNL A   1      40.138  26.632  28.059  1.00  0.00    -0.014 A 
BRANCH  34  35
ATOM     35  C   UNL A   1      40.633  27.909  28.629  1.00  0.00     0.031 A 
ATOM     36  C   UNL A   1      42.070  28.033  29.049  1.00  0.00     0.074 A 
ATOM     37  C   UNL A   1      39.804  28.964  28.734  1.00  0.00     0.049 A 
ATOM     38  N   UNL A   1      42.659  29.010  29.686  1.00  0.00    -0.248 NA
ATOM     39  C   UNL A   1      42.959  26.913  28.703  1.00  0.00     0.031 C 
ATOM     40  C   UNL A   1      38.408  28.993  28.290  1.00  0.00     0.029 A 
ATOM     41  N   UNL A   1      40.014  30.219  29.247  1.00  0.00    -0.354 N 
ATOM     42  C   UNL A   1      43.978  28.608  29.858  1.00  0.00     0.074 A 
ATOM     43  C   UNL A   1      44.104  27.299  29.250  1.00  0.00     0.031 C 
ATOM     44  C   UNL A   1      37.893  30.208  28.539  1.00  0.00     0.029 A 
ATOM     45  C   UNL A   1      38.896  31.017  29.224  1.00  0.00     0.049 A 
ATOM     46  H   UNL A   1      40.884  30.519  29.598  1.00  0.00     0.167 HD
ATOM     47  C   UNL A   1      44.988  29.266  30.474  1.00  0.00     0.031 A 
ATOM     48  C   UNL A   1      38.685  32.244  29.736  1.00  0.00     0.031 A 
ATOM     49  C   UNL A   1      44.857  30.570  31.067  1.00  0.00     0.049 A 
ATOM     50  C   UNL A   1      39.800  32.927  30.476  1.00  0.00     0.074 A 
ATOM     51  C   UNL A   1      45.815  31.317  31.731  1.00  0.00     0.029 A 
ATOM     52  N   UNL A   1      43.693  31.325  31.064  1.00  0.00    -0.354 N 
ATOM     53  N   UNL A   1      41.027  32.510  30.681  1.00  0.00    -0.248 NA
ATOM     54  C   UNL A   1      39.498  34.236  31.070  1.00  0.00     0.031 C 
ATOM     55  C   UNL A   1      45.219  32.508  32.161  1.00  0.00     0.029 A 
ATOM     56  C   UNL A   1      43.903  32.521  31.728  1.00  0.00     0.049 A 
ATOM     57  H   UNL A   1      42.844  31.050  30.651  1.00  0.00     0.167 HD
ATOM     58  C   UNL A   1      41.645  33.507  31.425  1.00  0.00     0.074 A 
ATOM     59  C   UNL A   1      40.664  34.557  31.614  1.00  0.00     0.031 C 
ATOM     60  C   UNL A   1      42.909  33.548  31.912  1.00  0.00     0.031 A 
BRANCH  47  61
ATOM     61  C   UNL A   1      46.309  28.555  30.586  1.00  0.00    -0.014 A 
ATOM     62  C   UNL A   1      46.578  27.670  31.644  1.00  0.00     0.010 A 
ATOM     63  C   UNL A   1      47.292  28.768  29.601  1.00  0.00     0.010 A 
ATOM     64  C   UNL A   1      47.823  27.040  31.737  1.00  0.00     0.020 A 
ATOM     65  C   UNL A   1      48.530  28.124  29.680  1.00  0.00     0.020 A 
ATOM     66  C   UNL A   1      48.793  27.278  30.759  1.00  0.00     0.054 A 
BRANCH  66  67
ATOM     67  S   UNL A   1      50.400  26.446  30.898  1.00  0.00     0.124 S 
ATOM     68  O   UNL A   1      51.229  27.246  30.000  1.00  0.00    -0.237 OA
ATOM     69  O   UNL A   1      50.709  26.574  32.319  1.00  0.00    -0.237 OA
ATOM     70  O   UNL A   1      50.126  25.085  30.445  1.00  0.00    -0.744 OA
ENDBRANCH  66  67
ENDBRANCH  47  61
BRANCH  48  71
ATOM     71  C   UNL A   1      37.341  32.873  29.621  1.00  0.00    -0.014 A 
ATOM     72  C   UNL A   1      36.511  33.004  30.746  1.00  0.00     0.010 A 
ATOM     73  C   UNL A   1      36.898  33.368  28.380  1.00  0.00     0.010 A 
ATOM     74  C   UNL A   1      35.259  33.617  30.633  1.00  0.00     0.020 A 
ATOM     75  C   UNL A   1      35.659  34.003  28.268  1.00  0.00     0.020 A 
ATOM     76  C   UNL A   1      34.843  34.116  29.394  1.00  0.00     0.054 A 
BRANCH  76  77
ATOM     77  S   UNL A   1      33.248  34.973  29.279  1.00  0.00     0.124 S 
ATOM     78  O   UNL A   1      33.653  36.315  28.871  1.00  0.00    -0.237 OA
ATOM     79  O   UNL A   1      32.537  34.193  28.269  1.00  0.00    -0.237 OA
ATOM     80  O   UNL A   1      32.706  34.865  30.632  1.00  0.00    -0.744 OA
ENDBRANCH  76  77
ENDBRANCH  48  71
BRANCH  60  81
ATOM     81  C   UNL A   1      43.304  34.775  32.684  1.00  0.00    -0.014 A 
ATOM     82  C   UNL A   1      43.870  35.886  32.035  1.00  0.00     0.010 A 
ATOM     83  C   UNL A   1      43.066  34.833  34.069  1.00  0.00     0.010 A 
ATOM     84  C   UNL A   1      44.217  37.026  32.763  1.00  0.00     0.020 A 
ATOM     85  C   UNL A   1      43.394  35.978  34.798  1.00  0.00     0.020 A 
ATOM     86  C   UNL A   1      43.980  37.063  34.140  1.00  0.00     0.054 A 
BRANCH  86  87
ATOM     87  S   UNL A   1      44.401  38.568  35.062  1.00  0.00     0.124 S 
ATOM     88  O   UNL A   1      43.435  39.527  34.535  1.00  0.00    -0.237 OA
ATOM     89  O   UNL A   1      44.193  38.166  36.451  1.00  0.00    -0.237 OA
ATOM     90  O   UNL A   1      45.793  38.818  34.696  1.00  0.00    -0.744 OA
ENDBRANCH  86  87
ENDBRANCH  60  81
ENDBRANCH  34  35
ENDBRANCH  27  29
ENDBRANCH  26  27
ENDBRANCH  25  26
ENDBRANCH   1  25
TORSDOF 18
ENDMDL
