MODEL 1
REMARK VINA RESULT:     -11.8      0.000      0.000
REMARK SMILES O=C(OCCOC(=O)c1ccc(-c2c3nc(c(-c4ccc(S(=O)(=O)[O-])cc4)c4ccc([nH]4)c(-c4ccc(S(=O)(=O)[O-])cc4)c4nc(c(-c5ccc(S(=O)(=O)[O-])cc5)c5ccc2[nH]5)C=C4)C=C3)cc1)C1=Cc2c(ccc(Cl)c2-c2ccccc2)O[C@H]1C(F)(F)F
REMARK SMILES IDX 5 1 4 2 3 3 2 4 1 5 69 6 70 7 85 8 71 9 84 10 72 11 77 12
REMARK SMILES IDX 73 13 75 14 74 15 76 16 86 17 87 18 88 19 89 20 78 21 79 22
REMARK SMILES IDX 83 23 80 24 82 25 81 26 6 27 7 28 8 29 9 30 10 31 68 32
REMARK SMILES IDX 11 33 67 34 12 35 13 36 14 37 61 38 15 39 66 40 60 41 62 42
REMARK SMILES IDX 16 43 65 44 59 45 58 46 17 48 47 49 28 50 46 51 29 52 32 53
REMARK SMILES IDX 45 54 63 55 30 56 31 57 44 59 64 60 33 61 18 62 19 63 27 64
REMARK SMILES IDX 20 65 26 66 21 67 22 68 23 69 24 70 25 71 48 72 49 73 57 74
REMARK SMILES IDX 50 75 56 76 51 77 52 78 53 79 54 80 55 81 34 82 35 83 43 84
REMARK SMILES IDX 36 85 42 86 37 87 38 88 39 89 40 90 41 91
REMARK H PARENT 62 47 32 58
REMARK Flexibility Score: inf
ROOT
ATOM      1  C   UNL A   1      38.302  22.195  25.777  1.00  0.00     0.275 C 
ENDROOT
BRANCH   1   2
ATOM      2  C   UNL A   1      37.528  20.953  25.360  1.00  0.00     0.275 C 
BRANCH   2   3
ATOM      3  O   UNL A   1      36.110  21.216  25.416  1.00  0.00    -0.459 OA
BRANCH   3   4
ATOM      4  C   UNL A   1      35.381  21.743  24.403  1.00  0.00     0.338 C 
ATOM      5  O   UNL A   1      35.953  22.314  23.480  1.00  0.00    -0.246 OA
BRANCH   4   6
ATOM      6  C   UNL A   1      33.895  21.672  24.385  1.00  0.00     0.087 C 
ATOM      7  C   UNL A   1      33.060  22.557  23.821  1.00  0.00     0.028 C 
ATOM      8  C   UNL A   1      33.307  20.521  25.171  1.00  0.00     0.316 C 
ATOM      9  C   UNL A   1      32.044  23.061  24.763  1.00  0.00     0.027 A 
ATOM     10  O   UNL A   1      31.974  20.811  25.707  1.00  0.00    -0.475 OA
ATOM     11  C   UNL A   1      31.555  22.119  25.683  1.00  0.00     0.128 A 
ATOM     12  C   UNL A   1      31.607  24.419  24.760  1.00  0.00     0.011 A 
ATOM     13  C   UNL A   1      30.592  22.499  26.604  1.00  0.00     0.049 A 
ATOM     14  C   UNL A   1      30.635  24.767  25.715  1.00  0.00     0.049 A 
ATOM     15  C   UNL A   1      30.137  23.820  26.622  1.00  0.00     0.025 A 
ATOM     16  Cl  UNL A   1      30.013  26.379  25.834  1.00  0.00    -0.084 Cl
BRANCH   8  17
ATOM     17  C   UNL A   1      33.276  19.258  24.283  1.00  0.00     0.430 C 
ATOM     18  F   UNL A   1      32.882  19.527  23.014  1.00  0.00    -0.167 F 
ATOM     19  F   UNL A   1      34.485  18.663  24.215  1.00  0.00    -0.167 F 
ATOM     20  F   UNL A   1      32.395  18.347  24.769  1.00  0.00    -0.167 F 
ENDBRANCH   8  17
BRANCH  12  21
ATOM     21  C   UNL A   1      32.206  25.443  23.863  1.00  0.00    -0.016 A 
ATOM     22  C   UNL A   1      31.641  25.683  22.594  1.00  0.00     0.009 A 
ATOM     23  C   UNL A   1      33.289  26.249  24.257  1.00  0.00     0.009 A 
ATOM     24  C   UNL A   1      32.055  26.764  21.804  1.00  0.00     0.001 A 
ATOM     25  C   UNL A   1      33.713  27.325  23.458  1.00  0.00     0.001 A 
ATOM     26  C   UNL A   1      33.072  27.601  22.249  1.00  0.00     0.000 A 
ENDBRANCH  12  21
ENDBRANCH   4   6
ENDBRANCH   3   4
ENDBRANCH   2   3
ENDBRANCH   1   2
BRANCH   1  27
ATOM     27  O   UNL A   1      39.445  21.880  26.572  1.00  0.00    -0.458 OA
BRANCH  27  28
ATOM     28  C   UNL A   1      40.496  22.721  26.450  1.00  0.00     0.338 C 
ATOM     29  O   UNL A   1      41.555  22.383  25.952  1.00  0.00    -0.246 OA
BRANCH  28  30
ATOM     30  C   UNL A   1      40.251  24.079  26.985  1.00  0.00     0.060 A 
ATOM     31  C   UNL A   1      40.689  25.157  26.220  1.00  0.00     0.016 A 
ATOM     32  C   UNL A   1      39.608  24.278  28.220  1.00  0.00     0.016 A 
ATOM     33  C   UNL A   1      40.603  26.433  26.750  1.00  0.00     0.010 A 
ATOM     34  C   UNL A   1      39.428  25.566  28.703  1.00  0.00     0.010 A 
ATOM     35  C   UNL A   1      40.041  26.624  28.021  1.00  0.00    -0.014 A 
BRANCH  35  36
ATOM     36  C   UNL A   1      40.399  27.845  28.765  1.00  0.00     0.031 A 
ATOM     37  C   UNL A   1      41.796  27.932  29.326  1.00  0.00     0.074 A 
ATOM     38  C   UNL A   1      39.532  28.864  28.852  1.00  0.00     0.049 A 
ATOM     39  N   UNL A   1      42.377  28.916  29.957  1.00  0.00    -0.248 NA
ATOM     40  C   UNL A   1      42.652  26.740  29.172  1.00  0.00     0.031 C 
ATOM     41  C   UNL A   1      38.165  28.858  28.325  1.00  0.00     0.029 A 
ATOM     42  N   UNL A   1      39.679  30.107  29.403  1.00  0.00    -0.354 N 
ATOM     43  C   UNL A   1      43.646  28.449  30.288  1.00  0.00     0.074 A 
ATOM     44  C   UNL A   1      43.730  27.078  29.855  1.00  0.00     0.031 C 
ATOM     45  C   UNL A   1      37.602  30.053  28.570  1.00  0.00     0.029 A 
ATOM     46  C   UNL A   1      38.560  30.891  29.288  1.00  0.00     0.049 A 
ATOM     47  H   UNL A   1      40.508  30.409  29.839  1.00  0.00     0.167 HD
ATOM     48  C   UNL A   1      44.665  29.115  30.878  1.00  0.00     0.031 A 
ATOM     49  C   UNL A   1      38.341  32.145  29.724  1.00  0.00     0.031 A 
ATOM     50  C   UNL A   1      44.556  30.486  31.284  1.00  0.00     0.049 A 
ATOM     51  C   UNL A   1      39.478  32.875  30.386  1.00  0.00     0.074 A 
ATOM     52  C   UNL A   1      45.512  31.295  31.864  1.00  0.00     0.029 A 
ATOM     53  N   UNL A   1      43.402  31.249  31.148  1.00  0.00    -0.354 N 
ATOM     54  N   UNL A   1      40.691  32.441  30.647  1.00  0.00    -0.248 NA
ATOM     55  C   UNL A   1      39.233  34.263  30.791  1.00  0.00     0.031 C 
ATOM     56  C   UNL A   1      44.919  32.533  32.130  1.00  0.00     0.029 A 
ATOM     57  C   UNL A   1      43.613  32.515  31.656  1.00  0.00     0.049 A 
ATOM     58  H   UNL A   1      42.559  30.933  30.749  1.00  0.00     0.167 HD
ATOM     59  C   UNL A   1      41.364  33.511  31.223  1.00  0.00     0.074 A 
ATOM     60  C   UNL A   1      40.421  34.614  31.266  1.00  0.00     0.031 C 
ATOM     61  C   UNL A   1      42.643  33.583  31.671  1.00  0.00     0.031 A 
BRANCH  48  62
ATOM     62  C   UNL A   1      45.932  28.344  31.144  1.00  0.00    -0.014 A 
ATOM     63  C   UNL A   1      46.984  28.302  30.207  1.00  0.00     0.010 A 
ATOM     64  C   UNL A   1      46.048  27.596  32.329  1.00  0.00     0.010 A 
ATOM     65  C   UNL A   1      48.086  27.465  30.414  1.00  0.00     0.020 A 
ATOM     66  C   UNL A   1      47.165  26.785  32.556  1.00  0.00     0.020 A 
ATOM     67  C   UNL A   1      48.162  26.701  31.581  1.00  0.00     0.054 A 
BRANCH  67  68
ATOM     68  S   UNL A   1      49.578  25.589  31.808  1.00  0.00     0.124 S 
ATOM     69  O   UNL A   1      49.743  25.037  30.466  1.00  0.00    -0.237 OA
ATOM     70  O   UNL A   1      50.634  26.499  32.247  1.00  0.00    -0.237 OA
ATOM     71  O   UNL A   1      49.116  24.642  32.819  1.00  0.00    -0.744 OA
ENDBRANCH  67  68
ENDBRANCH  48  62
BRANCH  49  72
ATOM     72  C   UNL A   1      36.999  32.756  29.532  1.00  0.00    -0.014 A 
ATOM     73  C   UNL A   1      36.055  32.787  30.571  1.00  0.00     0.010 A 
ATOM     74  C   UNL A   1      36.695  33.397  28.315  1.00  0.00     0.010 A 
ATOM     75  C   UNL A   1      34.833  33.450  30.398  1.00  0.00     0.020 A 
ATOM     76  C   UNL A   1      35.488  34.081  28.147  1.00  0.00     0.020 A 
ATOM     77  C   UNL A   1      34.561  34.100  29.190  1.00  0.00     0.054 A 
BRANCH  77  78
ATOM     78  S   UNL A   1      33.008  35.025  29.020  1.00  0.00     0.124 S 
ATOM     79  O   UNL A   1      33.477  36.319  28.537  1.00  0.00    -0.237 OA
ATOM     80  O   UNL A   1      32.267  34.219  28.054  1.00  0.00    -0.237 OA
ATOM     81  O   UNL A   1      32.459  35.024  30.374  1.00  0.00    -0.744 OA
ENDBRANCH  77  78
ENDBRANCH  49  72
BRANCH  61  82
ATOM     82  C   UNL A   1      43.112  34.903  32.214  1.00  0.00    -0.014 A 
ATOM     83  C   UNL A   1      43.722  35.854  31.379  1.00  0.00     0.010 A 
ATOM     84  C   UNL A   1      42.821  35.236  33.550  1.00  0.00     0.010 A 
ATOM     85  C   UNL A   1      44.043  37.118  31.878  1.00  0.00     0.020 A 
ATOM     86  C   UNL A   1      43.115  36.507  34.042  1.00  0.00     0.020 A 
ATOM     87  C   UNL A   1      43.729  37.440  33.203  1.00  0.00     0.054 A 
BRANCH  87  88
ATOM     88  S   UNL A   1      44.071  39.118  33.796  1.00  0.00     0.124 S 
ATOM     89  O   UNL A   1      45.248  39.482  33.012  1.00  0.00    -0.237 OA
ATOM     90  O   UNL A   1      42.843  39.833  33.457  1.00  0.00    -0.237 OA
ATOM     91  O   UNL A   1      44.306  38.938  35.227  1.00  0.00    -0.744 OA
ENDBRANCH  87  88
ENDBRANCH  61  82
ENDBRANCH  35  36
ENDBRANCH  28  30
ENDBRANCH  27  28
ENDBRANCH   1  27
TORSDOF 16
ENDMDL
MODEL 2
REMARK VINA RESULT:     -11.6      2.084      3.545
REMARK SMILES O=C(OCCOC(=O)c1ccc(-c2c3nc(c(-c4ccc(S(=O)(=O)[O-])cc4)c4ccc([nH]4)c(-c4ccc(S(=O)(=O)[O-])cc4)c4nc(c(-c5ccc(S(=O)(=O)[O-])cc5)c5ccc2[nH]5)C=C4)C=C3)cc1)C1=Cc2c(ccc(Cl)c2-c2ccccc2)O[C@H]1C(F)(F)F
REMARK SMILES IDX 5 1 4 2 3 3 2 4 1 5 69 6 70 7 85 8 71 9 84 10 72 11 77 12
REMARK SMILES IDX 73 13 75 14 74 15 76 16 86 17 87 18 88 19 89 20 78 21 79 22
REMARK SMILES IDX 83 23 80 24 82 25 81 26 6 27 7 28 8 29 9 30 10 31 68 32
REMARK SMILES IDX 11 33 67 34 12 35 13 36 14 37 61 38 15 39 66 40 60 41 62 42
REMARK SMILES IDX 16 43 65 44 59 45 58 46 17 48 47 49 28 50 46 51 29 52 32 53
REMARK SMILES IDX 45 54 63 55 30 56 31 57 44 59 64 60 33 61 18 62 19 63 27 64
REMARK SMILES IDX 20 65 26 66 21 67 22 68 23 69 24 70 25 71 48 72 49 73 57 74
REMARK SMILES IDX 50 75 56 76 51 77 52 78 53 79 54 80 55 81 34 82 35 83 43 84
REMARK SMILES IDX 36 85 42 86 37 87 38 88 39 89 40 90 41 91
REMARK H PARENT 62 47 32 58
REMARK Flexibility Score: inf
ROOT
ATOM      1  C   UNL A   1      38.940  20.945  25.423  1.00  0.00     0.275 C 
ENDROOT
BRANCH   1   2
ATOM      2  C   UNL A   1      37.495  20.838  24.957  1.00  0.00     0.275 C 
BRANCH   2   3
ATOM      3  O   UNL A   1      36.608  21.295  25.999  1.00  0.00    -0.459 OA
BRANCH   3   4
ATOM      4  C   UNL A   1      35.821  22.395  25.917  1.00  0.00     0.338 C 
ATOM      5  O   UNL A   1      36.282  23.492  26.220  1.00  0.00    -0.246 OA
BRANCH   4   6
ATOM      6  C   UNL A   1      34.398  22.314  25.491  1.00  0.00     0.087 C 
ATOM      7  C   UNL A   1      33.620  21.221  25.506  1.00  0.00     0.028 C 
ATOM      8  C   UNL A   1      33.840  23.590  24.902  1.00  0.00     0.316 C 
ATOM      9  C   UNL A   1      33.005  20.942  24.197  1.00  0.00     0.027 A 
ATOM     10  O   UNL A   1      32.777  23.356  23.921  1.00  0.00    -0.475 OA
ATOM     11  C   UNL A   1      32.615  22.072  23.459  1.00  0.00     0.128 A 
ATOM     12  C   UNL A   1      32.841  19.616  23.696  1.00  0.00     0.011 A 
ATOM     13  C   UNL A   1      32.022  21.909  22.218  1.00  0.00     0.049 A 
ATOM     14  C   UNL A   1      32.243  19.492  22.430  1.00  0.00     0.049 A 
ATOM     15  C   UNL A   1      31.840  20.623  21.704  1.00  0.00     0.025 A 
ATOM     16  Cl  UNL A   1      31.983  17.946  21.693  1.00  0.00    -0.084 Cl
BRANCH   8  17
ATOM     17  C   UNL A   1      33.340  24.504  26.043  1.00  0.00     0.430 C 
ATOM     18  F   UNL A   1      32.062  24.912  25.855  1.00  0.00    -0.167 F 
ATOM     19  F   UNL A   1      33.397  23.886  27.241  1.00  0.00    -0.167 F 
ATOM     20  F   UNL A   1      34.091  25.631  26.125  1.00  0.00    -0.167 F 
ENDBRANCH   8  17
BRANCH  12  21
ATOM     21  C   UNL A   1      33.356  18.424  24.424  1.00  0.00    -0.016 A 
ATOM     22  C   UNL A   1      32.499  17.695  25.272  1.00  0.00     0.009 A 
ATOM     23  C   UNL A   1      34.665  17.942  24.248  1.00  0.00     0.009 A 
ATOM     24  C   UNL A   1      32.890  16.466  25.821  1.00  0.00     0.001 A 
ATOM     25  C   UNL A   1      35.060  16.715  24.809  1.00  0.00     0.001 A 
ATOM     26  C   UNL A   1      34.161  15.964  25.566  1.00  0.00     0.000 A 
ENDBRANCH  12  21
ENDBRANCH   4   6
ENDBRANCH   3   4
ENDBRANCH   2   3
ENDBRANCH   1   2
BRANCH   1  27
ATOM     27  O   UNL A   1      39.101  21.899  26.473  1.00  0.00    -0.458 OA
BRANCH  27  28
ATOM     28  C   UNL A   1      40.218  22.657  26.412  1.00  0.00     0.338 C 
ATOM     29  O   UNL A   1      41.278  22.234  25.985  1.00  0.00    -0.246 OA
BRANCH  28  30
ATOM     30  C   UNL A   1      40.043  24.036  26.920  1.00  0.00     0.060 A 
ATOM     31  C   UNL A   1      40.533  25.075  26.133  1.00  0.00     0.016 A 
ATOM     32  C   UNL A   1      39.415  24.292  28.152  1.00  0.00     0.016 A 
ATOM     33  C   UNL A   1      40.513  26.364  26.637  1.00  0.00     0.010 A 
ATOM     34  C   UNL A   1      39.301  25.596  28.610  1.00  0.00     0.010 A 
ATOM     35  C   UNL A   1      39.964  26.608  27.905  1.00  0.00    -0.014 A 
BRANCH  35  36
ATOM     36  C   UNL A   1      40.386  27.824  28.624  1.00  0.00     0.031 A 
ATOM     37  C   UNL A   1      41.819  27.895  29.089  1.00  0.00     0.074 A 
ATOM     38  C   UNL A   1      39.538  28.853  28.770  1.00  0.00     0.049 A 
ATOM     39  N   UNL A   1      42.452  28.872  29.680  1.00  0.00    -0.248 NA
ATOM     40  C   UNL A   1      42.649  26.694  28.877  1.00  0.00     0.031 C 
ATOM     41  C   UNL A   1      38.139  28.862  28.337  1.00  0.00     0.029 A 
ATOM     42  N   UNL A   1      39.736  30.093  29.310  1.00  0.00    -0.354 N 
ATOM     43  C   UNL A   1      43.735  28.391  29.924  1.00  0.00     0.074 A 
ATOM     44  C   UNL A   1      43.774  27.019  29.485  1.00  0.00     0.031 C 
ATOM     45  C   UNL A   1      37.607  30.063  28.620  1.00  0.00     0.029 A 
ATOM     46  C   UNL A   1      38.620  30.890  29.272  1.00  0.00     0.049 A 
ATOM     47  H   UNL A   1      40.596  30.386  29.689  1.00  0.00     0.167 HD
ATOM     48  C   UNL A   1      44.799  29.045  30.444  1.00  0.00     0.031 A 
ATOM     49  C   UNL A   1      38.445  32.146  29.722  1.00  0.00     0.031 A 
ATOM     50  C   UNL A   1      44.733  30.416  30.857  1.00  0.00     0.049 A 
ATOM     51  C   UNL A   1      39.633  32.862  30.306  1.00  0.00     0.074 A 
ATOM     52  C   UNL A   1      45.736  31.214  31.371  1.00  0.00     0.029 A 
ATOM     53  N   UNL A   1      43.581  31.191  30.800  1.00  0.00    -0.354 N 
ATOM     54  N   UNL A   1      40.856  32.415  30.483  1.00  0.00    -0.248 NA
ATOM     55  C   UNL A   1      39.431  34.252  30.727  1.00  0.00     0.031 C 
ATOM     56  C   UNL A   1      45.175  32.458  31.677  1.00  0.00     0.029 A 
ATOM     57  C   UNL A   1      43.840  32.454  31.293  1.00  0.00     0.049 A 
ATOM     58  H   UNL A   1      42.710  30.886  30.458  1.00  0.00     0.167 HD
ATOM     59  C   UNL A   1      41.578  33.476  31.013  1.00  0.00     0.074 A 
ATOM     60  C   UNL A   1      40.653  34.590  31.120  1.00  0.00     0.031 C 
ATOM     61  C   UNL A   1      42.885  33.534  31.374  1.00  0.00     0.031 A 
BRANCH  48  62
ATOM     62  C   UNL A   1      46.072  28.259  30.623  1.00  0.00    -0.014 A 
ATOM     63  C   UNL A   1      46.358  27.575  31.821  1.00  0.00     0.010 A 
ATOM     64  C   UNL A   1      47.029  28.253  29.593  1.00  0.00     0.010 A 
ATOM     65  C   UNL A   1      47.607  26.973  32.015  1.00  0.00     0.020 A 
ATOM     66  C   UNL A   1      48.265  27.622  29.770  1.00  0.00     0.020 A 
ATOM     67  C   UNL A   1      48.557  27.014  30.993  1.00  0.00     0.054 A 
BRANCH  67  68
ATOM     68  S   UNL A   1      50.185  26.266  31.282  1.00  0.00     0.124 S 
ATOM     69  O   UNL A   1      50.188  26.107  32.734  1.00  0.00    -0.237 OA
ATOM     70  O   UNL A   1      50.110  25.025  30.514  1.00  0.00    -0.237 OA
ATOM     71  O   UNL A   1      51.121  27.260  30.762  1.00  0.00    -0.744 OA
ENDBRANCH  67  68
ENDBRANCH  48  62
BRANCH  49  72
ATOM     72  C   UNL A   1      37.100  32.772  29.621  1.00  0.00    -0.014 A 
ATOM     73  C   UNL A   1      36.290  32.948  30.755  1.00  0.00     0.010 A 
ATOM     74  C   UNL A   1      36.662  33.282  28.384  1.00  0.00     0.010 A 
ATOM     75  C   UNL A   1      35.067  33.623  30.653  1.00  0.00     0.020 A 
ATOM     76  C   UNL A   1      35.455  33.979  28.283  1.00  0.00     0.020 A 
ATOM     77  C   UNL A   1      34.662  34.143  29.419  1.00  0.00     0.054 A 
BRANCH  77  78
ATOM     78  S   UNL A   1      33.116  35.090  29.330  1.00  0.00     0.124 S 
ATOM     79  O   UNL A   1      33.594  36.419  28.968  1.00  0.00    -0.237 OA
ATOM     80  O   UNL A   1      32.373  34.380  28.291  1.00  0.00    -0.237 OA
ATOM     81  O   UNL A   1      32.561  34.969  30.676  1.00  0.00    -0.744 OA
ENDBRANCH  77  78
ENDBRANCH  49  72
BRANCH  61  82
ATOM     82  C   UNL A   1      43.405  34.848  31.884  1.00  0.00    -0.014 A 
ATOM     83  C   UNL A   1      43.475  35.114  33.262  1.00  0.00     0.010 A 
ATOM     84  C   UNL A   1      43.944  35.772  30.970  1.00  0.00     0.010 A 
ATOM     85  C   UNL A   1      44.070  36.292  33.717  1.00  0.00     0.020 A 
ATOM     86  C   UNL A   1      44.564  36.936  31.424  1.00  0.00     0.020 A 
ATOM     87  C   UNL A   1      44.619  37.190  32.795  1.00  0.00     0.054 A 
BRANCH  87  88
ATOM     88  S   UNL A   1      45.468  38.666  33.419  1.00  0.00     0.124 S 
ATOM     89  O   UNL A   1      46.633  38.088  34.082  1.00  0.00    -0.237 OA
ATOM     90  O   UNL A   1      45.748  39.414  32.195  1.00  0.00    -0.237 OA
ATOM     91  O   UNL A   1      44.485  39.282  34.307  1.00  0.00    -0.744 OA
ENDBRANCH  87  88
ENDBRANCH  61  82
ENDBRANCH  35  36
ENDBRANCH  28  30
ENDBRANCH  27  28
ENDBRANCH   1  27
TORSDOF 16
ENDMDL
MODEL 3
REMARK VINA RESULT:     -11.6      5.388     11.125
REMARK SMILES O=C(OCCOC(=O)c1ccc(-c2c3nc(c(-c4ccc(S(=O)(=O)[O-])cc4)c4ccc([nH]4)c(-c4ccc(S(=O)(=O)[O-])cc4)c4nc(c(-c5ccc(S(=O)(=O)[O-])cc5)c5ccc2[nH]5)C=C4)C=C3)cc1)C1=Cc2c(ccc(Cl)c2-c2ccccc2)O[C@H]1C(F)(F)F
REMARK SMILES IDX 5 1 4 2 3 3 2 4 1 5 69 6 70 7 85 8 71 9 84 10 72 11 77 12
REMARK SMILES IDX 73 13 75 14 74 15 76 16 86 17 87 18 88 19 89 20 78 21 79 22
REMARK SMILES IDX 83 23 80 24 82 25 81 26 6 27 7 28 8 29 9 30 10 31 68 32
REMARK SMILES IDX 11 33 67 34 12 35 13 36 14 37 61 38 15 39 66 40 60 41 62 42
REMARK SMILES IDX 16 43 65 44 59 45 58 46 17 48 47 49 28 50 46 51 29 52 32 53
REMARK SMILES IDX 45 54 63 55 30 56 31 57 44 59 64 60 33 61 18 62 19 63 27 64
REMARK SMILES IDX 20 65 26 66 21 67 22 68 23 69 24 70 25 71 48 72 49 73 57 74
REMARK SMILES IDX 50 75 56 76 51 77 52 78 53 79 54 80 55 81 34 82 35 83 43 84
REMARK SMILES IDX 36 85 42 86 37 87 38 88 39 89 40 90 41 91
REMARK H PARENT 62 47 32 58
REMARK Flexibility Score: inf
ROOT
ATOM      1  C   UNL A   1      38.692  23.827  26.476  1.00  0.00     0.275 C 
ENDROOT
BRANCH   1   2
ATOM      2  C   UNL A   1      39.017  22.375  26.154  1.00  0.00     0.275 C 
BRANCH   2   3
ATOM      3  O   UNL A   1      40.448  22.188  26.124  1.00  0.00    -0.459 OA
BRANCH   3   4
ATOM      4  C   UNL A   1      41.122  21.267  26.855  1.00  0.00     0.338 C 
ATOM      5  O   UNL A   1      40.519  20.598  27.690  1.00  0.00    -0.246 OA
BRANCH   4   6
ATOM      6  C   UNL A   1      42.586  21.055  26.695  1.00  0.00     0.087 C 
ATOM      7  C   UNL A   1      43.564  21.774  27.265  1.00  0.00     0.028 C 
ATOM      8  C   UNL A   1      42.964  19.971  25.710  1.00  0.00     0.316 C 
ATOM      9  C   UNL A   1      44.528  22.303  26.284  1.00  0.00     0.027 A 
ATOM     10  O   UNL A   1      44.260  20.205  25.065  1.00  0.00    -0.475 OA
ATOM     11  C   UNL A   1      44.818  21.453  25.203  1.00  0.00     0.128 A 
ATOM     12  C   UNL A   1      45.108  23.601  26.405  1.00  0.00     0.011 A 
ATOM     13  C   UNL A   1      45.718  21.861  24.233  1.00  0.00     0.049 A 
ATOM     14  C   UNL A   1      46.010  23.982  25.396  1.00  0.00     0.049 A 
ATOM     15  C   UNL A   1      46.309  23.124  24.327  1.00  0.00     0.025 A 
ATOM     16  Cl  UNL A   1      46.788  25.530  25.408  1.00  0.00    -0.084 Cl
BRANCH   8  17
ATOM     17  C   UNL A   1      42.948  18.603  26.425  1.00  0.00     0.430 C 
ATOM     18  F   UNL A   1      42.698  18.715  27.752  1.00  0.00    -0.167 F 
ATOM     19  F   UNL A   1      42.017  17.776  25.905  1.00  0.00    -0.167 F 
ATOM     20  F   UNL A   1      44.153  17.986  26.316  1.00  0.00    -0.167 F 
ENDBRANCH   8  17
BRANCH  12  21
ATOM     21  C   UNL A   1      44.716  24.546  27.485  1.00  0.00    -0.016 A 
ATOM     22  C   UNL A   1      45.424  24.553  28.703  1.00  0.00     0.009 A 
ATOM     23  C   UNL A   1      43.697  25.501  27.318  1.00  0.00     0.009 A 
ATOM     24  C   UNL A   1      45.212  25.551  29.664  1.00  0.00     0.001 A 
ATOM     25  C   UNL A   1      43.476  26.493  28.288  1.00  0.00     0.001 A 
ATOM     26  C   UNL A   1      44.256  26.537  29.444  1.00  0.00     0.000 A 
ENDBRANCH  12  21
ENDBRANCH   4   6
ENDBRANCH   3   4
ENDBRANCH   2   3
ENDBRANCH   1   2
BRANCH   1  27
ATOM     27  O   UNL A   1      39.678  24.430  27.313  1.00  0.00    -0.458 OA
BRANCH  27  28
ATOM     28  C   UNL A   1      40.023  25.697  26.996  1.00  0.00     0.338 C 
ATOM     29  O   UNL A   1      40.531  25.994  25.929  1.00  0.00    -0.246 OA
BRANCH  28  30
ATOM     30  C   UNL A   1      39.743  26.687  28.061  1.00  0.00     0.060 A 
ATOM     31  C   UNL A   1      40.136  28.003  27.831  1.00  0.00     0.016 A 
ATOM     32  C   UNL A   1      39.112  26.316  29.262  1.00  0.00     0.016 A 
ATOM     33  C   UNL A   1      40.017  28.926  28.856  1.00  0.00     0.010 A 
ATOM     34  C   UNL A   1      38.899  27.266  30.250  1.00  0.00     0.010 A 
ATOM     35  C   UNL A   1      39.467  28.535  30.086  1.00  0.00    -0.014 A 
BRANCH  35  36
ATOM     36  C   UNL A   1      39.798  29.332  31.281  1.00  0.00     0.031 A 
ATOM     37  C   UNL A   1      38.808  30.387  31.708  1.00  0.00     0.074 A 
ATOM     38  C   UNL A   1      40.897  29.054  31.998  1.00  0.00     0.049 A 
ATOM     39  N   UNL A   1      38.829  31.170  32.753  1.00  0.00    -0.248 NA
ATOM     40  C   UNL A   1      37.642  30.602  30.830  1.00  0.00     0.031 C 
ATOM     41  C   UNL A   1      41.896  28.041  31.653  1.00  0.00     0.029 A 
ATOM     42  N   UNL A   1      41.346  29.591  33.173  1.00  0.00    -0.354 N 
ATOM     43  C   UNL A   1      37.700  31.976  32.637  1.00  0.00     0.074 A 
ATOM     44  C   UNL A   1      37.053  31.640  31.394  1.00  0.00     0.031 C 
ATOM     45  C   UNL A   1      42.840  28.022  32.609  1.00  0.00     0.029 A 
ATOM     46  C   UNL A   1      42.520  29.035  33.613  1.00  0.00     0.049 A 
ATOM     47  H   UNL A   1      40.872  30.306  33.655  1.00  0.00     0.167 HD
ATOM     48  C   UNL A   1      37.227  32.898  33.506  1.00  0.00     0.031 A 
ATOM     49  C   UNL A   1      43.251  29.324  34.705  1.00  0.00     0.031 A 
ATOM     50  C   UNL A   1      37.885  33.199  34.744  1.00  0.00     0.049 A 
ATOM     51  C   UNL A   1      42.720  30.357  35.661  1.00  0.00     0.074 A 
ATOM     52  C   UNL A   1      37.505  34.085  35.732  1.00  0.00     0.029 A 
ATOM     53  N   UNL A   1      39.075  32.611  35.155  1.00  0.00    -0.354 N 
ATOM     54  N   UNL A   1      41.623  31.075  35.569  1.00  0.00    -0.248 NA
ATOM     55  C   UNL A   1      43.502  30.604  36.877  1.00  0.00     0.031 C 
ATOM     56  C   UNL A   1      38.497  34.073  36.718  1.00  0.00     0.029 A 
ATOM     57  C   UNL A   1      39.460  33.132  36.374  1.00  0.00     0.049 A 
ATOM     58  H   UNL A   1      39.570  31.925  34.652  1.00  0.00     0.167 HD
ATOM     59  C   UNL A   1      41.569  31.842  36.725  1.00  0.00     0.074 A 
ATOM     60  C   UNL A   1      42.743  31.493  37.505  1.00  0.00     0.031 C 
ATOM     61  C   UNL A   1      40.637  32.747  37.115  1.00  0.00     0.031 A 
BRANCH  48  62
ATOM     62  C   UNL A   1      35.983  33.650  33.105  1.00  0.00    -0.014 A 
ATOM     63  C   UNL A   1      36.048  34.934  32.529  1.00  0.00     0.010 A 
ATOM     64  C   UNL A   1      34.723  33.085  33.364  1.00  0.00     0.010 A 
ATOM     65  C   UNL A   1      34.879  35.669  32.299  1.00  0.00     0.020 A 
ATOM     66  C   UNL A   1      33.550  33.802  33.102  1.00  0.00     0.020 A 
ATOM     67  C   UNL A   1      33.639  35.102  32.601  1.00  0.00     0.054 A 
BRANCH  67  68
ATOM     68  S   UNL A   1      32.139  36.089  32.336  1.00  0.00     0.124 S 
ATOM     69  O   UNL A   1      32.282  36.480  30.936  1.00  0.00    -0.237 OA
ATOM     70  O   UNL A   1      31.071  35.131  32.614  1.00  0.00    -0.237 OA
ATOM     71  O   UNL A   1      32.263  37.176  33.303  1.00  0.00    -0.744 OA
ENDBRANCH  67  68
ENDBRANCH  48  62
BRANCH  49  72
ATOM     72  C   UNL A   1      44.539  28.615  34.924  1.00  0.00    -0.014 A 
ATOM     73  C   UNL A   1      45.755  29.152  34.470  1.00  0.00     0.010 A 
ATOM     74  C   UNL A   1      44.559  27.425  35.678  1.00  0.00     0.010 A 
ATOM     75  C   UNL A   1      46.966  28.515  34.769  1.00  0.00     0.020 A 
ATOM     76  C   UNL A   1      45.766  26.800  36.000  1.00  0.00     0.020 A 
ATOM     77  C   UNL A   1      46.964  27.347  35.539  1.00  0.00     0.054 A 
BRANCH  77  78
ATOM     78  S   UNL A   1      48.552  26.588  35.986  1.00  0.00     0.124 S 
ATOM     79  O   UNL A   1      48.925  27.343  37.177  1.00  0.00    -0.237 OA
ATOM     80  O   UNL A   1      48.180  25.193  36.212  1.00  0.00    -0.237 OA
ATOM     81  O   UNL A   1      49.386  26.820  34.810  1.00  0.00    -0.744 OA
ENDBRANCH  77  78
ENDBRANCH  49  72
BRANCH  61  82
ATOM     82  C   UNL A   1      40.823  33.399  38.456  1.00  0.00    -0.014 A 
ATOM     83  C   UNL A   1      41.538  34.602  38.584  1.00  0.00     0.010 A 
ATOM     84  C   UNL A   1      40.165  32.859  39.577  1.00  0.00     0.010 A 
ATOM     85  C   UNL A   1      41.599  35.251  39.819  1.00  0.00     0.020 A 
ATOM     86  C   UNL A   1      40.201  33.521  40.804  1.00  0.00     0.020 A 
ATOM     87  C   UNL A   1      40.922  34.711  40.918  1.00  0.00     0.054 A 
BRANCH  87  88
ATOM     88  S   UNL A   1      40.941  35.623  42.485  1.00  0.00     0.124 S 
ATOM     89  O   UNL A   1      40.413  34.632  43.419  1.00  0.00    -0.237 OA
ATOM     90  O   UNL A   1      42.355  35.950  42.647  1.00  0.00    -0.237 OA
ATOM     91  O   UNL A   1      40.067  36.766  42.230  1.00  0.00    -0.744 OA
ENDBRANCH  87  88
ENDBRANCH  61  82
ENDBRANCH  35  36
ENDBRANCH  28  30
ENDBRANCH  27  28
ENDBRANCH   1  27
TORSDOF 16
ENDMDL
