MODEL 1
REMARK VINA RESULT:     -10.9      0.000      0.000
REMARK SMILES O=C(CCCc1nc(-c2ccc(Cl)c(Cl)c2)c(-c2ccccc2)o1)OCCOC(=O)c1ccc(-c2c3nc(c(-c4ccc(S(=O)(=O)[O-])cc4)c4ccc([nH]4)c(-c4ccc(S(=O)(=O)[O-])cc4)c4nc(c(-c5ccc(S(=O)(=O)[O-])cc5)c5ccc2[nH]5)C=C4)C=C3)cc1
REMARK SMILES IDX 26 1 25 2 2 3 1 4 3 5 4 6 5 7 6 8 7 9 24 10 8 11 17 12 9 13
REMARK SMILES IDX 10 14 16 15 11 16 14 17 12 18 15 19 13 20 18 21 19 22 23 23
REMARK SMILES IDX 20 24 22 25 21 26 27 27 28 28 29 29 30 30 31 31 32 32 90 33
REMARK SMILES IDX 33 34 89 35 34 36 35 37 36 38 83 39 37 40 88 41 82 42 84 43
REMARK SMILES IDX 38 44 87 45 81 46 80 47 39 49 69 50 50 51 68 52 51 53 54 54
REMARK SMILES IDX 67 55 85 56 52 57 53 58 66 60 86 61 55 62 40 63 41 64 49 65
REMARK SMILES IDX 42 66 48 67 43 68 44 69 45 70 46 71 47 72 70 73 71 74 79 75
REMARK SMILES IDX 72 76 78 77 73 78 74 79 75 80 76 81 77 82 56 83 57 84 65 85
REMARK SMILES IDX 58 86 64 87 59 88 60 89 61 90 62 91 63 92
REMARK H PARENT 84 48 54 59
REMARK Flexibility Score: inf
ROOT
ATOM      1  C   UNL A   1      31.767  29.415  25.842  1.00  0.00     0.274 C 
ENDROOT
BRANCH   1   2
ATOM      2  O   UNL A   1      32.530  28.519  25.015  1.00  0.00    -0.462 OA
BRANCH   2   3
ATOM      3  C   UNL A   1      31.937  27.873  23.978  1.00  0.00     0.305 C 
ATOM      4  O   UNL A   1      32.532  27.707  22.918  1.00  0.00    -0.252 OA
BRANCH   3   5
ATOM      5  C   UNL A   1      30.478  27.499  24.138  1.00  0.00     0.123 C 
BRANCH   5   6
ATOM      6  C   UNL A   1      30.223  26.029  24.467  1.00  0.00     0.021 C 
BRANCH   6   7
ATOM      7  C   UNL A   1      30.532  25.028  23.352  1.00  0.00     0.098 C 
BRANCH   7   8
ATOM      8  C   UNL A   1      31.644  24.058  23.604  1.00  0.00     0.195 A 
ATOM      9  N   UNL A   1      32.865  24.353  24.015  1.00  0.00    -0.213 NA
ATOM     10  O   UNL A   1      31.380  22.711  23.537  1.00  0.00    -0.440 OA
ATOM     11  C   UNL A   1      33.450  23.128  24.212  1.00  0.00     0.117 A 
ATOM     12  C   UNL A   1      32.537  22.120  23.983  1.00  0.00     0.162 A 
BRANCH  11  13
ATOM     13  C   UNL A   1      34.813  22.942  24.650  1.00  0.00     0.006 A 
ATOM     14  C   UNL A   1      35.499  23.987  25.278  1.00  0.00     0.012 A 
ATOM     15  C   UNL A   1      35.441  21.700  24.486  1.00  0.00     0.032 A 
ATOM     16  C   UNL A   1      36.793  23.781  25.763  1.00  0.00     0.023 A 
ATOM     17  C   UNL A   1      36.740  21.497  24.960  1.00  0.00     0.060 A 
ATOM     18  C   UNL A   1      37.416  22.537  25.607  1.00  0.00     0.059 A 
ATOM     19  Cl  UNL A   1      37.448  19.939  24.718  1.00  0.00    -0.083 Cl
ATOM     20  Cl  UNL A   1      39.014  22.352  26.237  1.00  0.00    -0.083 Cl
ENDBRANCH  11  13
BRANCH  12  21
ATOM     21  C   UNL A   1      32.537  20.679  24.178  1.00  0.00     0.020 A 
ATOM     22  C   UNL A   1      32.439  19.795  23.100  1.00  0.00     0.012 A 
ATOM     23  C   UNL A   1      32.690  20.152  25.472  1.00  0.00     0.012 A 
ATOM     24  C   UNL A   1      32.522  18.415  23.312  1.00  0.00     0.001 A 
ATOM     25  C   UNL A   1      32.764  18.774  25.684  1.00  0.00     0.001 A 
ATOM     26  C   UNL A   1      32.687  17.906  24.600  1.00  0.00     0.000 A 
ENDBRANCH  12  21
ENDBRANCH   7   8
ENDBRANCH   6   7
ENDBRANCH   5   6
ENDBRANCH   3   5
ENDBRANCH   2   3
ENDBRANCH   1   2
BRANCH   1  27
ATOM     27  C   UNL A   1      32.630  30.455  26.559  1.00  0.00     0.275 C 
BRANCH  27  28
ATOM     28  O   UNL A   1      33.575  29.827  27.441  1.00  0.00    -0.458 OA
BRANCH  28  29
ATOM     29  C   UNL A   1      34.428  30.691  28.049  1.00  0.00     0.338 C 
ATOM     30  O   UNL A   1      34.125  31.757  28.553  1.00  0.00    -0.246 OA
BRANCH  29  31
ATOM     31  C   UNL A   1      35.784  30.101  28.170  1.00  0.00     0.060 A 
ATOM     32  C   UNL A   1      36.131  29.575  29.419  1.00  0.00     0.016 A 
ATOM     33  C   UNL A   1      36.707  30.060  27.118  1.00  0.00     0.016 A 
ATOM     34  C   UNL A   1      37.412  29.070  29.638  1.00  0.00     0.010 A 
ATOM     35  C   UNL A   1      37.993  29.542  27.337  1.00  0.00     0.010 A 
ATOM     36  C   UNL A   1      38.366  29.081  28.611  1.00  0.00    -0.014 A 
BRANCH  36  37
ATOM     37  C   UNL A   1      39.768  28.721  28.953  1.00  0.00     0.031 A 
ATOM     38  C   UNL A   1      40.597  29.675  29.774  1.00  0.00     0.074 A 
ATOM     39  C   UNL A   1      40.262  27.508  28.645  1.00  0.00     0.049 A 
ATOM     40  N   UNL A   1      41.753  29.474  30.355  1.00  0.00    -0.248 NA
ATOM     41  C   UNL A   1      40.049  31.025  29.974  1.00  0.00     0.031 C 
ATOM     42  C   UNL A   1      39.571  26.485  27.859  1.00  0.00     0.029 A 
ATOM     43  N   UNL A   1      41.458  26.920  28.983  1.00  0.00    -0.354 N 
ATOM     44  C   UNL A   1      42.054  30.657  31.017  1.00  0.00     0.074 A 
ATOM     45  C   UNL A   1      40.991  31.592  30.716  1.00  0.00     0.031 C 
ATOM     46  C   UNL A   1      40.350  25.392  27.787  1.00  0.00     0.029 A 
ATOM     47  C   UNL A   1      41.591  25.634  28.521  1.00  0.00     0.049 A 
ATOM     48  H   UNL A   1      42.154  27.380  29.506  1.00  0.00     0.167 HD
ATOM     49  C   UNL A   1      43.104  30.940  31.826  1.00  0.00     0.031 A 
ATOM     50  C   UNL A   1      42.589  24.742  28.684  1.00  0.00     0.031 A 
ATOM     51  C   UNL A   1      44.183  30.031  32.108  1.00  0.00     0.049 A 
ATOM     52  C   UNL A   1      43.773  25.094  29.548  1.00  0.00     0.074 A 
ATOM     53  C   UNL A   1      45.288  30.231  32.920  1.00  0.00     0.029 A 
ATOM     54  N   UNL A   1      44.300  28.753  31.584  1.00  0.00    -0.354 N 
ATOM     55  N   UNL A   1      44.007  26.198  30.217  1.00  0.00    -0.248 NA
ATOM     56  C   UNL A   1      44.813  24.066  29.698  1.00  0.00     0.031 C 
ATOM     57  C   UNL A   1      46.097  29.091  32.848  1.00  0.00     0.029 A 
ATOM     58  C   UNL A   1      45.469  28.162  32.036  1.00  0.00     0.049 A 
ATOM     59  H   UNL A   1      43.649  28.329  30.981  1.00  0.00     0.167 HD
ATOM     60  C   UNL A   1      45.212  25.987  30.883  1.00  0.00     0.074 A 
ATOM     61  C   UNL A   1      45.642  24.644  30.556  1.00  0.00     0.031 C 
ATOM     62  C   UNL A   1      45.899  26.830  31.693  1.00  0.00     0.031 A 
BRANCH  49  63
ATOM     63  C   UNL A   1      43.133  32.302  32.466  1.00  0.00    -0.014 A 
ATOM     64  C   UNL A   1      43.870  33.350  31.885  1.00  0.00     0.010 A 
ATOM     65  C   UNL A   1      42.388  32.549  33.631  1.00  0.00     0.010 A 
ATOM     66  C   UNL A   1      43.887  34.615  32.477  1.00  0.00     0.020 A 
ATOM     67  C   UNL A   1      42.384  33.820  34.214  1.00  0.00     0.020 A 
ATOM     68  C   UNL A   1      43.147  34.841  33.641  1.00  0.00     0.054 A 
BRANCH  68  69
ATOM     69  S   UNL A   1      43.169  36.498  34.378  1.00  0.00     0.124 S 
ATOM     70  O   UNL A   1      43.162  37.353  33.193  1.00  0.00    -0.237 OA
ATOM     71  O   UNL A   1      41.942  36.515  35.169  1.00  0.00    -0.237 OA
ATOM     72  O   UNL A   1      44.407  36.516  35.153  1.00  0.00    -0.744 OA
ENDBRANCH  68  69
ENDBRANCH  49  63
BRANCH  50  73
ATOM     73  C   UNL A   1      42.519  23.415  28.012  1.00  0.00    -0.014 A 
ATOM     74  C   UNL A   1      43.087  23.213  26.742  1.00  0.00     0.010 A 
ATOM     75  C   UNL A   1      41.851  22.348  28.640  1.00  0.00     0.010 A 
ATOM     76  C   UNL A   1      42.964  21.977  26.100  1.00  0.00     0.020 A 
ATOM     77  C   UNL A   1      41.749  21.104  28.014  1.00  0.00     0.020 A 
ATOM     78  C   UNL A   1      42.293  20.930  26.740  1.00  0.00     0.054 A 
BRANCH  78  79
ATOM     79  S   UNL A   1      42.171  19.322  25.908  1.00  0.00     0.124 S 
ATOM     80  O   UNL A   1      40.736  19.207  25.679  1.00  0.00    -0.237 OA
ATOM     81  O   UNL A   1      42.991  19.518  24.716  1.00  0.00    -0.237 OA
ATOM     82  O   UNL A   1      42.728  18.391  26.889  1.00  0.00    -0.744 OA
ENDBRANCH  78  79
ENDBRANCH  50  73
BRANCH  62  83
ATOM     83  C   UNL A   1      47.184  26.319  32.293  1.00  0.00    -0.014 A 
ATOM     84  C   UNL A   1      47.188  25.612  33.509  1.00  0.00     0.010 A 
ATOM     85  C   UNL A   1      48.401  26.534  31.623  1.00  0.00     0.010 A 
ATOM     86  C   UNL A   1      48.392  25.172  34.068  1.00  0.00     0.020 A 
ATOM     87  C   UNL A   1      49.605  26.071  32.164  1.00  0.00     0.020 A 
ATOM     88  C   UNL A   1      49.594  25.412  33.396  1.00  0.00     0.054 A 
BRANCH  88  89
ATOM     89  S   UNL A   1      51.144  24.826  34.135  1.00  0.00     0.124 S 
ATOM     90  O   UNL A   1      50.801  23.458  34.512  1.00  0.00    -0.237 OA
ATOM     91  O   UNL A   1      52.096  24.954  33.035  1.00  0.00    -0.237 OA
ATOM     92  O   UNL A   1      51.363  25.744  35.250  1.00  0.00    -0.744 OA
ENDBRANCH  88  89
ENDBRANCH  62  83
ENDBRANCH  36  37
ENDBRANCH  29  31
ENDBRANCH  28  29
ENDBRANCH  27  28
ENDBRANCH   1  27
TORSDOF 19
ENDMDL
MODEL 2
REMARK VINA RESULT:     -10.8      1.373      2.687
REMARK SMILES O=C(CCCc1nc(-c2ccc(Cl)c(Cl)c2)c(-c2ccccc2)o1)OCCOC(=O)c1ccc(-c2c3nc(c(-c4ccc(S(=O)(=O)[O-])cc4)c4ccc([nH]4)c(-c4ccc(S(=O)(=O)[O-])cc4)c4nc(c(-c5ccc(S(=O)(=O)[O-])cc5)c5ccc2[nH]5)C=C4)C=C3)cc1
REMARK SMILES IDX 26 1 25 2 2 3 1 4 3 5 4 6 5 7 6 8 7 9 24 10 8 11 17 12 9 13
REMARK SMILES IDX 10 14 16 15 11 16 14 17 12 18 15 19 13 20 18 21 19 22 23 23
REMARK SMILES IDX 20 24 22 25 21 26 27 27 28 28 29 29 30 30 31 31 32 32 90 33
REMARK SMILES IDX 33 34 89 35 34 36 35 37 36 38 83 39 37 40 88 41 82 42 84 43
REMARK SMILES IDX 38 44 87 45 81 46 80 47 39 49 69 50 50 51 68 52 51 53 54 54
REMARK SMILES IDX 67 55 85 56 52 57 53 58 66 60 86 61 55 62 40 63 41 64 49 65
REMARK SMILES IDX 42 66 48 67 43 68 44 69 45 70 46 71 47 72 70 73 71 74 79 75
REMARK SMILES IDX 72 76 78 77 73 78 74 79 75 80 76 81 77 82 56 83 57 84 65 85
REMARK SMILES IDX 58 86 64 87 59 88 60 89 61 90 62 91 63 92
REMARK H PARENT 84 48 54 59
REMARK Flexibility Score: inf
ROOT
ATOM      1  C   UNL A   1      32.081  27.643  26.165  1.00  0.00     0.274 C 
ENDROOT
BRANCH   1   2
ATOM      2  O   UNL A   1      31.973  28.151  24.824  1.00  0.00    -0.462 OA
BRANCH   2   3
ATOM      3  C   UNL A   1      30.758  28.247  24.225  1.00  0.00     0.305 C 
ATOM      4  O   UNL A   1      30.406  29.290  23.680  1.00  0.00    -0.252 OA
BRANCH   3   5
ATOM      5  C   UNL A   1      29.813  27.076  24.383  1.00  0.00     0.123 C 
BRANCH   5   6
ATOM      6  C   UNL A   1      29.807  26.092  23.213  1.00  0.00     0.021 C 
BRANCH   6   7
ATOM      7  C   UNL A   1      31.175  25.739  22.625  1.00  0.00     0.098 C 
BRANCH   7   8
ATOM      8  C   UNL A   1      31.917  24.612  23.271  1.00  0.00     0.195 A 
ATOM      9  N   UNL A   1      31.543  23.344  23.309  1.00  0.00    -0.213 NA
ATOM     10  O   UNL A   1      33.174  24.845  23.777  1.00  0.00    -0.440 OA
ATOM     11  C   UNL A   1      32.607  22.705  23.891  1.00  0.00     0.117 A 
ATOM     12  C   UNL A   1      33.632  23.599  24.126  1.00  0.00     0.162 A 
BRANCH  11  13
ATOM     13  C   UNL A   1      32.651  21.287  24.163  1.00  0.00     0.006 A 
ATOM     14  C   UNL A   1      32.834  20.827  25.471  1.00  0.00     0.012 A 
ATOM     15  C   UNL A   1      32.469  20.367  23.123  1.00  0.00     0.032 A 
ATOM     16  C   UNL A   1      32.806  19.456  25.740  1.00  0.00     0.023 A 
ATOM     17  C   UNL A   1      32.453  18.995  23.388  1.00  0.00     0.060 A 
ATOM     18  C   UNL A   1      32.614  18.537  24.702  1.00  0.00     0.059 A 
ATOM     19  Cl  UNL A   1      32.227  17.920  22.054  1.00  0.00    -0.083 Cl
ATOM     20  Cl  UNL A   1      32.585  16.859  25.108  1.00  0.00    -0.083 Cl
ENDBRANCH  11  13
BRANCH  12  21
ATOM     21  C   UNL A   1      35.013  23.475  24.563  1.00  0.00     0.020 A 
ATOM     22  C   UNL A   1      35.447  24.016  25.777  1.00  0.00     0.012 A 
ATOM     23  C   UNL A   1      35.930  22.755  23.779  1.00  0.00     0.012 A 
ATOM     24  C   UNL A   1      36.762  23.813  26.208  1.00  0.00     0.001 A 
ATOM     25  C   UNL A   1      37.245  22.560  24.205  1.00  0.00     0.001 A 
ATOM     26  C   UNL A   1      37.658  23.084  25.426  1.00  0.00     0.000 A 
ENDBRANCH  12  21
ENDBRANCH   7   8
ENDBRANCH   6   7
ENDBRANCH   5   6
ENDBRANCH   3   5
ENDBRANCH   2   3
ENDBRANCH   1   2
BRANCH   1  27
ATOM     27  C   UNL A   1      32.536  28.700  27.174  1.00  0.00     0.275 C 
BRANCH  27  28
ATOM     28  O   UNL A   1      33.967  28.725  27.291  1.00  0.00    -0.458 OA
BRANCH  28  29
ATOM     29  C   UNL A   1      34.467  29.898  27.759  1.00  0.00     0.338 C 
ATOM     30  O   UNL A   1      33.837  30.925  27.928  1.00  0.00    -0.246 OA
BRANCH  29  31
ATOM     31  C   UNL A   1      35.875  29.735  28.200  1.00  0.00     0.060 A 
ATOM     32  C   UNL A   1      36.864  29.960  27.237  1.00  0.00     0.016 A 
ATOM     33  C   UNL A   1      36.242  29.365  29.499  1.00  0.00     0.016 A 
ATOM     34  C   UNL A   1      38.208  29.755  27.547  1.00  0.00     0.010 A 
ATOM     35  C   UNL A   1      37.596  29.170  29.814  1.00  0.00     0.010 A 
ATOM     36  C   UNL A   1      38.584  29.324  28.827  1.00  0.00    -0.014 A 
BRANCH  36  37
ATOM     37  C   UNL A   1      40.001  28.928  29.045  1.00  0.00     0.031 A 
ATOM     38  C   UNL A   1      40.928  29.867  29.772  1.00  0.00     0.074 A 
ATOM     39  C   UNL A   1      40.431  27.698  28.711  1.00  0.00     0.049 A 
ATOM     40  N   UNL A   1      42.127  29.641  30.248  1.00  0.00    -0.248 NA
ATOM     41  C   UNL A   1      40.438  31.236  30.002  1.00  0.00     0.031 C 
ATOM     42  C   UNL A   1      39.643  26.686  28.006  1.00  0.00     0.029 A 
ATOM     43  N   UNL A   1      41.637  27.080  28.946  1.00  0.00    -0.354 N 
ATOM     44  C   UNL A   1      42.520  30.823  30.862  1.00  0.00     0.074 A 
ATOM     45  C   UNL A   1      41.460  31.784  30.646  1.00  0.00     0.031 C 
ATOM     46  C   UNL A   1      40.382  25.570  27.879  1.00  0.00     0.029 A 
ATOM     47  C   UNL A   1      41.691  25.785  28.493  1.00  0.00     0.049 A 
ATOM     48  H   UNL A   1      42.390  27.526  29.396  1.00  0.00     0.167 HD
ATOM     49  C   UNL A   1      43.648  31.084  31.567  1.00  0.00     0.031 A 
ATOM     50  C   UNL A   1      42.675  24.866  28.577  1.00  0.00     0.031 A 
ATOM     51  C   UNL A   1      44.723  30.148  31.763  1.00  0.00     0.049 A 
ATOM     52  C   UNL A   1      43.942  25.195  29.323  1.00  0.00     0.074 A 
ATOM     53  C   UNL A   1      45.902  30.326  32.467  1.00  0.00     0.029 A 
ATOM     54  N   UNL A   1      44.755  28.862  31.249  1.00  0.00    -0.354 N 
ATOM     55  N   UNL A   1      44.267  26.299  29.952  1.00  0.00    -0.248 NA
ATOM     56  C   UNL A   1      44.963  24.139  29.392  1.00  0.00     0.031 C 
ATOM     57  C   UNL A   1      46.670  29.162  32.338  1.00  0.00     0.029 A 
ATOM     58  C   UNL A   1      45.944  28.243  31.600  1.00  0.00     0.049 A 
ATOM     59  H   UNL A   1      44.040  28.449  30.715  1.00  0.00     0.167 HD
ATOM     60  C   UNL A   1      45.522  26.062  30.507  1.00  0.00     0.074 A 
ATOM     61  C   UNL A   1      45.883  24.703  30.162  1.00  0.00     0.031 C 
ATOM     62  C   UNL A   1      46.304  26.895  31.239  1.00  0.00     0.031 A 
BRANCH  49  63
ATOM     63  C   UNL A   1      43.773  32.452  32.182  1.00  0.00    -0.014 A 
ATOM     64  C   UNL A   1      44.302  33.525  31.440  1.00  0.00     0.010 A 
ATOM     65  C   UNL A   1      43.323  32.680  33.493  1.00  0.00     0.010 A 
ATOM     66  C   UNL A   1      44.408  34.795  32.011  1.00  0.00     0.020 A 
ATOM     67  C   UNL A   1      43.407  33.955  34.061  1.00  0.00     0.020 A 
ATOM     68  C   UNL A   1      43.963  35.002  33.320  1.00  0.00     0.054 A 
BRANCH  68  69
ATOM     69  S   UNL A   1      44.093  36.665  34.031  1.00  0.00     0.124 S 
ATOM     70  O   UNL A   1      43.792  36.414  35.438  1.00  0.00    -0.237 OA
ATOM     71  O   UNL A   1      45.476  37.032  33.742  1.00  0.00    -0.237 OA
ATOM     72  O   UNL A   1      43.083  37.432  33.305  1.00  0.00    -0.744 OA
ENDBRANCH  68  69
ENDBRANCH  49  63
BRANCH  50  73
ATOM     73  C   UNL A   1      42.506  23.535  27.933  1.00  0.00    -0.014 A 
ATOM     74  C   UNL A   1      41.761  22.517  28.554  1.00  0.00     0.010 A 
ATOM     75  C   UNL A   1      43.120  23.275  26.694  1.00  0.00     0.010 A 
ATOM     76  C   UNL A   1      41.657  21.254  27.962  1.00  0.00     0.020 A 
ATOM     77  C   UNL A   1      42.997  22.023  26.087  1.00  0.00     0.020 A 
ATOM     78  C   UNL A   1      42.279  21.015  26.732  1.00  0.00     0.054 A 
BRANCH  78  79
ATOM     79  S   UNL A   1      42.107  19.381  25.961  1.00  0.00     0.124 S 
ATOM     80  O   UNL A   1      42.649  18.501  26.990  1.00  0.00    -0.237 OA
ATOM     81  O   UNL A   1      40.667  19.285  25.738  1.00  0.00    -0.237 OA
ATOM     82  O   UNL A   1      42.910  19.495  24.745  1.00  0.00    -0.744 OA
ENDBRANCH  78  79
ENDBRANCH  50  73
BRANCH  62  83
ATOM     83  C   UNL A   1      47.624  26.354  31.726  1.00  0.00    -0.014 A 
ATOM     84  C   UNL A   1      48.799  26.517  30.969  1.00  0.00     0.010 A 
ATOM     85  C   UNL A   1      47.694  25.692  32.964  1.00  0.00     0.010 A 
ATOM     86  C   UNL A   1      50.011  25.982  31.420  1.00  0.00     0.020 A 
ATOM     87  C   UNL A   1      48.909  25.180  33.431  1.00  0.00     0.020 A 
ATOM     88  C   UNL A   1      50.056  25.310  32.645  1.00  0.00     0.054 A 
BRANCH  88  89
ATOM     89  S   UNL A   1      51.639  24.631  33.214  1.00  0.00     0.124 S 
ATOM     90  O   UNL A   1      51.576  24.881  34.652  1.00  0.00    -0.237 OA
ATOM     91  O   UNL A   1      51.553  23.229  32.816  1.00  0.00    -0.237 OA
ATOM     92  O   UNL A   1      52.633  25.418  32.487  1.00  0.00    -0.744 OA
ENDBRANCH  88  89
ENDBRANCH  62  83
ENDBRANCH  36  37
ENDBRANCH  29  31
ENDBRANCH  28  29
ENDBRANCH  27  28
ENDBRANCH   1  27
TORSDOF 19
ENDMDL
MODEL 3
REMARK VINA RESULT:     -10.7      1.682      2.123
REMARK SMILES O=C(CCCc1nc(-c2ccc(Cl)c(Cl)c2)c(-c2ccccc2)o1)OCCOC(=O)c1ccc(-c2c3nc(c(-c4ccc(S(=O)(=O)[O-])cc4)c4ccc([nH]4)c(-c4ccc(S(=O)(=O)[O-])cc4)c4nc(c(-c5ccc(S(=O)(=O)[O-])cc5)c5ccc2[nH]5)C=C4)C=C3)cc1
REMARK SMILES IDX 26 1 25 2 2 3 1 4 3 5 4 6 5 7 6 8 7 9 24 10 8 11 17 12 9 13
REMARK SMILES IDX 10 14 16 15 11 16 14 17 12 18 15 19 13 20 18 21 19 22 23 23
REMARK SMILES IDX 20 24 22 25 21 26 27 27 28 28 29 29 30 30 31 31 32 32 90 33
REMARK SMILES IDX 33 34 89 35 34 36 35 37 36 38 83 39 37 40 88 41 82 42 84 43
REMARK SMILES IDX 38 44 87 45 81 46 80 47 39 49 69 50 50 51 68 52 51 53 54 54
REMARK SMILES IDX 67 55 85 56 52 57 53 58 66 60 86 61 55 62 40 63 41 64 49 65
REMARK SMILES IDX 42 66 48 67 43 68 44 69 45 70 46 71 47 72 70 73 71 74 79 75
REMARK SMILES IDX 72 76 78 77 73 78 74 79 75 80 76 81 77 82 56 83 57 84 65 85
REMARK SMILES IDX 58 86 64 87 59 88 60 89 61 90 62 91 63 92
REMARK H PARENT 84 48 54 59
REMARK Flexibility Score: inf
ROOT
ATOM      1  C   UNL A   1      31.696  30.167  25.504  1.00  0.00     0.274 C 
ENDROOT
BRANCH   1   2
ATOM      2  O   UNL A   1      31.279  28.911  24.940  1.00  0.00    -0.462 OA
BRANCH   2   3
ATOM      3  C   UNL A   1      30.466  28.886  23.852  1.00  0.00     0.305 C 
ATOM      4  O   UNL A   1      29.753  29.847  23.578  1.00  0.00    -0.252 OA
BRANCH   3   5
ATOM      5  C   UNL A   1      30.374  27.583  23.087  1.00  0.00     0.123 C 
BRANCH   5   6
ATOM      6  C   UNL A   1      31.356  26.502  23.535  1.00  0.00     0.021 C 
BRANCH   6   7
ATOM      7  C   UNL A   1      31.011  25.069  23.125  1.00  0.00     0.098 C 
BRANCH   7   8
ATOM      8  C   UNL A   1      32.040  24.020  23.408  1.00  0.00     0.195 A 
ATOM      9  N   UNL A   1      33.271  24.223  23.842  1.00  0.00    -0.213 NA
ATOM     10  O   UNL A   1      31.675  22.696  23.345  1.00  0.00    -0.440 OA
ATOM     11  C   UNL A   1      33.756  22.960  24.061  1.00  0.00     0.117 A 
ATOM     12  C   UNL A   1      32.774  22.022  23.819  1.00  0.00     0.162 A 
BRANCH  11  13
ATOM     13  C   UNL A   1      35.092  22.673  24.529  1.00  0.00     0.006 A 
ATOM     14  C   UNL A   1      35.885  23.695  25.060  1.00  0.00     0.012 A 
ATOM     15  C   UNL A   1      35.584  21.362  24.492  1.00  0.00     0.032 A 
ATOM     16  C   UNL A   1      37.150  23.401  25.577  1.00  0.00     0.023 A 
ATOM     17  C   UNL A   1      36.853  21.069  24.997  1.00  0.00     0.060 A 
ATOM     18  C   UNL A   1      37.636  22.090  25.548  1.00  0.00     0.059 A 
ATOM     19  Cl  UNL A   1      37.393  19.429  24.914  1.00  0.00    -0.083 Cl
ATOM     20  Cl  UNL A   1      39.205  21.799  26.210  1.00  0.00    -0.083 Cl
ENDBRANCH  11  13
BRANCH  12  21
ATOM     21  C   UNL A   1      32.660  20.587  24.025  1.00  0.00     0.020 A 
ATOM     22  C   UNL A   1      32.480  19.707  22.953  1.00  0.00     0.012 A 
ATOM     23  C   UNL A   1      32.781  20.057  25.321  1.00  0.00     0.012 A 
ATOM     24  C   UNL A   1      32.453  18.326  23.174  1.00  0.00     0.001 A 
ATOM     25  C   UNL A   1      32.746  18.680  25.542  1.00  0.00     0.001 A 
ATOM     26  C   UNL A   1      32.589  17.814  24.464  1.00  0.00     0.000 A 
ENDBRANCH  12  21
ENDBRANCH   7   8
ENDBRANCH   6   7
ENDBRANCH   5   6
ENDBRANCH   3   5
ENDBRANCH   2   3
ENDBRANCH   1   2
BRANCH   1  27
ATOM     27  C   UNL A   1      32.256  30.034  26.921  1.00  0.00     0.275 C 
BRANCH  27  28
ATOM     28  O   UNL A   1      33.684  29.878  26.903  1.00  0.00    -0.458 OA
BRANCH  28  29
ATOM     29  C   UNL A   1      34.353  30.792  27.653  1.00  0.00     0.338 C 
ATOM     30  O   UNL A   1      33.895  31.835  28.083  1.00  0.00    -0.246 OA
BRANCH  29  31
ATOM     31  C   UNL A   1      35.697  30.287  28.029  1.00  0.00     0.060 A 
ATOM     32  C   UNL A   1      35.836  29.777  29.324  1.00  0.00     0.016 A 
ATOM     33  C   UNL A   1      36.801  30.311  27.169  1.00  0.00     0.016 A 
ATOM     34  C   UNL A   1      37.082  29.353  29.783  1.00  0.00     0.010 A 
ATOM     35  C   UNL A   1      38.054  29.872  27.629  1.00  0.00     0.010 A 
ATOM     36  C   UNL A   1      38.209  29.429  28.953  1.00  0.00    -0.014 A 
BRANCH  36  37
ATOM     37  C   UNL A   1      39.542  29.156  29.554  1.00  0.00     0.031 A 
ATOM     38  C   UNL A   1      39.978  29.933  30.769  1.00  0.00     0.074 A 
ATOM     39  C   UNL A   1      40.307  28.144  29.103  1.00  0.00     0.049 A 
ATOM     40  N   UNL A   1      40.993  29.716  31.567  1.00  0.00    -0.248 NA
ATOM     41  C   UNL A   1      39.161  31.099  31.138  1.00  0.00     0.031 C 
ATOM     42  C   UNL A   1      40.008  27.308  27.940  1.00  0.00     0.029 A 
ATOM     43  N   UNL A   1      41.485  27.631  29.591  1.00  0.00    -0.354 N 
ATOM     44  C   UNL A   1      40.917  30.693  32.551  1.00  0.00     0.074 A 
ATOM     45  C   UNL A   1      39.794  31.542  32.216  1.00  0.00     0.031 C 
ATOM     46  C   UNL A   1      40.970  26.378  27.813  1.00  0.00     0.029 A 
ATOM     47  C   UNL A   1      41.951  26.550  28.884  1.00  0.00     0.049 A 
ATOM     48  H   UNL A   1      41.950  28.005  30.374  1.00  0.00     0.167 HD
ATOM     49  C   UNL A   1      41.691  30.860  33.651  1.00  0.00     0.031 A 
ATOM     50  C   UNL A   1      43.035  25.773  29.083  1.00  0.00     0.031 A 
ATOM     51  C   UNL A   1      42.829  30.043  33.979  1.00  0.00     0.049 A 
ATOM     52  C   UNL A   1      43.912  26.007  30.286  1.00  0.00     0.074 A 
ATOM     53  C   UNL A   1      43.669  30.137  35.075  1.00  0.00     0.029 A 
ATOM     54  N   UNL A   1      43.292  28.986  33.211  1.00  0.00    -0.354 N 
ATOM     55  N   UNL A   1      43.785  26.899  31.239  1.00  0.00    -0.248 NA
ATOM     56  C   UNL A   1      45.064  25.108  30.451  1.00  0.00     0.031 C 
ATOM     57  C   UNL A   1      44.670  29.166  34.946  1.00  0.00     0.029 A 
ATOM     58  C   UNL A   1      44.420  28.434  33.797  1.00  0.00     0.049 A 
ATOM     59  H   UNL A   1      42.880  28.673  32.374  1.00  0.00     0.167 HD
ATOM     60  C   UNL A   1      44.830  26.654  32.127  1.00  0.00     0.074 A 
ATOM     61  C   UNL A   1      45.561  25.517  31.611  1.00  0.00     0.031 C 
ATOM     62  C   UNL A   1      45.152  27.312  33.268  1.00  0.00     0.031 A 
BRANCH  49  63
ATOM     63  C   UNL A   1      41.326  31.982  34.585  1.00  0.00    -0.014 A 
ATOM     64  C   UNL A   1      41.854  33.273  34.394  1.00  0.00     0.010 A 
ATOM     65  C   UNL A   1      40.420  31.759  35.635  1.00  0.00     0.010 A 
ATOM     66  C   UNL A   1      41.506  34.314  35.258  1.00  0.00     0.020 A 
ATOM     67  C   UNL A   1      40.052  32.804  36.489  1.00  0.00     0.020 A 
ATOM     68  C   UNL A   1      40.609  34.071  36.304  1.00  0.00     0.054 A 
BRANCH  68  69
ATOM     69  S   UNL A   1      40.158  35.445  37.398  1.00  0.00     0.124 S 
ATOM     70  O   UNL A   1      39.658  36.434  36.447  1.00  0.00    -0.237 OA
ATOM     71  O   UNL A   1      39.149  34.845  38.267  1.00  0.00    -0.237 OA
ATOM     72  O   UNL A   1      41.415  35.792  38.056  1.00  0.00    -0.744 OA
ENDBRANCH  68  69
ENDBRANCH  49  63
BRANCH  50  73
ATOM     73  C   UNL A   1      43.360  24.689  28.116  1.00  0.00    -0.014 A 
ATOM     74  C   UNL A   1      42.776  23.415  28.228  1.00  0.00     0.010 A 
ATOM     75  C   UNL A   1      44.286  24.928  27.084  1.00  0.00     0.010 A 
ATOM     76  C   UNL A   1      43.133  22.392  27.344  1.00  0.00     0.020 A 
ATOM     77  C   UNL A   1      44.626  23.916  26.183  1.00  0.00     0.020 A 
ATOM     78  C   UNL A   1      44.058  22.649  26.329  1.00  0.00     0.054 A 
BRANCH  78  79
ATOM     79  S   UNL A   1      44.486  21.320  25.170  1.00  0.00     0.124 S 
ATOM     80  O   UNL A   1      43.479  20.311  25.478  1.00  0.00    -0.237 OA
ATOM     81  O   UNL A   1      44.352  21.975  23.871  1.00  0.00    -0.237 OA
ATOM     82  O   UNL A   1      45.857  20.974  25.543  1.00  0.00    -0.744 OA
ENDBRANCH  78  79
ENDBRANCH  50  73
BRANCH  62  83
ATOM     83  C   UNL A   1      46.344  26.809  34.043  1.00  0.00    -0.014 A 
ATOM     84  C   UNL A   1      46.204  25.810  35.024  1.00  0.00     0.010 A 
ATOM     85  C   UNL A   1      47.622  27.329  33.773  1.00  0.00     0.010 A 
ATOM     86  C   UNL A   1      47.314  25.378  35.756  1.00  0.00     0.020 A 
ATOM     87  C   UNL A   1      48.739  26.879  34.484  1.00  0.00     0.020 A 
ATOM     88  C   UNL A   1      48.574  25.921  35.487  1.00  0.00     0.054 A 
BRANCH  88  89
ATOM     89  S   UNL A   1      50.002  25.339  36.443  1.00  0.00     0.124 S 
ATOM     90  O   UNL A   1      51.019  25.185  35.405  1.00  0.00    -0.237 OA
ATOM     91  O   UNL A   1      50.228  26.431  37.386  1.00  0.00    -0.237 OA
ATOM     92  O   UNL A   1      49.530  24.093  37.043  1.00  0.00    -0.744 OA
ENDBRANCH  88  89
ENDBRANCH  62  83
ENDBRANCH  36  37
ENDBRANCH  29  31
ENDBRANCH  28  29
ENDBRANCH  27  28
ENDBRANCH   1  27
TORSDOF 19
ENDMDL
