MODEL 1
REMARK VINA RESULT:      -9.8      0.000      0.000
REMARK SMILES CC(C)Oc1ccccc1NCc1cc(C(=O)OCCOC(=O)c2ccc(-c3c4nc(c(-c5ccc(S(=O)(=O)[O-])cc5)c5ccc([nH]5)c(-c5ccc(S(=O)(=O)[O-])cc5)c5nc(c(-c6ccc(S(=O)(=O)[O-])cc6)c6ccc3[nH]6)C=C5)C=C4)cc2)cs1
REMARK SMILES IDX 19 1 18 2 16 3 17 4 15 5 13 6 14 7 85 8 84 9 12 10 11 11
REMARK SMILES IDX 10 13 5 14 6 15 7 16 9 17 8 18 4 19 2 20 1 21 3 22 20 23
REMARK SMILES IDX 21 24 22 25 23 26 24 27 25 28 83 29 26 30 82 31 27 32 28 33
REMARK SMILES IDX 29 34 76 35 30 36 81 37 75 38 77 39 31 40 80 41 74 42 73 43
REMARK SMILES IDX 32 45 62 46 43 47 61 48 44 49 47 50 60 51 78 52 45 53 46 54
REMARK SMILES IDX 59 56 79 57 48 58 33 59 34 60 42 61 35 62 41 63 36 64 37 65
REMARK SMILES IDX 38 66 39 67 40 68 63 69 64 70 72 71 65 72 71 73 66 74 67 75
REMARK SMILES IDX 68 76 69 77 70 78 49 79 50 80 58 81 51 82 57 83 52 84 53 85
REMARK SMILES IDX 54 86 55 87 56 88
REMARK H PARENT 11 12 77 44 47 55
REMARK Flexibility Score: inf
ROOT
ATOM      1  C   UNL A   1      38.120  22.571  25.689  1.00  0.00     0.275 C 
ENDROOT
BRANCH   1   2
ATOM      2  O   UNL A   1      36.934  23.387  25.722  1.00  0.00    -0.458 OA
BRANCH   2   3
ATOM      3  C   UNL A   1      36.195  23.392  24.573  1.00  0.00     0.339 C 
ATOM      4  O   UNL A   1      36.669  23.312  23.449  1.00  0.00    -0.246 OA
BRANCH   3   5
ATOM      5  C   UNL A   1      34.757  23.437  24.821  1.00  0.00     0.071 A 
ATOM      6  C   UNL A   1      32.683  23.979  25.795  1.00  0.00     0.025 A 
ATOM      7  C   UNL A   1      34.062  24.066  25.913  1.00  0.00     0.033 A 
ATOM      8  S   UNL A   1      32.261  22.919  24.527  1.00  0.00    -0.146 S 
ATOM      9  C   UNL A   1      33.847  22.881  23.943  1.00  0.00     0.080 A 
BRANCH   6  10
ATOM     10  C   UNL A   1      31.631  24.730  26.569  1.00  0.00     0.160 C 
BRANCH  10  11
ATOM     11  N   UNL A   1      31.779  26.166  26.700  1.00  0.00    -0.377 N 
ATOM     12  H   UNL A   1      32.126  26.491  27.561  1.00  0.00     0.161 HD
BRANCH  11  13
ATOM     13  C   UNL A   1      31.487  27.131  25.756  1.00  0.00     0.077 A 
ATOM     14  C   UNL A   1      31.974  28.448  25.918  1.00  0.00     0.142 A 
ATOM     15  C   UNL A   1      31.591  29.475  25.051  1.00  0.00     0.048 A 
ATOM     16  C   UNL A   1      30.739  29.201  23.982  1.00  0.00     0.004 A 
ATOM     17  C   UNL A   1      30.672  26.877  24.647  1.00  0.00     0.029 A 
ATOM     18  C   UNL A   1      30.286  27.902  23.777  1.00  0.00     0.002 A 
BRANCH  14  19
ATOM     19  O   UNL A   1      32.689  28.794  27.036  1.00  0.00    -0.489 OA
BRANCH  19  20
ATOM     20  C   UNL A   1      33.832  29.660  26.886  1.00  0.00     0.167 C 
ATOM     21  C   UNL A   1      33.492  30.996  27.545  1.00  0.00     0.052 C 
ATOM     22  C   UNL A   1      35.209  29.146  27.310  1.00  0.00     0.052 C 
ENDBRANCH  19  20
ENDBRANCH  14  19
ENDBRANCH  11  13
ENDBRANCH  10  11
ENDBRANCH   6  10
ENDBRANCH   3   5
ENDBRANCH   2   3
ENDBRANCH   1   2
BRANCH   1  23
ATOM     23  C   UNL A   1      39.266  23.202  26.486  1.00  0.00     0.275 C 
BRANCH  23  24
ATOM     24  O   UNL A   1      39.158  24.639  26.528  1.00  0.00    -0.458 OA
BRANCH  24  25
ATOM     25  C   UNL A   1      40.335  25.307  26.504  1.00  0.00     0.338 C 
ATOM     26  O   UNL A   1      41.134  25.351  25.583  1.00  0.00    -0.246 OA
BRANCH  25  27
ATOM     27  C   UNL A   1      40.489  26.121  27.720  1.00  0.00     0.060 A 
ATOM     28  C   UNL A   1      39.543  25.941  28.722  1.00  0.00     0.016 A 
ATOM     29  C   UNL A   1      41.419  27.150  27.824  1.00  0.00     0.016 A 
ATOM     30  C   UNL A   1      39.454  26.825  29.790  1.00  0.00     0.010 A 
ATOM     31  C   UNL A   1      41.392  27.988  28.952  1.00  0.00     0.010 A 
ATOM     32  C   UNL A   1      40.390  27.853  29.934  1.00  0.00    -0.014 A 
BRANCH  32  33
ATOM     33  C   UNL A   1      40.291  28.774  31.104  1.00  0.00     0.031 A 
ATOM     34  C   UNL A   1      39.255  29.869  31.135  1.00  0.00     0.074 A 
ATOM     35  C   UNL A   1      41.111  28.608  32.164  1.00  0.00     0.049 A 
ATOM     36  N   UNL A   1      39.085  30.821  32.018  1.00  0.00    -0.248 NA
ATOM     37  C   UNL A   1      38.288  29.904  30.026  1.00  0.00     0.031 C 
ATOM     38  C   UNL A   1      42.127  27.559  32.294  1.00  0.00     0.029 A 
ATOM     39  N   UNL A   1      41.213  29.308  33.343  1.00  0.00    -0.354 N 
ATOM     40  C   UNL A   1      38.028  31.595  31.548  1.00  0.00     0.074 A 
ATOM     41  C   UNL A   1      37.606  31.009  30.294  1.00  0.00     0.031 C 
ATOM     42  C   UNL A   1      42.715  27.657  33.494  1.00  0.00     0.029 A 
ATOM     43  C   UNL A   1      42.192  28.831  34.185  1.00  0.00     0.049 A 
ATOM     44  H   UNL A   1      40.640  30.077  33.564  1.00  0.00     0.167 HD
ATOM     45  C   UNL A   1      37.463  32.693  32.108  1.00  0.00     0.031 A 
ATOM     46  C   UNL A   1      42.656  29.301  35.359  1.00  0.00     0.031 A 
ATOM     47  C   UNL A   1      37.874  33.259  33.369  1.00  0.00     0.049 A 
ATOM     48  C   UNL A   1      42.056  30.555  35.930  1.00  0.00     0.074 A 
ATOM     49  C   UNL A   1      37.353  34.359  34.029  1.00  0.00     0.029 A 
ATOM     50  N   UNL A   1      38.904  32.773  34.161  1.00  0.00    -0.354 N 
ATOM     51  N   UNL A   1      41.074  31.284  35.459  1.00  0.00    -0.248 NA
ATOM     52  C   UNL A   1      42.633  31.053  37.185  1.00  0.00     0.031 C 
ATOM     53  C   UNL A   1      38.109  34.576  35.186  1.00  0.00     0.029 A 
ATOM     54  C   UNL A   1      39.055  33.569  35.286  1.00  0.00     0.049 A 
ATOM     55  H   UNL A   1      39.449  31.978  33.954  1.00  0.00     0.167 HD
ATOM     56  C   UNL A   1      40.902  32.319  36.371  1.00  0.00     0.074 A 
ATOM     57  C   UNL A   1      41.866  32.106  37.432  1.00  0.00     0.031 C 
ATOM     58  C   UNL A   1      40.025  33.353  36.331  1.00  0.00     0.031 A 
BRANCH  45  59
ATOM     59  C   UNL A   1      36.369  33.390  31.337  1.00  0.00    -0.014 A 
ATOM     60  C   UNL A   1      35.060  33.500  31.839  1.00  0.00     0.010 A 
ATOM     61  C   UNL A   1      36.672  33.978  30.093  1.00  0.00     0.010 A 
ATOM     62  C   UNL A   1      34.066  34.142  31.093  1.00  0.00     0.020 A 
ATOM     63  C   UNL A   1      35.688  34.649  29.359  1.00  0.00     0.020 A 
ATOM     64  C   UNL A   1      34.386  34.709  29.855  1.00  0.00     0.054 A 
BRANCH  64  65
ATOM     65  S   UNL A   1      33.079  35.543  28.914  1.00  0.00     0.124 S 
ATOM     66  O   UNL A   1      32.451  34.426  28.213  1.00  0.00    -0.237 OA
ATOM     67  O   UNL A   1      32.272  36.160  29.964  1.00  0.00    -0.237 OA
ATOM     68  O   UNL A   1      33.808  36.480  28.061  1.00  0.00    -0.744 OA
ENDBRANCH  64  65
ENDBRANCH  45  59
BRANCH  46  69
ATOM     69  C   UNL A   1      43.782  28.604  36.043  1.00  0.00    -0.014 A 
ATOM     70  C   UNL A   1      43.541  27.544  36.933  1.00  0.00     0.010 A 
ATOM     71  C   UNL A   1      45.113  28.988  35.784  1.00  0.00     0.010 A 
ATOM     72  C   UNL A   1      44.607  26.886  37.556  1.00  0.00     0.020 A 
ATOM     73  C   UNL A   1      46.182  28.309  36.376  1.00  0.00     0.020 A 
ATOM     74  C   UNL A   1      45.921  27.268  37.267  1.00  0.00     0.054 A 
BRANCH  74  75
ATOM     75  S   UNL A   1      47.288  26.355  38.035  1.00  0.00     0.124 S 
ATOM     76  O   UNL A   1      48.381  26.604  37.102  1.00  0.00    -0.237 OA
ATOM     77  O   UNL A   1      47.406  27.003  39.339  1.00  0.00    -0.237 OA
ATOM     78  O   UNL A   1      46.799  24.977  38.074  1.00  0.00    -0.744 OA
ENDBRANCH  74  75
ENDBRANCH  46  69
BRANCH  58  79
ATOM     79  C   UNL A   1      40.046  34.318  37.488  1.00  0.00    -0.014 A 
ATOM     80  C   UNL A   1      40.820  35.491  37.450  1.00  0.00     0.010 A 
ATOM     81  C   UNL A   1      39.246  34.062  38.618  1.00  0.00     0.010 A 
ATOM     82  C   UNL A   1      40.822  36.372  38.535  1.00  0.00     0.020 A 
ATOM     83  C   UNL A   1      39.221  34.957  39.691  1.00  0.00     0.020 A 
ATOM     84  C   UNL A   1      40.023  36.099  39.649  1.00  0.00     0.054 A 
BRANCH  84  85
ATOM     85  S   UNL A   1      40.017  37.276  41.029  1.00  0.00     0.124 S 
ATOM     86  O   UNL A   1      41.369  37.825  40.966  1.00  0.00    -0.237 OA
ATOM     87  O   UNL A   1      38.946  38.196  40.660  1.00  0.00    -0.237 OA
ATOM     88  O   UNL A   1      39.740  36.440  42.196  1.00  0.00    -0.744 OA
ENDBRANCH  84  85
ENDBRANCH  58  79
ENDBRANCH  32  33
ENDBRANCH  25  27
ENDBRANCH  24  25
ENDBRANCH  23  24
ENDBRANCH   1  23
TORSDOF 19
ENDMDL
MODEL 2
REMARK VINA RESULT:      -9.8      3.591      9.010
REMARK SMILES CC(C)Oc1ccccc1NCc1cc(C(=O)OCCOC(=O)c2ccc(-c3c4nc(c(-c5ccc(S(=O)(=O)[O-])cc5)c5ccc([nH]5)c(-c5ccc(S(=O)(=O)[O-])cc5)c5nc(c(-c6ccc(S(=O)(=O)[O-])cc6)c6ccc3[nH]6)C=C5)C=C4)cc2)cs1
REMARK SMILES IDX 19 1 18 2 16 3 17 4 15 5 13 6 14 7 85 8 84 9 12 10 11 11
REMARK SMILES IDX 10 13 5 14 6 15 7 16 9 17 8 18 4 19 2 20 1 21 3 22 20 23
REMARK SMILES IDX 21 24 22 25 23 26 24 27 25 28 83 29 26 30 82 31 27 32 28 33
REMARK SMILES IDX 29 34 76 35 30 36 81 37 75 38 77 39 31 40 80 41 74 42 73 43
REMARK SMILES IDX 32 45 62 46 43 47 61 48 44 49 47 50 60 51 78 52 45 53 46 54
REMARK SMILES IDX 59 56 79 57 48 58 33 59 34 60 42 61 35 62 41 63 36 64 37 65
REMARK SMILES IDX 38 66 39 67 40 68 63 69 64 70 72 71 65 72 71 73 66 74 67 75
REMARK SMILES IDX 68 76 69 77 70 78 49 79 50 80 58 81 51 82 57 83 52 84 53 85
REMARK SMILES IDX 54 86 55 87 56 88
REMARK H PARENT 11 12 77 44 47 55
REMARK Flexibility Score: inf
ROOT
ATOM      1  C   UNL A   1      36.184  21.817  24.297  1.00  0.00     0.275 C 
ENDROOT
BRANCH   1   2
ATOM      2  O   UNL A   1      35.225  21.518  25.328  1.00  0.00    -0.458 OA
BRANCH   2   3
ATOM      3  C   UNL A   1      34.071  20.925  24.900  1.00  0.00     0.339 C 
ATOM      4  O   UNL A   1      33.948  19.727  24.696  1.00  0.00    -0.246 OA
BRANCH   3   5
ATOM      5  C   UNL A   1      32.962  21.866  24.771  1.00  0.00     0.071 A 
ATOM      6  C   UNL A   1      31.175  23.290  25.337  1.00  0.00     0.025 A 
ATOM      7  C   UNL A   1      32.072  22.338  25.798  1.00  0.00     0.033 A 
ATOM      8  S   UNL A   1      31.243  23.396  23.635  1.00  0.00    -0.146 S 
ATOM      9  C   UNL A   1      32.663  22.480  23.570  1.00  0.00     0.080 A 
BRANCH   6  10
ATOM     10  C   UNL A   1      30.288  24.203  26.141  1.00  0.00     0.160 C 
BRANCH  10  11
ATOM     11  N   UNL A   1      30.626  25.613  26.186  1.00  0.00    -0.377 N 
ATOM     12  H   UNL A   1      31.066  25.929  27.007  1.00  0.00     0.161 HD
BRANCH  11  13
ATOM     13  C   UNL A   1      30.399  26.563  25.210  1.00  0.00     0.077 A 
ATOM     14  C   UNL A   1      31.190  27.733  25.167  1.00  0.00     0.142 A 
ATOM     15  C   UNL A   1      30.904  28.771  24.274  1.00  0.00     0.048 A 
ATOM     16  C   UNL A   1      29.840  28.646  23.383  1.00  0.00     0.004 A 
ATOM     17  C   UNL A   1      29.368  26.448  24.271  1.00  0.00     0.029 A 
ATOM     18  C   UNL A   1      29.078  27.483  23.377  1.00  0.00     0.002 A 
BRANCH  14  19
ATOM     19  O   UNL A   1      32.148  27.963  26.121  1.00  0.00    -0.489 OA
BRANCH  19  20
ATOM     20  C   UNL A   1      33.532  27.743  25.780  1.00  0.00     0.167 C 
ATOM     21  C   UNL A   1      34.383  28.606  26.710  1.00  0.00     0.052 C 
ATOM     22  C   UNL A   1      34.052  26.306  25.696  1.00  0.00     0.052 C 
ENDBRANCH  19  20
ENDBRANCH  14  19
ENDBRANCH  11  13
ENDBRANCH  10  11
ENDBRANCH   6  10
ENDBRANCH   3   5
ENDBRANCH   2   3
ENDBRANCH   1   2
BRANCH   1  23
ATOM     23  C   UNL A   1      37.620  21.787  24.830  1.00  0.00     0.275 C 
BRANCH  23  24
ATOM     24  O   UNL A   1      37.825  22.767  25.867  1.00  0.00    -0.458 OA
BRANCH  24  25
ATOM     25  C   UNL A   1      39.099  22.880  26.311  1.00  0.00     0.338 C 
ATOM     26  O   UNL A   1      40.008  22.087  26.137  1.00  0.00    -0.246 OA
BRANCH  25  27
ATOM     27  C   UNL A   1      39.308  24.193  26.942  1.00  0.00     0.060 A 
ATOM     28  C   UNL A   1      40.058  25.121  26.230  1.00  0.00     0.016 A 
ATOM     29  C   UNL A   1      38.936  24.465  28.255  1.00  0.00     0.016 A 
ATOM     30  C   UNL A   1      40.518  26.285  26.834  1.00  0.00     0.010 A 
ATOM     31  C   UNL A   1      39.320  25.684  28.838  1.00  0.00     0.010 A 
ATOM     32  C   UNL A   1      40.140  26.596  28.143  1.00  0.00    -0.014 A 
BRANCH  32  33
ATOM     33  C   UNL A   1      40.624  27.865  28.763  1.00  0.00     0.031 A 
ATOM     34  C   UNL A   1      42.051  27.996  29.231  1.00  0.00     0.074 A 
ATOM     35  C   UNL A   1      39.790  28.921  28.874  1.00  0.00     0.049 A 
ATOM     36  N   UNL A   1      42.621  28.981  29.879  1.00  0.00    -0.248 NA
ATOM     37  C   UNL A   1      42.954  26.870  28.942  1.00  0.00     0.031 C 
ATOM     38  C   UNL A   1      38.397  28.955  28.417  1.00  0.00     0.029 A 
ATOM     39  N   UNL A   1      39.993  30.178  29.393  1.00  0.00    -0.354 N 
ATOM     40  C   UNL A   1      43.931  28.576  30.117  1.00  0.00     0.074 A 
ATOM     41  C   UNL A   1      44.066  27.248  29.556  1.00  0.00     0.031 C 
ATOM     42  C   UNL A   1      37.888  30.175  28.635  1.00  0.00     0.029 A 
ATOM     43  C   UNL A   1      38.879  30.985  29.334  1.00  0.00     0.049 A 
ATOM     44  H   UNL A   1      40.852  30.472  29.771  1.00  0.00     0.167 HD
ATOM     45  C   UNL A   1      44.927  29.247  30.745  1.00  0.00     0.031 A 
ATOM     46  C   UNL A   1      38.655  32.221  29.822  1.00  0.00     0.031 A 
ATOM     47  C   UNL A   1      44.792  30.578  31.283  1.00  0.00     0.049 A 
ATOM     48  C   UNL A   1      39.755  32.920  30.570  1.00  0.00     0.074 A 
ATOM     49  C   UNL A   1      45.748  31.349  31.921  1.00  0.00     0.029 A 
ATOM     50  N   UNL A   1      43.631  31.337  31.245  1.00  0.00    -0.354 N 
ATOM     51  N   UNL A   1      40.979  32.511  30.804  1.00  0.00    -0.248 NA
ATOM     52  C   UNL A   1      39.442  34.242  31.125  1.00  0.00     0.031 C 
ATOM     53  C   UNL A   1      45.148  32.546  32.327  1.00  0.00     0.029 A 
ATOM     54  C   UNL A   1      43.837  32.553  31.877  1.00  0.00     0.049 A 
ATOM     55  H   UNL A   1      42.784  31.052  30.830  1.00  0.00     0.167 HD
ATOM     56  C   UNL A   1      41.588  33.535  31.519  1.00  0.00     0.074 A 
ATOM     57  C   UNL A   1      40.605  34.591  31.657  1.00  0.00     0.031 C 
ATOM     58  C   UNL A   1      42.848  33.593  32.018  1.00  0.00     0.031 A 
BRANCH  45  59
ATOM     59  C   UNL A   1      46.243  28.532  30.936  1.00  0.00    -0.014 A 
ATOM     60  C   UNL A   1      46.511  27.761  32.081  1.00  0.00     0.010 A 
ATOM     61  C   UNL A   1      47.221  28.610  29.925  1.00  0.00     0.010 A 
ATOM     62  C   UNL A   1      47.746  27.122  32.233  1.00  0.00     0.020 A 
ATOM     63  C   UNL A   1      48.445  27.946  30.058  1.00  0.00     0.020 A 
ATOM     64  C   UNL A   1      48.706  27.222  31.221  1.00  0.00     0.054 A 
BRANCH  64  65
ATOM     65  S   UNL A   1      50.295  26.375  31.441  1.00  0.00     0.124 S 
ATOM     66  O   UNL A   1      51.230  27.325  30.842  1.00  0.00    -0.237 OA
ATOM     67  O   UNL A   1      50.386  26.235  32.892  1.00  0.00    -0.237 OA
ATOM     68  O   UNL A   1      50.127  25.123  30.706  1.00  0.00    -0.744 OA
ENDBRANCH  64  65
ENDBRANCH  45  59
BRANCH  46  69
ATOM     69  C   UNL A   1      37.314  32.850  29.658  1.00  0.00    -0.014 A 
ATOM     70  C   UNL A   1      36.464  33.036  30.762  1.00  0.00     0.010 A 
ATOM     71  C   UNL A   1      36.890  33.292  28.389  1.00  0.00     0.010 A 
ATOM     72  C   UNL A   1      35.214  33.644  30.599  1.00  0.00     0.020 A 
ATOM     73  C   UNL A   1      35.658  33.931  28.229  1.00  0.00     0.020 A 
ATOM     74  C   UNL A   1      34.823  34.094  29.334  1.00  0.00     0.054 A 
BRANCH  74  75
ATOM     75  S   UNL A   1      33.227  34.940  29.161  1.00  0.00     0.124 S 
ATOM     76  O   UNL A   1      32.691  34.857  30.515  1.00  0.00    -0.237 OA
ATOM     77  O   UNL A   1      33.624  36.274  28.717  1.00  0.00    -0.237 OA
ATOM     78  O   UNL A   1      32.524  34.142  28.158  1.00  0.00    -0.744 OA
ENDBRANCH  74  75
ENDBRANCH  46  69
BRANCH  58  79
ATOM     79  C   UNL A   1      43.247  34.858  32.733  1.00  0.00    -0.014 A 
ATOM     80  C   UNL A   1      43.114  34.984  34.127  1.00  0.00     0.010 A 
ATOM     81  C   UNL A   1      43.801  35.923  31.999  1.00  0.00     0.010 A 
ATOM     82  C   UNL A   1      43.493  36.167  34.769  1.00  0.00     0.020 A 
ATOM     83  C   UNL A   1      44.210  37.095  32.641  1.00  0.00     0.020 A 
ATOM     84  C   UNL A   1      44.038  37.215  34.021  1.00  0.00     0.054 A 
BRANCH  84  85
ATOM     85  S   UNL A   1      44.553  38.726  34.883  1.00  0.00     0.124 S 
ATOM     86  O   UNL A   1      44.353  38.360  36.283  1.00  0.00    -0.237 OA
ATOM     87  O   UNL A   1      45.944  38.875  34.463  1.00  0.00    -0.237 OA
ATOM     88  O   UNL A   1      43.640  39.746  34.370  1.00  0.00    -0.744 OA
ENDBRANCH  84  85
ENDBRANCH  58  79
ENDBRANCH  32  33
ENDBRANCH  25  27
ENDBRANCH  24  25
ENDBRANCH  23  24
ENDBRANCH   1  23
TORSDOF 19
ENDMDL
MODEL 3
REMARK VINA RESULT:      -9.5      2.456      9.370
REMARK SMILES CC(C)Oc1ccccc1NCc1cc(C(=O)OCCOC(=O)c2ccc(-c3c4nc(c(-c5ccc(S(=O)(=O)[O-])cc5)c5ccc([nH]5)c(-c5ccc(S(=O)(=O)[O-])cc5)c5nc(c(-c6ccc(S(=O)(=O)[O-])cc6)c6ccc3[nH]6)C=C5)C=C4)cc2)cs1
REMARK SMILES IDX 19 1 18 2 16 3 17 4 15 5 13 6 14 7 85 8 84 9 12 10 11 11
REMARK SMILES IDX 10 13 5 14 6 15 7 16 9 17 8 18 4 19 2 20 1 21 3 22 20 23
REMARK SMILES IDX 21 24 22 25 23 26 24 27 25 28 83 29 26 30 82 31 27 32 28 33
REMARK SMILES IDX 29 34 76 35 30 36 81 37 75 38 77 39 31 40 80 41 74 42 73 43
REMARK SMILES IDX 32 45 62 46 43 47 61 48 44 49 47 50 60 51 78 52 45 53 46 54
REMARK SMILES IDX 59 56 79 57 48 58 33 59 34 60 42 61 35 62 41 63 36 64 37 65
REMARK SMILES IDX 38 66 39 67 40 68 63 69 64 70 72 71 65 72 71 73 66 74 67 75
REMARK SMILES IDX 68 76 69 77 70 78 49 79 50 80 58 81 51 82 57 83 52 84 53 85
REMARK SMILES IDX 54 86 55 87 56 88
REMARK H PARENT 11 12 77 44 47 55
REMARK Flexibility Score: inf
ROOT
ATOM      1  C   UNL A   1      34.101  35.349  28.320  1.00  0.00     0.275 C 
ENDROOT
BRANCH   1   2
ATOM      2  O   UNL A   1      33.963  33.917  28.378  1.00  0.00    -0.458 OA
BRANCH   2   3
ATOM      3  C   UNL A   1      35.124  33.211  28.248  1.00  0.00     0.339 C 
ATOM      4  O   UNL A   1      36.238  33.677  28.438  1.00  0.00    -0.246 OA
BRANCH   3   5
ATOM      5  C   UNL A   1      34.903  31.806  27.918  1.00  0.00     0.071 A 
ATOM      6  C   UNL A   1      33.816  29.806  27.316  1.00  0.00     0.025 A 
ATOM      7  C   UNL A   1      33.653  31.134  27.682  1.00  0.00     0.033 A 
ATOM      8  S   UNL A   1      35.441  29.327  27.524  1.00  0.00    -0.146 S 
ATOM      9  C   UNL A   1      35.952  30.925  27.738  1.00  0.00     0.080 A 
BRANCH   6  10
ATOM     10  C   UNL A   1      32.793  28.866  26.733  1.00  0.00     0.160 C 
BRANCH  10  11
ATOM     11  N   UNL A   1      33.272  27.675  26.060  1.00  0.00    -0.377 N 
ATOM     12  H   UNL A   1      33.632  26.963  26.636  1.00  0.00     0.161 HD
BRANCH  11  13
ATOM     13  C   UNL A   1      33.280  27.423  24.702  1.00  0.00     0.077 A 
ATOM     14  C   UNL A   1      32.901  26.151  24.216  1.00  0.00     0.142 A 
ATOM     15  C   UNL A   1      33.022  25.824  22.863  1.00  0.00     0.048 A 
ATOM     16  C   UNL A   1      33.494  26.774  21.959  1.00  0.00     0.004 A 
ATOM     17  C   UNL A   1      33.706  28.370  23.763  1.00  0.00     0.029 A 
ATOM     18  C   UNL A   1      33.828  28.048  22.408  1.00  0.00     0.002 A 
BRANCH  14  19
ATOM     19  O   UNL A   1      32.576  25.142  25.087  1.00  0.00    -0.489 OA
BRANCH  19  20
ATOM     20  C   UNL A   1      31.196  24.734  25.189  1.00  0.00     0.167 C 
ATOM     21  C   UNL A   1      31.166  23.360  25.856  1.00  0.00     0.052 C 
ATOM     22  C   UNL A   1      30.186  25.697  25.815  1.00  0.00     0.052 C 
ENDBRANCH  19  20
ENDBRANCH  14  19
ENDBRANCH  11  13
ENDBRANCH  10  11
ENDBRANCH   6  10
ENDBRANCH   3   5
ENDBRANCH   2   3
ENDBRANCH   1   2
BRANCH   1  23
ATOM     23  C   UNL A   1      33.275  36.044  29.407  1.00  0.00     0.275 C 
BRANCH  23  24
ATOM     24  O   UNL A   1      32.752  35.101  30.364  1.00  0.00    -0.458 OA
BRANCH  24  25
ATOM     25  C   UNL A   1      32.847  35.482  31.660  1.00  0.00     0.338 C 
ATOM     26  O   UNL A   1      32.071  36.197  32.271  1.00  0.00    -0.246 OA
BRANCH  25  27
ATOM     27  C   UNL A   1      33.971  34.797  32.316  1.00  0.00     0.060 A 
ATOM     28  C   UNL A   1      35.123  35.544  32.534  1.00  0.00     0.016 A 
ATOM     29  C   UNL A   1      33.978  33.428  32.563  1.00  0.00     0.016 A 
ATOM     30  C   UNL A   1      36.311  34.934  32.914  1.00  0.00     0.010 A 
ATOM     31  C   UNL A   1      35.153  32.822  33.040  1.00  0.00     0.010 A 
ATOM     32  C   UNL A   1      36.342  33.564  33.194  1.00  0.00    -0.014 A 
BRANCH  32  33
ATOM     33  C   UNL A   1      37.624  32.934  33.628  1.00  0.00     0.031 A 
ATOM     34  C   UNL A   1      38.123  33.101  35.041  1.00  0.00     0.074 A 
ATOM     35  C   UNL A   1      38.328  32.176  32.761  1.00  0.00     0.049 A 
ATOM     36  N   UNL A   1      39.257  32.712  35.568  1.00  0.00    -0.248 NA
ATOM     37  C   UNL A   1      37.237  33.805  35.982  1.00  0.00     0.031 C 
ATOM     38  C   UNL A   1      37.940  31.885  31.378  1.00  0.00     0.029 A 
ATOM     39  N   UNL A   1      39.513  31.497  32.916  1.00  0.00    -0.354 N 
ATOM     40  C   UNL A   1      39.243  33.163  36.884  1.00  0.00     0.074 A 
ATOM     41  C   UNL A   1      37.992  33.870  37.070  1.00  0.00     0.031 C 
ATOM     42  C   UNL A   1      38.840  31.058  30.829  1.00  0.00     0.029 A 
ATOM     43  C   UNL A   1      39.922  30.834  31.781  1.00  0.00     0.049 A 
ATOM     44  H   UNL A   1      40.022  31.486  33.759  1.00  0.00     0.167 HD
ATOM     45  C   UNL A   1      40.183  33.006  37.847  1.00  0.00     0.031 A 
ATOM     46  C   UNL A   1      41.055  30.157  31.510  1.00  0.00     0.031 A 
ATOM     47  C   UNL A   1      41.417  32.283  37.661  1.00  0.00     0.049 A 
ATOM     48  C   UNL A   1      42.111  30.049  32.574  1.00  0.00     0.074 A 
ATOM     49  C   UNL A   1      42.426  32.053  38.581  1.00  0.00     0.029 A 
ATOM     50  N   UNL A   1      41.811  31.673  36.480  1.00  0.00    -0.354 N 
ATOM     51  N   UNL A   1      42.088  30.502  33.804  1.00  0.00    -0.248 NA
ATOM     52  C   UNL A   1      43.347  29.346  32.210  1.00  0.00     0.031 C 
ATOM     53  C   UNL A   1      43.458  31.361  37.938  1.00  0.00     0.029 A 
ATOM     54  C   UNL A   1      43.061  31.094  36.637  1.00  0.00     0.049 A 
ATOM     55  H   UNL A   1      41.280  31.653  35.650  1.00  0.00     0.167 HD
ATOM     56  C   UNL A   1      43.300  30.124  34.367  1.00  0.00     0.074 A 
ATOM     57  C   UNL A   1      44.021  29.383  33.351  1.00  0.00     0.031 C 
ATOM     58  C   UNL A   1      43.774  30.368  35.615  1.00  0.00     0.031 A 
BRANCH  45  59
ATOM     59  C   UNL A   1      39.942  33.674  39.180  1.00  0.00    -0.014 A 
ATOM     60  C   UNL A   1      39.226  33.038  40.210  1.00  0.00     0.010 A 
ATOM     61  C   UNL A   1      40.477  34.956  39.414  1.00  0.00     0.010 A 
ATOM     62  C   UNL A   1      39.009  33.690  41.428  1.00  0.00     0.020 A 
ATOM     63  C   UNL A   1      40.290  35.597  40.642  1.00  0.00     0.020 A 
ATOM     64  C   UNL A   1      39.539  34.967  41.635  1.00  0.00     0.054 A 
BRANCH  64  65
ATOM     65  S   UNL A   1      39.250  35.784  43.229  1.00  0.00     0.124 S 
ATOM     66  O   UNL A   1      39.633  37.163  42.935  1.00  0.00    -0.237 OA
ATOM     67  O   UNL A   1      37.824  35.561  43.450  1.00  0.00    -0.237 OA
ATOM     68  O   UNL A   1      40.138  35.076  44.149  1.00  0.00    -0.744 OA
ENDBRANCH  64  65
ENDBRANCH  45  59
BRANCH  46  69
ATOM     69  C   UNL A   1      41.264  29.574  30.154  1.00  0.00    -0.014 A 
ATOM     70  C   UNL A   1      42.027  30.250  29.187  1.00  0.00     0.010 A 
ATOM     71  C   UNL A   1      40.715  28.317  29.833  1.00  0.00     0.010 A 
ATOM     72  C   UNL A   1      42.232  29.684  27.924  1.00  0.00     0.020 A 
ATOM     73  C   UNL A   1      40.946  27.733  28.585  1.00  0.00     0.020 A 
ATOM     74  C   UNL A   1      41.695  28.425  27.634  1.00  0.00     0.054 A 
BRANCH  74  75
ATOM     75  S   UNL A   1      42.031  27.683  26.013  1.00  0.00     0.124 S 
ATOM     76  O   UNL A   1      40.941  26.721  25.889  1.00  0.00    -0.237 OA
ATOM     77  O   UNL A   1      41.963  28.836  25.119  1.00  0.00    -0.237 OA
ATOM     78  O   UNL A   1      43.364  27.104  26.171  1.00  0.00    -0.744 OA
ENDBRANCH  74  75
ENDBRANCH  46  69
BRANCH  58  79
ATOM     79  C   UNL A   1      45.126  29.801  35.962  1.00  0.00    -0.014 A 
ATOM     80  C   UNL A   1      46.307  30.530  35.735  1.00  0.00     0.010 A 
ATOM     81  C   UNL A   1      45.211  28.530  36.561  1.00  0.00     0.010 A 
ATOM     82  C   UNL A   1      47.550  29.983  36.067  1.00  0.00     0.020 A 
ATOM     83  C   UNL A   1      46.449  27.994  36.923  1.00  0.00     0.020 A 
ATOM     84  C   UNL A   1      47.612  28.718  36.658  1.00  0.00     0.054 A 
BRANCH  84  85
ATOM     85  S   UNL A   1      49.236  28.046  37.110  1.00  0.00     0.124 S 
ATOM     86  O   UNL A   1      49.978  29.254  37.460  1.00  0.00    -0.237 OA
ATOM     87  O   UNL A   1      48.915  27.159  38.225  1.00  0.00    -0.237 OA
ATOM     88  O   UNL A   1      49.683  27.372  35.893  1.00  0.00    -0.744 OA
ENDBRANCH  84  85
ENDBRANCH  58  79
ENDBRANCH  32  33
ENDBRANCH  25  27
ENDBRANCH  24  25
ENDBRANCH  23  24
ENDBRANCH   1  23
TORSDOF 19
ENDMDL
