MODEL 1
REMARK VINA RESULT:      -9.5      0.000      0.000
REMARK SMILES C[C@]1(CCC(=O)OCCOC(=O)c2ccc(-c3c4nc(c(-c5ccc(S(=O)(=O)[O-])cc5)c5ccc([nH]5)c(-c5ccc(S(=O)(=O)[O-])cc5)c5nc(c(-c6ccc(S(=O)(=O)[O-])cc6)c6ccc3[nH]6)C=C5)C=C4)cc2)CCCCC1=O
REMARK SMILES IDX 9 1 8 2 7 3 5 4 6 5 4 6 3 7 2 8 1 9 73 10 77 11 74 12 76 13
REMARK SMILES IDX 78 14 75 15 10 16 11 17 12 18 13 19 14 20 72 21 15 22 71 23
REMARK SMILES IDX 16 24 17 25 18 26 65 27 19 28 70 29 64 30 66 31 20 32 69 33
REMARK SMILES IDX 63 34 62 35 21 37 51 38 32 39 50 40 33 41 36 42 49 43 67 44
REMARK SMILES IDX 34 45 35 46 48 48 68 49 37 50 22 51 23 52 31 53 24 54 30 55
REMARK SMILES IDX 25 56 26 57 27 58 28 59 29 60 52 61 53 62 61 63 54 64 60 65
REMARK SMILES IDX 55 66 56 67 57 68 58 69 59 70 38 71 39 72 47 73 40 74 46 75
REMARK SMILES IDX 41 76 42 77 43 78 44 79 45 80
REMARK H PARENT 66 36 36 47
REMARK Flexibility Score: inf
ROOT
ATOM      1  C   UNL A   1      33.283  33.495  28.098  1.00  0.00     0.275 C 
ENDROOT
BRANCH   1   2
ATOM      2  C   UNL A   1      33.534  34.799  28.852  1.00  0.00     0.274 C 
BRANCH   2   3
ATOM      3  O   UNL A   1      32.585  34.965  29.924  1.00  0.00    -0.462 OA
BRANCH   3   4
ATOM      4  C   UNL A   1      32.772  36.018  30.751  1.00  0.00     0.305 C 
ATOM      5  O   UNL A   1      32.846  37.186  30.390  1.00  0.00    -0.252 OA
BRANCH   4   6
ATOM      6  C   UNL A   1      32.926  35.625  32.205  1.00  0.00     0.124 C 
BRANCH   6   7
ATOM      7  C   UNL A   1      34.291  35.800  32.874  1.00  0.00     0.026 C 
BRANCH   7   8
ATOM      8  C   UNL A   1      35.058  34.552  33.420  1.00  0.00     0.027 C 
ATOM      9  C   UNL A   1      35.229  34.717  34.950  1.00  0.00     0.019 C 
ATOM     10  C   UNL A   1      34.427  33.163  33.152  1.00  0.00     0.014 C 
ATOM     11  C   UNL A   1      36.467  34.537  32.790  1.00  0.00     0.138 C 
ATOM     12  C   UNL A   1      34.534  32.650  31.713  1.00  0.00     0.001 C 
ATOM     13  C   UNL A   1      36.567  34.078  31.351  1.00  0.00     0.076 C 
ATOM     14  O   UNL A   1      37.472  34.926  33.386  1.00  0.00    -0.299 OA
ATOM     15  C   UNL A   1      35.966  32.693  31.201  1.00  0.00     0.008 C 
ENDBRANCH   7   8
ENDBRANCH   6   7
ENDBRANCH   4   6
ENDBRANCH   3   4
ENDBRANCH   2   3
ENDBRANCH   1   2
BRANCH   1  16
ATOM     16  O   UNL A   1      34.524  32.876  27.717  1.00  0.00    -0.458 OA
BRANCH  16  17
ATOM     17  C   UNL A   1      34.488  31.524  27.662  1.00  0.00     0.338 C 
ATOM     18  O   UNL A   1      33.630  30.824  27.157  1.00  0.00    -0.246 OA
BRANCH  17  19
ATOM     19  C   UNL A   1      35.748  30.989  28.190  1.00  0.00     0.060 A 
ATOM     20  C   UNL A   1      35.690  29.841  28.981  1.00  0.00     0.016 A 
ATOM     21  C   UNL A   1      36.954  31.656  27.988  1.00  0.00     0.016 A 
ATOM     22  C   UNL A   1      36.837  29.363  29.603  1.00  0.00     0.010 A 
ATOM     23  C   UNL A   1      38.111  31.164  28.596  1.00  0.00     0.010 A 
ATOM     24  C   UNL A   1      38.056  30.024  29.420  1.00  0.00    -0.014 A 
BRANCH  24  25
ATOM     25  C   UNL A   1      39.263  29.553  30.139  1.00  0.00     0.031 A 
ATOM     26  C   UNL A   1      39.671  30.224  31.421  1.00  0.00     0.074 A 
ATOM     27  C   UNL A   1      39.975  28.520  29.653  1.00  0.00     0.049 A 
ATOM     28  N   UNL A   1      40.756  30.055  32.131  1.00  0.00    -0.248 NA
ATOM     29  C   UNL A   1      38.736  31.219  31.972  1.00  0.00     0.031 C 
ATOM     30  C   UNL A   1      39.638  27.750  28.453  1.00  0.00     0.029 A 
ATOM     31  N   UNL A   1      41.131  27.940  30.108  1.00  0.00    -0.354 N 
ATOM     32  C   UNL A   1      40.655  30.947  33.192  1.00  0.00     0.074 A 
ATOM     33  C   UNL A   1      39.405  31.659  33.030  1.00  0.00     0.031 C 
ATOM     34  C   UNL A   1      40.564  26.794  28.273  1.00  0.00     0.029 A 
ATOM     35  C   UNL A   1      41.588  26.924  29.304  1.00  0.00     0.049 A 
ATOM     36  H   UNL A   1      41.589  28.223  30.932  1.00  0.00     0.167 HD
ATOM     37  C   UNL A   1      41.530  31.156  34.204  1.00  0.00     0.031 A 
ATOM     38  C   UNL A   1      42.724  26.203  29.368  1.00  0.00     0.031 A 
ATOM     39  C   UNL A   1      42.764  30.434  34.359  1.00  0.00     0.049 A 
ATOM     40  C   UNL A   1      43.705  26.490  30.470  1.00  0.00     0.074 A 
ATOM     41  C   UNL A   1      43.726  30.571  35.345  1.00  0.00     0.029 A 
ATOM     42  N   UNL A   1      43.206  29.432  33.507  1.00  0.00    -0.354 N 
ATOM     43  N   UNL A   1      43.616  27.364  31.443  1.00  0.00    -0.248 NA
ATOM     44  C   UNL A   1      44.944  25.701  30.476  1.00  0.00     0.031 C 
ATOM     45  C   UNL A   1      44.766  29.678  35.066  1.00  0.00     0.029 A 
ATOM     46  C   UNL A   1      44.431  28.953  33.934  1.00  0.00     0.049 A 
ATOM     47  H   UNL A   1      42.718  29.111  32.713  1.00  0.00     0.167 HD
ATOM     48  C   UNL A   1      44.780  27.220  32.189  1.00  0.00     0.074 A 
ATOM     49  C   UNL A   1      45.550  26.164  31.562  1.00  0.00     0.031 C 
ATOM     50  C   UNL A   1      45.178  27.900  33.292  1.00  0.00     0.031 A 
BRANCH  37  51
ATOM     51  C   UNL A   1      41.202  32.245  35.190  1.00  0.00    -0.014 A 
ATOM     52  C   UNL A   1      41.504  33.592  34.922  1.00  0.00     0.010 A 
ATOM     53  C   UNL A   1      40.562  31.913  36.398  1.00  0.00     0.010 A 
ATOM     54  C   UNL A   1      41.206  34.583  35.862  1.00  0.00     0.020 A 
ATOM     55  C   UNL A   1      40.242  32.903  37.330  1.00  0.00     0.020 A 
ATOM     56  C   UNL A   1      40.583  34.231  37.064  1.00  0.00     0.054 A 
BRANCH  56  57
ATOM     57  S   UNL A   1      40.198  35.536  38.265  1.00  0.00     0.124 S 
ATOM     58  O   UNL A   1      41.413  35.566  39.076  1.00  0.00    -0.237 OA
ATOM     59  O   UNL A   1      39.980  36.703  37.415  1.00  0.00    -0.237 OA
ATOM     60  O   UNL A   1      39.007  35.037  38.947  1.00  0.00    -0.744 OA
ENDBRANCH  56  57
ENDBRANCH  37  51
BRANCH  38  61
ATOM     61  C   UNL A   1      43.006  25.173  28.332  1.00  0.00    -0.014 A 
ATOM     62  C   UNL A   1      43.734  25.499  27.177  1.00  0.00     0.010 A 
ATOM     63  C   UNL A   1      42.566  23.848  28.513  1.00  0.00     0.010 A 
ATOM     64  C   UNL A   1      44.011  24.522  26.215  1.00  0.00     0.020 A 
ATOM     65  C   UNL A   1      42.863  22.863  27.568  1.00  0.00     0.020 A 
ATOM     66  C   UNL A   1      43.576  23.209  26.419  1.00  0.00     0.054 A 
BRANCH  66  67
ATOM     67  S   UNL A   1      44.001  21.941  25.192  1.00  0.00     0.124 S 
ATOM     68  O   UNL A   1      45.368  21.599  25.571  1.00  0.00    -0.237 OA
ATOM     69  O   UNL A   1      42.998  20.909  25.440  1.00  0.00    -0.237 OA
ATOM     70  O   UNL A   1      43.861  22.641  23.917  1.00  0.00    -0.744 OA
ENDBRANCH  66  67
ENDBRANCH  38  61
BRANCH  50  71
ATOM     71  C   UNL A   1      46.490  27.501  33.908  1.00  0.00    -0.014 A 
ATOM     72  C   UNL A   1      47.688  28.137  33.539  1.00  0.00     0.010 A 
ATOM     73  C   UNL A   1      46.513  26.512  34.908  1.00  0.00     0.010 A 
ATOM     74  C   UNL A   1      48.893  27.770  34.143  1.00  0.00     0.020 A 
ATOM     75  C   UNL A   1      47.713  26.158  35.528  1.00  0.00     0.020 A 
ATOM     76  C   UNL A   1      48.899  26.780  35.131  1.00  0.00     0.054 A 
BRANCH  76  77
ATOM     77  S   UNL A   1      50.468  26.351  35.932  1.00  0.00     0.124 S 
ATOM     78  O   UNL A   1      51.321  27.472  35.549  1.00  0.00    -0.237 OA
ATOM     79  O   UNL A   1      50.104  26.291  37.345  1.00  0.00    -0.237 OA
ATOM     80  O   UNL A   1      50.821  25.065  35.332  1.00  0.00    -0.744 OA
ENDBRANCH  76  77
ENDBRANCH  50  71
ENDBRANCH  24  25
ENDBRANCH  17  19
ENDBRANCH  16  17
ENDBRANCH   1  16
TORSDOF 16
ENDMDL
MODEL 2
REMARK VINA RESULT:      -8.9      4.113      6.494
REMARK SMILES C[C@]1(CCC(=O)OCCOC(=O)c2ccc(-c3c4nc(c(-c5ccc(S(=O)(=O)[O-])cc5)c5ccc([nH]5)c(-c5ccc(S(=O)(=O)[O-])cc5)c5nc(c(-c6ccc(S(=O)(=O)[O-])cc6)c6ccc3[nH]6)C=C5)C=C4)cc2)CCCCC1=O
REMARK SMILES IDX 9 1 8 2 7 3 5 4 6 5 4 6 3 7 2 8 1 9 73 10 77 11 74 12 76 13
REMARK SMILES IDX 78 14 75 15 10 16 11 17 12 18 13 19 14 20 72 21 15 22 71 23
REMARK SMILES IDX 16 24 17 25 18 26 65 27 19 28 70 29 64 30 66 31 20 32 69 33
REMARK SMILES IDX 63 34 62 35 21 37 51 38 32 39 50 40 33 41 36 42 49 43 67 44
REMARK SMILES IDX 34 45 35 46 48 48 68 49 37 50 22 51 23 52 31 53 24 54 30 55
REMARK SMILES IDX 25 56 26 57 27 58 28 59 29 60 52 61 53 62 61 63 54 64 60 65
REMARK SMILES IDX 55 66 56 67 57 68 58 69 59 70 38 71 39 72 47 73 40 74 46 75
REMARK SMILES IDX 41 76 42 77 43 78 44 79 45 80
REMARK H PARENT 66 36 36 47
REMARK Flexibility Score: inf
ROOT
ATOM      1  C   UNL A   1      32.433  28.919  27.179  1.00  0.00     0.275 C 
ENDROOT
BRANCH   1   2
ATOM      2  C   UNL A   1      32.339  28.804  25.658  1.00  0.00     0.274 C 
BRANCH   2   3
ATOM      3  O   UNL A   1      33.297  27.853  25.154  1.00  0.00    -0.462 OA
BRANCH   3   4
ATOM      4  C   UNL A   1      32.817  26.848  24.388  1.00  0.00     0.305 C 
ATOM      5  O   UNL A   1      31.635  26.685  24.109  1.00  0.00    -0.252 OA
BRANCH   4   6
ATOM      6  C   UNL A   1      33.884  25.885  23.915  1.00  0.00     0.124 C 
BRANCH   6   7
ATOM      7  C   UNL A   1      34.540  24.953  24.936  1.00  0.00     0.026 C 
BRANCH   7   8
ATOM      8  C   UNL A   1      34.483  23.405  24.729  1.00  0.00     0.027 C 
ATOM      9  C   UNL A   1      33.011  22.947  24.871  1.00  0.00     0.019 C 
ATOM     10  C   UNL A   1      35.034  22.851  23.391  1.00  0.00     0.014 C 
ATOM     11  C   UNL A   1      35.293  22.737  25.861  1.00  0.00     0.138 C 
ATOM     12  C   UNL A   1      36.558  22.857  23.245  1.00  0.00     0.001 C 
ATOM     13  C   UNL A   1      36.802  22.786  25.743  1.00  0.00     0.076 C 
ATOM     14  O   UNL A   1      34.767  22.228  26.851  1.00  0.00    -0.299 OA
ATOM     15  C   UNL A   1      37.243  22.181  24.423  1.00  0.00     0.008 C 
ENDBRANCH   7   8
ENDBRANCH   6   7
ENDBRANCH   4   6
ENDBRANCH   3   4
ENDBRANCH   2   3
ENDBRANCH   1   2
BRANCH   1  16
ATOM     16  O   UNL A   1      33.804  28.885  27.611  1.00  0.00    -0.458 OA
BRANCH  16  17
ATOM     17  C   UNL A   1      34.347  30.098  27.869  1.00  0.00     0.338 C 
ATOM     18  O   UNL A   1      33.777  31.174  27.904  1.00  0.00    -0.246 OA
BRANCH  17  19
ATOM     19  C   UNL A   1      35.751  29.924  28.255  1.00  0.00     0.060 A 
ATOM     20  C   UNL A   1      36.728  30.131  27.281  1.00  0.00     0.016 A 
ATOM     21  C   UNL A   1      36.096  29.473  29.527  1.00  0.00     0.016 A 
ATOM     22  C   UNL A   1      38.062  29.864  27.562  1.00  0.00     0.010 A 
ATOM     23  C   UNL A   1      37.440  29.225  29.817  1.00  0.00     0.010 A 
ATOM     24  C   UNL A   1      38.428  29.403  28.831  1.00  0.00    -0.014 A 
BRANCH  24  25
ATOM     25  C   UNL A   1      39.841  29.053  29.106  1.00  0.00     0.031 A 
ATOM     26  C   UNL A   1      40.752  30.076  29.725  1.00  0.00     0.074 A 
ATOM     27  C   UNL A   1      40.297  27.819  28.819  1.00  0.00     0.049 A 
ATOM     28  N   UNL A   1      42.043  30.018  29.925  1.00  0.00    -0.248 NA
ATOM     29  C   UNL A   1      40.127  31.332  30.173  1.00  0.00     0.031 C 
ATOM     30  C   UNL A   1      39.488  26.724  28.277  1.00  0.00     0.029 A 
ATOM     31  N   UNL A   1      41.551  27.279  28.942  1.00  0.00    -0.354 N 
ATOM     32  C   UNL A   1      42.393  31.240  30.486  1.00  0.00     0.074 A 
ATOM     33  C   UNL A   1      41.179  32.022  30.590  1.00  0.00     0.031 C 
ATOM     34  C   UNL A   1      40.268  25.641  28.122  1.00  0.00     0.029 A 
ATOM     35  C   UNL A   1      41.637  25.984  28.492  1.00  0.00     0.049 A 
ATOM     36  H   UNL A   1      42.316  27.772  29.316  1.00  0.00     0.167 HD
ATOM     37  C   UNL A   1      43.617  31.671  30.872  1.00  0.00     0.031 A 
ATOM     38  C   UNL A   1      42.706  25.175  28.359  1.00  0.00     0.031 A 
ATOM     39  C   UNL A   1      44.814  30.880  30.772  1.00  0.00     0.049 A 
ATOM     40  C   UNL A   1      44.063  25.695  28.743  1.00  0.00     0.074 A 
ATOM     41  C   UNL A   1      46.107  31.222  31.129  1.00  0.00     0.029 A 
ATOM     42  N   UNL A   1      44.864  29.582  30.284  1.00  0.00    -0.354 N 
ATOM     43  N   UNL A   1      44.385  26.867  29.235  1.00  0.00    -0.248 NA
ATOM     44  C   UNL A   1      45.200  24.787  28.546  1.00  0.00     0.031 C 
ATOM     45  C   UNL A   1      46.944  30.144  30.821  1.00  0.00     0.029 A 
ATOM     46  C   UNL A   1      46.166  29.114  30.316  1.00  0.00     0.049 A 
ATOM     47  H   UNL A   1      44.087  29.070  29.962  1.00  0.00     0.167 HD
ATOM     48  C   UNL A   1      45.762  26.832  29.421  1.00  0.00     0.074 A 
ATOM     49  C   UNL A   1      46.208  25.518  29.004  1.00  0.00     0.031 C 
ATOM     50  C   UNL A   1      46.585  27.801  29.894  1.00  0.00     0.031 A 
BRANCH  37  51
ATOM     51  C   UNL A   1      43.725  33.080  31.388  1.00  0.00    -0.014 A 
ATOM     52  C   UNL A   1      43.529  33.380  32.748  1.00  0.00     0.010 A 
ATOM     53  C   UNL A   1      44.049  34.120  30.497  1.00  0.00     0.010 A 
ATOM     54  C   UNL A   1      43.617  34.700  33.200  1.00  0.00     0.020 A 
ATOM     55  C   UNL A   1      44.160  35.438  30.949  1.00  0.00     0.020 A 
ATOM     56  C   UNL A   1      43.924  35.722  32.296  1.00  0.00     0.054 A 
BRANCH  56  57
ATOM     57  S   UNL A   1      44.042  37.427  32.908  1.00  0.00     0.124 S 
ATOM     58  O   UNL A   1      45.360  37.428  33.539  1.00  0.00    -0.237 OA
ATOM     59  O   UNL A   1      43.930  38.217  31.686  1.00  0.00    -0.237 OA
ATOM     60  O   UNL A   1      42.912  37.542  33.827  1.00  0.00    -0.744 OA
ENDBRANCH  56  57
ENDBRANCH  37  51
BRANCH  38  61
ATOM     61  C   UNL A   1      42.534  23.808  27.797  1.00  0.00    -0.014 A 
ATOM     62  C   UNL A   1      42.637  23.583  26.415  1.00  0.00     0.010 A 
ATOM     63  C   UNL A   1      42.288  22.717  28.653  1.00  0.00     0.010 A 
ATOM     64  C   UNL A   1      42.492  22.292  25.895  1.00  0.00     0.020 A 
ATOM     65  C   UNL A   1      42.168  21.423  28.140  1.00  0.00     0.020 A 
ATOM     66  C   UNL A   1      42.261  21.220  26.763  1.00  0.00     0.054 A 
BRANCH  66  67
ATOM     67  S   UNL A   1      42.140  19.544  26.076  1.00  0.00     0.124 S 
ATOM     68  O   UNL A   1      42.619  18.727  27.186  1.00  0.00    -0.237 OA
ATOM     69  O   UNL A   1      40.717  19.427  25.771  1.00  0.00    -0.237 OA
ATOM     70  O   UNL A   1      43.017  19.591  24.909  1.00  0.00    -0.744 OA
ENDBRANCH  66  67
ENDBRANCH  38  61
BRANCH  50  71
ATOM     71  C   UNL A   1      48.044  27.463  30.013  1.00  0.00    -0.014 A 
ATOM     72  C   UNL A   1      48.949  27.776  28.983  1.00  0.00     0.010 A 
ATOM     73  C   UNL A   1      48.524  26.871  31.196  1.00  0.00     0.010 A 
ATOM     74  C   UNL A   1      50.306  27.478  29.124  1.00  0.00     0.020 A 
ATOM     75  C   UNL A   1      49.883  26.592  31.348  1.00  0.00     0.020 A 
ATOM     76  C   UNL A   1      50.765  26.885  30.305  1.00  0.00     0.054 A 
BRANCH  76  77
ATOM     77  S   UNL A   1      52.537  26.547  30.484  1.00  0.00     0.124 S 
ATOM     78  O   UNL A   1      52.930  26.252  29.108  1.00  0.00    -0.237 OA
ATOM     79  O   UNL A   1      53.052  27.800  31.030  1.00  0.00    -0.237 OA
ATOM     80  O   UNL A   1      52.581  25.410  31.403  1.00  0.00    -0.744 OA
ENDBRANCH  76  77
ENDBRANCH  50  71
ENDBRANCH  24  25
ENDBRANCH  17  19
ENDBRANCH  16  17
ENDBRANCH   1  16
TORSDOF 16
ENDMDL
MODEL 3
REMARK VINA RESULT:      -8.9      4.402     12.166
REMARK SMILES C[C@]1(CCC(=O)OCCOC(=O)c2ccc(-c3c4nc(c(-c5ccc(S(=O)(=O)[O-])cc5)c5ccc([nH]5)c(-c5ccc(S(=O)(=O)[O-])cc5)c5nc(c(-c6ccc(S(=O)(=O)[O-])cc6)c6ccc3[nH]6)C=C5)C=C4)cc2)CCCCC1=O
REMARK SMILES IDX 9 1 8 2 7 3 5 4 6 5 4 6 3 7 2 8 1 9 73 10 77 11 74 12 76 13
REMARK SMILES IDX 78 14 75 15 10 16 11 17 12 18 13 19 14 20 72 21 15 22 71 23
REMARK SMILES IDX 16 24 17 25 18 26 65 27 19 28 70 29 64 30 66 31 20 32 69 33
REMARK SMILES IDX 63 34 62 35 21 37 51 38 32 39 50 40 33 41 36 42 49 43 67 44
REMARK SMILES IDX 34 45 35 46 48 48 68 49 37 50 22 51 23 52 31 53 24 54 30 55
REMARK SMILES IDX 25 56 26 57 27 58 28 59 29 60 52 61 53 62 61 63 54 64 60 65
REMARK SMILES IDX 55 66 56 67 57 68 58 69 59 70 38 71 39 72 47 73 40 74 46 75
REMARK SMILES IDX 41 76 42 77 43 78 44 79 45 80
REMARK H PARENT 66 36 36 47
REMARK Flexibility Score: inf
ROOT
ATOM      1  C   UNL A   1      40.090  20.649  26.116  1.00  0.00     0.275 C 
ENDROOT
BRANCH   1   2
ATOM      2  C   UNL A   1      41.222  19.832  26.738  1.00  0.00     0.274 C 
BRANCH   2   3
ATOM      3  O   UNL A   1      41.830  18.968  25.758  1.00  0.00    -0.462 OA
BRANCH   3   4
ATOM      4  C   UNL A   1      43.180  18.986  25.678  1.00  0.00     0.305 C 
ATOM      5  O   UNL A   1      43.915  18.085  26.062  1.00  0.00    -0.252 OA
BRANCH   4   6
ATOM      6  C   UNL A   1      43.733  20.267  25.090  1.00  0.00     0.124 C 
BRANCH   6   7
ATOM      7  C   UNL A   1      44.456  21.249  26.014  1.00  0.00     0.026 C 
BRANCH   7   8
ATOM      8  C   UNL A   1      43.872  22.681  26.240  1.00  0.00     0.027 C 
ATOM      9  C   UNL A   1      43.028  23.064  25.001  1.00  0.00     0.019 C 
ATOM     10  C   UNL A   1      43.003  22.897  27.504  1.00  0.00     0.014 C 
ATOM     11  C   UNL A   1      45.051  23.674  26.329  1.00  0.00     0.138 C 
ATOM     12  C   UNL A   1      43.761  22.950  28.833  1.00  0.00     0.001 C 
ATOM     13  C   UNL A   1      45.834  23.692  27.625  1.00  0.00     0.076 C 
ATOM     14  O   UNL A   1      45.397  24.390  25.389  1.00  0.00    -0.299 OA
ATOM     15  C   UNL A   1      44.902  23.955  28.794  1.00  0.00     0.008 C 
ENDBRANCH   7   8
ENDBRANCH   6   7
ENDBRANCH   4   6
ENDBRANCH   3   4
ENDBRANCH   2   3
ENDBRANCH   1   2
BRANCH   1  16
ATOM     16  O   UNL A   1      39.669  21.698  27.004  1.00  0.00    -0.458 OA
BRANCH  16  17
ATOM     17  C   UNL A   1      38.881  22.640  26.434  1.00  0.00     0.338 C 
ATOM     18  O   UNL A   1      37.889  22.464  25.751  1.00  0.00    -0.246 OA
BRANCH  17  19
ATOM     19  C   UNL A   1      39.319  23.967  26.881  1.00  0.00     0.060 A 
ATOM     20  C   UNL A   1      39.866  24.830  25.931  1.00  0.00     0.016 A 
ATOM     21  C   UNL A   1      39.279  24.321  28.228  1.00  0.00     0.016 A 
ATOM     22  C   UNL A   1      40.404  26.050  26.323  1.00  0.00     0.010 A 
ATOM     23  C   UNL A   1      39.801  25.556  28.620  1.00  0.00     0.010 A 
ATOM     24  C   UNL A   1      40.381  26.420  27.672  1.00  0.00    -0.014 A 
BRANCH  24  25
ATOM     25  C   UNL A   1      41.017  27.689  28.097  1.00  0.00     0.031 A 
ATOM     26  C   UNL A   1      42.507  27.847  27.979  1.00  0.00     0.074 A 
ATOM     27  C   UNL A   1      40.259  28.697  28.568  1.00  0.00     0.049 A 
ATOM     28  N   UNL A   1      43.270  28.816  28.413  1.00  0.00    -0.248 NA
ATOM     29  C   UNL A   1      43.233  26.769  27.287  1.00  0.00     0.031 C 
ATOM     30  C   UNL A   1      38.797  28.681  28.666  1.00  0.00     0.029 A 
ATOM     31  N   UNL A   1      40.613  29.929  29.052  1.00  0.00    -0.354 N 
ATOM     32  C   UNL A   1      44.569  28.450  28.081  1.00  0.00     0.074 A 
ATOM     33  C   UNL A   1      44.491  27.168  27.415  1.00  0.00     0.031 C 
ATOM     34  C   UNL A   1      38.381  29.854  29.173  1.00  0.00     0.029 A 
ATOM     35  C   UNL A   1      39.545  30.673  29.492  1.00  0.00     0.049 A 
ATOM     36  H   UNL A   1      41.543  30.250  29.083  1.00  0.00     0.167 HD
ATOM     37  C   UNL A   1      45.721  29.122  28.319  1.00  0.00     0.031 A 
ATOM     38  C   UNL A   1      39.510  31.866  30.116  1.00  0.00     0.031 A 
ATOM     39  C   UNL A   1      45.783  30.400  28.973  1.00  0.00     0.049 A 
ATOM     40  C   UNL A   1      40.804  32.568  30.417  1.00  0.00     0.074 A 
ATOM     41  C   UNL A   1      46.899  31.166  29.268  1.00  0.00     0.029 A 
ATOM     42  N   UNL A   1      44.681  31.109  29.430  1.00  0.00    -0.354 N 
ATOM     43  N   UNL A   1      42.028  32.192  30.133  1.00  0.00    -0.248 NA
ATOM     44  C   UNL A   1      40.714  33.849  31.129  1.00  0.00     0.031 C 
ATOM     45  C   UNL A   1      46.472  32.318  29.937  1.00  0.00     0.029 A 
ATOM     46  C   UNL A   1      45.089  32.294  30.017  1.00  0.00     0.049 A 
ATOM     47  H   UNL A   1      43.745  30.812  29.348  1.00  0.00     0.167 HD
ATOM     48  C   UNL A   1      42.855  33.198  30.619  1.00  0.00     0.074 A 
ATOM     49  C   UNL A   1      41.990  34.205  31.200  1.00  0.00     0.031 C 
ATOM     50  C   UNL A   1      44.208  33.281  30.589  1.00  0.00     0.031 A 
BRANCH  37  51
ATOM     51  C   UNL A   1      47.008  28.456  27.912  1.00  0.00    -0.014 A 
ATOM     52  C   UNL A   1      47.682  27.574  28.775  1.00  0.00     0.010 A 
ATOM     53  C   UNL A   1      47.540  28.704  26.633  1.00  0.00     0.010 A 
ATOM     54  C   UNL A   1      48.885  26.982  28.380  1.00  0.00     0.020 A 
ATOM     55  C   UNL A   1      48.731  28.097  26.227  1.00  0.00     0.020 A 
ATOM     56  C   UNL A   1      49.407  27.254  27.111  1.00  0.00     0.054 A 
BRANCH  56  57
ATOM     57  S   UNL A   1      50.965  26.466  26.618  1.00  0.00     0.124 S 
ATOM     58  O   UNL A   1      51.947  27.251  27.363  1.00  0.00    -0.237 OA
ATOM     59  O   UNL A   1      50.789  25.089  27.070  1.00  0.00    -0.237 OA
ATOM     60  O   UNL A   1      50.998  26.643  25.168  1.00  0.00    -0.744 OA
ENDBRANCH  56  57
ENDBRANCH  37  51
BRANCH  38  61
ATOM     61  C   UNL A   1      38.204  32.446  30.532  1.00  0.00    -0.014 A 
ATOM     62  C   UNL A   1      37.668  32.168  31.801  1.00  0.00     0.010 A 
ATOM     63  C   UNL A   1      37.500  33.302  29.664  1.00  0.00     0.010 A 
ATOM     64  C   UNL A   1      36.449  32.730  32.192  1.00  0.00     0.020 A 
ATOM     65  C   UNL A   1      36.295  33.885  30.062  1.00  0.00     0.020 A 
ATOM     66  C   UNL A   1      35.771  33.587  31.320  1.00  0.00     0.054 A 
BRANCH  66  67
ATOM     67  S   UNL A   1      34.223  34.358  31.871  1.00  0.00     0.124 S 
ATOM     68  O   UNL A   1      34.702  35.583  32.503  1.00  0.00    -0.237 OA
ATOM     69  O   UNL A   1      33.493  34.536  30.619  1.00  0.00    -0.237 OA
ATOM     70  O   UNL A   1      33.654  33.365  32.780  1.00  0.00    -0.744 OA
ENDBRANCH  66  67
ENDBRANCH  38  61
BRANCH  50  71
ATOM     71  C   UNL A   1      44.832  34.517  31.174  1.00  0.00    -0.014 A 
ATOM     72  C   UNL A   1      45.022  35.672  30.395  1.00  0.00     0.010 A 
ATOM     73  C   UNL A   1      45.183  34.538  32.536  1.00  0.00     0.010 A 
ATOM     74  C   UNL A   1      45.579  36.820  30.963  1.00  0.00     0.020 A 
ATOM     75  C   UNL A   1      45.720  35.691  33.112  1.00  0.00     0.020 A 
ATOM     76  C   UNL A   1      45.928  36.822  32.318  1.00  0.00     0.054 A 
BRANCH  76  77
ATOM     77  S   UNL A   1      46.608  38.336  33.045  1.00  0.00     0.124 S 
ATOM     78  O   UNL A   1      47.678  38.669  32.107  1.00  0.00    -0.237 OA
ATOM     79  O   UNL A   1      45.462  39.241  33.039  1.00  0.00    -0.237 OA
ATOM     80  O   UNL A   1      47.052  37.914  34.373  1.00  0.00    -0.744 OA
ENDBRANCH  76  77
ENDBRANCH  50  71
ENDBRANCH  24  25
ENDBRANCH  17  19
ENDBRANCH  16  17
ENDBRANCH   1  16
TORSDOF 16
ENDMDL
