MODEL 1
REMARK VINA RESULT:      -9.4      0.000      0.000
REMARK SMILES CCCC[C@@H](C(=O)OCCOC(=O)c1ccc(-c2c3nc(c(-c4ccc(S(=O)(=O)[O-])cc4)c4ccc([nH]4)c(-c4ccc(S(=O)(=O)[O-])cc4)c4nc(c(-c5ccc(S(=O)(=O)[O-])cc5)c5ccc2[nH]5)C=C4)C=C3)cc1)[C@]1(O)COc2cc(O)ccc21
REMARK SMILES IDX 9 1 8 2 6 3 7 4 5 5 4 6 3 7 2 8 1 9 74 10 76 11 84 12 77 13
REMARK SMILES IDX 78 14 83 15 79 16 82 17 80 18 75 19 81 21 10 23 11 24 12 25
REMARK SMILES IDX 13 26 14 27 15 28 73 29 16 30 72 31 17 32 18 33 19 34 66 35
REMARK SMILES IDX 20 36 71 37 65 38 67 39 21 40 70 41 64 42 63 43 22 45 52 46
REMARK SMILES IDX 33 47 51 48 34 49 37 50 50 51 68 52 35 53 36 54 49 56 69 57
REMARK SMILES IDX 38 58 23 59 24 60 32 61 25 62 31 63 26 64 27 65 28 66 29 67
REMARK SMILES IDX 30 68 53 69 54 70 62 71 55 72 61 73 56 74 57 75 58 76 59 77
REMARK SMILES IDX 60 78 39 79 40 80 48 81 41 82 47 83 42 84 43 85 44 86 45 87
REMARK SMILES IDX 46 88
REMARK H PARENT 75 20 81 22 67 44 37 55
REMARK Flexibility Score: inf
ROOT
ATOM      1  C   UNL A   1      33.402  34.310  28.544  1.00  0.00     0.274 C 
ENDROOT
BRANCH   1   2
ATOM      2  O   UNL A   1      34.648  34.484  29.236  1.00  0.00    -0.462 OA
BRANCH   2   3
ATOM      3  C   UNL A   1      34.538  34.646  30.582  1.00  0.00     0.312 C 
ATOM      4  O   UNL A   1      33.619  35.235  31.139  1.00  0.00    -0.252 OA
BRANCH   3   5
ATOM      5  C   UNL A   1      35.685  33.983  31.333  1.00  0.00     0.139 C 
BRANCH   5   6
ATOM      6  C   UNL A   1      36.789  33.495  30.353  1.00  0.00     0.019 C 
BRANCH   6   7
ATOM      7  C   UNL A   1      38.180  34.119  30.534  1.00  0.00     0.001 C 
BRANCH   7   8
ATOM      8  C   UNL A   1      38.443  34.754  31.898  1.00  0.00    -0.003 C 
ATOM      9  C   UNL A   1      39.797  34.377  32.481  1.00  0.00     0.004 C 
ENDBRANCH   7   8
ENDBRANCH   6   7
ENDBRANCH   5   6
BRANCH   5  10
ATOM     10  C   UNL A   1      35.187  32.873  32.322  1.00  0.00     0.140 C 
ATOM     11  C   UNL A   1      34.752  33.415  33.699  1.00  0.00     0.270 C 
ATOM     12  C   UNL A   1      36.240  31.950  32.882  1.00  0.00     0.030 A 
ATOM     13  O   UNL A   1      35.959  33.592  34.456  1.00  0.00    -0.490 OA
ATOM     14  C   UNL A   1      36.686  32.497  34.082  1.00  0.00     0.129 A 
ATOM     15  C   UNL A   1      36.769  30.750  32.445  1.00  0.00     0.014 A 
ATOM     16  C   UNL A   1      37.726  31.974  34.814  1.00  0.00     0.093 A 
ATOM     17  C   UNL A   1      37.776  30.147  33.220  1.00  0.00     0.047 A 
ATOM     18  C   UNL A   1      38.259  30.775  34.377  1.00  0.00     0.119 A 
BRANCH  10  19
ATOM     19  O   UNL A   1      34.107  32.153  31.729  1.00  0.00    -0.381 OA
ATOM     20  H   UNL A   1      34.440  31.622  30.989  1.00  0.00     0.212 HD
ENDBRANCH  10  19
BRANCH  18  21
ATOM     21  O   UNL A   1      39.251  30.225  35.134  1.00  0.00    -0.508 OA
ATOM     22  H   UNL A   1      39.551  30.665  35.905  1.00  0.00     0.293 HD
ENDBRANCH  18  21
ENDBRANCH   5  10
ENDBRANCH   3   5
ENDBRANCH   2   3
ENDBRANCH   1   2
BRANCH   1  23
ATOM     23  C   UNL A   1      33.361  32.923  27.899  1.00  0.00     0.275 C 
BRANCH  23  24
ATOM     24  O   UNL A   1      34.276  32.038  28.575  1.00  0.00    -0.458 OA
BRANCH  24  25
ATOM     25  C   UNL A   1      34.408  30.799  28.033  1.00  0.00     0.338 C 
ATOM     26  O   UNL A   1      33.589  30.208  27.359  1.00  0.00    -0.246 OA
BRANCH  25  27
ATOM     27  C   UNL A   1      35.795  30.315  28.246  1.00  0.00     0.060 A 
ATOM     28  C   UNL A   1      36.057  29.659  29.454  1.00  0.00     0.016 A 
ATOM     29  C   UNL A   1      36.789  30.398  27.262  1.00  0.00     0.016 A 
ATOM     30  C   UNL A   1      37.273  29.002  29.639  1.00  0.00     0.010 A 
ATOM     31  C   UNL A   1      38.030  29.781  27.470  1.00  0.00     0.010 A 
ATOM     32  C   UNL A   1      38.272  29.069  28.655  1.00  0.00    -0.014 A 
BRANCH  32  33
ATOM     33  C   UNL A   1      39.628  28.591  29.018  1.00  0.00     0.031 A 
ATOM     34  C   UNL A   1      40.435  29.481  29.921  1.00  0.00     0.074 A 
ATOM     35  C   UNL A   1      40.091  27.377  28.666  1.00  0.00     0.049 A 
ATOM     36  N   UNL A   1      41.550  29.232  30.551  1.00  0.00    -0.248 NA
ATOM     37  C   UNL A   1      39.876  30.821  30.177  1.00  0.00     0.031 C 
ATOM     38  C   UNL A   1      39.384  26.394  27.847  1.00  0.00     0.029 A 
ATOM     39  N   UNL A   1      41.274  26.754  28.988  1.00  0.00    -0.354 N 
ATOM     40  C   UNL A   1      41.797  30.361  31.321  1.00  0.00     0.074 A 
ATOM     41  C   UNL A   1      40.731  31.304  31.061  1.00  0.00     0.031 C 
ATOM     42  C   UNL A   1      40.144  25.287  27.740  1.00  0.00     0.029 A 
ATOM     43  C   UNL A   1      41.394  25.484  28.472  1.00  0.00     0.049 A 
ATOM     44  H   UNL A   1      41.973  27.180  29.536  1.00  0.00     0.167 HD
ATOM     45  C   UNL A   1      42.822  30.604  32.168  1.00  0.00     0.031 A 
ATOM     46  C   UNL A   1      42.400  24.590  28.588  1.00  0.00     0.031 A 
ATOM     47  C   UNL A   1      43.946  29.732  32.335  1.00  0.00     0.049 A 
ATOM     48  C   UNL A   1      43.609  24.948  29.422  1.00  0.00     0.074 A 
ATOM     49  C   UNL A   1      45.098  29.938  33.071  1.00  0.00     0.029 A 
ATOM     50  N   UNL A   1      44.073  28.495  31.721  1.00  0.00    -0.354 N 
ATOM     51  N   UNL A   1      43.822  26.014  30.157  1.00  0.00    -0.248 NA
ATOM     52  C   UNL A   1      44.713  23.975  29.444  1.00  0.00     0.031 C 
ATOM     53  C   UNL A   1      45.944  28.844  32.863  1.00  0.00     0.029 A 
ATOM     54  C   UNL A   1      45.295  27.934  32.041  1.00  0.00     0.049 A 
ATOM     55  H   UNL A   1      43.394  28.078  31.144  1.00  0.00     0.167 HD
ATOM     56  C   UNL A   1      45.071  25.830  30.745  1.00  0.00     0.074 A 
ATOM     57  C   UNL A   1      45.559  24.543  30.294  1.00  0.00     0.031 C 
ATOM     58  C   UNL A   1      45.757  26.650  31.580  1.00  0.00     0.031 A 
BRANCH  45  59
ATOM     59  C   UNL A   1      42.778  31.914  32.897  1.00  0.00    -0.014 A 
ATOM     60  C   UNL A   1      43.374  33.064  32.344  1.00  0.00     0.010 A 
ATOM     61  C   UNL A   1      42.213  31.977  34.182  1.00  0.00     0.010 A 
ATOM     62  C   UNL A   1      43.450  34.243  33.088  1.00  0.00     0.020 A 
ATOM     63  C   UNL A   1      42.272  33.160  34.921  1.00  0.00     0.020 A 
ATOM     64  C   UNL A   1      42.912  34.277  34.379  1.00  0.00     0.054 A 
BRANCH  64  65
ATOM     65  S   UNL A   1      43.063  35.803  35.346  1.00  0.00     0.124 S 
ATOM     66  O   UNL A   1      42.299  36.749  34.536  1.00  0.00    -0.237 OA
ATOM     67  O   UNL A   1      42.456  35.438  36.624  1.00  0.00    -0.237 OA
ATOM     68  O   UNL A   1      44.504  36.043  35.390  1.00  0.00    -0.744 OA
ENDBRANCH  64  65
ENDBRANCH  45  59
BRANCH  46  69
ATOM     69  C   UNL A   1      42.337  23.274  27.889  1.00  0.00    -0.014 A 
ATOM     70  C   UNL A   1      41.717  22.163  28.490  1.00  0.00     0.010 A 
ATOM     71  C   UNL A   1      42.956  23.108  26.636  1.00  0.00     0.010 A 
ATOM     72  C   UNL A   1      41.741  20.909  27.866  1.00  0.00     0.020 A 
ATOM     73  C   UNL A   1      42.961  21.864  25.998  1.00  0.00     0.020 A 
ATOM     74  C   UNL A   1      42.368  20.767  26.625  1.00  0.00     0.054 A 
BRANCH  74  75
ATOM     75  S   UNL A   1      42.369  19.141  25.815  1.00  0.00     0.124 S 
ATOM     76  O   UNL A   1      43.015  18.303  26.819  1.00  0.00    -0.237 OA
ATOM     77  O   UNL A   1      40.945  18.892  25.602  1.00  0.00    -0.237 OA
ATOM     78  O   UNL A   1      43.140  19.370  24.596  1.00  0.00    -0.744 OA
ENDBRANCH  74  75
ENDBRANCH  46  69
BRANCH  58  79
ATOM     79  C   UNL A   1      47.094  26.176  32.082  1.00  0.00    -0.014 A 
ATOM     80  C   UNL A   1      47.206  25.457  33.285  1.00  0.00     0.010 A 
ATOM     81  C   UNL A   1      48.244  26.391  31.302  1.00  0.00     0.010 A 
ATOM     82  C   UNL A   1      48.450  24.986  33.713  1.00  0.00     0.020 A 
ATOM     83  C   UNL A   1      49.485  25.901  31.714  1.00  0.00     0.020 A 
ATOM     84  C   UNL A   1      49.583  25.213  32.924  1.00  0.00     0.054 A 
BRANCH  84  85
ATOM     85  S   UNL A   1      51.181  24.550  33.470  1.00  0.00     0.124 S 
ATOM     86  O   UNL A   1      51.853  24.294  32.200  1.00  0.00    -0.237 OA
ATOM     87  O   UNL A   1      51.733  25.646  34.265  1.00  0.00    -0.237 OA
ATOM     88  O   UNL A   1      50.816  23.360  34.236  1.00  0.00    -0.744 OA
ENDBRANCH  84  85
ENDBRANCH  58  79
ENDBRANCH  32  33
ENDBRANCH  25  27
ENDBRANCH  24  25
ENDBRANCH  23  24
ENDBRANCH   1  23
TORSDOF 20
ENDMDL
MODEL 2
REMARK VINA RESULT:      -8.9      2.870     11.400
REMARK SMILES CCCC[C@@H](C(=O)OCCOC(=O)c1ccc(-c2c3nc(c(-c4ccc(S(=O)(=O)[O-])cc4)c4ccc([nH]4)c(-c4ccc(S(=O)(=O)[O-])cc4)c4nc(c(-c5ccc(S(=O)(=O)[O-])cc5)c5ccc2[nH]5)C=C4)C=C3)cc1)[C@]1(O)COc2cc(O)ccc21
REMARK SMILES IDX 9 1 8 2 6 3 7 4 5 5 4 6 3 7 2 8 1 9 74 10 76 11 84 12 77 13
REMARK SMILES IDX 78 14 83 15 79 16 82 17 80 18 75 19 81 21 10 23 11 24 12 25
REMARK SMILES IDX 13 26 14 27 15 28 73 29 16 30 72 31 17 32 18 33 19 34 66 35
REMARK SMILES IDX 20 36 71 37 65 38 67 39 21 40 70 41 64 42 63 43 22 45 52 46
REMARK SMILES IDX 33 47 51 48 34 49 37 50 50 51 68 52 35 53 36 54 49 56 69 57
REMARK SMILES IDX 38 58 23 59 24 60 32 61 25 62 31 63 26 64 27 65 28 66 29 67
REMARK SMILES IDX 30 68 53 69 54 70 62 71 55 72 61 73 56 74 57 75 58 76 59 77
REMARK SMILES IDX 60 78 39 79 40 80 48 81 41 82 47 83 42 84 43 85 44 86 45 87
REMARK SMILES IDX 46 88
REMARK H PARENT 75 20 81 22 67 44 37 55
REMARK Flexibility Score: inf
ROOT
ATOM      1  C   UNL A   1      40.879  20.218  26.145  1.00  0.00     0.274 C 
ENDROOT
BRANCH   1   2
ATOM      2  O   UNL A   1      41.812  21.145  25.567  1.00  0.00    -0.462 OA
BRANCH   2   3
ATOM      3  C   UNL A   1      43.100  20.990  25.977  1.00  0.00     0.312 C 
ATOM      4  O   UNL A   1      43.728  19.939  25.917  1.00  0.00    -0.252 OA
BRANCH   3   5
ATOM      5  C   UNL A   1      43.693  22.291  26.502  1.00  0.00     0.139 C 
BRANCH   5   6
ATOM      6  C   UNL A   1      42.630  23.119  27.277  1.00  0.00     0.019 C 
BRANCH   6   7
ATOM      7  C   UNL A   1      42.685  23.030  28.809  1.00  0.00     0.001 C 
BRANCH   7   8
ATOM      8  C   UNL A   1      44.082  23.103  29.420  1.00  0.00    -0.003 C 
ATOM      9  C   UNL A   1      44.068  23.434  30.906  1.00  0.00     0.004 C 
ENDBRANCH   7   8
ENDBRANCH   6   7
ENDBRANCH   5   6
BRANCH   5  10
ATOM     10  C   UNL A   1      44.430  23.105  25.383  1.00  0.00     0.140 C 
ATOM     11  C   UNL A   1      45.967  22.991  25.439  1.00  0.00     0.270 C 
ATOM     12  C   UNL A   1      44.414  24.606  25.521  1.00  0.00     0.030 A 
ATOM     13  O   UNL A   1      46.398  23.922  26.443  1.00  0.00    -0.490 OA
ATOM     14  C   UNL A   1      45.557  24.977  26.225  1.00  0.00     0.129 A 
ATOM     15  C   UNL A   1      43.538  25.583  25.087  1.00  0.00     0.014 A 
ATOM     16  C   UNL A   1      45.815  26.266  26.628  1.00  0.00     0.093 A 
ATOM     17  C   UNL A   1      43.822  26.922  25.412  1.00  0.00     0.047 A 
ATOM     18  C   UNL A   1      44.939  27.244  26.197  1.00  0.00     0.119 A 
BRANCH  10  19
ATOM     19  O   UNL A   1      43.967  22.683  24.100  1.00  0.00    -0.381 OA
ATOM     20  H   UNL A   1      43.013  22.846  24.031  1.00  0.00     0.212 HD
ENDBRANCH  10  19
BRANCH  18  21
ATOM     21  O   UNL A   1      45.223  28.531  26.547  1.00  0.00    -0.508 OA
ATOM     22  H   UNL A   1      46.101  28.773  26.770  1.00  0.00     0.293 HD
ENDBRANCH  18  21
ENDBRANCH   5  10
ENDBRANCH   3   5
ENDBRANCH   2   3
ENDBRANCH   1   2
BRANCH   1  23
ATOM     23  C   UNL A   1      39.473  20.820  26.117  1.00  0.00     0.275 C 
BRANCH  23  24
ATOM     24  O   UNL A   1      39.538  22.208  25.733  1.00  0.00    -0.458 OA
BRANCH  24  25
ATOM     25  C   UNL A   1      38.474  22.972  26.095  1.00  0.00     0.338 C 
ATOM     26  O   UNL A   1      37.303  22.651  26.061  1.00  0.00    -0.246 OA
BRANCH  25  27
ATOM     27  C   UNL A   1      38.960  24.232  26.711  1.00  0.00     0.060 A 
ATOM     28  C   UNL A   1      38.580  24.475  28.035  1.00  0.00     0.016 A 
ATOM     29  C   UNL A   1      39.845  25.103  26.063  1.00  0.00     0.016 A 
ATOM     30  C   UNL A   1      39.158  25.529  28.743  1.00  0.00     0.010 A 
ATOM     31  C   UNL A   1      40.387  26.192  26.760  1.00  0.00     0.010 A 
ATOM     32  C   UNL A   1      40.055  26.401  28.107  1.00  0.00    -0.014 A 
BRANCH  32  33
ATOM     33  C   UNL A   1      40.421  27.649  28.819  1.00  0.00     0.031 A 
ATOM     34  C   UNL A   1      41.844  27.761  29.290  1.00  0.00     0.074 A 
ATOM     35  C   UNL A   1      39.577  28.690  28.947  1.00  0.00     0.049 A 
ATOM     36  N   UNL A   1      42.486  28.798  29.753  1.00  0.00    -0.248 NA
ATOM     37  C   UNL A   1      42.661  26.539  29.179  1.00  0.00     0.031 C 
ATOM     38  C   UNL A   1      38.193  28.733  28.479  1.00  0.00     0.029 A 
ATOM     39  N   UNL A   1      39.784  29.934  29.495  1.00  0.00    -0.354 N 
ATOM     40  C   UNL A   1      43.794  28.369  29.937  1.00  0.00     0.074 A 
ATOM     41  C   UNL A   1      43.849  26.974  29.559  1.00  0.00     0.031 C 
ATOM     42  C   UNL A   1      37.678  29.948  28.750  1.00  0.00     0.029 A 
ATOM     43  C   UNL A   1      38.690  30.765  29.419  1.00  0.00     0.049 A 
ATOM     44  H   UNL A   1      40.637  30.205  29.905  1.00  0.00     0.167 HD
ATOM     45  C   UNL A   1      44.861  29.066  30.386  1.00  0.00     0.031 A 
ATOM     46  C   UNL A   1      38.535  32.039  29.841  1.00  0.00     0.031 A 
ATOM     47  C   UNL A   1      44.789  30.409  30.881  1.00  0.00     0.049 A 
ATOM     48  C   UNL A   1      39.706  32.749  30.481  1.00  0.00     0.074 A 
ATOM     49  C   UNL A   1      45.783  31.165  31.475  1.00  0.00     0.029 A 
ATOM     50  N   UNL A   1      43.640  31.184  30.873  1.00  0.00    -0.354 N 
ATOM     51  N   UNL A   1      40.942  32.336  30.634  1.00  0.00    -0.248 NA
ATOM     52  C   UNL A   1      39.459  34.104  31.002  1.00  0.00     0.031 C 
ATOM     53  C   UNL A   1      45.220  32.383  31.871  1.00  0.00     0.029 A 
ATOM     54  C   UNL A   1      43.891  32.403  31.474  1.00  0.00     0.049 A 
ATOM     55  H   UNL A   1      42.774  30.907  30.497  1.00  0.00     0.167 HD
ATOM     56  C   UNL A   1      41.623  33.385  31.247  1.00  0.00     0.074 A 
ATOM     57  C   UNL A   1      40.666  34.458  31.421  1.00  0.00     0.031 C 
ATOM     58  C   UNL A   1      42.921  33.456  31.634  1.00  0.00     0.031 A 
BRANCH  45  59
ATOM     59  C   UNL A   1      46.164  28.325  30.424  1.00  0.00    -0.014 A 
ATOM     60  C   UNL A   1      46.511  27.540  31.540  1.00  0.00     0.010 A 
ATOM     61  C   UNL A   1      47.086  28.482  29.375  1.00  0.00     0.010 A 
ATOM     62  C   UNL A   1      47.781  26.966  31.628  1.00  0.00     0.020 A 
ATOM     63  C   UNL A   1      48.350  27.895  29.453  1.00  0.00     0.020 A 
ATOM     64  C   UNL A   1      48.697  27.161  30.590  1.00  0.00     0.054 A 
BRANCH  64  65
ATOM     65  S   UNL A   1      50.357  26.447  30.746  1.00  0.00     0.124 S 
ATOM     66  O   UNL A   1      50.076  25.181  31.420  1.00  0.00    -0.237 OA
ATOM     67  O   UNL A   1      50.792  26.334  29.356  1.00  0.00    -0.237 OA
ATOM     68  O   UNL A   1      51.083  27.431  31.545  1.00  0.00    -0.744 OA
ENDBRANCH  64  65
ENDBRANCH  45  59
BRANCH  46  69
ATOM     69  C   UNL A   1      37.223  32.736  29.702  1.00  0.00    -0.014 A 
ATOM     70  C   UNL A   1      36.862  33.368  28.497  1.00  0.00     0.010 A 
ATOM     71  C   UNL A   1      36.349  32.825  30.801  1.00  0.00     0.010 A 
ATOM     72  C   UNL A   1      35.670  34.096  28.403  1.00  0.00     0.020 A 
ATOM     73  C   UNL A   1      35.145  33.531  30.704  1.00  0.00     0.020 A 
ATOM     74  C   UNL A   1      34.820  34.176  29.510  1.00  0.00     0.054 A 
BRANCH  74  75
ATOM     75  S   UNL A   1      33.265  35.102  29.366  1.00  0.00     0.124 S 
ATOM     76  O   UNL A   1      33.735  36.425  28.969  1.00  0.00    -0.237 OA
ATOM     77  O   UNL A   1      32.542  34.352  28.341  1.00  0.00    -0.237 OA
ATOM     78  O   UNL A   1      32.693  35.015  30.707  1.00  0.00    -0.744 OA
ENDBRANCH  74  75
ENDBRANCH  46  69
BRANCH  58  79
ATOM     79  C   UNL A   1      43.393  34.741  32.260  1.00  0.00    -0.014 A 
ATOM     80  C   UNL A   1      43.352  34.930  33.653  1.00  0.00     0.010 A 
ATOM     81  C   UNL A   1      43.952  35.743  31.447  1.00  0.00     0.010 A 
ATOM     82  C   UNL A   1      43.837  36.112  34.219  1.00  0.00     0.020 A 
ATOM     83  C   UNL A   1      44.460  36.916  32.011  1.00  0.00     0.020 A 
ATOM     84  C   UNL A   1      44.386  37.099  33.392  1.00  0.00     0.054 A 
BRANCH  84  85
ATOM     85  S   UNL A   1      45.057  38.605  34.150  1.00  0.00     0.124 S 
ATOM     86  O   UNL A   1      44.524  38.525  35.507  1.00  0.00    -0.237 OA
ATOM     87  O   UNL A   1      46.501  38.415  34.029  1.00  0.00    -0.237 OA
ATOM     88  O   UNL A   1      44.508  39.679  33.325  1.00  0.00    -0.744 OA
ENDBRANCH  84  85
ENDBRANCH  58  79
ENDBRANCH  32  33
ENDBRANCH  25  27
ENDBRANCH  24  25
ENDBRANCH  23  24
ENDBRANCH   1  23
TORSDOF 20
ENDMDL
MODEL 3
REMARK VINA RESULT:      -8.6      2.726     10.406
REMARK SMILES CCCC[C@@H](C(=O)OCCOC(=O)c1ccc(-c2c3nc(c(-c4ccc(S(=O)(=O)[O-])cc4)c4ccc([nH]4)c(-c4ccc(S(=O)(=O)[O-])cc4)c4nc(c(-c5ccc(S(=O)(=O)[O-])cc5)c5ccc2[nH]5)C=C4)C=C3)cc1)[C@]1(O)COc2cc(O)ccc21
REMARK SMILES IDX 9 1 8 2 6 3 7 4 5 5 4 6 3 7 2 8 1 9 74 10 76 11 84 12 77 13
REMARK SMILES IDX 78 14 83 15 79 16 82 17 80 18 75 19 81 21 10 23 11 24 12 25
REMARK SMILES IDX 13 26 14 27 15 28 73 29 16 30 72 31 17 32 18 33 19 34 66 35
REMARK SMILES IDX 20 36 71 37 65 38 67 39 21 40 70 41 64 42 63 43 22 45 52 46
REMARK SMILES IDX 33 47 51 48 34 49 37 50 50 51 68 52 35 53 36 54 49 56 69 57
REMARK SMILES IDX 38 58 23 59 24 60 32 61 25 62 31 63 26 64 27 65 28 66 29 67
REMARK SMILES IDX 30 68 53 69 54 70 62 71 55 72 61 73 56 74 57 75 58 76 59 77
REMARK SMILES IDX 60 78 39 79 40 80 48 81 41 82 47 83 42 84 43 85 44 86 45 87
REMARK SMILES IDX 46 88
REMARK H PARENT 75 20 81 22 67 44 37 55
REMARK Flexibility Score: inf
ROOT
ATOM      1  C   UNL A   1      40.684  20.227  26.123  1.00  0.00     0.274 C 
ENDROOT
BRANCH   1   2
ATOM      2  O   UNL A   1      41.673  21.083  25.530  1.00  0.00    -0.462 OA
BRANCH   2   3
ATOM      3  C   UNL A   1      42.949  20.857  25.947  1.00  0.00     0.312 C 
ATOM      4  O   UNL A   1      43.519  19.774  25.886  1.00  0.00    -0.252 OA
BRANCH   3   5
ATOM      5  C   UNL A   1      43.608  22.121  26.482  1.00  0.00     0.139 C 
BRANCH   5   6
ATOM      6  C   UNL A   1      42.583  23.007  27.245  1.00  0.00     0.019 C 
BRANCH   6   7
ATOM      7  C   UNL A   1      42.670  22.977  28.778  1.00  0.00     0.001 C 
BRANCH   7   8
ATOM      8  C   UNL A   1      44.084  22.961  29.354  1.00  0.00    -0.003 C 
ATOM      9  C   UNL A   1      44.153  23.487  30.781  1.00  0.00     0.004 C 
ENDBRANCH   7   8
ENDBRANCH   6   7
ENDBRANCH   5   6
BRANCH   5  10
ATOM     10  C   UNL A   1      44.402  22.894  25.373  1.00  0.00     0.140 C 
ATOM     11  C   UNL A   1      45.923  22.636  25.402  1.00  0.00     0.270 C 
ATOM     12  C   UNL A   1      44.528  24.386  25.551  1.00  0.00     0.030 A 
ATOM     13  O   UNL A   1      46.452  23.495  26.423  1.00  0.00    -0.490 OA
ATOM     14  C   UNL A   1      45.710  24.630  26.246  1.00  0.00     0.129 A 
ATOM     15  C   UNL A   1      43.742  25.452  25.157  1.00  0.00     0.014 A 
ATOM     16  C   UNL A   1      46.093  25.877  26.680  1.00  0.00     0.093 A 
ATOM     17  C   UNL A   1      44.154  26.749  25.512  1.00  0.00     0.047 A 
ATOM     18  C   UNL A   1      45.306  26.944  26.288  1.00  0.00     0.119 A 
BRANCH  10  19
ATOM     19  O   UNL A   1      43.885  22.553  24.087  1.00  0.00    -0.381 OA
ATOM     20  H   UNL A   1      42.950  22.806  24.037  1.00  0.00     0.212 HD
ENDBRANCH  10  19
BRANCH  18  21
ATOM     21  O   UNL A   1      45.715  28.189  26.668  1.00  0.00    -0.508 OA
ATOM     22  H   UNL A   1      45.177  28.934  26.486  1.00  0.00     0.293 HD
ENDBRANCH  18  21
ENDBRANCH   5  10
ENDBRANCH   3   5
ENDBRANCH   2   3
ENDBRANCH   1   2
BRANCH   1  23
ATOM     23  C   UNL A   1      39.338  20.953  26.169  1.00  0.00     0.275 C 
BRANCH  23  24
ATOM     24  O   UNL A   1      39.503  22.323  25.753  1.00  0.00    -0.458 OA
BRANCH  24  25
ATOM     25  C   UNL A   1      38.509  23.176  26.118  1.00  0.00     0.338 C 
ATOM     26  O   UNL A   1      37.314  22.993  26.000  1.00  0.00    -0.246 OA
BRANCH  25  27
ATOM     27  C   UNL A   1      39.093  24.325  26.853  1.00  0.00     0.060 A 
ATOM     28  C   UNL A   1      39.901  25.200  26.118  1.00  0.00     0.016 A 
ATOM     29  C   UNL A   1      38.782  24.611  28.189  1.00  0.00     0.016 A 
ATOM     30  C   UNL A   1      40.317  26.405  26.684  1.00  0.00     0.010 A 
ATOM     31  C   UNL A   1      39.243  25.799  28.774  1.00  0.00     0.010 A 
ATOM     32  C   UNL A   1      40.002  26.707  28.018  1.00  0.00    -0.014 A 
BRANCH  32  33
ATOM     33  C   UNL A   1      40.694  27.859  28.644  1.00  0.00     0.031 A 
ATOM     34  C   UNL A   1      39.873  29.099  28.860  1.00  0.00     0.074 A 
ATOM     35  C   UNL A   1      41.955  27.787  29.110  1.00  0.00     0.049 A 
ATOM     36  N   UNL A   1      40.152  30.169  29.553  1.00  0.00    -0.248 NA
ATOM     37  C   UNL A   1      38.536  29.107  28.240  1.00  0.00     0.031 C 
ATOM     38  C   UNL A   1      42.836  26.623  29.020  1.00  0.00     0.029 A 
ATOM     39  N   UNL A   1      42.704  28.722  29.784  1.00  0.00    -0.354 N 
ATOM     40  C   UNL A   1      39.006  30.951  29.498  1.00  0.00     0.074 A 
ATOM     41  C   UNL A   1      38.039  30.247  28.686  1.00  0.00     0.031 C 
ATOM     42  C   UNL A   1      44.004  26.912  29.628  1.00  0.00     0.029 A 
ATOM     43  C   UNL A   1      43.958  28.281  30.139  1.00  0.00     0.049 A 
ATOM     44  H   UNL A   1      42.373  29.626  29.991  1.00  0.00     0.167 HD
ATOM     45  C   UNL A   1      38.772  32.156  30.066  1.00  0.00     0.031 A 
ATOM     46  C   UNL A   1      44.946  28.917  30.806  1.00  0.00     0.031 A 
ATOM     47  C   UNL A   1      39.764  32.917  30.764  1.00  0.00     0.049 A 
ATOM     48  C   UNL A   1      44.712  30.326  31.301  1.00  0.00     0.074 A 
ATOM     49  C   UNL A   1      39.671  34.201  31.270  1.00  0.00     0.029 A 
ATOM     50  N   UNL A   1      41.053  32.473  31.022  1.00  0.00    -0.354 N 
ATOM     51  N   UNL A   1      43.617  31.048  31.255  1.00  0.00    -0.248 NA
ATOM     52  C   UNL A   1      45.850  31.003  31.943  1.00  0.00     0.031 C 
ATOM     53  C   UNL A   1      40.921  34.551  31.792  1.00  0.00     0.029 A 
ATOM     54  C   UNL A   1      41.774  33.466  31.659  1.00  0.00     0.049 A 
ATOM     55  H   UNL A   1      41.401  31.584  30.787  1.00  0.00     0.167 HD
ATOM     56  C   UNL A   1      43.928  32.253  31.879  1.00  0.00     0.074 A 
ATOM     57  C   UNL A   1      45.307  32.156  32.310  1.00  0.00     0.031 C 
ATOM     58  C   UNL A   1      43.146  33.344  32.078  1.00  0.00     0.031 A 
BRANCH  45  59
ATOM     59  C   UNL A   1      37.401  32.726  29.860  1.00  0.00    -0.014 A 
ATOM     60  C   UNL A   1      37.097  33.465  28.700  1.00  0.00     0.010 A 
ATOM     61  C   UNL A   1      36.433  32.596  30.870  1.00  0.00     0.010 A 
ATOM     62  C   UNL A   1      35.864  34.108  28.579  1.00  0.00     0.020 A 
ATOM     63  C   UNL A   1      35.193  33.225  30.744  1.00  0.00     0.020 A 
ATOM     64  C   UNL A   1      34.926  33.996  29.611  1.00  0.00     0.054 A 
BRANCH  64  65
ATOM     65  S   UNL A   1      33.349  34.878  29.455  1.00  0.00     0.124 S 
ATOM     66  O   UNL A   1      32.904  34.943  30.845  1.00  0.00    -0.237 OA
ATOM     67  O   UNL A   1      33.749  36.153  28.864  1.00  0.00    -0.237 OA
ATOM     68  O   UNL A   1      32.554  34.014  28.585  1.00  0.00    -0.744 OA
ENDBRANCH  64  65
ENDBRANCH  45  59
BRANCH  46  69
ATOM     69  C   UNL A   1      46.263  28.253  31.036  1.00  0.00    -0.014 A 
ATOM     70  C   UNL A   1      46.505  27.510  32.206  1.00  0.00     0.010 A 
ATOM     71  C   UNL A   1      47.308  28.414  30.108  1.00  0.00     0.010 A 
ATOM     72  C   UNL A   1      47.771  26.966  32.456  1.00  0.00     0.020 A 
ATOM     73  C   UNL A   1      48.567  27.852  30.342  1.00  0.00     0.020 A 
ATOM     74  C   UNL A   1      48.796  27.144  31.523  1.00  0.00     0.054 A 
BRANCH  74  75
ATOM     75  S   UNL A   1      50.425  26.411  31.847  1.00  0.00     0.124 S 
ATOM     76  O   UNL A   1      50.864  27.155  33.023  1.00  0.00    -0.237 OA
ATOM     77  O   UNL A   1      50.102  25.004  32.072  1.00  0.00    -0.237 OA
ATOM     78  O   UNL A   1      51.169  26.681  30.619  1.00  0.00    -0.744 OA
ENDBRANCH  74  75
ENDBRANCH  46  69
BRANCH  58  79
ATOM     79  C   UNL A   1      43.750  34.511  32.813  1.00  0.00    -0.014 A 
ATOM     80  C   UNL A   1      44.403  35.547  32.122  1.00  0.00     0.010 A 
ATOM     81  C   UNL A   1      43.596  34.605  34.208  1.00  0.00     0.010 A 
ATOM     82  C   UNL A   1      44.917  36.644  32.819  1.00  0.00     0.020 A 
ATOM     83  C   UNL A   1      44.088  35.712  34.904  1.00  0.00     0.020 A 
ATOM     84  C   UNL A   1      44.758  36.718  34.206  1.00  0.00     0.054 A 
BRANCH  84  85
ATOM     85  S   UNL A   1      45.387  38.175  35.086  1.00  0.00     0.124 S 
ATOM     86  O   UNL A   1      45.814  39.033  33.985  1.00  0.00    -0.237 OA
ATOM     87  O   UNL A   1      44.216  38.638  35.827  1.00  0.00    -0.237 OA
ATOM     88  O   UNL A   1      46.465  37.637  35.914  1.00  0.00    -0.744 OA
ENDBRANCH  84  85
ENDBRANCH  58  79
ENDBRANCH  32  33
ENDBRANCH  25  27
ENDBRANCH  24  25
ENDBRANCH  23  24
ENDBRANCH   1  23
TORSDOF 20
ENDMDL
