MODEL 1
REMARK VINA RESULT:     -10.3      0.000      0.000
REMARK SMILES Cc1nn(C)c(=O)c(C(=O)N[C@H](C)CC(=O)OCCOC(=O)c2ccc(-c3c4nc(c(-c5ccc(S(=O)(=O)[O-])cc5)c5ccc([nH]5)c(-c5ccc(S(=O)(=O)[O-])cc5)c5nc(c(-c6ccc(S(=O)(=O)[O-])cc6)c6ccc3[nH]6)C=C5)C=C4)cc2)c1C
REMARK SMILES IDX 18 1 17 2 15 3 16 4 14 5 12 6 13 7 11 8 9 9 10 10 8 12 1 13
REMARK SMILES IDX 2 14 3 15 83 16 4 17 84 18 5 19 6 20 7 21 19 22 20 23 21 24
REMARK SMILES IDX 22 25 23 26 24 27 82 28 25 29 81 30 26 31 27 32 28 33 75 34
REMARK SMILES IDX 29 35 80 36 74 37 76 38 30 39 79 40 73 41 72 42 31 44 61 45
REMARK SMILES IDX 42 46 60 47 43 48 46 49 59 50 77 51 44 52 45 53 58 55 78 56
REMARK SMILES IDX 47 57 32 58 33 59 41 60 34 61 40 62 35 63 36 64 37 65 38 66
REMARK SMILES IDX 39 67 62 68 63 69 71 70 64 71 70 72 65 73 66 74 67 75 68 76
REMARK SMILES IDX 69 77 48 78 49 79 57 80 50 81 56 82 51 83 52 84 53 85 54 86
REMARK SMILES IDX 55 87
REMARK H PARENT 11 11 76 43 46 54
REMARK Flexibility Score: inf
ROOT
ATOM      1  C   UNL A   1      31.951  29.576  25.594  1.00  0.00     0.274 C 
ENDROOT
BRANCH   1   2
ATOM      2  O   UNL A   1      31.628  28.176  25.742  1.00  0.00    -0.462 OA
BRANCH   2   3
ATOM      3  C   UNL A   1      32.582  27.309  25.345  1.00  0.00     0.307 C 
ATOM      4  O   UNL A   1      33.387  27.540  24.447  1.00  0.00    -0.252 OA
BRANCH   3   5
ATOM      5  C   UNL A   1      32.559  25.957  26.018  1.00  0.00     0.147 C 
BRANCH   5   6
ATOM      6  C   UNL A   1      32.316  24.620  25.302  1.00  0.00     0.090 C 
ATOM      7  C   UNL A   1      30.918  24.028  25.224  1.00  0.00     0.031 C 
BRANCH   6   8
ATOM      8  N   UNL A   1      33.033  24.677  24.009  1.00  0.00    -0.349 N 
ATOM      9  C   UNL A   1      33.624  23.742  23.209  1.00  0.00     0.257 C 
ATOM     10  O   UNL A   1      33.716  23.972  22.005  1.00  0.00    -0.269 OA
ATOM     11  H   UNL A   1      33.095  25.589  23.644  1.00  0.00     0.164 HD
BRANCH   9  12
ATOM     12  C   UNL A   1      34.213  22.507  23.775  1.00  0.00     0.111 A 
ATOM     13  C   UNL A   1      37.352  20.840  24.833  1.00  0.00     0.069 C 
ATOM     14  C   UNL A   1      35.865  21.116  24.802  1.00  0.00     0.062 A 
ATOM     15  N   UNL A   1      35.070  20.126  25.049  1.00  0.00    -0.175 NA
ATOM     16  C   UNL A   1      35.403  22.471  24.398  1.00  0.00    -0.010 A 
ATOM     17  N   UNL A   1      33.744  20.324  24.765  1.00  0.00    -0.232 N 
ATOM     18  C   UNL A   1      36.271  23.622  24.776  1.00  0.00     0.047 C 
ATOM     19  C   UNL A   1      32.829  19.308  25.245  1.00  0.00     0.178 C 
ATOM     20  C   UNL A   1      33.299  21.330  23.911  1.00  0.00     0.279 A 
ATOM     21  O   UNL A   1      32.200  21.307  23.362  1.00  0.00    -0.267 OA
ENDBRANCH   9  12
ENDBRANCH   6   8
ENDBRANCH   5   6
ENDBRANCH   3   5
ENDBRANCH   2   3
ENDBRANCH   1   2
BRANCH   1  22
ATOM     22  C   UNL A   1      32.529  30.160  26.883  1.00  0.00     0.275 C 
BRANCH  22  23
ATOM     23  O   UNL A   1      33.963  30.075  26.898  1.00  0.00    -0.458 OA
BRANCH  23  24
ATOM     24  C   UNL A   1      34.567  30.787  27.875  1.00  0.00     0.338 C 
ATOM     25  O   UNL A   1      34.093  31.706  28.527  1.00  0.00    -0.246 OA
BRANCH  24  26
ATOM     26  C   UNL A   1      35.875  30.199  28.172  1.00  0.00     0.060 A 
ATOM     27  C   UNL A   1      36.110  29.751  29.472  1.00  0.00     0.016 A 
ATOM     28  C   UNL A   1      36.893  30.192  27.220  1.00  0.00     0.016 A 
ATOM     29  C   UNL A   1      37.374  29.325  29.847  1.00  0.00     0.010 A 
ATOM     30  C   UNL A   1      38.159  29.728  27.588  1.00  0.00     0.010 A 
ATOM     31  C   UNL A   1      38.408  29.311  28.907  1.00  0.00    -0.014 A 
BRANCH  31  32
ATOM     32  C   UNL A   1      39.760  28.899  29.339  1.00  0.00     0.031 A 
ATOM     33  C   UNL A   1      40.563  29.803  30.225  1.00  0.00     0.074 A 
ATOM     34  C   UNL A   1      40.230  27.690  28.977  1.00  0.00     0.049 A 
ATOM     35  N   UNL A   1      41.792  29.662  30.645  1.00  0.00    -0.248 NA
ATOM     36  C   UNL A   1      39.896  31.025  30.706  1.00  0.00     0.031 C 
ATOM     37  C   UNL A   1      39.495  26.702  28.184  1.00  0.00     0.029 A 
ATOM     38  N   UNL A   1      41.428  27.082  29.242  1.00  0.00    -0.354 N 
ATOM     39  C   UNL A   1      42.059  30.790  31.412  1.00  0.00     0.074 A 
ATOM     40  C   UNL A   1      40.866  31.607  31.396  1.00  0.00     0.031 C 
ATOM     41  C   UNL A   1      40.252  25.601  28.045  1.00  0.00     0.029 A 
ATOM     42  C   UNL A   1      41.544  25.831  28.683  1.00  0.00     0.049 A 
ATOM     43  H   UNL A   1      42.139  27.499  29.779  1.00  0.00     0.167 HD
ATOM     44  C   UNL A   1      43.201  31.111  32.063  1.00  0.00     0.031 A 
ATOM     45  C   UNL A   1      42.586  24.979  28.662  1.00  0.00     0.031 A 
ATOM     46  C   UNL A   1      44.376  30.282  32.072  1.00  0.00     0.049 A 
ATOM     47  C   UNL A   1      43.865  25.389  29.332  1.00  0.00     0.074 A 
ATOM     48  C   UNL A   1      45.594  30.520  32.683  1.00  0.00     0.029 A 
ATOM     49  N   UNL A   1      44.476  29.051  31.441  1.00  0.00    -0.354 N 
ATOM     50  N   UNL A   1      44.122  26.483  30.009  1.00  0.00    -0.248 NA
ATOM     51  C   UNL A   1      44.999  24.463  29.221  1.00  0.00     0.031 C 
ATOM     52  C   UNL A   1      46.444  29.448  32.387  1.00  0.00     0.029 A 
ATOM     53  C   UNL A   1      45.741  28.524  31.630  1.00  0.00     0.049 A 
ATOM     54  H   UNL A   1      43.753  28.616  30.934  1.00  0.00     0.167 HD
ATOM     55  C   UNL A   1      45.448  26.378  30.408  1.00  0.00     0.074 A 
ATOM     56  C   UNL A   1      45.934  25.104  29.913  1.00  0.00     0.031 C 
ATOM     57  C   UNL A   1      46.199  27.259  31.115  1.00  0.00     0.031 A 
BRANCH  44  58
ATOM     58  C   UNL A   1      43.243  32.434  32.775  1.00  0.00    -0.014 A 
ATOM     59  C   UNL A   1      42.878  32.549  34.128  1.00  0.00     0.010 A 
ATOM     60  C   UNL A   1      43.672  33.580  32.080  1.00  0.00     0.010 A 
ATOM     61  C   UNL A   1      42.908  33.794  34.763  1.00  0.00     0.020 A 
ATOM     62  C   UNL A   1      43.723  34.822  32.718  1.00  0.00     0.020 A 
ATOM     63  C   UNL A   1      43.325  34.924  34.052  1.00  0.00     0.054 A 
BRANCH  63  64
ATOM     64  S   UNL A   1      43.361  36.527  34.903  1.00  0.00     0.124 S 
ATOM     65  O   UNL A   1      42.591  36.244  36.111  1.00  0.00    -0.237 OA
ATOM     66  O   UNL A   1      44.790  36.749  35.107  1.00  0.00    -0.237 OA
ATOM     67  O   UNL A   1      42.721  37.436  33.955  1.00  0.00    -0.744 OA
ENDBRANCH  63  64
ENDBRANCH  44  58
BRANCH  45  68
ATOM     68  C   UNL A   1      42.459  23.681  27.948  1.00  0.00    -0.014 A 
ATOM     69  C   UNL A   1      42.999  23.517  26.662  1.00  0.00     0.010 A 
ATOM     70  C   UNL A   1      41.845  22.583  28.579  1.00  0.00     0.010 A 
ATOM     71  C   UNL A   1      42.936  22.276  26.023  1.00  0.00     0.020 A 
ATOM     72  C   UNL A   1      41.799  21.335  27.951  1.00  0.00     0.020 A 
ATOM     73  C   UNL A   1      42.342  21.190  26.674  1.00  0.00     0.054 A 
BRANCH  73  74
ATOM     74  S   UNL A   1      42.350  19.567  25.862  1.00  0.00     0.124 S 
ATOM     75  O   UNL A   1      43.352  19.755  24.818  1.00  0.00    -0.237 OA
ATOM     76  O   UNL A   1      42.729  18.670  26.950  1.00  0.00    -0.237 OA
ATOM     77  O   UNL A   1      40.974  19.415  25.391  1.00  0.00    -0.744 OA
ENDBRANCH  73  74
ENDBRANCH  45  68
BRANCH  57  78
ATOM     78  C   UNL A   1      47.624  26.875  31.394  1.00  0.00    -0.014 A 
ATOM     79  C   UNL A   1      47.937  26.000  32.448  1.00  0.00     0.010 A 
ATOM     80  C   UNL A   1      48.648  27.330  30.544  1.00  0.00     0.010 A 
ATOM     81  C   UNL A   1      49.256  25.594  32.655  1.00  0.00     0.020 A 
ATOM     82  C   UNL A   1      49.965  26.909  30.736  1.00  0.00     0.020 A 
ATOM     83  C   UNL A   1      50.262  26.049  31.796  1.00  0.00     0.054 A 
BRANCH  83  84
ATOM     84  S   UNL A   1      51.956  25.452  32.044  1.00  0.00     0.124 S 
ATOM     85  O   UNL A   1      52.545  25.651  30.723  1.00  0.00    -0.237 OA
ATOM     86  O   UNL A   1      52.457  26.336  33.095  1.00  0.00    -0.237 OA
ATOM     87  O   UNL A   1      51.777  24.058  32.444  1.00  0.00    -0.744 OA
ENDBRANCH  83  84
ENDBRANCH  57  78
ENDBRANCH  31  32
ENDBRANCH  24  26
ENDBRANCH  23  24
ENDBRANCH  22  23
ENDBRANCH   1  22
TORSDOF 17
ENDMDL
MODEL 2
REMARK VINA RESULT:     -10.2      1.988      2.484
REMARK SMILES Cc1nn(C)c(=O)c(C(=O)N[C@H](C)CC(=O)OCCOC(=O)c2ccc(-c3c4nc(c(-c5ccc(S(=O)(=O)[O-])cc5)c5ccc([nH]5)c(-c5ccc(S(=O)(=O)[O-])cc5)c5nc(c(-c6ccc(S(=O)(=O)[O-])cc6)c6ccc3[nH]6)C=C5)C=C4)cc2)c1C
REMARK SMILES IDX 18 1 17 2 15 3 16 4 14 5 12 6 13 7 11 8 9 9 10 10 8 12 1 13
REMARK SMILES IDX 2 14 3 15 83 16 4 17 84 18 5 19 6 20 7 21 19 22 20 23 21 24
REMARK SMILES IDX 22 25 23 26 24 27 82 28 25 29 81 30 26 31 27 32 28 33 75 34
REMARK SMILES IDX 29 35 80 36 74 37 76 38 30 39 79 40 73 41 72 42 31 44 61 45
REMARK SMILES IDX 42 46 60 47 43 48 46 49 59 50 77 51 44 52 45 53 58 55 78 56
REMARK SMILES IDX 47 57 32 58 33 59 41 60 34 61 40 62 35 63 36 64 37 65 38 66
REMARK SMILES IDX 39 67 62 68 63 69 71 70 64 71 70 72 65 73 66 74 67 75 68 76
REMARK SMILES IDX 69 77 48 78 49 79 57 80 50 81 56 82 51 83 52 84 53 85 54 86
REMARK SMILES IDX 55 87
REMARK H PARENT 11 11 76 43 46 54
REMARK Flexibility Score: inf
ROOT
ATOM      1  C   UNL A   1      31.765  29.727  25.625  1.00  0.00     0.274 C 
ENDROOT
BRANCH   1   2
ATOM      2  O   UNL A   1      31.652  28.305  25.850  1.00  0.00    -0.462 OA
BRANCH   2   3
ATOM      3  C   UNL A   1      32.676  27.555  25.393  1.00  0.00     0.307 C 
ATOM      4  O   UNL A   1      33.431  27.904  24.489  1.00  0.00    -0.252 OA
BRANCH   3   5
ATOM      5  C   UNL A   1      32.803  26.179  26.003  1.00  0.00     0.147 C 
BRANCH   5   6
ATOM      6  C   UNL A   1      32.481  24.862  25.282  1.00  0.00     0.090 C 
ATOM      7  C   UNL A   1      31.052  24.349  25.214  1.00  0.00     0.031 C 
BRANCH   6   8
ATOM      8  N   UNL A   1      33.189  24.886  23.983  1.00  0.00    -0.349 N 
ATOM      9  C   UNL A   1      33.743  23.927  23.186  1.00  0.00     0.257 C 
ATOM     10  O   UNL A   1      33.832  24.146  21.979  1.00  0.00    -0.269 OA
ATOM     11  H   UNL A   1      33.279  25.794  23.612  1.00  0.00     0.164 HD
BRANCH   9  12
ATOM     12  C   UNL A   1      34.294  22.677  23.755  1.00  0.00     0.111 A 
ATOM     13  C   UNL A   1      37.382  20.923  24.823  1.00  0.00     0.069 C 
ATOM     14  C   UNL A   1      35.903  21.241  24.788  1.00  0.00     0.062 A 
ATOM     15  N   UNL A   1      35.080  20.275  25.036  1.00  0.00    -0.175 NA
ATOM     16  C   UNL A   1      35.482  22.608  24.381  1.00  0.00    -0.010 A 
ATOM     17  N   UNL A   1      33.761  20.511  24.749  1.00  0.00    -0.232 N 
ATOM     18  C   UNL A   1      36.381  23.735  24.758  1.00  0.00     0.047 C 
ATOM     19  C   UNL A   1      32.816  19.522  25.229  1.00  0.00     0.178 C 
ATOM     20  C   UNL A   1      33.347  21.527  23.892  1.00  0.00     0.279 A 
ATOM     21  O   UNL A   1      32.248  21.535  23.341  1.00  0.00    -0.267 OA
ENDBRANCH   9  12
ENDBRANCH   6   8
ENDBRANCH   5   6
ENDBRANCH   3   5
ENDBRANCH   2   3
ENDBRANCH   1   2
BRANCH   1  22
ATOM     22  C   UNL A   1      32.302  30.451  26.860  1.00  0.00     0.275 C 
BRANCH  22  23
ATOM     23  O   UNL A   1      33.736  30.540  26.832  1.00  0.00    -0.458 OA
BRANCH  23  24
ATOM     24  C   UNL A   1      34.264  31.483  27.643  1.00  0.00     0.338 C 
ATOM     25  O   UNL A   1      33.732  32.512  28.033  1.00  0.00    -0.246 OA
BRANCH  24  26
ATOM     26  C   UNL A   1      35.567  31.030  28.135  1.00  0.00     0.060 A 
ATOM     27  C   UNL A   1      35.648  29.753  28.689  1.00  0.00     0.016 A 
ATOM     28  C   UNL A   1      36.665  31.888  28.158  1.00  0.00     0.016 A 
ATOM     29  C   UNL A   1      36.814  29.329  29.305  1.00  0.00     0.010 A 
ATOM     30  C   UNL A   1      37.854  31.448  28.746  1.00  0.00     0.010 A 
ATOM     31  C   UNL A   1      37.927  30.175  29.338  1.00  0.00    -0.014 A 
BRANCH  31  32
ATOM     32  C   UNL A   1      39.146  29.724  30.040  1.00  0.00     0.031 A 
ATOM     33  C   UNL A   1      39.539  30.373  31.334  1.00  0.00     0.074 A 
ATOM     34  C   UNL A   1      39.857  28.696  29.539  1.00  0.00     0.049 A 
ATOM     35  N   UNL A   1      40.608  30.179  32.059  1.00  0.00    -0.248 NA
ATOM     36  C   UNL A   1      38.606  31.369  31.887  1.00  0.00     0.031 C 
ATOM     37  C   UNL A   1      39.514  27.943  28.330  1.00  0.00     0.029 A 
ATOM     38  N   UNL A   1      41.003  28.099  29.991  1.00  0.00    -0.354 N 
ATOM     39  C   UNL A   1      40.495  31.050  33.136  1.00  0.00     0.074 A 
ATOM     40  C   UNL A   1      39.256  31.776  32.969  1.00  0.00     0.031 C 
ATOM     41  C   UNL A   1      40.420  26.969  28.149  1.00  0.00     0.029 A 
ATOM     42  C   UNL A   1      41.438  27.070  29.189  1.00  0.00     0.049 A 
ATOM     43  H   UNL A   1      41.472  28.379  30.809  1.00  0.00     0.167 HD
ATOM     44  C   UNL A   1      41.355  31.226  34.166  1.00  0.00     0.031 A 
ATOM     45  C   UNL A   1      42.549  26.314  29.268  1.00  0.00     0.031 A 
ATOM     46  C   UNL A   1      42.581  30.490  34.319  1.00  0.00     0.049 A 
ATOM     47  C   UNL A   1      43.522  26.577  30.381  1.00  0.00     0.074 A 
ATOM     48  C   UNL A   1      43.535  30.602  35.314  1.00  0.00     0.029 A 
ATOM     49  N   UNL A   1      43.019  29.500  33.452  1.00  0.00    -0.354 N 
ATOM     50  N   UNL A   1      43.429  27.440  31.364  1.00  0.00    -0.248 NA
ATOM     51  C   UNL A   1      44.756  25.780  30.386  1.00  0.00     0.031 C 
ATOM     52  C   UNL A   1      44.570  29.706  35.026  1.00  0.00     0.029 A 
ATOM     53  C   UNL A   1      44.238  29.005  33.876  1.00  0.00     0.049 A 
ATOM     54  H   UNL A   1      42.532  29.194  32.653  1.00  0.00     0.167 HD
ATOM     55  C   UNL A   1      44.592  27.292  32.109  1.00  0.00     0.074 A 
ATOM     56  C   UNL A   1      45.363  26.241  31.473  1.00  0.00     0.031 C 
ATOM     57  C   UNL A   1      44.988  27.967  33.216  1.00  0.00     0.031 A 
BRANCH  44  58
ATOM     58  C   UNL A   1      41.017  32.287  35.175  1.00  0.00    -0.014 A 
ATOM     59  C   UNL A   1      40.294  31.984  36.342  1.00  0.00     0.010 A 
ATOM     60  C   UNL A   1      41.448  33.610  34.958  1.00  0.00     0.010 A 
ATOM     61  C   UNL A   1      39.976  32.993  37.257  1.00  0.00     0.020 A 
ATOM     62  C   UNL A   1      41.149  34.616  35.881  1.00  0.00     0.020 A 
ATOM     63  C   UNL A   1      40.401  34.304  37.017  1.00  0.00     0.054 A 
BRANCH  63  64
ATOM     64  S   UNL A   1      39.981  35.592  38.224  1.00  0.00     0.124 S 
ATOM     65  O   UNL A   1      41.183  35.632  39.053  1.00  0.00    -0.237 OA
ATOM     66  O   UNL A   1      39.763  36.764  37.380  1.00  0.00    -0.237 OA
ATOM     67  O   UNL A   1      38.787  35.072  38.884  1.00  0.00    -0.744 OA
ENDBRANCH  63  64
ENDBRANCH  44  58
BRANCH  45  68
ATOM     68  C   UNL A   1      42.803  25.272  28.238  1.00  0.00    -0.014 A 
ATOM     69  C   UNL A   1      43.590  25.560  27.110  1.00  0.00     0.010 A 
ATOM     70  C   UNL A   1      42.305  23.967  28.412  1.00  0.00     0.010 A 
ATOM     71  C   UNL A   1      43.881  24.559  26.179  1.00  0.00     0.020 A 
ATOM     72  C   UNL A   1      42.612  22.960  27.494  1.00  0.00     0.020 A 
ATOM     73  C   UNL A   1      43.396  23.263  26.380  1.00  0.00     0.054 A 
BRANCH  73  74
ATOM     74  S   UNL A   1      43.860  21.959  25.205  1.00  0.00     0.124 S 
ATOM     75  O   UNL A   1      45.213  21.627  25.639  1.00  0.00    -0.237 OA
ATOM     76  O   UNL A   1      42.847  20.936  25.451  1.00  0.00    -0.237 OA
ATOM     77  O   UNL A   1      43.762  22.621  23.905  1.00  0.00    -0.744 OA
ENDBRANCH  73  74
ENDBRANCH  45  68
BRANCH  57  78
ATOM     78  C   UNL A   1      46.316  27.592  33.809  1.00  0.00    -0.014 A 
ATOM     79  C   UNL A   1      46.413  26.547  34.744  1.00  0.00     0.010 A 
ATOM     80  C   UNL A   1      47.485  28.234  33.365  1.00  0.00     0.010 A 
ATOM     81  C   UNL A   1      47.661  26.159  35.236  1.00  0.00     0.020 A 
ATOM     82  C   UNL A   1      48.736  27.834  33.839  1.00  0.00     0.020 A 
ATOM     83  C   UNL A   1      48.814  26.803  34.779  1.00  0.00     0.054 A 
BRANCH  83  84
ATOM     84  S   UNL A   1      50.427  26.234  35.381  1.00  0.00     0.124 S 
ATOM     85  O   UNL A   1      50.261  24.783  35.369  1.00  0.00    -0.237 OA
ATOM     86  O   UNL A   1      51.350  26.768  34.381  1.00  0.00    -0.237 OA
ATOM     87  O   UNL A   1      50.536  26.839  36.706  1.00  0.00    -0.744 OA
ENDBRANCH  83  84
ENDBRANCH  57  78
ENDBRANCH  31  32
ENDBRANCH  24  26
ENDBRANCH  23  24
ENDBRANCH  22  23
ENDBRANCH   1  22
TORSDOF 17
ENDMDL
MODEL 3
REMARK VINA RESULT:     -10.2      2.722      9.322
REMARK SMILES Cc1nn(C)c(=O)c(C(=O)N[C@H](C)CC(=O)OCCOC(=O)c2ccc(-c3c4nc(c(-c5ccc(S(=O)(=O)[O-])cc5)c5ccc([nH]5)c(-c5ccc(S(=O)(=O)[O-])cc5)c5nc(c(-c6ccc(S(=O)(=O)[O-])cc6)c6ccc3[nH]6)C=C5)C=C4)cc2)c1C
REMARK SMILES IDX 18 1 17 2 15 3 16 4 14 5 12 6 13 7 11 8 9 9 10 10 8 12 1 13
REMARK SMILES IDX 2 14 3 15 83 16 4 17 84 18 5 19 6 20 7 21 19 22 20 23 21 24
REMARK SMILES IDX 22 25 23 26 24 27 82 28 25 29 81 30 26 31 27 32 28 33 75 34
REMARK SMILES IDX 29 35 80 36 74 37 76 38 30 39 79 40 73 41 72 42 31 44 61 45
REMARK SMILES IDX 42 46 60 47 43 48 46 49 59 50 77 51 44 52 45 53 58 55 78 56
REMARK SMILES IDX 47 57 32 58 33 59 41 60 34 61 40 62 35 63 36 64 37 65 38 66
REMARK SMILES IDX 39 67 62 68 63 69 71 70 64 71 70 72 65 73 66 74 67 75 68 76
REMARK SMILES IDX 69 77 48 78 49 79 57 80 50 81 56 82 51 83 52 84 53 85 54 86
REMARK SMILES IDX 55 87
REMARK H PARENT 11 11 76 43 46 54
REMARK Flexibility Score: inf
ROOT
ATOM      1  C   UNL A   1      35.879  21.804  25.036  1.00  0.00     0.274 C 
ENDROOT
BRANCH   1   2
ATOM      2  O   UNL A   1      34.605  21.713  24.362  1.00  0.00    -0.462 OA
BRANCH   2   3
ATOM      3  C   UNL A   1      33.547  21.416  25.144  1.00  0.00     0.307 C 
ATOM      4  O   UNL A   1      33.306  20.289  25.570  1.00  0.00    -0.252 OA
BRANCH   3   5
ATOM      5  C   UNL A   1      32.589  22.552  25.410  1.00  0.00     0.147 C 
BRANCH   5   6
ATOM      6  C   UNL A   1      32.893  23.775  26.289  1.00  0.00     0.090 C 
ATOM      7  C   UNL A   1      33.805  24.881  25.783  1.00  0.00     0.031 C 
BRANCH   6   8
ATOM      8  N   UNL A   1      31.607  24.245  26.849  1.00  0.00    -0.349 N 
ATOM      9  C   UNL A   1      30.572  24.986  26.357  1.00  0.00     0.257 C 
ATOM     10  O   UNL A   1      29.453  24.828  26.842  1.00  0.00    -0.269 OA
ATOM     11  H   UNL A   1      31.467  23.960  27.781  1.00  0.00     0.164 HD
BRANCH   9  12
ATOM     12  C   UNL A   1      30.789  26.013  25.312  1.00  0.00     0.111 A 
ATOM     13  C   UNL A   1      31.030  29.648  24.623  1.00  0.00     0.069 C 
ATOM     14  C   UNL A   1      31.268  28.171  24.401  1.00  0.00     0.062 A 
ATOM     15  N   UNL A   1      31.423  27.769  23.181  1.00  0.00    -0.175 NA
ATOM     16  C   UNL A   1      31.215  27.260  25.576  1.00  0.00    -0.010 A 
ATOM     17  N   UNL A   1      31.378  26.415  22.976  1.00  0.00    -0.232 N 
ATOM     18  C   UNL A   1      31.688  27.807  26.879  1.00  0.00     0.047 C 
ATOM     19  C   UNL A   1      31.770  25.955  21.659  1.00  0.00     0.178 C 
ATOM     20  C   UNL A   1      30.815  25.532  23.895  1.00  0.00     0.279 A 
ATOM     21  O   UNL A   1      30.436  24.402  23.596  1.00  0.00    -0.267 OA
ENDBRANCH   9  12
ENDBRANCH   6   8
ENDBRANCH   5   6
ENDBRANCH   3   5
ENDBRANCH   2   3
ENDBRANCH   1   2
BRANCH   1  22
ATOM     22  C   UNL A   1      36.835  22.749  24.307  1.00  0.00     0.275 C 
BRANCH  22  23
ATOM     23  O   UNL A   1      37.456  23.670  25.218  1.00  0.00    -0.458 OA
BRANCH  23  24
ATOM     24  C   UNL A   1      38.544  23.191  25.859  1.00  0.00     0.338 C 
ATOM     25  O   UNL A   1      39.054  22.087  25.738  1.00  0.00    -0.246 OA
BRANCH  24  26
ATOM     26  C   UNL A   1      39.154  24.261  26.652  1.00  0.00     0.060 A 
ATOM     27  C   UNL A   1      38.780  24.375  27.991  1.00  0.00     0.016 A 
ATOM     28  C   UNL A   1      39.992  25.205  26.063  1.00  0.00     0.016 A 
ATOM     29  C   UNL A   1      39.209  25.454  28.748  1.00  0.00     0.010 A 
ATOM     30  C   UNL A   1      40.455  26.274  26.835  1.00  0.00     0.010 A 
ATOM     31  C   UNL A   1      40.049  26.412  28.175  1.00  0.00    -0.014 A 
BRANCH  31  32
ATOM     32  C   UNL A   1      40.457  27.580  28.983  1.00  0.00     0.031 A 
ATOM     33  C   UNL A   1      41.812  27.600  29.626  1.00  0.00     0.074 A 
ATOM     34  C   UNL A   1      39.629  28.637  29.083  1.00  0.00     0.049 A 
ATOM     35  N   UNL A   1      42.324  28.488  30.435  1.00  0.00    -0.248 NA
ATOM     36  C   UNL A   1      42.709  26.474  29.317  1.00  0.00     0.031 C 
ATOM     37  C   UNL A   1      38.324  28.751  28.428  1.00  0.00     0.029 A 
ATOM     38  N   UNL A   1      39.769  29.820  29.758  1.00  0.00    -0.354 N 
ATOM     39  C   UNL A   1      43.591  28.016  30.758  1.00  0.00     0.074 A 
ATOM     40  C   UNL A   1      43.767  26.760  30.063  1.00  0.00     0.031 C 
ATOM     41  C   UNL A   1      37.792  29.950  28.718  1.00  0.00     0.029 A 
ATOM     42  C   UNL A   1      38.688  30.659  29.626  1.00  0.00     0.049 A 
ATOM     43  H   UNL A   1      40.566  30.049  30.288  1.00  0.00     0.167 HD
ATOM     44  C   UNL A   1      44.515  28.581  31.568  1.00  0.00     0.031 A 
ATOM     45  C   UNL A   1      38.435  31.851  30.197  1.00  0.00     0.031 A 
ATOM     46  C   UNL A   1      44.323  29.834  32.248  1.00  0.00     0.049 A 
ATOM     47  C   UNL A   1      39.446  32.423  31.147  1.00  0.00     0.074 A 
ATOM     48  C   UNL A   1      45.187  30.489  33.108  1.00  0.00     0.029 A 
ATOM     49  N   UNL A   1      43.188  30.624  32.139  1.00  0.00    -0.354 N 
ATOM     50  N   UNL A   1      40.618  31.941  31.487  1.00  0.00    -0.248 NA
ATOM     51  C   UNL A   1      39.097  33.689  31.805  1.00  0.00     0.031 C 
ATOM     52  C   UNL A   1      44.555  31.657  33.550  1.00  0.00     0.029 A 
ATOM     53  C   UNL A   1      43.318  31.750  32.930  1.00  0.00     0.049 A 
ATOM     54  H   UNL A   1      42.406  30.413  31.580  1.00  0.00     0.167 HD
ATOM     55  C   UNL A   1      41.149  32.844  32.399  1.00  0.00     0.074 A 
ATOM     56  C   UNL A   1      40.179  33.912  32.542  1.00  0.00     0.031 C 
ATOM     57  C   UNL A   1      42.330  32.791  33.062  1.00  0.00     0.031 A 
BRANCH  44  58
ATOM     58  C   UNL A   1      45.792  27.822  31.797  1.00  0.00    -0.014 A 
ATOM     59  C   UNL A   1      46.916  28.015  30.975  1.00  0.00     0.010 A 
ATOM     60  C   UNL A   1      45.872  26.910  32.867  1.00  0.00     0.010 A 
ATOM     61  C   UNL A   1      48.086  27.282  31.197  1.00  0.00     0.020 A 
ATOM     62  C   UNL A   1      47.047  26.192  33.103  1.00  0.00     0.020 A 
ATOM     63  C   UNL A   1      48.142  26.371  32.256  1.00  0.00     0.054 A 
BRANCH  63  64
ATOM     64  S   UNL A   1      49.675  25.439  32.526  1.00  0.00     0.124 S 
ATOM     65  O   UNL A   1      49.224  24.366  33.408  1.00  0.00    -0.237 OA
ATOM     66  O   UNL A   1      50.043  25.027  31.174  1.00  0.00    -0.237 OA
ATOM     67  O   UNL A   1      50.570  26.416  33.142  1.00  0.00    -0.744 OA
ENDBRANCH  63  64
ENDBRANCH  44  58
BRANCH  45  68
ATOM     68  C   UNL A   1      37.153  32.547  29.907  1.00  0.00    -0.014 A 
ATOM     69  C   UNL A   1      36.009  32.288  30.680  1.00  0.00     0.010 A 
ATOM     70  C   UNL A   1      37.089  33.518  28.890  1.00  0.00     0.010 A 
ATOM     71  C   UNL A   1      34.825  32.994  30.446  1.00  0.00     0.020 A 
ATOM     72  C   UNL A   1      35.913  34.240  28.668  1.00  0.00     0.020 A 
ATOM     73  C   UNL A   1      34.786  33.971  29.446  1.00  0.00     0.054 A 
BRANCH  73  74
ATOM     74  S   UNL A   1      33.266  34.936  29.219  1.00  0.00     0.124 S 
ATOM     75  O   UNL A   1      32.537  34.129  28.245  1.00  0.00    -0.237 OA
ATOM     76  O   UNL A   1      32.703  34.963  30.567  1.00  0.00    -0.237 OA
ATOM     77  O   UNL A   1      33.750  36.225  28.729  1.00  0.00    -0.744 OA
ENDBRANCH  73  74
ENDBRANCH  45  68
BRANCH  57  78
ATOM     78  C   UNL A   1      42.639  33.919  34.004  1.00  0.00    -0.014 A 
ATOM     79  C   UNL A   1      42.444  33.772  35.387  1.00  0.00     0.010 A 
ATOM     80  C   UNL A   1      43.205  35.107  33.507  1.00  0.00     0.010 A 
ATOM     81  C   UNL A   1      42.801  34.801  36.260  1.00  0.00     0.020 A 
ATOM     82  C   UNL A   1      43.582  36.130  34.379  1.00  0.00     0.020 A 
ATOM     83  C   UNL A   1      43.370  35.973  35.751  1.00  0.00     0.054 A 
BRANCH  83  84
ATOM     84  S   UNL A   1      43.888  37.266  36.911  1.00  0.00     0.124 S 
ATOM     85  O   UNL A   1      45.092  36.685  37.497  1.00  0.00    -0.237 OA
ATOM     86  O   UNL A   1      44.107  38.415  36.035  1.00  0.00    -0.237 OA
ATOM     87  O   UNL A   1      42.751  37.392  37.820  1.00  0.00    -0.744 OA
ENDBRANCH  83  84
ENDBRANCH  57  78
ENDBRANCH  31  32
ENDBRANCH  24  26
ENDBRANCH  23  24
ENDBRANCH  22  23
ENDBRANCH   1  22
TORSDOF 17
ENDMDL
