MODEL 1
REMARK VINA RESULT:      -9.4      0.000      0.000
REMARK SMILES C[N@H+](CC(=O)OCCOC(=O)c1ccc(-c2c3nc(c(-c4ccc(S(=O)(=O)[O-])cc4)c4ccc([nH]4)c(-c4ccc(S(=O)(=O)[O-])cc4)c4nc(c(-c5ccc(S(=O)(=O)[O-])cc5)c5ccc2[nH]5)C=C4)C=C3)cc1)[C@@H]1CCC[C@@H]1O
REMARK SMILES IDX 7 1 6 2 4 3 5 4 3 5 2 6 1 7 72 9 73 10 76 11 74 12 75 13
REMARK SMILES IDX 77 14 8 16 9 17 10 18 11 19 12 20 13 21 71 22 14 23 70 24
REMARK SMILES IDX 15 25 16 26 17 27 64 28 18 29 69 30 63 31 65 32 19 33 68 34
REMARK SMILES IDX 62 35 61 36 20 38 50 39 31 40 49 41 32 42 35 43 48 44 66 45
REMARK SMILES IDX 33 46 34 47 47 49 67 50 36 51 21 52 22 53 30 54 23 55 29 56
REMARK SMILES IDX 24 57 25 58 26 59 27 60 28 61 51 62 52 63 60 64 53 65 59 66
REMARK SMILES IDX 54 67 55 68 56 69 57 70 58 71 37 72 38 73 46 74 39 75 45 76
REMARK SMILES IDX 40 77 41 78 42 79 43 80 44 81
REMARK H PARENT 2 8 77 15 65 37 35 48
REMARK Flexibility Score: inf
ROOT
ATOM      1  C   UNL A   1      41.271  19.580  27.443  1.00  0.00     0.274 C 
ENDROOT
BRANCH   1   2
ATOM      2  O   UNL A   1      42.667  19.612  27.091  1.00  0.00    -0.458 OA
BRANCH   2   3
ATOM      3  C   UNL A   1      43.020  18.927  25.969  1.00  0.00     0.361 C 
ATOM      4  O   UNL A   1      42.697  17.761  25.761  1.00  0.00    -0.245 OA
BRANCH   3   5
ATOM      5  C   UNL A   1      43.957  19.704  25.034  1.00  0.00     0.386 C 
BRANCH   5   6
ATOM      6  N   UNL A   1      45.210  20.219  25.647  1.00  0.00    -0.324 N 
ATOM      7  C   UNL A   1      46.334  19.304  25.372  1.00  0.00     0.333 C 
ATOM      8  H   UNL A   1      45.016  20.274  26.646  1.00  0.00     0.348 HD
BRANCH   6   9
ATOM      9  C   UNL A   1      45.593  21.590  25.193  1.00  0.00     0.213 C 
ATOM     10  C   UNL A   1      45.381  22.571  26.375  1.00  0.00     0.068 C 
ATOM     11  C   UNL A   1      44.779  22.358  24.110  1.00  0.00     0.172 C 
ATOM     12  C   UNL A   1      43.962  23.138  26.225  1.00  0.00     0.009 C 
ATOM     13  C   UNL A   1      43.501  22.764  24.822  1.00  0.00     0.038 C 
BRANCH  11  14
ATOM     14  O   UNL A   1      44.533  21.667  22.903  1.00  0.00    -0.387 OA
ATOM     15  H   UNL A   1      45.370  21.331  22.547  1.00  0.00     0.211 HD
ENDBRANCH  11  14
ENDBRANCH   6   9
ENDBRANCH   5   6
ENDBRANCH   3   5
ENDBRANCH   2   3
ENDBRANCH   1   2
BRANCH   1  16
ATOM     16  C   UNL A   1      40.384  20.126  26.321  1.00  0.00     0.275 C 
BRANCH  16  17
ATOM     17  O   UNL A   1      40.617  21.529  26.106  1.00  0.00    -0.458 OA
BRANCH  17  18
ATOM     18  C   UNL A   1      39.550  22.333  26.326  1.00  0.00     0.338 C 
ATOM     19  O   UNL A   1      38.377  22.070  26.130  1.00  0.00    -0.246 OA
BRANCH  18  20
ATOM     20  C   UNL A   1      40.002  23.591  26.942  1.00  0.00     0.060 A 
ATOM     21  C   UNL A   1      39.673  24.784  26.301  1.00  0.00     0.016 A 
ATOM     22  C   UNL A   1      40.826  23.599  28.069  1.00  0.00     0.016 A 
ATOM     23  C   UNL A   1      40.192  25.993  26.764  1.00  0.00     0.010 A 
ATOM     24  C   UNL A   1      41.339  24.817  28.539  1.00  0.00     0.010 A 
ATOM     25  C   UNL A   1      41.048  26.020  27.873  1.00  0.00    -0.014 A 
BRANCH  25  26
ATOM     26  C   UNL A   1      41.679  27.309  28.268  1.00  0.00     0.031 A 
ATOM     27  C   UNL A   1      43.154  27.527  28.048  1.00  0.00     0.074 A 
ATOM     28  C   UNL A   1      40.924  28.312  28.756  1.00  0.00     0.049 A 
ATOM     29  N   UNL A   1      43.877  28.592  28.290  1.00  0.00    -0.248 NA
ATOM     30  C   UNL A   1      43.914  26.402  27.481  1.00  0.00     0.031 C 
ATOM     31  C   UNL A   1      39.480  28.248  28.985  1.00  0.00     0.029 A 
ATOM     32  N   UNL A   1      41.265  29.590  29.125  1.00  0.00    -0.354 N 
ATOM     33  C   UNL A   1      45.176  28.262  27.924  1.00  0.00     0.074 A 
ATOM     34  C   UNL A   1      45.146  26.889  27.462  1.00  0.00     0.031 C 
ATOM     35  C   UNL A   1      39.055  29.440  29.433  1.00  0.00     0.029 A 
ATOM     36  C   UNL A   1      40.197  30.343  29.550  1.00  0.00     0.049 A 
ATOM     37  H   UNL A   1      42.187  29.933  29.089  1.00  0.00     0.167 HD
ATOM     38  C   UNL A   1      46.293  29.029  27.960  1.00  0.00     0.031 A 
ATOM     39  C   UNL A   1      40.139  31.617  29.986  1.00  0.00     0.031 A 
ATOM     40  C   UNL A   1      46.331  30.396  28.409  1.00  0.00     0.049 A 
ATOM     41  C   UNL A   1      41.395  32.444  30.032  1.00  0.00     0.074 A 
ATOM     42  C   UNL A   1      47.418  31.251  28.479  1.00  0.00     0.029 A 
ATOM     43  N   UNL A   1      45.232  31.112  28.856  1.00  0.00    -0.354 N 
ATOM     44  N   UNL A   1      42.615  32.110  29.686  1.00  0.00    -0.248 NA
ATOM     45  C   UNL A   1      41.262  33.824  30.519  1.00  0.00     0.031 C 
ATOM     46  C   UNL A   1      46.982  32.475  29.000  1.00  0.00     0.029 A 
ATOM     47  C   UNL A   1      45.616  32.395  29.215  1.00  0.00     0.049 A 
ATOM     48  H   UNL A   1      44.314  30.762  28.913  1.00  0.00     0.167 HD
ATOM     49  C   UNL A   1      43.392  33.244  29.897  1.00  0.00     0.074 A 
ATOM     50  C   UNL A   1      42.501  34.278  30.384  1.00  0.00     0.031 C 
ATOM     51  C   UNL A   1      44.724  33.414  29.704  1.00  0.00     0.031 A 
BRANCH  38  52
ATOM     52  C   UNL A   1      47.584  28.386  27.526  1.00  0.00    -0.014 A 
ATOM     53  C   UNL A   1      48.368  27.647  28.429  1.00  0.00     0.010 A 
ATOM     54  C   UNL A   1      48.002  28.500  26.188  1.00  0.00     0.010 A 
ATOM     55  C   UNL A   1      49.570  27.067  28.011  1.00  0.00     0.020 A 
ATOM     56  C   UNL A   1      49.191  27.903  25.761  1.00  0.00     0.020 A 
ATOM     57  C   UNL A   1      49.978  27.206  26.680  1.00  0.00     0.054 A 
BRANCH  57  58
ATOM     58  S   UNL A   1      51.536  26.438  26.156  1.00  0.00     0.124 S 
ATOM     59  O   UNL A   1      52.523  27.404  26.632  1.00  0.00    -0.237 OA
ATOM     60  O   UNL A   1      51.519  25.158  26.862  1.00  0.00    -0.237 OA
ATOM     61  O   UNL A   1      51.405  26.345  24.705  1.00  0.00    -0.744 OA
ENDBRANCH  57  58
ENDBRANCH  38  52
BRANCH  39  62
ATOM     62  C   UNL A   1      38.837  32.193  30.414  1.00  0.00    -0.014 A 
ATOM     63  C   UNL A   1      37.968  32.775  29.476  1.00  0.00     0.010 A 
ATOM     64  C   UNL A   1      38.457  32.151  31.768  1.00  0.00     0.010 A 
ATOM     65  C   UNL A   1      36.744  33.314  29.885  1.00  0.00     0.020 A 
ATOM     66  C   UNL A   1      37.225  32.669  32.176  1.00  0.00     0.020 A 
ATOM     67  C   UNL A   1      36.380  33.257  31.233  1.00  0.00     0.054 A 
BRANCH  67  68
ATOM     68  S   UNL A   1      34.762  33.905  31.738  1.00  0.00     0.124 S 
ATOM     69  O   UNL A   1      35.124  34.818  32.818  1.00  0.00    -0.237 OA
ATOM     70  O   UNL A   1      34.272  34.535  30.515  1.00  0.00    -0.237 OA
ATOM     71  O   UNL A   1      34.031  32.709  32.148  1.00  0.00    -0.744 OA
ENDBRANCH  67  68
ENDBRANCH  39  62
BRANCH  51  72
ATOM     72  C   UNL A   1      45.291  34.777  29.996  1.00  0.00    -0.014 A 
ATOM     73  C   UNL A   1      45.848  35.080  31.251  1.00  0.00     0.010 A 
ATOM     74  C   UNL A   1      45.280  35.764  28.994  1.00  0.00     0.010 A 
ATOM     75  C   UNL A   1      46.344  36.360  31.513  1.00  0.00     0.020 A 
ATOM     76  C   UNL A   1      45.794  37.038  29.245  1.00  0.00     0.020 A 
ATOM     77  C   UNL A   1      46.304  37.335  30.511  1.00  0.00     0.054 A 
BRANCH  77  78
ATOM     78  S   UNL A   1      46.961  38.989  30.865  1.00  0.00     0.124 S 
ATOM     79  O   UNL A   1      47.847  38.728  31.997  1.00  0.00    -0.237 OA
ATOM     80  O   UNL A   1      47.627  39.350  29.616  1.00  0.00    -0.237 OA
ATOM     81  O   UNL A   1      45.768  39.773  31.175  1.00  0.00    -0.744 OA
ENDBRANCH  77  78
ENDBRANCH  51  72
ENDBRANCH  25  26
ENDBRANCH  18  20
ENDBRANCH  17  18
ENDBRANCH  16  17
ENDBRANCH   1  16
TORSDOF 17
ENDMDL
MODEL 2
REMARK VINA RESULT:      -9.3      3.066     12.188
REMARK SMILES C[N@H+](CC(=O)OCCOC(=O)c1ccc(-c2c3nc(c(-c4ccc(S(=O)(=O)[O-])cc4)c4ccc([nH]4)c(-c4ccc(S(=O)(=O)[O-])cc4)c4nc(c(-c5ccc(S(=O)(=O)[O-])cc5)c5ccc2[nH]5)C=C4)C=C3)cc1)[C@@H]1CCC[C@@H]1O
REMARK SMILES IDX 7 1 6 2 4 3 5 4 3 5 2 6 1 7 72 9 73 10 76 11 74 12 75 13
REMARK SMILES IDX 77 14 8 16 9 17 10 18 11 19 12 20 13 21 71 22 14 23 70 24
REMARK SMILES IDX 15 25 16 26 17 27 64 28 18 29 69 30 63 31 65 32 19 33 68 34
REMARK SMILES IDX 62 35 61 36 20 38 50 39 31 40 49 41 32 42 35 43 48 44 66 45
REMARK SMILES IDX 33 46 34 47 47 49 67 50 36 51 21 52 22 53 30 54 23 55 29 56
REMARK SMILES IDX 24 57 25 58 26 59 27 60 28 61 51 62 52 63 60 64 53 65 59 66
REMARK SMILES IDX 54 67 55 68 56 69 57 70 58 71 37 72 38 73 46 74 39 75 45 76
REMARK SMILES IDX 40 77 41 78 42 79 43 80 44 81
REMARK H PARENT 2 8 77 15 65 37 35 48
REMARK Flexibility Score: inf
ROOT
ATOM      1  C   UNL A   1      34.397  31.617  27.992  1.00  0.00     0.274 C 
ENDROOT
BRANCH   1   2
ATOM      2  O   UNL A   1      35.236  32.775  27.825  1.00  0.00    -0.458 OA
BRANCH   2   3
ATOM      3  C   UNL A   1      35.200  33.694  28.828  1.00  0.00     0.361 C 
ATOM      4  O   UNL A   1      36.071  33.787  29.689  1.00  0.00    -0.245 OA
BRANCH   3   5
ATOM      5  C   UNL A   1      33.916  34.532  28.859  1.00  0.00     0.386 C 
BRANCH   5   6
ATOM      6  N   UNL A   1      33.955  35.755  29.704  1.00  0.00    -0.324 N 
ATOM      7  C   UNL A   1      33.553  36.939  28.921  1.00  0.00     0.333 C 
ATOM      8  H   UNL A   1      34.922  35.832  30.018  1.00  0.00     0.348 HD
BRANCH   6   9
ATOM      9  C   UNL A   1      33.097  35.680  30.925  1.00  0.00     0.213 C 
ATOM     10  C   UNL A   1      32.952  37.110  31.507  1.00  0.00     0.068 C 
ATOM     11  C   UNL A   1      33.567  34.954  32.220  1.00  0.00     0.172 C 
ATOM     12  C   UNL A   1      34.067  37.276  32.548  1.00  0.00     0.009 C 
ATOM     13  C   UNL A   1      34.618  35.878  32.806  1.00  0.00     0.038 C 
BRANCH  11  14
ATOM     14  O   UNL A   1      34.034  33.630  32.062  1.00  0.00    -0.387 OA
ATOM     15  H   UNL A   1      33.292  33.013  32.155  1.00  0.00     0.211 HD
ENDBRANCH  11  14
ENDBRANCH   6   9
ENDBRANCH   5   6
ENDBRANCH   3   5
ENDBRANCH   2   3
ENDBRANCH   1   2
BRANCH   1  16
ATOM     16  C   UNL A   1      35.194  30.313  27.896  1.00  0.00     0.275 C 
BRANCH  16  17
ATOM     17  O   UNL A   1      36.592  30.534  28.155  1.00  0.00    -0.458 OA
BRANCH  17  18
ATOM     18  C   UNL A   1      37.149  29.706  29.069  1.00  0.00     0.338 C 
ATOM     19  O   UNL A   1      36.633  29.277  30.086  1.00  0.00    -0.246 OA
BRANCH  18  20
ATOM     20  C   UNL A   1      38.488  29.300  28.613  1.00  0.00     0.060 A 
ATOM     21  C   UNL A   1      39.436  28.976  29.582  1.00  0.00     0.016 A 
ATOM     22  C   UNL A   1      38.844  29.340  27.263  1.00  0.00     0.016 A 
ATOM     23  C   UNL A   1      40.756  28.721  29.212  1.00  0.00     0.010 A 
ATOM     24  C   UNL A   1      40.170  29.073  26.892  1.00  0.00     0.010 A 
ATOM     25  C   UNL A   1      41.142  28.788  27.867  1.00  0.00    -0.014 A 
BRANCH  25  26
ATOM     26  C   UNL A   1      42.580  28.628  27.519  1.00  0.00     0.031 A 
ATOM     27  C   UNL A   1      43.548  29.756  27.771  1.00  0.00     0.074 A 
ATOM     28  C   UNL A   1      43.037  27.453  27.046  1.00  0.00     0.049 A 
ATOM     29  N   UNL A   1      44.842  29.794  27.572  1.00  0.00    -0.248 NA
ATOM     30  C   UNL A   1      42.989  31.001  28.320  1.00  0.00     0.031 C 
ATOM     31  C   UNL A   1      42.215  26.269  26.789  1.00  0.00     0.029 A 
ATOM     32  N   UNL A   1      44.309  27.054  26.718  1.00  0.00    -0.354 N 
ATOM     33  C   UNL A   1      45.249  31.067  27.951  1.00  0.00     0.074 A 
ATOM     34  C   UNL A   1      44.061  31.779  28.375  1.00  0.00     0.031 C 
ATOM     35  C   UNL A   1      43.007  25.271  26.368  1.00  0.00     0.029 A 
ATOM     36  C   UNL A   1      44.386  25.749  26.295  1.00  0.00     0.049 A 
ATOM     37  H   UNL A   1      45.092  27.648  26.780  1.00  0.00     0.167 HD
ATOM     38  C   UNL A   1      46.497  31.597  27.957  1.00  0.00     0.031 A 
ATOM     39  C   UNL A   1      45.443  25.016  25.894  1.00  0.00     0.031 A 
ATOM     40  C   UNL A   1      47.684  30.895  27.546  1.00  0.00     0.049 A 
ATOM     41  C   UNL A   1      46.816  25.632  25.893  1.00  0.00     0.074 A 
ATOM     42  C   UNL A   1      48.991  31.353  27.519  1.00  0.00     0.029 A 
ATOM     43  N   UNL A   1      47.714  29.584  27.099  1.00  0.00    -0.354 N 
ATOM     44  N   UNL A   1      47.178  26.840  26.251  1.00  0.00    -0.248 NA
ATOM     45  C   UNL A   1      47.924  24.778  25.442  1.00  0.00     0.031 C 
ATOM     46  C   UNL A   1      49.806  30.328  27.024  1.00  0.00     0.029 A 
ATOM     47  C   UNL A   1      49.013  29.218  26.783  1.00  0.00     0.049 A 
ATOM     48  H   UNL A   1      46.927  28.997  27.017  1.00  0.00     0.167 HD
ATOM     49  C   UNL A   1      48.557  26.886  26.086  1.00  0.00     0.074 A 
ATOM     50  C   UNL A   1      48.967  25.580  25.612  1.00  0.00     0.031 C 
ATOM     51  C   UNL A   1      49.409  27.919  26.306  1.00  0.00     0.031 A 
BRANCH  38  52
ATOM     52  C   UNL A   1      46.634  33.031  28.395  1.00  0.00    -0.014 A 
ATOM     53  C   UNL A   1      46.852  33.361  29.745  1.00  0.00     0.010 A 
ATOM     54  C   UNL A   1      46.572  34.060  27.439  1.00  0.00     0.010 A 
ATOM     55  C   UNL A   1      46.965  34.699  30.135  1.00  0.00     0.020 A 
ATOM     56  C   UNL A   1      46.706  35.397  27.822  1.00  0.00     0.020 A 
ATOM     57  C   UNL A   1      46.883  35.710  29.171  1.00  0.00     0.054 A 
BRANCH  57  58
ATOM     58  S   UNL A   1      47.042  37.439  29.698  1.00  0.00     0.124 S 
ATOM     59  O   UNL A   1      48.356  37.439  30.337  1.00  0.00    -0.237 OA
ATOM     60  O   UNL A   1      46.958  38.171  28.436  1.00  0.00    -0.237 OA
ATOM     61  O   UNL A   1      45.910  37.631  30.601  1.00  0.00    -0.744 OA
ENDBRANCH  57  58
ENDBRANCH  38  52
BRANCH  39  62
ATOM     62  C   UNL A   1      45.244  23.608  25.459  1.00  0.00    -0.014 A 
ATOM     63  C   UNL A   1      44.922  23.309  24.125  1.00  0.00     0.010 A 
ATOM     64  C   UNL A   1      45.386  22.557  26.383  1.00  0.00     0.010 A 
ATOM     65  C   UNL A   1      44.736  21.983  23.722  1.00  0.00     0.020 A 
ATOM     66  C   UNL A   1      45.224  21.230  25.979  1.00  0.00     0.020 A 
ATOM     67  C   UNL A   1      44.889  20.951  24.653  1.00  0.00     0.054 A 
BRANCH  67  68
ATOM     68  S   UNL A   1      44.706  19.232  24.101  1.00  0.00     0.124 S 
ATOM     69  O   UNL A   1      44.508  19.393  22.664  1.00  0.00    -0.237 OA
ATOM     70  O   UNL A   1      45.974  18.629  24.501  1.00  0.00    -0.237 OA
ATOM     71  O   UNL A   1      43.540  18.760  24.845  1.00  0.00    -0.744 OA
ENDBRANCH  67  68
ENDBRANCH  39  62
BRANCH  51  72
ATOM     72  C   UNL A   1      50.872  27.665  26.063  1.00  0.00    -0.014 A 
ATOM     73  C   UNL A   1      51.715  27.219  27.096  1.00  0.00     0.010 A 
ATOM     74  C   UNL A   1      51.407  27.859  24.777  1.00  0.00     0.010 A 
ATOM     75  C   UNL A   1      53.078  27.016  26.859  1.00  0.00     0.020 A 
ATOM     76  C   UNL A   1      52.764  27.636  24.530  1.00  0.00     0.020 A 
ATOM     77  C   UNL A   1      53.596  27.235  25.578  1.00  0.00     0.054 A 
BRANCH  77  78
ATOM     78  S   UNL A   1      55.365  26.957  25.285  1.00  0.00     0.124 S 
ATOM     79  O   UNL A   1      55.632  25.792  26.124  1.00  0.00    -0.237 OA
ATOM     80  O   UNL A   1      55.422  26.719  23.844  1.00  0.00    -0.237 OA
ATOM     81  O   UNL A   1      55.986  28.202  25.728  1.00  0.00    -0.744 OA
ENDBRANCH  77  78
ENDBRANCH  51  72
ENDBRANCH  25  26
ENDBRANCH  18  20
ENDBRANCH  17  18
ENDBRANCH  16  17
ENDBRANCH   1  16
TORSDOF 17
ENDMDL
MODEL 3
REMARK VINA RESULT:      -9.2      5.239      7.086
REMARK SMILES C[N@H+](CC(=O)OCCOC(=O)c1ccc(-c2c3nc(c(-c4ccc(S(=O)(=O)[O-])cc4)c4ccc([nH]4)c(-c4ccc(S(=O)(=O)[O-])cc4)c4nc(c(-c5ccc(S(=O)(=O)[O-])cc5)c5ccc2[nH]5)C=C4)C=C3)cc1)[C@@H]1CCC[C@@H]1O
REMARK SMILES IDX 7 1 6 2 4 3 5 4 3 5 2 6 1 7 72 9 73 10 76 11 74 12 75 13
REMARK SMILES IDX 77 14 8 16 9 17 10 18 11 19 12 20 13 21 71 22 14 23 70 24
REMARK SMILES IDX 15 25 16 26 17 27 64 28 18 29 69 30 63 31 65 32 19 33 68 34
REMARK SMILES IDX 62 35 61 36 20 38 50 39 31 40 49 41 32 42 35 43 48 44 66 45
REMARK SMILES IDX 33 46 34 47 47 49 67 50 36 51 21 52 22 53 30 54 23 55 29 56
REMARK SMILES IDX 24 57 25 58 26 59 27 60 28 61 51 62 52 63 60 64 53 65 59 66
REMARK SMILES IDX 54 67 55 68 56 69 57 70 58 71 37 72 38 73 46 74 39 75 45 76
REMARK SMILES IDX 40 77 41 78 42 79 43 80 44 81
REMARK H PARENT 2 8 77 15 65 37 35 48
REMARK Flexibility Score: inf
ROOT
ATOM      1  C   UNL A   1      46.150  23.784  26.097  1.00  0.00     0.274 C 
ENDROOT
BRANCH   1   2
ATOM      2  O   UNL A   1      46.339  22.840  25.026  1.00  0.00    -0.458 OA
BRANCH   2   3
ATOM      3  C   UNL A   1      45.723  21.635  25.171  1.00  0.00     0.361 C 
ATOM      4  O   UNL A   1      46.331  20.573  25.273  1.00  0.00    -0.245 OA
BRANCH   3   5
ATOM      5  C   UNL A   1      44.192  21.705  25.080  1.00  0.00     0.386 C 
BRANCH   5   6
ATOM      6  N   UNL A   1      43.444  21.054  26.188  1.00  0.00    -0.324 N 
ATOM      7  C   UNL A   1      42.577  22.033  26.872  1.00  0.00     0.333 C 
ATOM      8  H   UNL A   1      44.159  20.694  26.819  1.00  0.00     0.348 HD
BRANCH   6   9
ATOM      9  C   UNL A   1      42.605  19.895  25.760  1.00  0.00     0.213 C 
ATOM     10  C   UNL A   1      41.551  19.620  26.865  1.00  0.00     0.068 C 
ATOM     11  C   UNL A   1      43.187  18.456  25.637  1.00  0.00     0.172 C 
ATOM     12  C   UNL A   1      42.164  18.570  27.802  1.00  0.00     0.009 C 
ATOM     13  C   UNL A   1      43.378  18.007  27.073  1.00  0.00     0.038 C 
BRANCH  11  14
ATOM     14  O   UNL A   1      44.361  18.318  24.863  1.00  0.00    -0.387 OA
ATOM     15  H   UNL A   1      44.411  17.417  24.510  1.00  0.00     0.211 HD
ENDBRANCH  11  14
ENDBRANCH   6   9
ENDBRANCH   5   6
ENDBRANCH   3   5
ENDBRANCH   2   3
ENDBRANCH   1   2
BRANCH   1  16
ATOM     16  C   UNL A   1      45.241  24.945  25.684  1.00  0.00     0.275 C 
BRANCH  16  17
ATOM     17  O   UNL A   1      44.011  24.936  26.429  1.00  0.00    -0.458 OA
BRANCH  17  18
ATOM     18  C   UNL A   1      43.029  25.725  25.934  1.00  0.00     0.338 C 
ATOM     19  O   UNL A   1      42.607  25.746  24.791  1.00  0.00    -0.246 OA
BRANCH  18  20
ATOM     20  C   UNL A   1      42.449  26.529  27.021  1.00  0.00     0.060 A 
ATOM     21  C   UNL A   1      42.929  27.826  27.199  1.00  0.00     0.016 A 
ATOM     22  C   UNL A   1      41.529  25.988  27.920  1.00  0.00     0.016 A 
ATOM     23  C   UNL A   1      42.516  28.580  28.296  1.00  0.00     0.010 A 
ATOM     24  C   UNL A   1      41.106  26.752  29.019  1.00  0.00     0.010 A 
ATOM     25  C   UNL A   1      41.618  28.044  29.230  1.00  0.00    -0.014 A 
BRANCH  25  26
ATOM     26  C   UNL A   1      41.291  28.829  30.451  1.00  0.00     0.031 A 
ATOM     27  C   UNL A   1      42.168  28.727  31.672  1.00  0.00     0.074 A 
ATOM     28  C   UNL A   1      40.253  29.688  30.447  1.00  0.00     0.049 A 
ATOM     29  N   UNL A   1      42.069  29.358  32.816  1.00  0.00    -0.248 NA
ATOM     30  C   UNL A   1      43.303  27.794  31.598  1.00  0.00     0.031 C 
ATOM     31  C   UNL A   1      39.346  29.911  29.320  1.00  0.00     0.029 A 
ATOM     32  N   UNL A   1      39.802  30.549  31.416  1.00  0.00    -0.354 N 
ATOM     33  C   UNL A   1      43.114  28.889  33.602  1.00  0.00     0.074 A 
ATOM     34  C   UNL A   1      43.824  27.904  32.813  1.00  0.00     0.031 C 
ATOM     35  C   UNL A   1      38.462  30.866  29.654  1.00  0.00     0.029 A 
ATOM     36  C   UNL A   1      38.720  31.301  31.024  1.00  0.00     0.049 A 
ATOM     37  H   UNL A   1      40.214  30.622  32.307  1.00  0.00     0.167 HD
ATOM     38  C   UNL A   1      43.460  29.247  34.862  1.00  0.00     0.031 A 
ATOM     39  C   UNL A   1      38.012  32.235  31.690  1.00  0.00     0.031 A 
ATOM     40  C   UNL A   1      42.766  30.232  35.651  1.00  0.00     0.049 A 
ATOM     41  C   UNL A   1      38.405  32.604  33.094  1.00  0.00     0.074 A 
ATOM     42  C   UNL A   1      43.048  30.659  36.938  1.00  0.00     0.029 A 
ATOM     43  N   UNL A   1      41.660  30.949  35.227  1.00  0.00    -0.354 N 
ATOM     44  N   UNL A   1      39.395  32.144  33.821  1.00  0.00    -0.248 NA
ATOM     45  C   UNL A   1      37.591  33.628  33.762  1.00  0.00     0.031 C 
ATOM     46  C   UNL A   1      42.089  31.612  37.304  1.00  0.00     0.029 A 
ATOM     47  C   UNL A   1      41.238  31.809  36.229  1.00  0.00     0.049 A 
ATOM     48  H   UNL A   1      41.234  30.861  34.343  1.00  0.00     0.167 HD
ATOM     49  C   UNL A   1      39.331  32.835  35.026  1.00  0.00     0.074 A 
ATOM     50  C   UNL A   1      38.219  33.756  34.924  1.00  0.00     0.031 C 
ATOM     51  C   UNL A   1      40.125  32.716  36.120  1.00  0.00     0.031 A 
BRANCH  38  52
ATOM     52  C   UNL A   1      44.635  28.538  35.482  1.00  0.00    -0.014 A 
ATOM     53  C   UNL A   1      45.940  29.048  35.359  1.00  0.00     0.010 A 
ATOM     54  C   UNL A   1      44.426  27.361  36.222  1.00  0.00     0.010 A 
ATOM     55  C   UNL A   1      47.020  28.369  35.931  1.00  0.00     0.020 A 
ATOM     56  C   UNL A   1      45.500  26.692  36.814  1.00  0.00     0.020 A 
ATOM     57  C   UNL A   1      46.794  27.190  36.649  1.00  0.00     0.054 A 
BRANCH  57  58
ATOM     58  S   UNL A   1      48.209  26.331  37.391  1.00  0.00     0.124 S 
ATOM     59  O   UNL A   1      49.338  27.037  36.792  1.00  0.00    -0.237 OA
ATOM     60  O   UNL A   1      48.013  26.560  38.821  1.00  0.00    -0.237 OA
ATOM     61  O   UNL A   1      48.039  24.946  36.958  1.00  0.00    -0.744 OA
ENDBRANCH  57  58
ENDBRANCH  38  52
BRANCH  39  62
ATOM     62  C   UNL A   1      36.853  32.892  31.030  1.00  0.00    -0.014 A 
ATOM     63  C   UNL A   1      35.541  32.636  31.464  1.00  0.00     0.010 A 
ATOM     64  C   UNL A   1      37.061  33.789  29.966  1.00  0.00     0.010 A 
ATOM     65  C   UNL A   1      34.455  33.257  30.839  1.00  0.00     0.020 A 
ATOM     66  C   UNL A   1      35.979  34.429  29.356  1.00  0.00     0.020 A 
ATOM     67  C   UNL A   1      34.682  34.151  29.788  1.00  0.00     0.054 A 
BRANCH  67  68
ATOM     68  S   UNL A   1      33.267  34.997  29.030  1.00  0.00     0.124 S 
ATOM     69  O   UNL A   1      33.899  36.166  28.428  1.00  0.00    -0.237 OA
ATOM     70  O   UNL A   1      32.761  33.998  28.092  1.00  0.00    -0.237 OA
ATOM     71  O   UNL A   1      32.389  35.272  30.165  1.00  0.00    -0.744 OA
ENDBRANCH  67  68
ENDBRANCH  39  62
BRANCH  51  72
ATOM     72  C   UNL A   1      39.831  33.626  37.282  1.00  0.00    -0.014 A 
ATOM     73  C   UNL A   1      39.259  33.131  38.467  1.00  0.00     0.010 A 
ATOM     74  C   UNL A   1      40.148  34.994  37.192  1.00  0.00     0.010 A 
ATOM     75  C   UNL A   1      38.967  33.996  39.526  1.00  0.00     0.020 A 
ATOM     76  C   UNL A   1      39.877  35.858  38.256  1.00  0.00     0.020 A 
ATOM     77  C   UNL A   1      39.269  35.357  39.409  1.00  0.00     0.054 A 
BRANCH  77  78
ATOM     78  S   UNL A   1      38.892  36.464  40.797  1.00  0.00     0.124 S 
ATOM     79  O   UNL A   1      37.809  35.750  41.468  1.00  0.00    -0.237 OA
ATOM     80  O   UNL A   1      40.157  36.516  41.525  1.00  0.00    -0.237 OA
ATOM     81  O   UNL A   1      38.505  37.712  40.144  1.00  0.00    -0.744 OA
ENDBRANCH  77  78
ENDBRANCH  51  72
ENDBRANCH  25  26
ENDBRANCH  18  20
ENDBRANCH  17  18
ENDBRANCH  16  17
ENDBRANCH   1  16
TORSDOF 17
ENDMDL
