MODEL 1
REMARK VINA RESULT:     -11.8      0.000      0.000
REMARK SMILES Cc1nn(Cc2ccc(Cl)cc2Cl)c(C)c1NC(=O)c1c(C(=O)OCCOC(=O)c2ccc(-c3c4nc(c(-c5ccc(S(=O)(=O)[O-])cc5)c5ccc([nH]5)c(-c5ccc(S(=O)(=O)[O-])cc5)c5nc(c(-c6ccc(S(=O)(=O)[O-])cc6)c6ccc3[nH]6)C=C5)C=C4)cc2)cnn1C
REMARK SMILES IDX 25 1 24 2 22 3 23 4 21 5 20 6 92 7 90 8 91 9 93 10 18 11
REMARK SMILES IDX 17 12 19 14 16 15 1 16 2 17 3 18 4 19 14 20 15 21 5 22 6 23
REMARK SMILES IDX 7 24 12 25 8 26 11 27 13 28 9 29 10 30 26 31 27 32 28 33
REMARK SMILES IDX 29 34 30 35 31 36 89 37 32 38 88 39 33 40 34 41 35 42 82 43
REMARK SMILES IDX 36 44 87 45 81 46 83 47 37 48 86 49 80 50 79 51 38 53 68 54
REMARK SMILES IDX 49 55 67 56 50 57 53 58 66 59 84 60 51 61 52 62 65 64 85 65
REMARK SMILES IDX 54 66 39 67 40 68 48 69 41 70 47 71 42 72 43 73 44 74 45 75
REMARK SMILES IDX 46 76 69 77 70 78 78 79 71 80 77 81 72 82 73 83 74 84 75 85
REMARK SMILES IDX 76 86 55 87 56 88 64 89 57 90 63 91 58 92 59 93 60 94 61 95
REMARK SMILES IDX 62 96
REMARK H PARENT 17 13 83 52 53 63
REMARK Flexibility Score: inf
ROOT
ATOM      1  C   UNL A   1      37.537  22.191  25.100  1.00  0.00     0.275 C 
ENDROOT
BRANCH   1   2
ATOM      2  O   UNL A   1      36.449  22.188  26.041  1.00  0.00    -0.458 OA
BRANCH   2   3
ATOM      3  C   UNL A   1      35.470  21.277  25.798  1.00  0.00     0.342 C 
ATOM      4  O   UNL A   1      35.592  20.307  25.057  1.00  0.00    -0.246 OA
BRANCH   3   5
ATOM      5  C   UNL A   1      34.179  21.675  26.307  1.00  0.00     0.111 A 
ATOM      6  C   UNL A   1      32.893  21.576  25.774  1.00  0.00     0.140 A 
ATOM      7  N   UNL A   1      32.153  22.442  26.558  1.00  0.00    -0.262 N 
ATOM      8  C   UNL A   1      34.016  22.383  27.516  1.00  0.00     0.151 A 
ATOM      9  N   UNL A   1      32.768  22.799  27.705  1.00  0.00    -0.180 NA
ATOM     10  C   UNL A   1      30.813  22.933  26.328  1.00  0.00     0.174 C 
BRANCH   6  11
ATOM     11  C   UNL A   1      32.329  20.922  24.611  1.00  0.00     0.274 C 
ATOM     12  N   UNL A   1      32.222  21.548  23.379  1.00  0.00    -0.317 N 
ATOM     13  H   UNL A   1      31.880  20.973  22.655  1.00  0.00     0.170 HD
ATOM     14  O   UNL A   1      31.970  19.742  24.662  1.00  0.00    -0.267 OA
BRANCH  12  15
ATOM     15  C   UNL A   1      32.512  22.839  22.998  1.00  0.00     0.085 A 
ATOM     16  C   UNL A   1      35.167  23.011  23.011  1.00  0.00     0.071 C 
ATOM     17  C   UNL A   1      33.781  23.426  22.735  1.00  0.00     0.083 A 
ATOM     18  N   UNL A   1      33.636  24.570  22.065  1.00  0.00    -0.175 NA
ATOM     19  N   UNL A   1      32.359  24.903  22.293  1.00  0.00    -0.263 N 
ATOM     20  C   UNL A   1      31.670  23.933  22.975  1.00  0.00     0.060 A 
ATOM     21  C   UNL A   1      30.404  24.189  23.699  1.00  0.00     0.069 C 
BRANCH  19  22
ATOM     22  C   UNL A   1      31.992  26.286  22.020  1.00  0.00     0.181 C 
BRANCH  22  23
ATOM     23  C   UNL A   1      32.215  27.100  23.274  1.00  0.00    -0.008 A 
ATOM     24  C   UNL A   1      33.517  27.157  23.821  1.00  0.00     0.009 A 
ATOM     25  C   UNL A   1      31.161  27.660  24.004  1.00  0.00     0.047 A 
ATOM     26  C   UNL A   1      33.740  27.681  25.092  1.00  0.00     0.021 A 
ATOM     27  C   UNL A   1      31.382  28.169  25.284  1.00  0.00     0.041 A 
ATOM     28  Cl  UNL A   1      29.556  27.764  23.370  1.00  0.00    -0.084 Cl
ATOM     29  C   UNL A   1      32.666  28.168  25.824  1.00  0.00     0.042 A 
ATOM     30  Cl  UNL A   1      32.920  28.792  27.404  1.00  0.00    -0.084 Cl
ENDBRANCH  22  23
ENDBRANCH  19  22
ENDBRANCH  12  15
ENDBRANCH   6  11
ENDBRANCH   3   5
ENDBRANCH   2   3
ENDBRANCH   1   2
BRANCH   1  31
ATOM     31  C   UNL A   1      38.845  21.929  25.830  1.00  0.00     0.275 C 
BRANCH  31  32
ATOM     32  O   UNL A   1      39.112  20.551  26.168  1.00  0.00    -0.458 OA
BRANCH  32  33
ATOM     33  C   UNL A   1      40.385  20.095  26.024  1.00  0.00     0.338 C 
ATOM     34  O   UNL A   1      40.729  19.017  25.623  1.00  0.00    -0.246 OA
BRANCH  33  35
ATOM     35  C   UNL A   1      41.315  21.059  26.669  1.00  0.00     0.060 A 
ATOM     36  C   UNL A   1      41.179  21.231  28.046  1.00  0.00     0.016 A 
ATOM     37  C   UNL A   1      42.109  21.938  25.921  1.00  0.00     0.016 A 
ATOM     38  C   UNL A   1      41.611  22.416  28.617  1.00  0.00     0.010 A 
ATOM     39  C   UNL A   1      42.600  23.099  26.510  1.00  0.00     0.010 A 
ATOM     40  C   UNL A   1      42.260  23.391  27.831  1.00  0.00    -0.014 A 
BRANCH  40  41
ATOM     41  C   UNL A   1      42.747  24.598  28.517  1.00  0.00     0.031 A 
ATOM     42  C   UNL A   1      41.908  25.770  28.153  1.00  0.00     0.074 A 
ATOM     43  C   UNL A   1      43.727  24.668  29.445  1.00  0.00     0.049 A 
ATOM     44  N   UNL A   1      42.267  26.859  27.556  1.00  0.00    -0.248 NA
ATOM     45  C   UNL A   1      40.446  25.571  28.242  1.00  0.00     0.031 C 
ATOM     46  C   UNL A   1      44.499  23.560  30.010  1.00  0.00     0.029 A 
ATOM     47  N   UNL A   1      44.164  25.742  30.181  1.00  0.00    -0.354 N 
ATOM     48  C   UNL A   1      41.083  27.569  27.398  1.00  0.00     0.074 A 
ATOM     49  C   UNL A   1      40.003  26.636  27.582  1.00  0.00     0.031 C 
ATOM     50  C   UNL A   1      45.096  23.966  31.154  1.00  0.00     0.029 A 
ATOM     51  C   UNL A   1      44.824  25.379  31.359  1.00  0.00     0.049 A 
ATOM     52  H   UNL A   1      44.027  26.677  29.907  1.00  0.00     0.167 HD
ATOM     53  C   UNL A   1      41.041  28.923  27.503  1.00  0.00     0.031 A 
ATOM     54  C   UNL A   1      45.034  26.144  32.467  1.00  0.00     0.031 A 
ATOM     55  C   UNL A   1      42.316  29.538  27.281  1.00  0.00     0.049 A 
ATOM     56  C   UNL A   1      44.856  27.560  32.074  1.00  0.00     0.074 A 
ATOM     57  C   UNL A   1      43.207  29.576  26.229  1.00  0.00     0.029 A 
ATOM     58  N   UNL A   1      43.000  29.959  28.393  1.00  0.00    -0.354 N 
ATOM     59  N   UNL A   1      45.685  28.214  31.315  1.00  0.00    -0.248 NA
ATOM     60  C   UNL A   1      43.535  28.151  32.215  1.00  0.00     0.031 C 
ATOM     61  C   UNL A   1      44.495  29.647  26.828  1.00  0.00     0.029 A 
ATOM     62  C   UNL A   1      44.332  29.697  28.213  1.00  0.00     0.049 A 
ATOM     63  H   UNL A   1      42.599  30.379  29.189  1.00  0.00     0.167 HD
ATOM     64  C   UNL A   1      44.878  29.038  30.546  1.00  0.00     0.074 A 
ATOM     65  C   UNL A   1      43.583  29.039  31.219  1.00  0.00     0.031 C 
ATOM     66  C   UNL A   1      45.257  29.407  29.290  1.00  0.00     0.031 A 
BRANCH  53  67
ATOM     67  C   UNL A   1      39.926  29.584  28.273  1.00  0.00    -0.014 A 
ATOM     68  C   UNL A   1      40.107  29.933  29.619  1.00  0.00     0.010 A 
ATOM     69  C   UNL A   1      38.606  29.649  27.763  1.00  0.00     0.010 A 
ATOM     70  C   UNL A   1      39.018  30.339  30.405  1.00  0.00     0.020 A 
ATOM     71  C   UNL A   1      37.531  30.105  28.514  1.00  0.00     0.020 A 
ATOM     72  C   UNL A   1      37.740  30.429  29.843  1.00  0.00     0.054 A 
BRANCH  72  73
ATOM     73  S   UNL A   1      36.336  30.925  30.864  1.00  0.00     0.124 S 
ATOM     74  O   UNL A   1      36.063  29.702  31.610  1.00  0.00    -0.237 OA
ATOM     75  O   UNL A   1      36.894  32.033  31.636  1.00  0.00    -0.237 OA
ATOM     76  O   UNL A   1      35.319  31.306  29.886  1.00  0.00    -0.744 OA
ENDBRANCH  72  73
ENDBRANCH  53  67
BRANCH  54  77
ATOM     77  C   UNL A   1      45.059  25.735  33.903  1.00  0.00    -0.014 A 
ATOM     78  C   UNL A   1      46.174  26.023  34.721  1.00  0.00     0.010 A 
ATOM     79  C   UNL A   1      43.878  25.324  34.550  1.00  0.00     0.010 A 
ATOM     80  C   UNL A   1      46.080  25.987  36.126  1.00  0.00     0.020 A 
ATOM     81  C   UNL A   1      43.780  25.271  35.948  1.00  0.00     0.020 A 
ATOM     82  C   UNL A   1      44.872  25.635  36.731  1.00  0.00     0.054 A 
BRANCH  82  83
ATOM     83  S   UNL A   1      44.684  25.794  38.532  1.00  0.00     0.124 S 
ATOM     84  O   UNL A   1      43.370  26.418  38.655  1.00  0.00    -0.237 OA
ATOM     85  O   UNL A   1      44.771  24.409  38.986  1.00  0.00    -0.237 OA
ATOM     86  O   UNL A   1      45.810  26.641  38.922  1.00  0.00    -0.744 OA
ENDBRANCH  82  83
ENDBRANCH  54  77
BRANCH  66  87
ATOM     87  C   UNL A   1      46.717  29.308  28.917  1.00  0.00    -0.014 A 
ATOM     88  C   UNL A   1      47.674  30.314  29.151  1.00  0.00     0.010 A 
ATOM     89  C   UNL A   1      47.154  28.070  28.414  1.00  0.00     0.010 A 
ATOM     90  C   UNL A   1      49.031  30.086  28.869  1.00  0.00     0.020 A 
ATOM     91  C   UNL A   1      48.503  27.830  28.152  1.00  0.00     0.020 A 
ATOM     92  C   UNL A   1      49.436  28.841  28.373  1.00  0.00     0.054 A 
BRANCH  92  93
ATOM     93  S   UNL A   1      51.196  28.530  28.062  1.00  0.00     0.124 S 
ATOM     94  O   UNL A   1      51.704  29.862  27.755  1.00  0.00    -0.237 OA
ATOM     95  O   UNL A   1      51.650  27.957  29.327  1.00  0.00    -0.237 OA
ATOM     96  O   UNL A   1      51.189  27.596  26.937  1.00  0.00    -0.744 OA
ENDBRANCH  92  93
ENDBRANCH  66  87
ENDBRANCH  40  41
ENDBRANCH  33  35
ENDBRANCH  32  33
ENDBRANCH  31  32
ENDBRANCH   1  31
TORSDOF 18
ENDMDL
MODEL 2
REMARK VINA RESULT:     -11.5      4.796      9.535
REMARK SMILES Cc1nn(Cc2ccc(Cl)cc2Cl)c(C)c1NC(=O)c1c(C(=O)OCCOC(=O)c2ccc(-c3c4nc(c(-c5ccc(S(=O)(=O)[O-])cc5)c5ccc([nH]5)c(-c5ccc(S(=O)(=O)[O-])cc5)c5nc(c(-c6ccc(S(=O)(=O)[O-])cc6)c6ccc3[nH]6)C=C5)C=C4)cc2)cnn1C
REMARK SMILES IDX 25 1 24 2 22 3 23 4 21 5 20 6 92 7 90 8 91 9 93 10 18 11
REMARK SMILES IDX 17 12 19 14 16 15 1 16 2 17 3 18 4 19 14 20 15 21 5 22 6 23
REMARK SMILES IDX 7 24 12 25 8 26 11 27 13 28 9 29 10 30 26 31 27 32 28 33
REMARK SMILES IDX 29 34 30 35 31 36 89 37 32 38 88 39 33 40 34 41 35 42 82 43
REMARK SMILES IDX 36 44 87 45 81 46 83 47 37 48 86 49 80 50 79 51 38 53 68 54
REMARK SMILES IDX 49 55 67 56 50 57 53 58 66 59 84 60 51 61 52 62 65 64 85 65
REMARK SMILES IDX 54 66 39 67 40 68 48 69 41 70 47 71 42 72 43 73 44 74 45 75
REMARK SMILES IDX 46 76 69 77 70 78 78 79 71 80 77 81 72 82 73 83 74 84 75 85
REMARK SMILES IDX 76 86 55 87 56 88 64 89 57 90 63 91 58 92 59 93 60 94 61 95
REMARK SMILES IDX 62 96
REMARK H PARENT 17 13 83 52 53 63
REMARK Flexibility Score: inf
ROOT
ATOM      1  C   UNL A   1      33.237  28.881  26.961  1.00  0.00     0.275 C 
ENDROOT
BRANCH   1   2
ATOM      2  O   UNL A   1      32.264  28.129  26.214  1.00  0.00    -0.458 OA
BRANCH   2   3
ATOM      3  C   UNL A   1      32.699  26.940  25.720  1.00  0.00     0.342 C 
ATOM      4  O   UNL A   1      33.188  26.043  26.398  1.00  0.00    -0.246 OA
BRANCH   3   5
ATOM      5  C   UNL A   1      32.756  26.906  24.277  1.00  0.00     0.111 A 
ATOM      6  C   UNL A   1      31.958  26.270  23.325  1.00  0.00     0.140 A 
ATOM      7  N   UNL A   1      32.726  26.323  22.177  1.00  0.00    -0.262 N 
ATOM      8  C   UNL A   1      33.796  27.506  23.536  1.00  0.00     0.151 A 
ATOM      9  N   UNL A   1      33.746  27.204  22.243  1.00  0.00    -0.180 NA
ATOM     10  C   UNL A   1      32.521  25.617  20.932  1.00  0.00     0.174 C 
BRANCH   6  11
ATOM     11  C   UNL A   1      30.708  25.541  23.380  1.00  0.00     0.274 C 
ATOM     12  N   UNL A   1      30.639  24.197  23.712  1.00  0.00    -0.317 N 
ATOM     13  H   UNL A   1      29.724  23.837  23.775  1.00  0.00     0.170 HD
ATOM     14  O   UNL A   1      29.633  26.116  23.185  1.00  0.00    -0.267 OA
BRANCH  12  15
ATOM     15  C   UNL A   1      31.635  23.281  23.966  1.00  0.00     0.085 A 
ATOM     16  C   UNL A   1      32.224  22.192  21.611  1.00  0.00     0.071 C 
ATOM     17  C   UNL A   1      32.386  22.503  23.040  1.00  0.00     0.083 A 
ATOM     18  N   UNL A   1      33.476  22.006  23.626  1.00  0.00    -0.175 NA
ATOM     19  N   UNL A   1      33.189  22.084  24.933  1.00  0.00    -0.263 N 
ATOM     20  C   UNL A   1      32.009  22.739  25.178  1.00  0.00     0.060 A 
ATOM     21  C   UNL A   1      31.263  22.620  26.452  1.00  0.00     0.069 C 
BRANCH  19  22
ATOM     22  C   UNL A   1      34.008  21.275  25.825  1.00  0.00     0.181 C 
BRANCH  22  23
ATOM     23  C   UNL A   1      35.339  21.966  26.015  1.00  0.00    -0.008 A 
ATOM     24  C   UNL A   1      35.352  23.274  26.552  1.00  0.00     0.009 A 
ATOM     25  C   UNL A   1      36.538  21.434  25.530  1.00  0.00     0.047 A 
ATOM     26  C   UNL A   1      36.508  24.049  26.527  1.00  0.00     0.021 A 
ATOM     27  C   UNL A   1      37.692  22.217  25.489  1.00  0.00     0.041 A 
ATOM     28  Cl  UNL A   1      36.663  19.800  24.977  1.00  0.00    -0.084 Cl
ATOM     29  C   UNL A   1      37.668  23.521  25.978  1.00  0.00     0.042 A 
ATOM     30  Cl  UNL A   1      39.095  24.475  25.913  1.00  0.00    -0.084 Cl
ENDBRANCH  22  23
ENDBRANCH  19  22
ENDBRANCH  12  15
ENDBRANCH   6  11
ENDBRANCH   3   5
ENDBRANCH   2   3
ENDBRANCH   1   2
BRANCH   1  31
ATOM     31  C   UNL A   1      33.120  30.357  26.613  1.00  0.00     0.275 C 
BRANCH  31  32
ATOM     32  O   UNL A   1      32.391  31.170  27.557  1.00  0.00    -0.458 OA
BRANCH  32  33
ATOM     33  C   UNL A   1      32.665  32.502  27.595  1.00  0.00     0.338 C 
ATOM     34  O   UNL A   1      32.097  33.376  26.998  1.00  0.00    -0.246 OA
BRANCH  33  35
ATOM     35  C   UNL A   1      33.949  32.708  28.315  1.00  0.00     0.060 A 
ATOM     36  C   UNL A   1      34.986  33.289  27.587  1.00  0.00     0.016 A 
ATOM     37  C   UNL A   1      34.200  32.126  29.564  1.00  0.00     0.016 A 
ATOM     38  C   UNL A   1      36.293  33.053  27.980  1.00  0.00     0.010 A 
ATOM     39  C   UNL A   1      35.512  31.946  29.993  1.00  0.00     0.010 A 
ATOM     40  C   UNL A   1      36.562  32.313  29.151  1.00  0.00    -0.014 A 
BRANCH  40  41
ATOM     41  C   UNL A   1      37.971  32.154  29.541  1.00  0.00     0.031 A 
ATOM     42  C   UNL A   1      38.398  30.742  29.363  1.00  0.00     0.074 A 
ATOM     43  C   UNL A   1      38.833  33.133  29.898  1.00  0.00     0.049 A 
ATOM     44  N   UNL A   1      38.822  29.913  30.260  1.00  0.00    -0.248 NA
ATOM     45  C   UNL A   1      38.056  30.121  28.066  1.00  0.00     0.031 C 
ATOM     46  C   UNL A   1      38.577  34.574  29.937  1.00  0.00     0.029 A 
ATOM     47  N   UNL A   1      40.174  33.060  30.185  1.00  0.00    -0.354 N 
ATOM     48  C   UNL A   1      39.003  28.722  29.568  1.00  0.00     0.074 A 
ATOM     49  C   UNL A   1      38.275  28.838  28.331  1.00  0.00     0.031 C 
ATOM     50  C   UNL A   1      39.754  35.239  29.965  1.00  0.00     0.029 A 
ATOM     51  C   UNL A   1      40.843  34.278  30.032  1.00  0.00     0.049 A 
ATOM     52  H   UNL A   1      40.621  32.232  30.470  1.00  0.00     0.167 HD
ATOM     53  C   UNL A   1      40.023  27.872  29.858  1.00  0.00     0.031 A 
ATOM     54  C   UNL A   1      42.180  34.479  29.862  1.00  0.00     0.031 A 
ATOM     55  C   UNL A   1      40.534  28.050  31.184  1.00  0.00     0.049 A 
ATOM     56  C   UNL A   1      42.879  33.253  30.307  1.00  0.00     0.074 A 
ATOM     57  C   UNL A   1      40.000  27.955  32.453  1.00  0.00     0.029 A 
ATOM     58  N   UNL A   1      41.717  28.735  31.303  1.00  0.00    -0.354 N 
ATOM     59  N   UNL A   1      42.970  32.878  31.549  1.00  0.00    -0.248 NA
ATOM     60  C   UNL A   1      43.155  32.222  29.319  1.00  0.00     0.031 C 
ATOM     61  C   UNL A   1      40.692  28.927  33.227  1.00  0.00     0.029 A 
ATOM     62  C   UNL A   1      41.648  29.537  32.412  1.00  0.00     0.049 A 
ATOM     63  H   UNL A   1      42.486  28.664  30.693  1.00  0.00     0.167 HD
ATOM     64  C   UNL A   1      42.878  31.496  31.504  1.00  0.00     0.074 A 
ATOM     65  C   UNL A   1      43.108  31.144  30.107  1.00  0.00     0.031 C 
ATOM     66  C   UNL A   1      42.347  30.798  32.548  1.00  0.00     0.031 A 
BRANCH  53  67
ATOM     67  C   UNL A   1      40.816  27.240  28.742  1.00  0.00    -0.014 A 
ATOM     68  C   UNL A   1      41.168  25.884  28.807  1.00  0.00     0.010 A 
ATOM     69  C   UNL A   1      41.436  28.019  27.736  1.00  0.00     0.010 A 
ATOM     70  C   UNL A   1      42.087  25.340  27.896  1.00  0.00     0.020 A 
ATOM     71  C   UNL A   1      42.303  27.481  26.794  1.00  0.00     0.020 A 
ATOM     72  C   UNL A   1      42.640  26.143  26.893  1.00  0.00     0.054 A 
BRANCH  72  73
ATOM     73  S   UNL A   1      43.844  25.446  25.740  1.00  0.00     0.124 S 
ATOM     74  O   UNL A   1      44.363  26.645  25.090  1.00  0.00    -0.237 OA
ATOM     75  O   UNL A   1      44.766  24.756  26.639  1.00  0.00    -0.237 OA
ATOM     76  O   UNL A   1      43.037  24.570  24.892  1.00  0.00    -0.744 OA
ENDBRANCH  72  73
ENDBRANCH  53  67
BRANCH  54  77
ATOM     77  C   UNL A   1      42.880  35.518  29.047  1.00  0.00    -0.014 A 
ATOM     78  C   UNL A   1      42.507  35.761  27.707  1.00  0.00     0.010 A 
ATOM     79  C   UNL A   1      43.712  36.471  29.665  1.00  0.00     0.010 A 
ATOM     80  C   UNL A   1      42.879  36.950  27.049  1.00  0.00     0.020 A 
ATOM     81  C   UNL A   1      44.099  37.650  29.012  1.00  0.00     0.020 A 
ATOM     82  C   UNL A   1      43.653  37.899  27.717  1.00  0.00     0.054 A 
BRANCH  82  83
ATOM     83  S   UNL A   1      43.953  39.521  26.952  1.00  0.00     0.124 S 
ATOM     84  O   UNL A   1      42.729  39.738  26.187  1.00  0.00    -0.237 OA
ATOM     85  O   UNL A   1      44.137  40.392  28.111  1.00  0.00    -0.237 OA
ATOM     86  O   UNL A   1      45.156  39.305  26.149  1.00  0.00    -0.744 OA
ENDBRANCH  82  83
ENDBRANCH  54  77
BRANCH  66  87
ATOM     87  C   UNL A   1      42.284  31.463  33.903  1.00  0.00    -0.014 A 
ATOM     88  C   UNL A   1      41.212  32.253  34.359  1.00  0.00     0.010 A 
ATOM     89  C   UNL A   1      43.323  31.159  34.800  1.00  0.00     0.010 A 
ATOM     90  C   UNL A   1      41.194  32.739  35.676  1.00  0.00     0.020 A 
ATOM     91  C   UNL A   1      43.301  31.621  36.117  1.00  0.00     0.020 A 
ATOM     92  C   UNL A   1      42.241  32.415  36.547  1.00  0.00     0.054 A 
BRANCH  92  93
ATOM     93  S   UNL A   1      42.189  32.998  38.265  1.00  0.00     0.124 S 
ATOM     94  O   UNL A   1      43.485  33.653  38.417  1.00  0.00    -0.237 OA
ATOM     95  O   UNL A   1      41.029  33.884  38.270  1.00  0.00    -0.237 OA
ATOM     96  O   UNL A   1      42.022  31.771  39.043  1.00  0.00    -0.744 OA
ENDBRANCH  92  93
ENDBRANCH  66  87
ENDBRANCH  40  41
ENDBRANCH  33  35
ENDBRANCH  32  33
ENDBRANCH  31  32
ENDBRANCH   1  31
TORSDOF 18
ENDMDL
MODEL 3
REMARK VINA RESULT:     -11.0      8.336     15.462
REMARK SMILES Cc1nn(Cc2ccc(Cl)cc2Cl)c(C)c1NC(=O)c1c(C(=O)OCCOC(=O)c2ccc(-c3c4nc(c(-c5ccc(S(=O)(=O)[O-])cc5)c5ccc([nH]5)c(-c5ccc(S(=O)(=O)[O-])cc5)c5nc(c(-c6ccc(S(=O)(=O)[O-])cc6)c6ccc3[nH]6)C=C5)C=C4)cc2)cnn1C
REMARK SMILES IDX 25 1 24 2 22 3 23 4 21 5 20 6 92 7 90 8 91 9 93 10 18 11
REMARK SMILES IDX 17 12 19 14 16 15 1 16 2 17 3 18 4 19 14 20 15 21 5 22 6 23
REMARK SMILES IDX 7 24 12 25 8 26 11 27 13 28 9 29 10 30 26 31 27 32 28 33
REMARK SMILES IDX 29 34 30 35 31 36 89 37 32 38 88 39 33 40 34 41 35 42 82 43
REMARK SMILES IDX 36 44 87 45 81 46 83 47 37 48 86 49 80 50 79 51 38 53 68 54
REMARK SMILES IDX 49 55 67 56 50 57 53 58 66 59 84 60 51 61 52 62 65 64 85 65
REMARK SMILES IDX 54 66 39 67 40 68 48 69 41 70 47 71 42 72 43 73 44 74 45 75
REMARK SMILES IDX 46 76 69 77 70 78 78 79 71 80 77 81 72 82 73 83 74 84 75 85
REMARK SMILES IDX 76 86 55 87 56 88 64 89 57 90 63 91 58 92 59 93 60 94 61 95
REMARK SMILES IDX 62 96
REMARK H PARENT 17 13 83 52 53 63
REMARK Flexibility Score: inf
ROOT
ATOM      1  C   UNL A   1      46.068  41.473  31.275  1.00  0.00     0.275 C 
ENDROOT
BRANCH   1   2
ATOM      2  O   UNL A   1      47.190  40.863  30.613  1.00  0.00    -0.458 OA
BRANCH   2   3
ATOM      3  C   UNL A   1      46.889  39.818  29.798  1.00  0.00     0.342 C 
ATOM      4  O   UNL A   1      46.696  38.670  30.184  1.00  0.00    -0.246 OA
BRANCH   3   5
ATOM      5  C   UNL A   1      47.044  40.122  28.395  1.00  0.00     0.111 A 
ATOM      6  C   UNL A   1      46.378  41.015  27.553  1.00  0.00     0.140 A 
ATOM      7  N   UNL A   1      46.728  40.582  26.287  1.00  0.00    -0.262 N 
ATOM      8  C   UNL A   1      47.929  39.419  27.551  1.00  0.00     0.151 A 
ATOM      9  N   UNL A   1      47.784  39.743  26.270  1.00  0.00    -0.180 NA
ATOM     10  C   UNL A   1      46.153  40.972  25.019  1.00  0.00     0.174 C 
BRANCH   6  11
ATOM     11  C   UNL A   1      45.408  42.069  27.763  1.00  0.00     0.274 C 
ATOM     12  N   UNL A   1      44.044  41.829  27.824  1.00  0.00    -0.317 N 
ATOM     13  H   UNL A   1      43.498  42.622  28.035  1.00  0.00     0.170 HD
ATOM     14  O   UNL A   1      45.771  43.232  27.956  1.00  0.00    -0.267 OA
BRANCH  12  15
ATOM     15  C   UNL A   1      43.325  40.669  27.637  1.00  0.00     0.085 A 
ATOM     16  C   UNL A   1      41.807  41.106  25.497  1.00  0.00     0.071 C 
ATOM     17  C   UNL A   1      42.448  40.328  26.570  1.00  0.00     0.083 A 
ATOM     18  N   UNL A   1      42.219  39.015  26.557  1.00  0.00    -0.175 NA
ATOM     19  N   UNL A   1      42.558  38.628  27.794  1.00  0.00    -0.263 N 
ATOM     20  C   UNL A   1      43.115  39.641  28.533  1.00  0.00     0.060 A 
ATOM     21  C   UNL A   1      43.204  39.616  30.011  1.00  0.00     0.069 C 
BRANCH  19  22
ATOM     22  C   UNL A   1      42.066  37.326  28.223  1.00  0.00     0.181 C 
BRANCH  22  23
ATOM     23  C   UNL A   1      42.944  36.256  27.613  1.00  0.00    -0.008 A 
ATOM     24  C   UNL A   1      42.654  35.808  26.305  1.00  0.00     0.009 A 
ATOM     25  C   UNL A   1      43.923  35.578  28.348  1.00  0.00     0.047 A 
ATOM     26  C   UNL A   1      43.264  34.671  25.782  1.00  0.00     0.021 A 
ATOM     27  C   UNL A   1      44.521  34.428  27.832  1.00  0.00     0.041 A 
ATOM     28  Cl  UNL A   1      44.449  36.123  29.902  1.00  0.00    -0.084 Cl
ATOM     29  C   UNL A   1      44.182  33.976  26.559  1.00  0.00     0.042 A 
ATOM     30  Cl  UNL A   1      44.922  32.555  25.941  1.00  0.00    -0.084 Cl
ENDBRANCH  22  23
ENDBRANCH  19  22
ENDBRANCH  12  15
ENDBRANCH   6  11
ENDBRANCH   3   5
ENDBRANCH   2   3
ENDBRANCH   1   2
BRANCH   1  31
ATOM     31  C   UNL A   1      46.078  41.097  32.748  1.00  0.00     0.275 C 
BRANCH  31  32
ATOM     32  O   UNL A   1      45.218  40.001  33.124  1.00  0.00    -0.458 OA
BRANCH  32  33
ATOM     33  C   UNL A   1      45.440  39.398  34.323  1.00  0.00     0.338 C 
ATOM     34  O   UNL A   1      46.209  39.746  35.177  1.00  0.00    -0.246 OA
BRANCH  33  35
ATOM     35  C   UNL A   1      44.749  38.083  34.334  1.00  0.00     0.060 A 
ATOM     36  C   UNL A   1      44.118  37.700  33.150  1.00  0.00     0.016 A 
ATOM     37  C   UNL A   1      44.516  37.377  35.521  1.00  0.00     0.016 A 
ATOM     38  C   UNL A   1      43.069  36.798  33.215  1.00  0.00     0.010 A 
ATOM     39  C   UNL A   1      43.505  36.422  35.571  1.00  0.00     0.010 A 
ATOM     40  C   UNL A   1      42.710  36.209  34.446  1.00  0.00    -0.014 A 
BRANCH  40  41
ATOM     41  C   UNL A   1      41.627  35.214  34.428  1.00  0.00     0.031 A 
ATOM     42  C   UNL A   1      41.961  34.105  33.497  1.00  0.00     0.074 A 
ATOM     43  C   UNL A   1      40.525  35.196  35.211  1.00  0.00     0.049 A 
ATOM     44  N   UNL A   1      41.327  33.730  32.435  1.00  0.00    -0.248 NA
ATOM     45  C   UNL A   1      43.313  33.525  33.642  1.00  0.00     0.031 C 
ATOM     46  C   UNL A   1      40.178  36.133  36.282  1.00  0.00     0.029 A 
ATOM     47  N   UNL A   1      39.529  34.254  35.304  1.00  0.00    -0.354 N 
ATOM     48  C   UNL A   1      42.111  32.711  31.909  1.00  0.00     0.074 A 
ATOM     49  C   UNL A   1      43.410  32.819  32.521  1.00  0.00     0.031 C 
ATOM     50  C   UNL A   1      39.226  35.582  37.069  1.00  0.00     0.029 A 
ATOM     51  C   UNL A   1      38.834  34.296  36.516  1.00  0.00     0.049 A 
ATOM     52  H   UNL A   1      39.324  33.613  34.586  1.00  0.00     0.167 HD
ATOM     53  C   UNL A   1      41.563  31.624  31.305  1.00  0.00     0.031 A 
ATOM     54  C   UNL A   1      38.082  33.309  37.080  1.00  0.00     0.031 A 
ATOM     55  C   UNL A   1      40.234  31.864  30.829  1.00  0.00     0.049 A 
ATOM     56  C   UNL A   1      37.740  32.341  36.015  1.00  0.00     0.074 A 
ATOM     57  C   UNL A   1      39.667  32.740  29.926  1.00  0.00     0.029 A 
ATOM     58  N   UNL A   1      39.206  31.357  31.584  1.00  0.00    -0.354 N 
ATOM     59  N   UNL A   1      36.908  32.589  35.047  1.00  0.00    -0.248 NA
ATOM     60  C   UNL A   1      38.628  31.209  35.803  1.00  0.00     0.031 C 
ATOM     61  C   UNL A   1      38.368  33.018  30.433  1.00  0.00     0.029 A 
ATOM     62  C   UNL A   1      38.181  32.265  31.593  1.00  0.00     0.049 A 
ATOM     63  H   UNL A   1      39.207  30.486  32.043  1.00  0.00     0.167 HD
ATOM     64  C   UNL A   1      37.450  31.944  33.946  1.00  0.00     0.074 A 
ATOM     65  C   UNL A   1      38.440  31.023  34.494  1.00  0.00     0.031 C 
ATOM     66  C   UNL A   1      37.244  32.423  32.687  1.00  0.00     0.031 A 
BRANCH  53  67
ATOM     67  C   UNL A   1      42.100  30.247  31.603  1.00  0.00    -0.014 A 
ATOM     68  C   UNL A   1      41.754  29.597  32.797  1.00  0.00     0.010 A 
ATOM     69  C   UNL A   1      43.142  29.673  30.836  1.00  0.00     0.010 A 
ATOM     70  C   UNL A   1      42.415  28.424  33.189  1.00  0.00     0.020 A 
ATOM     71  C   UNL A   1      43.764  28.481  31.184  1.00  0.00     0.020 A 
ATOM     72  C   UNL A   1      43.410  27.871  32.375  1.00  0.00     0.054 A 
BRANCH  72  73
ATOM     73  S   UNL A   1      44.278  26.376  32.896  1.00  0.00     0.124 S 
ATOM     74  O   UNL A   1      44.257  25.578  31.675  1.00  0.00    -0.237 OA
ATOM     75  O   UNL A   1      45.582  26.901  33.293  1.00  0.00    -0.237 OA
ATOM     76  O   UNL A   1      43.457  25.869  33.994  1.00  0.00    -0.744 OA
ENDBRANCH  72  73
ENDBRANCH  53  67
BRANCH  54  77
ATOM     77  C   UNL A   1      37.909  32.967  38.524  1.00  0.00    -0.014 A 
ATOM     78  C   UNL A   1      36.866  32.114  38.947  1.00  0.00     0.010 A 
ATOM     79  C   UNL A   1      38.933  33.237  39.452  1.00  0.00     0.010 A 
ATOM     80  C   UNL A   1      36.898  31.490  40.210  1.00  0.00     0.020 A 
ATOM     81  C   UNL A   1      38.965  32.632  40.716  1.00  0.00     0.020 A 
ATOM     82  C   UNL A   1      37.963  31.735  41.077  1.00  0.00     0.054 A 
BRANCH  82  83
ATOM     83  S   UNL A   1      38.119  30.772  42.612  1.00  0.00     0.124 S 
ATOM     84  O   UNL A   1      38.309  29.414  42.111  1.00  0.00    -0.237 OA
ATOM     85  O   UNL A   1      39.283  31.379  43.253  1.00  0.00    -0.237 OA
ATOM     86  O   UNL A   1      36.849  31.008  43.296  1.00  0.00    -0.744 OA
ENDBRANCH  82  83
ENDBRANCH  54  77
BRANCH  66  87
ATOM     87  C   UNL A   1      36.081  33.357  32.451  1.00  0.00    -0.014 A 
ATOM     88  C   UNL A   1      34.948  33.047  31.674  1.00  0.00     0.010 A 
ATOM     89  C   UNL A   1      36.095  34.569  33.164  1.00  0.00     0.010 A 
ATOM     90  C   UNL A   1      33.867  33.939  31.602  1.00  0.00     0.020 A 
ATOM     91  C   UNL A   1      35.014  35.450  33.114  1.00  0.00     0.020 A 
ATOM     92  C   UNL A   1      33.908  35.136  32.328  1.00  0.00     0.054 A 
BRANCH  92  93
ATOM     93  S   UNL A   1      32.486  36.263  32.278  1.00  0.00     0.124 S 
ATOM     94  O   UNL A   1      32.489  36.716  30.891  1.00  0.00    -0.237 OA
ATOM     95  O   UNL A   1      31.374  35.395  32.657  1.00  0.00    -0.237 OA
ATOM     96  O   UNL A   1      32.822  37.289  33.265  1.00  0.00    -0.744 OA
ENDBRANCH  92  93
ENDBRANCH  66  87
ENDBRANCH  40  41
ENDBRANCH  33  35
ENDBRANCH  32  33
ENDBRANCH  31  32
ENDBRANCH   1  31
TORSDOF 18
ENDMDL
