MODEL 1
REMARK VINA RESULT:      -8.9      0.000      0.000
REMARK SMILES C[C@@H](C(=O)OCCOC(=O)c1ccc(-c2c3nc(c(-c4ccc(S(=O)(=O)[O-])cc4)c4ccc([nH]4)c(-c4ccc(S(=O)(=O)[O-])cc4)c4nc(c(-c5ccc(S(=O)(=O)[O-])cc5)c5ccc2[nH]5)C=C4)C=C3)cc1)c1ccc(-c2ccccc2)cc1
REMARK SMILES IDX 7 1 6 2 5 3 3 4 4 5 2 6 1 7 71 8 72 9 82 10 73 11 81 12
REMARK SMILES IDX 74 13 75 14 76 15 80 16 77 17 79 18 78 19 8 20 9 21 10 22
REMARK SMILES IDX 11 23 12 24 70 25 13 26 69 27 14 28 15 29 16 30 63 31 17 32
REMARK SMILES IDX 68 33 62 34 64 35 18 36 67 37 61 38 60 39 19 41 49 42 30 43
REMARK SMILES IDX 48 44 31 45 34 46 47 47 65 48 32 49 33 50 46 52 66 53 35 54
REMARK SMILES IDX 20 55 21 56 29 57 22 58 28 59 23 60 24 61 25 62 26 63 27 64
REMARK SMILES IDX 50 65 51 66 59 67 52 68 58 69 53 70 54 71 55 72 56 73 57 74
REMARK SMILES IDX 36 75 37 76 45 77 38 78 44 79 39 80 40 81 41 82 42 83 43 84
REMARK H PARENT 64 40 34 51
REMARK Flexibility Score: inf
ROOT
ATOM      1  C   UNL A   1      33.967  33.010  28.353  1.00  0.00     0.275 C 
ENDROOT
BRANCH   1   2
ATOM      2  C   UNL A   1      34.073  33.969  29.534  1.00  0.00     0.274 C 
BRANCH   2   3
ATOM      3  O   UNL A   1      34.176  33.238  30.774  1.00  0.00    -0.462 OA
BRANCH   3   4
ATOM      4  C   UNL A   1      35.367  33.305  31.435  1.00  0.00     0.313 C 
ATOM      5  O   UNL A   1      36.399  33.723  30.924  1.00  0.00    -0.252 OA
BRANCH   4   6
ATOM      6  C   UNL A   1      35.285  32.718  32.859  1.00  0.00     0.126 C 
ATOM      7  C   UNL A   1      34.886  33.779  33.896  1.00  0.00     0.025 C 
BRANCH   6   8
ATOM      8  C   UNL A   1      36.535  31.915  33.247  1.00  0.00    -0.034 A 
ATOM      9  C   UNL A   1      36.711  30.612  32.748  1.00  0.00     0.005 A 
ATOM     10  C   UNL A   1      37.542  32.423  34.081  1.00  0.00     0.005 A 
ATOM     11  C   UNL A   1      37.864  29.864  33.041  1.00  0.00     0.009 A 
ATOM     12  C   UNL A   1      38.683  31.667  34.385  1.00  0.00     0.009 A 
ATOM     13  C   UNL A   1      38.872  30.379  33.864  1.00  0.00    -0.018 A 
BRANCH  13  14
ATOM     14  C   UNL A   1      40.113  29.633  34.140  1.00  0.00    -0.018 A 
ATOM     15  C   UNL A   1      40.503  28.548  33.338  1.00  0.00     0.009 A 
ATOM     16  C   UNL A   1      40.974  30.016  35.184  1.00  0.00     0.009 A 
ATOM     17  C   UNL A   1      41.722  27.897  33.545  1.00  0.00     0.001 A 
ATOM     18  C   UNL A   1      42.188  29.357  35.399  1.00  0.00     0.001 A 
ATOM     19  C   UNL A   1      42.567  28.304  34.572  1.00  0.00     0.000 A 
ENDBRANCH  13  14
ENDBRANCH   6   8
ENDBRANCH   4   6
ENDBRANCH   3   4
ENDBRANCH   2   3
ENDBRANCH   1   2
BRANCH   1  20
ATOM     20  O   UNL A   1      34.301  31.679  28.784  1.00  0.00    -0.458 OA
BRANCH  20  21
ATOM     21  C   UNL A   1      34.524  30.778  27.803  1.00  0.00     0.338 C 
ATOM     22  O   UNL A   1      33.793  30.495  26.865  1.00  0.00    -0.246 OA
BRANCH  21  23
ATOM     23  C   UNL A   1      35.858  30.197  27.996  1.00  0.00     0.060 A 
ATOM     24  C   UNL A   1      36.132  29.562  29.204  1.00  0.00     0.016 A 
ATOM     25  C   UNL A   1      36.859  30.359  27.039  1.00  0.00     0.016 A 
ATOM     26  C   UNL A   1      37.425  29.140  29.488  1.00  0.00     0.010 A 
ATOM     27  C   UNL A   1      38.149  29.879  27.305  1.00  0.00     0.010 A 
ATOM     28  C   UNL A   1      38.451  29.294  28.547  1.00  0.00    -0.014 A 
BRANCH  28  29
ATOM     29  C   UNL A   1      39.839  28.910  28.918  1.00  0.00     0.031 A 
ATOM     30  C   UNL A   1      40.629  29.778  29.863  1.00  0.00     0.074 A 
ATOM     31  C   UNL A   1      40.358  27.740  28.494  1.00  0.00     0.049 A 
ATOM     32  N   UNL A   1      41.861  29.634  30.282  1.00  0.00    -0.248 NA
ATOM     33  C   UNL A   1      39.945  30.964  30.406  1.00  0.00     0.031 C 
ATOM     34  C   UNL A   1      39.661  26.757  27.662  1.00  0.00     0.029 A 
ATOM     35  N   UNL A   1      41.569  27.149  28.758  1.00  0.00    -0.354 N 
ATOM     36  C   UNL A   1      42.120  30.740  31.083  1.00  0.00     0.074 A 
ATOM     37  C   UNL A   1      40.913  31.537  31.108  1.00  0.00     0.031 C 
ATOM     38  C   UNL A   1      40.414  25.649  27.569  1.00  0.00     0.029 A 
ATOM     39  C   UNL A   1      41.677  25.868  28.268  1.00  0.00     0.049 A 
ATOM     40  H   UNL A   1      42.293  27.599  29.252  1.00  0.00     0.167 HD
ATOM     41  C   UNL A   1      43.266  31.073  31.723  1.00  0.00     0.031 A 
ATOM     42  C   UNL A   1      42.674  24.969  28.381  1.00  0.00     0.031 A 
ATOM     43  C   UNL A   1      44.453  30.262  31.734  1.00  0.00     0.049 A 
ATOM     44  C   UNL A   1      43.939  25.361  29.096  1.00  0.00     0.074 A 
ATOM     45  C   UNL A   1      45.683  30.541  32.304  1.00  0.00     0.029 A 
ATOM     46  N   UNL A   1      44.550  29.001  31.166  1.00  0.00    -0.354 N 
ATOM     47  N   UNL A   1      44.197  26.451  29.777  1.00  0.00    -0.248 NA
ATOM     48  C   UNL A   1      45.056  24.407  29.034  1.00  0.00     0.031 C 
ATOM     49  C   UNL A   1      46.537  29.462  32.048  1.00  0.00     0.029 A 
ATOM     50  C   UNL A   1      45.824  28.495  31.357  1.00  0.00     0.049 A 
ATOM     51  H   UNL A   1      43.821  28.536  30.696  1.00  0.00     0.167 HD
ATOM     52  C   UNL A   1      45.512  26.321  30.211  1.00  0.00     0.074 A 
ATOM     53  C   UNL A   1      45.979  25.026  29.759  1.00  0.00     0.031 C 
ATOM     54  C   UNL A   1      46.274  27.205  30.902  1.00  0.00     0.031 A 
BRANCH  41  55
ATOM     55  C   UNL A   1      43.316  32.419  32.394  1.00  0.00    -0.014 A 
ATOM     56  C   UNL A   1      42.995  32.584  33.752  1.00  0.00     0.010 A 
ATOM     57  C   UNL A   1      43.717  33.537  31.640  1.00  0.00     0.010 A 
ATOM     58  C   UNL A   1      43.040  33.854  34.335  1.00  0.00     0.020 A 
ATOM     59  C   UNL A   1      43.783  34.804  32.224  1.00  0.00     0.020 A 
ATOM     60  C   UNL A   1      43.427  34.958  33.565  1.00  0.00     0.054 A 
BRANCH  60  61
ATOM     61  S   UNL A   1      43.485  36.596  34.343  1.00  0.00     0.124 S 
ATOM     62  O   UNL A   1      44.672  36.487  35.186  1.00  0.00    -0.237 OA
ATOM     63  O   UNL A   1      43.608  37.494  33.197  1.00  0.00    -0.237 OA
ATOM     64  O   UNL A   1      42.216  36.683  35.061  1.00  0.00    -0.744 OA
ENDBRANCH  60  61
ENDBRANCH  41  55
BRANCH  42  65
ATOM     65  C   UNL A   1      42.526  23.601  27.813  1.00  0.00    -0.014 A 
ATOM     66  C   UNL A   1      42.845  23.360  26.463  1.00  0.00     0.010 A 
ATOM     67  C   UNL A   1      42.062  22.536  28.605  1.00  0.00     0.010 A 
ATOM     68  C   UNL A   1      42.687  22.084  25.913  1.00  0.00     0.020 A 
ATOM     69  C   UNL A   1      41.932  21.252  28.066  1.00  0.00     0.020 A 
ATOM     70  C   UNL A   1      42.232  21.039  26.718  1.00  0.00     0.054 A 
BRANCH  70  71
ATOM     71  S   UNL A   1      42.081  19.375  26.008  1.00  0.00     0.124 S 
ATOM     72  O   UNL A   1      42.924  19.477  24.821  1.00  0.00    -0.237 OA
ATOM     73  O   UNL A   1      42.593  18.520  27.076  1.00  0.00    -0.237 OA
ATOM     74  O   UNL A   1      40.648  19.247  25.753  1.00  0.00    -0.744 OA
ENDBRANCH  70  71
ENDBRANCH  42  65
BRANCH  54  75
ATOM     75  C   UNL A   1      47.694  26.811  31.202  1.00  0.00    -0.014 A 
ATOM     76  C   UNL A   1      48.733  27.141  30.313  1.00  0.00     0.010 A 
ATOM     77  C   UNL A   1      48.004  26.164  32.412  1.00  0.00     0.010 A 
ATOM     78  C   UNL A   1      50.055  26.809  30.616  1.00  0.00     0.020 A 
ATOM     79  C   UNL A   1      49.329  25.850  32.728  1.00  0.00     0.020 A 
ATOM     80  C   UNL A   1      50.345  26.164  31.823  1.00  0.00     0.054 A 
BRANCH  80  81
ATOM     81  S   UNL A   1      52.075  25.790  32.221  1.00  0.00     0.124 S 
ATOM     82  O   UNL A   1      52.784  26.407  31.104  1.00  0.00    -0.237 OA
ATOM     83  O   UNL A   1      52.256  26.441  33.516  1.00  0.00    -0.237 OA
ATOM     84  O   UNL A   1      52.113  24.330  32.255  1.00  0.00    -0.744 OA
ENDBRANCH  80  81
ENDBRANCH  54  75
ENDBRANCH  28  29
ENDBRANCH  21  23
ENDBRANCH  20  21
ENDBRANCH   1  20
TORSDOF 16
ENDMDL
MODEL 2
REMARK VINA RESULT:      -8.8      2.163      3.404
REMARK SMILES C[C@@H](C(=O)OCCOC(=O)c1ccc(-c2c3nc(c(-c4ccc(S(=O)(=O)[O-])cc4)c4ccc([nH]4)c(-c4ccc(S(=O)(=O)[O-])cc4)c4nc(c(-c5ccc(S(=O)(=O)[O-])cc5)c5ccc2[nH]5)C=C4)C=C3)cc1)c1ccc(-c2ccccc2)cc1
REMARK SMILES IDX 7 1 6 2 5 3 3 4 4 5 2 6 1 7 71 8 72 9 82 10 73 11 81 12
REMARK SMILES IDX 74 13 75 14 76 15 80 16 77 17 79 18 78 19 8 20 9 21 10 22
REMARK SMILES IDX 11 23 12 24 70 25 13 26 69 27 14 28 15 29 16 30 63 31 17 32
REMARK SMILES IDX 68 33 62 34 64 35 18 36 67 37 61 38 60 39 19 41 49 42 30 43
REMARK SMILES IDX 48 44 31 45 34 46 47 47 65 48 32 49 33 50 46 52 66 53 35 54
REMARK SMILES IDX 20 55 21 56 29 57 22 58 28 59 23 60 24 61 25 62 26 63 27 64
REMARK SMILES IDX 50 65 51 66 59 67 52 68 58 69 53 70 54 71 55 72 56 73 57 74
REMARK SMILES IDX 36 75 37 76 45 77 38 78 44 79 39 80 40 81 41 82 42 83 43 84
REMARK H PARENT 64 40 34 51
REMARK Flexibility Score: inf
ROOT
ATOM      1  C   UNL A   1      33.308  32.883  27.733  1.00  0.00     0.275 C 
ENDROOT
BRANCH   1   2
ATOM      2  C   UNL A   1      33.720  34.200  28.381  1.00  0.00     0.274 C 
BRANCH   2   3
ATOM      3  O   UNL A   1      33.144  34.320  29.698  1.00  0.00    -0.462 OA
BRANCH   3   4
ATOM      4  C   UNL A   1      34.000  34.578  30.728  1.00  0.00     0.313 C 
ATOM      5  O   UNL A   1      34.061  35.662  31.297  1.00  0.00    -0.252 OA
BRANCH   4   6
ATOM      6  C   UNL A   1      34.932  33.389  31.034  1.00  0.00     0.126 C 
ATOM      7  C   UNL A   1      34.702  32.827  32.445  1.00  0.00     0.025 C 
BRANCH   6   8
ATOM      8  C   UNL A   1      36.405  33.689  30.721  1.00  0.00    -0.034 A 
ATOM      9  C   UNL A   1      37.225  34.270  31.705  1.00  0.00     0.005 A 
ATOM     10  C   UNL A   1      36.997  33.401  29.482  1.00  0.00     0.005 A 
ATOM     11  C   UNL A   1      38.588  34.516  31.473  1.00  0.00     0.009 A 
ATOM     12  C   UNL A   1      38.354  33.665  29.248  1.00  0.00     0.009 A 
ATOM     13  C   UNL A   1      39.179  34.216  30.240  1.00  0.00    -0.018 A 
BRANCH  13  14
ATOM     14  C   UNL A   1      40.618  34.417  29.993  1.00  0.00    -0.018 A 
ATOM     15  C   UNL A   1      41.587  33.759  30.767  1.00  0.00     0.009 A 
ATOM     16  C   UNL A   1      41.067  35.234  28.940  1.00  0.00     0.009 A 
ATOM     17  C   UNL A   1      42.949  33.880  30.477  1.00  0.00     0.001 A 
ATOM     18  C   UNL A   1      42.430  35.364  28.656  1.00  0.00     0.001 A 
ATOM     19  C   UNL A   1      43.371  34.678  29.419  1.00  0.00     0.000 A 
ENDBRANCH  13  14
ENDBRANCH   6   8
ENDBRANCH   4   6
ENDBRANCH   3   4
ENDBRANCH   2   3
ENDBRANCH   1   2
BRANCH   1  20
ATOM     20  O   UNL A   1      33.947  31.791  28.416  1.00  0.00    -0.458 OA
BRANCH  20  21
ATOM     21  C   UNL A   1      34.295  30.735  27.649  1.00  0.00     0.338 C 
ATOM     22  O   UNL A   1      33.680  30.258  26.706  1.00  0.00    -0.246 OA
BRANCH  21  23
ATOM     23  C   UNL A   1      35.609  30.251  28.089  1.00  0.00     0.060 A 
ATOM     24  C   UNL A   1      35.716  29.698  29.361  1.00  0.00     0.016 A 
ATOM     25  C   UNL A   1      36.743  30.428  27.297  1.00  0.00     0.016 A 
ATOM     26  C   UNL A   1      36.966  29.374  29.875  1.00  0.00     0.010 A 
ATOM     27  C   UNL A   1      37.997  30.046  27.796  1.00  0.00     0.010 A 
ATOM     28  C   UNL A   1      38.122  29.546  29.103  1.00  0.00    -0.014 A 
BRANCH  28  29
ATOM     29  C   UNL A   1      39.449  29.271  29.716  1.00  0.00     0.031 A 
ATOM     30  C   UNL A   1      39.823  29.926  31.020  1.00  0.00     0.074 A 
ATOM     31  C   UNL A   1      40.279  28.363  29.163  1.00  0.00     0.049 A 
ATOM     32  N   UNL A   1      40.941  29.842  31.696  1.00  0.00    -0.248 NA
ATOM     33  C   UNL A   1      38.807  30.791  31.644  1.00  0.00     0.031 C 
ATOM     34  C   UNL A   1      39.995  27.579  27.959  1.00  0.00     0.029 A 
ATOM     35  N   UNL A   1      41.503  27.899  29.578  1.00  0.00    -0.354 N 
ATOM     36  C   UNL A   1      40.787  30.689  32.788  1.00  0.00     0.074 A 
ATOM     37  C   UNL A   1      39.463  31.264  32.695  1.00  0.00     0.031 C 
ATOM     38  C   UNL A   1      40.965  26.666  27.792  1.00  0.00     0.029 A 
ATOM     39  C   UNL A   1      41.978  26.848  28.828  1.00  0.00     0.049 A 
ATOM     40  H   UNL A   1      41.996  28.282  30.340  1.00  0.00     0.167 HD
ATOM     41  C   UNL A   1      41.677  30.979  33.767  1.00  0.00     0.031 A 
ATOM     42  C   UNL A   1      43.094  26.106  28.968  1.00  0.00     0.031 A 
ATOM     43  C   UNL A   1      42.978  30.378  33.883  1.00  0.00     0.049 A 
ATOM     44  C   UNL A   1      44.069  26.446  30.063  1.00  0.00     0.074 A 
ATOM     45  C   UNL A   1      43.973  30.649  34.806  1.00  0.00     0.029 A 
ATOM     46  N   UNL A   1      43.454  29.367  33.064  1.00  0.00    -0.354 N 
ATOM     47  N   UNL A   1      43.944  27.314  31.039  1.00  0.00    -0.248 NA
ATOM     48  C   UNL A   1      45.348  25.721  30.059  1.00  0.00     0.031 C 
ATOM     49  C   UNL A   1      45.068  29.825  34.521  1.00  0.00     0.029 A 
ATOM     50  C   UNL A   1      44.736  29.013  33.447  1.00  0.00     0.049 A 
ATOM     51  H   UNL A   1      42.955  28.961  32.319  1.00  0.00     0.167 HD
ATOM     52  C   UNL A   1      45.134  27.250  31.754  1.00  0.00     0.074 A 
ATOM     53  C   UNL A   1      45.946  26.225  31.130  1.00  0.00     0.031 C 
ATOM     54  C   UNL A   1      45.531  27.991  32.818  1.00  0.00     0.031 A 
BRANCH  41  55
ATOM     55  C   UNL A   1      41.302  32.061  34.742  1.00  0.00    -0.014 A 
ATOM     56  C   UNL A   1      40.650  31.776  35.954  1.00  0.00     0.010 A 
ATOM     57  C   UNL A   1      41.635  33.394  34.437  1.00  0.00     0.010 A 
ATOM     58  C   UNL A   1      40.305  32.812  36.828  1.00  0.00     0.020 A 
ATOM     59  C   UNL A   1      41.310  34.429  35.316  1.00  0.00     0.020 A 
ATOM     60  C   UNL A   1      40.631  34.133  36.499  1.00  0.00     0.054 A 
BRANCH  60  61
ATOM     61  S   UNL A   1      40.181  35.462  37.650  1.00  0.00     0.124 S 
ATOM     62  O   UNL A   1      39.093  34.849  38.406  1.00  0.00    -0.237 OA
ATOM     63  O   UNL A   1      41.419  35.680  38.393  1.00  0.00    -0.237 OA
ATOM     64  O   UNL A   1      39.786  36.561  36.771  1.00  0.00    -0.744 OA
ENDBRANCH  60  61
ENDBRANCH  41  55
BRANCH  42  65
ATOM     65  C   UNL A   1      43.358  24.958  28.058  1.00  0.00    -0.014 A 
ATOM     66  C   UNL A   1      44.012  25.170  26.829  1.00  0.00     0.010 A 
ATOM     67  C   UNL A   1      42.958  23.655  28.402  1.00  0.00     0.010 A 
ATOM     68  C   UNL A   1      44.244  24.103  25.956  1.00  0.00     0.020 A 
ATOM     69  C   UNL A   1      43.216  22.581  27.544  1.00  0.00     0.020 A 
ATOM     70  C   UNL A   1      43.845  22.816  26.319  1.00  0.00     0.054 A 
BRANCH  70  71
ATOM     71  S   UNL A   1      44.199  21.430  25.201  1.00  0.00     0.124 S 
ATOM     72  O   UNL A   1      45.514  20.998  25.664  1.00  0.00    -0.237 OA
ATOM     73  O   UNL A   1      43.099  20.508  25.471  1.00  0.00    -0.237 OA
ATOM     74  O   UNL A   1      44.170  22.049  23.878  1.00  0.00    -0.744 OA
ENDBRANCH  70  71
ENDBRANCH  42  65
BRANCH  54  75
ATOM     75  C   UNL A   1      46.906  27.732  33.370  1.00  0.00    -0.014 A 
ATOM     76  C   UNL A   1      48.015  28.459  32.901  1.00  0.00     0.010 A 
ATOM     77  C   UNL A   1      47.083  26.803  34.411  1.00  0.00     0.010 A 
ATOM     78  C   UNL A   1      49.283  28.244  33.447  1.00  0.00     0.020 A 
ATOM     79  C   UNL A   1      48.347  26.600  34.973  1.00  0.00     0.020 A 
ATOM     80  C   UNL A   1      49.441  27.314  34.479  1.00  0.00     0.054 A 
BRANCH  80  81
ATOM     81  S   UNL A   1      51.086  27.089  35.209  1.00  0.00     0.124 S 
ATOM     82  O   UNL A   1      51.533  28.468  35.384  1.00  0.00    -0.237 OA
ATOM     83  O   UNL A   1      50.797  26.362  36.443  1.00  0.00    -0.237 OA
ATOM     84  O   UNL A   1      51.810  26.321  34.198  1.00  0.00    -0.744 OA
ENDBRANCH  80  81
ENDBRANCH  54  75
ENDBRANCH  28  29
ENDBRANCH  21  23
ENDBRANCH  20  21
ENDBRANCH   1  20
TORSDOF 16
ENDMDL
MODEL 3
REMARK VINA RESULT:      -8.8      3.702      5.171
REMARK SMILES C[C@@H](C(=O)OCCOC(=O)c1ccc(-c2c3nc(c(-c4ccc(S(=O)(=O)[O-])cc4)c4ccc([nH]4)c(-c4ccc(S(=O)(=O)[O-])cc4)c4nc(c(-c5ccc(S(=O)(=O)[O-])cc5)c5ccc2[nH]5)C=C4)C=C3)cc1)c1ccc(-c2ccccc2)cc1
REMARK SMILES IDX 7 1 6 2 5 3 3 4 4 5 2 6 1 7 71 8 72 9 82 10 73 11 81 12
REMARK SMILES IDX 74 13 75 14 76 15 80 16 77 17 79 18 78 19 8 20 9 21 10 22
REMARK SMILES IDX 11 23 12 24 70 25 13 26 69 27 14 28 15 29 16 30 63 31 17 32
REMARK SMILES IDX 68 33 62 34 64 35 18 36 67 37 61 38 60 39 19 41 49 42 30 43
REMARK SMILES IDX 48 44 31 45 34 46 47 47 65 48 32 49 33 50 46 52 66 53 35 54
REMARK SMILES IDX 20 55 21 56 29 57 22 58 28 59 23 60 24 61 25 62 26 63 27 64
REMARK SMILES IDX 50 65 51 66 59 67 52 68 58 69 53 70 54 71 55 72 56 73 57 74
REMARK SMILES IDX 36 75 37 76 45 77 38 78 44 79 39 80 40 81 41 82 42 83 43 84
REMARK H PARENT 64 40 34 51
REMARK Flexibility Score: inf
ROOT
ATOM      1  C   UNL A   1      35.199  32.636  31.104  1.00  0.00     0.275 C 
ENDROOT
BRANCH   1   2
ATOM      2  C   UNL A   1      35.853  33.831  31.789  1.00  0.00     0.274 C 
BRANCH   2   3
ATOM      3  O   UNL A   1      36.494  33.424  33.015  1.00  0.00    -0.462 OA
BRANCH   3   4
ATOM      4  C   UNL A   1      37.775  33.847  33.216  1.00  0.00     0.313 C 
ATOM      5  O   UNL A   1      38.057  34.891  33.793  1.00  0.00    -0.252 OA
BRANCH   4   6
ATOM      6  C   UNL A   1      38.815  32.913  32.563  1.00  0.00     0.126 C 
ATOM      7  C   UNL A   1      39.601  32.108  33.610  1.00  0.00     0.025 C 
BRANCH   6   8
ATOM      8  C   UNL A   1      39.706  33.633  31.541  1.00  0.00    -0.034 A 
ATOM      9  C   UNL A   1      39.190  33.962  30.274  1.00  0.00     0.005 A 
ATOM     10  C   UNL A   1      41.033  34.001  31.808  1.00  0.00     0.005 A 
ATOM     11  C   UNL A   1      39.958  34.663  29.330  1.00  0.00     0.009 A 
ATOM     12  C   UNL A   1      41.802  34.685  30.856  1.00  0.00     0.009 A 
ATOM     13  C   UNL A   1      41.279  35.039  29.604  1.00  0.00    -0.018 A 
BRANCH  13  14
ATOM     14  C   UNL A   1      42.083  35.821  28.648  1.00  0.00    -0.018 A 
ATOM     15  C   UNL A   1      42.876  36.899  29.075  1.00  0.00     0.009 A 
ATOM     16  C   UNL A   1      42.126  35.479  27.285  1.00  0.00     0.009 A 
ATOM     17  C   UNL A   1      43.706  37.584  28.184  1.00  0.00     0.001 A 
ATOM     18  C   UNL A   1      42.948  36.172  26.391  1.00  0.00     0.001 A 
ATOM     19  C   UNL A   1      43.747  37.218  26.843  1.00  0.00     0.000 A 
ENDBRANCH  13  14
ENDBRANCH   6   8
ENDBRANCH   4   6
ENDBRANCH   3   4
ENDBRANCH   2   3
ENDBRANCH   1   2
BRANCH   1  20
ATOM     20  O   UNL A   1      36.204  31.854  30.438  1.00  0.00    -0.458 OA
BRANCH  20  21
ATOM     21  C   UNL A   1      36.576  30.714  31.061  1.00  0.00     0.338 C 
ATOM     22  O   UNL A   1      36.022  30.157  31.997  1.00  0.00    -0.246 OA
BRANCH  21  23
ATOM     23  C   UNL A   1      37.765  30.179  30.386  1.00  0.00     0.060 A 
ATOM     24  C   UNL A   1      38.678  29.449  31.140  1.00  0.00     0.016 A 
ATOM     25  C   UNL A   1      38.027  30.476  29.049  1.00  0.00     0.016 A 
ATOM     26  C   UNL A   1      39.889  29.062  30.578  1.00  0.00     0.010 A 
ATOM     27  C   UNL A   1      39.225  30.034  28.469  1.00  0.00     0.010 A 
ATOM     28  C   UNL A   1      40.181  29.351  29.239  1.00  0.00    -0.014 A 
BRANCH  28  29
ATOM     29  C   UNL A   1      41.521  28.998  28.698  1.00  0.00     0.031 A 
ATOM     30  C   UNL A   1      42.664  29.970  28.835  1.00  0.00     0.074 A 
ATOM     31  C   UNL A   1      41.743  27.776  28.174  1.00  0.00     0.049 A 
ATOM     32  N   UNL A   1      43.895  29.864  28.402  1.00  0.00    -0.248 NA
ATOM     33  C   UNL A   1      42.386  31.226  29.552  1.00  0.00     0.031 C 
ATOM     34  C   UNL A   1      40.751  26.703  28.077  1.00  0.00     0.029 A 
ATOM     35  N   UNL A   1      42.893  27.207  27.683  1.00  0.00    -0.354 N 
ATOM     36  C   UNL A   1      44.518  31.061  28.735  1.00  0.00     0.074 A 
ATOM     37  C   UNL A   1      43.537  31.872  29.424  1.00  0.00     0.031 C 
ATOM     38  C   UNL A   1      41.357  25.582  27.655  1.00  0.00     0.029 A 
ATOM     39  C   UNL A   1      42.761  25.872  27.378  1.00  0.00     0.049 A 
ATOM     40  H   UNL A   1      43.732  27.707  27.561  1.00  0.00     0.167 HD
ATOM     41  C   UNL A   1      45.786  31.458  28.474  1.00  0.00     0.031 A 
ATOM     42  C   UNL A   1      43.671  24.981  26.939  1.00  0.00     0.031 A 
ATOM     43  C   UNL A   1      46.774  30.638  27.827  1.00  0.00     0.049 A 
ATOM     44  C   UNL A   1      45.075  25.444  26.654  1.00  0.00     0.074 A 
ATOM     45  C   UNL A   1      48.067  30.971  27.465  1.00  0.00     0.029 A 
ATOM     46  N   UNL A   1      46.585  29.314  27.467  1.00  0.00    -0.354 N 
ATOM     47  N   UNL A   1      45.624  26.610  26.897  1.00  0.00    -0.248 NA
ATOM     48  C   UNL A   1      45.974  24.475  26.011  1.00  0.00     0.031 C 
ATOM     49  C   UNL A   1      48.649  29.857  26.851  1.00  0.00     0.029 A 
ATOM     50  C   UNL A   1      47.731  28.818  26.871  1.00  0.00     0.049 A 
ATOM     51  H   UNL A   1      45.757  28.801  27.612  1.00  0.00     0.167 HD
ATOM     52  C   UNL A   1      46.927  26.519  26.422  1.00  0.00     0.074 A 
ATOM     53  C   UNL A   1      47.100  25.170  25.923  1.00  0.00     0.031 C 
ATOM     54  C   UNL A   1      47.889  27.474  26.380  1.00  0.00     0.031 A 
BRANCH  41  55
ATOM     55  C   UNL A   1      46.148  32.879  28.811  1.00  0.00    -0.014 A 
ATOM     56  C   UNL A   1      45.962  33.930  27.898  1.00  0.00     0.010 A 
ATOM     57  C   UNL A   1      46.666  33.161  30.088  1.00  0.00     0.010 A 
ATOM     58  C   UNL A   1      46.324  35.236  28.244  1.00  0.00     0.020 A 
ATOM     59  C   UNL A   1      47.010  34.467  30.446  1.00  0.00     0.020 A 
ATOM     60  C   UNL A   1      46.853  35.494  29.514  1.00  0.00     0.054 A 
BRANCH  60  61
ATOM     61  S   UNL A   1      47.310  37.196  29.946  1.00  0.00     0.124 S 
ATOM     62  O   UNL A   1      46.164  37.622  30.744  1.00  0.00    -0.237 OA
ATOM     63  O   UNL A   1      48.558  37.018  30.684  1.00  0.00    -0.237 OA
ATOM     64  O   UNL A   1      47.448  37.856  28.650  1.00  0.00    -0.744 OA
ENDBRANCH  60  61
ENDBRANCH  41  55
BRANCH  42  65
ATOM     65  C   UNL A   1      43.298  23.553  26.745  1.00  0.00    -0.014 A 
ATOM     66  C   UNL A   1      43.207  23.019  25.445  1.00  0.00     0.010 A 
ATOM     67  C   UNL A   1      43.026  22.720  27.845  1.00  0.00     0.010 A 
ATOM     68  C   UNL A   1      42.836  21.686  25.250  1.00  0.00     0.020 A 
ATOM     69  C   UNL A   1      42.683  21.378  27.654  1.00  0.00     0.020 A 
ATOM     70  C   UNL A   1      42.576  20.874  26.356  1.00  0.00     0.054 A 
BRANCH  70  71
ATOM     71  S   UNL A   1      42.145  19.130  26.093  1.00  0.00     0.124 S 
ATOM     72  O   UNL A   1      40.709  19.209  25.843  1.00  0.00    -0.237 OA
ATOM     73  O   UNL A   1      42.968  18.764  24.943  1.00  0.00    -0.237 OA
ATOM     74  O   UNL A   1      42.530  18.495  27.351  1.00  0.00    -0.744 OA
ENDBRANCH  70  71
ENDBRANCH  42  65
BRANCH  54  75
ATOM     75  C   UNL A   1      49.210  27.102  25.764  1.00  0.00    -0.014 A 
ATOM     76  C   UNL A   1      49.472  27.375  24.409  1.00  0.00     0.010 A 
ATOM     77  C   UNL A   1      50.222  26.535  26.559  1.00  0.00     0.010 A 
ATOM     78  C   UNL A   1      50.714  27.066  23.853  1.00  0.00     0.020 A 
ATOM     79  C   UNL A   1      51.474  26.244  26.011  1.00  0.00     0.020 A 
ATOM     80  C   UNL A   1      51.709  26.500  24.658  1.00  0.00     0.054 A 
BRANCH  80  81
ATOM     81  S   UNL A   1      53.333  26.155  23.928  1.00  0.00     0.124 S 
ATOM     82  O   UNL A   1      53.023  26.110  22.502  1.00  0.00    -0.237 OA
ATOM     83  O   UNL A   1      54.132  27.300  24.361  1.00  0.00    -0.237 OA
ATOM     84  O   UNL A   1      53.716  24.877  24.525  1.00  0.00    -0.744 OA
ENDBRANCH  80  81
ENDBRANCH  54  75
ENDBRANCH  28  29
ENDBRANCH  21  23
ENDBRANCH  20  21
ENDBRANCH   1  20
TORSDOF 16
ENDMDL
