MODEL 1
REMARK VINA RESULT:     -10.0      0.000      0.000
REMARK SMILES CCC[NH2+][C@]1(C(=O)OCCOC(=O)c2ccc(-c3c4nc(c(-c5ccc(S(=O)(=O)[O-])cc5)c5ccc([nH]5)c(-c5ccc(S(=O)(=O)[O-])cc5)c5nc(c(-c6ccc(S(=O)(=O)[O-])cc6)c6ccc3[nH]6)C=C5)C=C4)cc2)CC[C@@H](Sc2nnc(C)n2C)C1
REMARK SMILES IDX 9 1 8 2 6 3 7 4 5 5 74 6 85 7 75 8 76 9 4 10 3 13 2 14 1 15
REMARK SMILES IDX 77 16 78 17 79 18 83 19 80 20 81 21 84 22 82 23 10 24 11 25
REMARK SMILES IDX 12 26 13 27 14 28 15 29 73 30 16 31 72 32 17 33 18 34 19 35
REMARK SMILES IDX 66 36 20 37 71 38 65 39 67 40 21 41 70 42 64 43 63 44 22 46
REMARK SMILES IDX 52 47 33 48 51 49 34 50 37 51 50 52 68 53 35 54 36 55 49 57
REMARK SMILES IDX 69 58 38 59 23 60 24 61 32 62 25 63 31 64 26 65 27 66 28 67
REMARK SMILES IDX 29 68 30 69 53 70 54 71 62 72 55 73 61 74 56 75 57 76 58 77
REMARK SMILES IDX 59 78 60 79 39 80 40 81 48 82 41 83 47 84 42 85 43 86 44 87
REMARK SMILES IDX 45 88 46 89
REMARK H PARENT 4 11 4 12 67 45 37 56
REMARK Flexibility Score: inf
ROOT
ATOM      1  C   UNL A   1      32.929  29.562  27.508  1.00  0.00     0.274 C 
ENDROOT
BRANCH   1   2
ATOM      2  O   UNL A   1      32.742  28.686  26.380  1.00  0.00    -0.457 OA
BRANCH   2   3
ATOM      3  C   UNL A   1      31.959  27.595  26.612  1.00  0.00     0.368 C 
ATOM      4  O   UNL A   1      31.222  27.483  27.587  1.00  0.00    -0.245 OA
BRANCH   3   5
ATOM      5  C   UNL A   1      32.128  26.498  25.531  1.00  0.00     0.195 C 
ATOM      6  C   UNL A   1      33.608  26.436  25.127  1.00  0.00     0.082 C 
ATOM      7  C   UNL A   1      31.882  25.095  26.163  1.00  0.00     0.096 C 
ATOM      8  C   UNL A   1      33.856  24.995  24.709  1.00  0.00     0.022 C 
ATOM      9  C   UNL A   1      32.957  24.154  25.612  1.00  0.00     0.062 C 
BRANCH   5  10
ATOM     10  N   UNL A   1      31.134  26.576  24.432  1.00  0.00    -0.332 N 
ATOM     11  H   UNL A   1      31.013  25.630  24.071  1.00  0.00     0.347 HD
ATOM     12  H   UNL A   1      30.317  27.004  24.869  1.00  0.00     0.347 HD
BRANCH  10  13
ATOM     13  C   UNL A   1      31.413  27.437  23.292  1.00  0.00     0.261 C 
BRANCH  13  14
ATOM     14  C   UNL A   1      31.399  26.616  21.992  1.00  0.00     0.058 C 
ATOM     15  C   UNL A   1      32.778  26.192  21.502  1.00  0.00     0.010 C 
ENDBRANCH  13  14
ENDBRANCH  10  13
ENDBRANCH   5  10
BRANCH   9  16
ATOM     16  S   UNL A   1      33.802  23.221  26.940  1.00  0.00    -0.082 SA
BRANCH  16  17
ATOM     17  C   UNL A   1      34.586  21.947  26.079  1.00  0.00     0.191 A 
ATOM     18  N   UNL A   1      33.990  20.875  25.614  1.00  0.00    -0.123 NA
ATOM     19  N   UNL A   1      35.925  21.888  25.803  1.00  0.00    -0.309 N 
ATOM     20  N   UNL A   1      34.942  20.096  25.003  1.00  0.00    -0.135 NA
ATOM     21  C   UNL A   1      36.104  20.706  25.119  1.00  0.00     0.130 A 
ATOM     22  C   UNL A   1      36.965  22.839  26.102  1.00  0.00     0.154 C 
ATOM     23  C   UNL A   1      37.407  20.217  24.614  1.00  0.00     0.090 C 
ENDBRANCH  16  17
ENDBRANCH   9  16
ENDBRANCH   3   5
ENDBRANCH   2   3
ENDBRANCH   1   2
BRANCH   1  24
ATOM     24  C   UNL A   1      34.239  30.338  27.392  1.00  0.00     0.275 C 
BRANCH  24  25
ATOM     25  O   UNL A   1      35.294  29.655  28.091  1.00  0.00    -0.458 OA
BRANCH  25  26
ATOM     26  C   UNL A   1      36.065  30.434  28.886  1.00  0.00     0.338 C 
ATOM     27  O   UNL A   1      35.701  31.335  29.620  1.00  0.00    -0.246 OA
BRANCH  26  28
ATOM     28  C   UNL A   1      37.475  30.036  28.751  1.00  0.00     0.060 A 
ATOM     29  C   UNL A   1      38.019  29.815  27.486  1.00  0.00     0.016 A 
ATOM     30  C   UNL A   1      38.231  29.796  29.896  1.00  0.00     0.016 A 
ATOM     31  C   UNL A   1      39.317  29.326  27.358  1.00  0.00     0.010 A 
ATOM     32  C   UNL A   1      39.554  29.370  29.768  1.00  0.00     0.010 A 
ATOM     33  C   UNL A   1      40.107  29.124  28.497  1.00  0.00    -0.014 A 
BRANCH  33  34
ATOM     34  C   UNL A   1      41.525  28.706  28.373  1.00  0.00     0.031 A 
ATOM     35  C   UNL A   1      42.628  29.722  28.446  1.00  0.00     0.074 A 
ATOM     36  C   UNL A   1      41.815  27.410  28.147  1.00  0.00     0.049 A 
ATOM     37  N   UNL A   1      43.898  29.579  28.166  1.00  0.00    -0.248 NA
ATOM     38  C   UNL A   1      42.256  31.076  28.887  1.00  0.00     0.031 C 
ATOM     39  C   UNL A   1      40.837  26.319  28.096  1.00  0.00     0.029 A 
ATOM     40  N   UNL A   1      43.014  26.792  27.899  1.00  0.00    -0.354 N 
ATOM     41  C   UNL A   1      44.473  30.828  28.362  1.00  0.00     0.074 A 
ATOM     42  C   UNL A   1      43.412  31.718  28.788  1.00  0.00     0.031 C 
ATOM     43  C   UNL A   1      41.475  25.169  27.835  1.00  0.00     0.029 A 
ATOM     44  C   UNL A   1      42.892  25.450  27.627  1.00  0.00     0.049 A 
ATOM     45  H   UNL A   1      43.878  27.264  27.916  1.00  0.00     0.167 HD
ATOM     46  C   UNL A   1      45.765  31.198  28.193  1.00  0.00     0.031 A 
ATOM     47  C   UNL A   1      43.802  24.554  27.201  1.00  0.00     0.031 A 
ATOM     48  C   UNL A   1      46.814  30.306  27.775  1.00  0.00     0.049 A 
ATOM     49  C   UNL A   1      45.210  25.005  26.941  1.00  0.00     0.074 A 
ATOM     50  C   UNL A   1      48.158  30.582  27.593  1.00  0.00     0.029 A 
ATOM     51  N   UNL A   1      46.637  28.966  27.470  1.00  0.00    -0.354 N 
ATOM     52  N   UNL A   1      45.733  26.195  27.107  1.00  0.00    -0.248 NA
ATOM     53  C   UNL A   1      46.142  23.999  26.414  1.00  0.00     0.031 C 
ATOM     54  C   UNL A   1      48.785  29.418  27.134  1.00  0.00     0.029 A 
ATOM     55  C   UNL A   1      47.839  28.407  27.071  1.00  0.00     0.049 A 
ATOM     56  H   UNL A   1      45.782  28.481  27.528  1.00  0.00     0.167 HD
ATOM     57  C   UNL A   1      47.057  26.083  26.702  1.00  0.00     0.074 A 
ATOM     58  C   UNL A   1      47.259  24.705  26.303  1.00  0.00     0.031 C 
ATOM     59  C   UNL A   1      48.016  27.039  26.660  1.00  0.00     0.031 A 
BRANCH  46  60
ATOM     60  C   UNL A   1      46.108  32.645  28.419  1.00  0.00    -0.014 A 
ATOM     61  C   UNL A   1      46.033  33.584  27.375  1.00  0.00     0.010 A 
ATOM     62  C   UNL A   1      46.473  33.076  29.707  1.00  0.00     0.010 A 
ATOM     63  C   UNL A   1      46.351  34.925  27.611  1.00  0.00     0.020 A 
ATOM     64  C   UNL A   1      46.776  34.418  29.949  1.00  0.00     0.020 A 
ATOM     65  C   UNL A   1      46.729  35.332  28.894  1.00  0.00     0.054 A 
BRANCH  65  66
ATOM     66  S   UNL A   1      47.127  37.079  29.179  1.00  0.00     0.124 S 
ATOM     67  O   UNL A   1      48.587  37.050  29.223  1.00  0.00    -0.237 OA
ATOM     68  O   UNL A   1      46.548  37.738  28.011  1.00  0.00    -0.237 OA
ATOM     69  O   UNL A   1      46.471  37.382  30.449  1.00  0.00    -0.744 OA
ENDBRANCH  65  66
ENDBRANCH  46  60
BRANCH  47  70
ATOM     70  C   UNL A   1      43.379  23.156  26.926  1.00  0.00    -0.014 A 
ATOM     71  C   UNL A   1      43.410  22.644  25.619  1.00  0.00     0.010 A 
ATOM     72  C   UNL A   1      42.988  22.316  27.986  1.00  0.00     0.010 A 
ATOM     73  C   UNL A   1      43.064  21.313  25.376  1.00  0.00     0.020 A 
ATOM     74  C   UNL A   1      42.663  20.979  27.749  1.00  0.00     0.020 A 
ATOM     75  C   UNL A   1      42.698  20.486  26.443  1.00  0.00     0.054 A 
BRANCH  75  76
ATOM     76  S   UNL A   1      42.343  18.736  26.124  1.00  0.00     0.124 S 
ATOM     77  O   UNL A   1      42.652  18.124  27.412  1.00  0.00    -0.237 OA
ATOM     78  O   UNL A   1      40.930  18.759  25.755  1.00  0.00    -0.237 OA
ATOM     79  O   UNL A   1      43.255  18.401  25.032  1.00  0.00    -0.744 OA
ENDBRANCH  75  76
ENDBRANCH  47  70
BRANCH  59  80
ATOM     80  C   UNL A   1      49.373  26.626  26.164  1.00  0.00    -0.014 A 
ATOM     81  C   UNL A   1      49.752  26.868  24.832  1.00  0.00     0.010 A 
ATOM     82  C   UNL A   1      50.295  26.043  27.051  1.00  0.00     0.010 A 
ATOM     83  C   UNL A   1      51.030  26.517  24.390  1.00  0.00     0.020 A 
ATOM     84  C   UNL A   1      51.580  25.708  26.616  1.00  0.00     0.020 A 
ATOM     85  C   UNL A   1      51.935  25.938  25.285  1.00  0.00     0.054 A 
BRANCH  85  86
ATOM     86  S   UNL A   1      53.609  25.542  24.706  1.00  0.00     0.124 S 
ATOM     87  O   UNL A   1      54.418  26.520  25.429  1.00  0.00    -0.237 OA
ATOM     88  O   UNL A   1      53.777  24.154  25.128  1.00  0.00    -0.237 OA
ATOM     89  O   UNL A   1      53.530  25.742  23.261  1.00  0.00    -0.744 OA
ENDBRANCH  85  86
ENDBRANCH  59  80
ENDBRANCH  33  34
ENDBRANCH  26  28
ENDBRANCH  25  26
ENDBRANCH  24  25
ENDBRANCH   1  24
TORSDOF 19
ENDMDL
MODEL 2
REMARK VINA RESULT:     -10.0      5.090     10.459
REMARK SMILES CCC[NH2+][C@]1(C(=O)OCCOC(=O)c2ccc(-c3c4nc(c(-c5ccc(S(=O)(=O)[O-])cc5)c5ccc([nH]5)c(-c5ccc(S(=O)(=O)[O-])cc5)c5nc(c(-c6ccc(S(=O)(=O)[O-])cc6)c6ccc3[nH]6)C=C5)C=C4)cc2)CC[C@@H](Sc2nnc(C)n2C)C1
REMARK SMILES IDX 9 1 8 2 6 3 7 4 5 5 74 6 85 7 75 8 76 9 4 10 3 13 2 14 1 15
REMARK SMILES IDX 77 16 78 17 79 18 83 19 80 20 81 21 84 22 82 23 10 24 11 25
REMARK SMILES IDX 12 26 13 27 14 28 15 29 73 30 16 31 72 32 17 33 18 34 19 35
REMARK SMILES IDX 66 36 20 37 71 38 65 39 67 40 21 41 70 42 64 43 63 44 22 46
REMARK SMILES IDX 52 47 33 48 51 49 34 50 37 51 50 52 68 53 35 54 36 55 49 57
REMARK SMILES IDX 69 58 38 59 23 60 24 61 32 62 25 63 31 64 26 65 27 66 28 67
REMARK SMILES IDX 29 68 30 69 53 70 54 71 62 72 55 73 61 74 56 75 57 76 58 77
REMARK SMILES IDX 59 78 60 79 39 80 40 81 48 82 41 83 47 84 42 85 43 86 44 87
REMARK SMILES IDX 45 88 46 89
REMARK H PARENT 4 11 4 12 67 45 37 56
REMARK Flexibility Score: inf
ROOT
ATOM      1  C   UNL A   1      36.235  22.956  23.346  1.00  0.00     0.274 C 
ENDROOT
BRANCH   1   2
ATOM      2  O   UNL A   1      35.085  23.618  23.904  1.00  0.00    -0.457 OA
BRANCH   2   3
ATOM      3  C   UNL A   1      34.099  23.925  23.014  1.00  0.00     0.368 C 
ATOM      4  O   UNL A   1      34.070  23.506  21.861  1.00  0.00    -0.245 OA
BRANCH   3   5
ATOM      5  C   UNL A   1      33.038  24.887  23.606  1.00  0.00     0.195 C 
ATOM      6  C   UNL A   1      31.644  24.351  23.252  1.00  0.00     0.082 C 
ATOM      7  C   UNL A   1      33.059  24.801  25.161  1.00  0.00     0.096 C 
ATOM      8  C   UNL A   1      30.733  24.811  24.380  1.00  0.00     0.022 C 
ATOM      9  C   UNL A   1      31.603  24.786  25.635  1.00  0.00     0.062 C 
BRANCH   5  10
ATOM     10  N   UNL A   1      33.299  26.320  23.321  1.00  0.00    -0.332 N 
ATOM     11  H   UNL A   1      33.256  26.815  24.213  1.00  0.00     0.347 HD
ATOM     12  H   UNL A   1      34.203  26.316  22.848  1.00  0.00     0.347 HD
BRANCH  10  13
ATOM     13  C   UNL A   1      32.422  27.025  22.399  1.00  0.00     0.261 C 
BRANCH  13  14
ATOM     14  C   UNL A   1      31.668  28.145  23.135  1.00  0.00     0.058 C 
ATOM     15  C   UNL A   1      30.452  28.679  22.390  1.00  0.00     0.010 C 
ENDBRANCH  13  14
ENDBRANCH  10  13
ENDBRANCH   5  10
BRANCH   9  16
ATOM     16  S   UNL A   1      31.275  23.422  26.811  1.00  0.00    -0.082 SA
BRANCH  16  17
ATOM     17  C   UNL A   1      32.643  22.392  26.601  1.00  0.00     0.191 A 
ATOM     18  N   UNL A   1      33.704  22.383  27.373  1.00  0.00    -0.123 NA
ATOM     19  N   UNL A   1      32.799  21.483  25.591  1.00  0.00    -0.309 N 
ATOM     20  N   UNL A   1      34.574  21.441  26.881  1.00  0.00    -0.135 NA
ATOM     21  C   UNL A   1      34.029  20.902  25.809  1.00  0.00     0.130 A 
ATOM     22  C   UNL A   1      31.896  21.135  24.523  1.00  0.00     0.154 C 
ATOM     23  C   UNL A   1      34.625  19.850  24.956  1.00  0.00     0.090 C 
ENDBRANCH  16  17
ENDBRANCH   9  16
ENDBRANCH   3   5
ENDBRANCH   2   3
ENDBRANCH   1   2
BRANCH   1  24
ATOM     24  C   UNL A   1      37.145  22.413  24.445  1.00  0.00     0.275 C 
BRANCH  24  25
ATOM     25  O   UNL A   1      37.781  23.491  25.154  1.00  0.00    -0.458 OA
BRANCH  25  26
ATOM     26  C   UNL A   1      38.863  23.146  25.889  1.00  0.00     0.338 C 
ATOM     27  O   UNL A   1      39.436  22.072  25.909  1.00  0.00    -0.246 OA
BRANCH  26  28
ATOM     28  C   UNL A   1      39.289  24.292  26.708  1.00  0.00     0.060 A 
ATOM     29  C   UNL A   1      38.825  24.426  28.016  1.00  0.00     0.016 A 
ATOM     30  C   UNL A   1      40.086  25.282  26.137  1.00  0.00     0.016 A 
ATOM     31  C   UNL A   1      39.131  25.568  28.754  1.00  0.00     0.010 A 
ATOM     32  C   UNL A   1      40.449  26.394  26.899  1.00  0.00     0.010 A 
ATOM     33  C   UNL A   1      39.969  26.550  28.212  1.00  0.00    -0.014 A 
BRANCH  33  34
ATOM     34  C   UNL A   1      40.391  27.719  29.022  1.00  0.00     0.031 A 
ATOM     35  C   UNL A   1      41.668  27.677  29.812  1.00  0.00     0.074 A 
ATOM     36  C   UNL A   1      39.595  28.804  29.083  1.00  0.00     0.049 A 
ATOM     37  N   UNL A   1      42.099  28.512  30.722  1.00  0.00    -0.248 NA
ATOM     38  C   UNL A   1      42.576  26.551  29.546  1.00  0.00     0.031 C 
ATOM     39  C   UNL A   1      38.350  28.985  28.331  1.00  0.00     0.029 A 
ATOM     40  N   UNL A   1      39.704  29.953  29.824  1.00  0.00    -0.354 N 
ATOM     41  C   UNL A   1      43.311  27.996  31.165  1.00  0.00     0.074 A 
ATOM     42  C   UNL A   1      43.548  26.777  30.420  1.00  0.00     0.031 C 
ATOM     43  C   UNL A   1      37.813  30.172  28.649  1.00  0.00     0.029 A 
ATOM     44  C   UNL A   1      38.633  30.802  29.679  1.00  0.00     0.049 A 
ATOM     45  H   UNL A   1      40.475  30.150  30.404  1.00  0.00     0.167 HD
ATOM     46  C   UNL A   1      44.143  28.492  32.112  1.00  0.00     0.031 A 
ATOM     47  C   UNL A   1      38.312  31.932  30.337  1.00  0.00     0.031 A 
ATOM     48  C   UNL A   1      43.903  29.708  32.844  1.00  0.00     0.049 A 
ATOM     49  C   UNL A   1      39.206  32.418  31.439  1.00  0.00     0.074 A 
ATOM     50  C   UNL A   1      44.695  30.302  33.811  1.00  0.00     0.029 A 
ATOM     51  N   UNL A   1      42.785  30.513  32.693  1.00  0.00    -0.354 N 
ATOM     52  N   UNL A   1      40.336  31.907  31.864  1.00  0.00    -0.248 NA
ATOM     53  C   UNL A   1      38.771  33.618  32.166  1.00  0.00     0.031 C 
ATOM     54  C   UNL A   1      44.034  31.445  34.276  1.00  0.00     0.029 A 
ATOM     55  C   UNL A   1      42.849  31.583  33.569  1.00  0.00     0.049 A 
ATOM     56  H   UNL A   1      42.052  30.349  32.057  1.00  0.00     0.167 HD
ATOM     57  C   UNL A   1      40.747  32.721  32.911  1.00  0.00     0.074 A 
ATOM     58  C   UNL A   1      39.755  33.770  33.042  1.00  0.00     0.031 C 
ATOM     59  C   UNL A   1      41.844  32.606  33.697  1.00  0.00     0.031 A 
BRANCH  46  60
ATOM     60  C   UNL A   1      45.372  27.693  32.443  1.00  0.00    -0.014 A 
ATOM     61  C   UNL A   1      45.377  26.764  33.499  1.00  0.00     0.010 A 
ATOM     62  C   UNL A   1      46.529  27.847  31.659  1.00  0.00     0.010 A 
ATOM     63  C   UNL A   1      46.531  26.028  33.784  1.00  0.00     0.020 A 
ATOM     64  C   UNL A   1      47.679  27.101  31.931  1.00  0.00     0.020 A 
ATOM     65  C   UNL A   1      47.678  26.207  33.004  1.00  0.00     0.054 A 
BRANCH  65  66
ATOM     66  S   UNL A   1      49.160  25.233  33.385  1.00  0.00     0.124 S 
ATOM     67  O   UNL A   1      48.583  24.027  33.972  1.00  0.00    -0.237 OA
ATOM     68  O   UNL A   1      49.778  25.059  32.074  1.00  0.00    -0.237 OA
ATOM     69  O   UNL A   1      49.904  26.083  34.312  1.00  0.00    -0.744 OA
ENDBRANCH  65  66
ENDBRANCH  46  60
BRANCH  47  70
ATOM     70  C   UNL A   1      37.043  32.633  30.009  1.00  0.00    -0.014 A 
ATOM     71  C   UNL A   1      35.866  32.349  30.722  1.00  0.00     0.010 A 
ATOM     72  C   UNL A   1      37.022  33.626  29.012  1.00  0.00     0.010 A 
ATOM     73  C   UNL A   1      34.690  33.051  30.447  1.00  0.00     0.020 A 
ATOM     74  C   UNL A   1      35.853  34.345  28.751  1.00  0.00     0.020 A 
ATOM     75  C   UNL A   1      34.693  34.049  29.467  1.00  0.00     0.054 A 
BRANCH  75  76
ATOM     76  S   UNL A   1      33.183  35.016  29.187  1.00  0.00     0.124 S 
ATOM     77  O   UNL A   1      32.506  34.232  28.160  1.00  0.00    -0.237 OA
ATOM     78  O   UNL A   1      32.554  35.013  30.506  1.00  0.00    -0.237 OA
ATOM     79  O   UNL A   1      33.691  36.316  28.754  1.00  0.00    -0.744 OA
ENDBRANCH  75  76
ENDBRANCH  47  70
BRANCH  59  80
ATOM     80  C   UNL A   1      42.030  33.642  34.769  1.00  0.00    -0.014 A 
ATOM     81  C   UNL A   1      41.609  33.392  36.087  1.00  0.00     0.010 A 
ATOM     82  C   UNL A   1      42.682  34.851  34.469  1.00  0.00     0.010 A 
ATOM     83  C   UNL A   1      41.822  34.344  37.087  1.00  0.00     0.020 A 
ATOM     84  C   UNL A   1      42.913  35.798  35.471  1.00  0.00     0.020 A 
ATOM     85  C   UNL A   1      42.471  35.541  36.772  1.00  0.00     0.054 A 
BRANCH  85  86
ATOM     86  S   UNL A   1      42.789  36.741  38.096  1.00  0.00     0.124 S 
ATOM     87  O   UNL A   1      43.676  37.694  37.434  1.00  0.00    -0.237 OA
ATOM     88  O   UNL A   1      41.452  37.240  38.408  1.00  0.00    -0.237 OA
ATOM     89  O   UNL A   1      43.409  35.938  39.148  1.00  0.00    -0.744 OA
ENDBRANCH  85  86
ENDBRANCH  59  80
ENDBRANCH  33  34
ENDBRANCH  26  28
ENDBRANCH  25  26
ENDBRANCH  24  25
ENDBRANCH   1  24
TORSDOF 19
ENDMDL
MODEL 3
REMARK VINA RESULT:      -9.8      1.676      2.381
REMARK SMILES CCC[NH2+][C@]1(C(=O)OCCOC(=O)c2ccc(-c3c4nc(c(-c5ccc(S(=O)(=O)[O-])cc5)c5ccc([nH]5)c(-c5ccc(S(=O)(=O)[O-])cc5)c5nc(c(-c6ccc(S(=O)(=O)[O-])cc6)c6ccc3[nH]6)C=C5)C=C4)cc2)CC[C@@H](Sc2nnc(C)n2C)C1
REMARK SMILES IDX 9 1 8 2 6 3 7 4 5 5 74 6 85 7 75 8 76 9 4 10 3 13 2 14 1 15
REMARK SMILES IDX 77 16 78 17 79 18 83 19 80 20 81 21 84 22 82 23 10 24 11 25
REMARK SMILES IDX 12 26 13 27 14 28 15 29 73 30 16 31 72 32 17 33 18 34 19 35
REMARK SMILES IDX 66 36 20 37 71 38 65 39 67 40 21 41 70 42 64 43 63 44 22 46
REMARK SMILES IDX 52 47 33 48 51 49 34 50 37 51 50 52 68 53 35 54 36 55 49 57
REMARK SMILES IDX 69 58 38 59 23 60 24 61 32 62 25 63 31 64 26 65 27 66 28 67
REMARK SMILES IDX 29 68 30 69 53 70 54 71 62 72 55 73 61 74 56 75 57 76 58 77
REMARK SMILES IDX 59 78 60 79 39 80 40 81 48 82 41 83 47 84 42 85 43 86 44 87
REMARK SMILES IDX 45 88 46 89
REMARK H PARENT 4 11 4 12 67 45 37 56
REMARK Flexibility Score: inf
ROOT
ATOM      1  C   UNL A   1      32.193  28.363  27.225  1.00  0.00     0.274 C 
ENDROOT
BRANCH   1   2
ATOM      2  O   UNL A   1      32.651  27.100  26.707  1.00  0.00    -0.457 OA
BRANCH   2   3
ATOM      3  C   UNL A   1      31.710  26.361  26.056  1.00  0.00     0.368 C 
ATOM      4  O   UNL A   1      30.782  25.791  26.623  1.00  0.00    -0.245 OA
BRANCH   3   5
ATOM      5  C   UNL A   1      31.957  26.289  24.528  1.00  0.00     0.195 C 
ATOM      6  C   UNL A   1      33.472  26.326  24.278  1.00  0.00     0.082 C 
ATOM      7  C   UNL A   1      31.551  24.883  23.995  1.00  0.00     0.096 C 
ATOM      8  C   UNL A   1      33.691  25.544  22.993  1.00  0.00     0.022 C 
ATOM      9  C   UNL A   1      32.635  24.442  23.006  1.00  0.00     0.062 C 
BRANCH   5  10
ATOM     10  N   UNL A   1      31.124  27.229  23.737  1.00  0.00    -0.332 N 
ATOM     11  H   UNL A   1      31.141  26.902  22.771  1.00  0.00     0.347 HD
ATOM     12  H   UNL A   1      30.218  27.209  24.207  1.00  0.00     0.347 HD
BRANCH  10  13
ATOM     13  C   UNL A   1      31.479  28.640  23.718  1.00  0.00     0.261 C 
BRANCH  13  14
ATOM     14  C   UNL A   1      30.210  29.507  23.747  1.00  0.00     0.058 C 
ATOM     15  C   UNL A   1      29.490  29.610  22.409  1.00  0.00     0.010 C 
ENDBRANCH  13  14
ENDBRANCH  10  13
ENDBRANCH   5  10
BRANCH   9  16
ATOM     16  S   UNL A   1      33.244  22.753  23.360  1.00  0.00    -0.082 SA
BRANCH  16  17
ATOM     17  C   UNL A   1      34.402  23.013  24.613  1.00  0.00     0.191 A 
ATOM     18  N   UNL A   1      34.113  23.182  25.882  1.00  0.00    -0.123 NA
ATOM     19  N   UNL A   1      35.755  23.102  24.431  1.00  0.00    -0.309 N 
ATOM     20  N   UNL A   1      35.293  23.369  26.560  1.00  0.00    -0.135 NA
ATOM     21  C   UNL A   1      36.278  23.322  25.686  1.00  0.00     0.130 A 
ATOM     22  C   UNL A   1      36.528  22.966  23.223  1.00  0.00     0.154 C 
ATOM     23  C   UNL A   1      37.720  23.487  25.978  1.00  0.00     0.090 C 
ENDBRANCH  16  17
ENDBRANCH   9  16
ENDBRANCH   3   5
ENDBRANCH   2   3
ENDBRANCH   1   2
BRANCH   1  24
ATOM     24  C   UNL A   1      33.245  29.453  27.028  1.00  0.00     0.275 C 
BRANCH  24  25
ATOM     25  O   UNL A   1      34.492  29.068  27.633  1.00  0.00    -0.458 OA
BRANCH  25  26
ATOM     26  C   UNL A   1      35.125  30.040  28.330  1.00  0.00     0.338 C 
ATOM     27  O   UNL A   1      34.643  31.061  28.787  1.00  0.00    -0.246 OA
BRANCH  26  28
ATOM     28  C   UNL A   1      36.547  29.694  28.480  1.00  0.00     0.060 A 
ATOM     29  C   UNL A   1      37.049  29.327  29.728  1.00  0.00     0.016 A 
ATOM     30  C   UNL A   1      37.400  29.822  27.386  1.00  0.00     0.016 A 
ATOM     31  C   UNL A   1      38.415  29.113  29.898  1.00  0.00     0.010 A 
ATOM     32  C   UNL A   1      38.760  29.542  27.540  1.00  0.00     0.010 A 
ATOM     33  C   UNL A   1      39.280  29.192  28.799  1.00  0.00    -0.014 A 
BRANCH  33  34
ATOM     34  C   UNL A   1      40.719  28.862  28.942  1.00  0.00     0.031 A 
ATOM     35  C   UNL A   1      41.711  29.927  29.315  1.00  0.00     0.074 A 
ATOM     36  C   UNL A   1      41.139  27.608  28.687  1.00  0.00     0.049 A 
ATOM     37  N   UNL A   1      43.018  29.876  29.294  1.00  0.00    -0.248 NA
ATOM     38  C   UNL A   1      41.163  31.216  29.766  1.00  0.00     0.031 C 
ATOM     39  C   UNL A   1      40.271  26.475  28.356  1.00  0.00     0.029 A 
ATOM     40  N   UNL A   1      42.404  27.079  28.649  1.00  0.00    -0.354 N 
ATOM     41  C   UNL A   1      43.452  31.134  29.695  1.00  0.00     0.074 A 
ATOM     42  C   UNL A   1      42.268  31.926  29.956  1.00  0.00     0.031 C 
ATOM     43  C   UNL A   1      41.029  25.387  28.149  1.00  0.00     0.029 A 
ATOM     44  C   UNL A   1      42.435  25.761  28.260  1.00  0.00     0.049 A 
ATOM     45  H   UNL A   1      43.212  27.594  28.878  1.00  0.00     0.167 HD
ATOM     46  C   UNL A   1      44.722  31.586  29.825  1.00  0.00     0.031 A 
ATOM     47  C   UNL A   1      43.473  24.955  27.969  1.00  0.00     0.031 A 
ATOM     48  C   UNL A   1      45.895  30.791  29.570  1.00  0.00     0.049 A 
ATOM     49  C   UNL A   1      44.869  25.501  28.039  1.00  0.00     0.074 A 
ATOM     50  C   UNL A   1      47.225  31.154  29.690  1.00  0.00     0.029 A 
ATOM     51  N   UNL A   1      45.877  29.474  29.138  1.00  0.00    -0.354 N 
ATOM     52  N   UNL A   1      45.262  26.699  28.396  1.00  0.00    -0.248 NA
ATOM     53  C   UNL A   1      45.956  24.596  27.645  1.00  0.00     0.031 C 
ATOM     54  C   UNL A   1      48.012  30.068  29.288  1.00  0.00     0.029 A 
ATOM     55  C   UNL A   1      47.172  29.017  28.957  1.00  0.00     0.049 A 
ATOM     56  H   UNL A   1      45.064  28.941  28.982  1.00  0.00     0.167 HD
ATOM     57  C   UNL A   1      46.646  26.694  28.267  1.00  0.00     0.074 A 
ATOM     58  C   UNL A   1      47.021  25.367  27.820  1.00  0.00     0.031 C 
ATOM     59  C   UNL A   1      47.524  27.700  28.494  1.00  0.00     0.031 A 
BRANCH  46  60
ATOM     60  C   UNL A   1      44.910  33.025  30.221  1.00  0.00    -0.014 A 
ATOM     61  C   UNL A   1      45.066  33.397  31.568  1.00  0.00     0.010 A 
ATOM     62  C   UNL A   1      44.969  34.014  29.223  1.00  0.00     0.010 A 
ATOM     63  C   UNL A   1      45.246  34.740  31.910  1.00  0.00     0.020 A 
ATOM     64  C   UNL A   1      45.165  35.355  29.561  1.00  0.00     0.020 A 
ATOM     65  C   UNL A   1      45.285  35.712  30.906  1.00  0.00     0.054 A 
BRANCH  65  66
ATOM     66  S   UNL A   1      45.530  37.448  31.373  1.00  0.00     0.124 S 
ATOM     67  O   UNL A   1      44.352  38.084  30.788  1.00  0.00    -0.237 OA
ATOM     68  O   UNL A   1      45.551  37.391  32.832  1.00  0.00    -0.237 OA
ATOM     69  O   UNL A   1      46.802  37.800  30.748  1.00  0.00    -0.744 OA
ENDBRANCH  65  66
ENDBRANCH  46  60
BRANCH  47  70
ATOM     70  C   UNL A   1      43.213  23.565  27.512  1.00  0.00    -0.014 A 
ATOM     71  C   UNL A   1      42.797  22.579  28.423  1.00  0.00     0.010 A 
ATOM     72  C   UNL A   1      43.334  23.236  26.149  1.00  0.00     0.010 A 
ATOM     73  C   UNL A   1      42.501  21.289  27.977  1.00  0.00     0.020 A 
ATOM     74  C   UNL A   1      43.017  21.952  25.697  1.00  0.00     0.020 A 
ATOM     75  C   UNL A   1      42.607  20.985  26.616  1.00  0.00     0.054 A 
BRANCH  75  76
ATOM     76  S   UNL A   1      42.128  19.332  26.040  1.00  0.00     0.124 S 
ATOM     77  O   UNL A   1      40.684  19.473  25.883  1.00  0.00    -0.237 OA
ATOM     78  O   UNL A   1      42.890  19.193  24.802  1.00  0.00    -0.237 OA
ATOM     79  O   UNL A   1      42.561  18.458  27.127  1.00  0.00    -0.744 OA
ENDBRANCH  75  76
ENDBRANCH  47  70
BRANCH  59  80
ATOM     80  C   UNL A   1      48.979  27.405  28.262  1.00  0.00    -0.014 A 
ATOM     81  C   UNL A   1      49.735  26.729  29.235  1.00  0.00     0.010 A 
ATOM     82  C   UNL A   1      49.578  27.754  27.039  1.00  0.00     0.010 A 
ATOM     83  C   UNL A   1      51.077  26.422  28.995  1.00  0.00     0.020 A 
ATOM     84  C   UNL A   1      50.915  27.432  26.789  1.00  0.00     0.020 A 
ATOM     85  C   UNL A   1      51.658  26.777  27.773  1.00  0.00     0.054 A 
BRANCH  85  86
ATOM     86  S   UNL A   1      53.385  26.318  27.459  1.00  0.00     0.124 S 
ATOM     87  O   UNL A   1      53.874  27.475  26.713  1.00  0.00    -0.237 OA
ATOM     88  O   UNL A   1      53.929  26.164  28.806  1.00  0.00    -0.237 OA
ATOM     89  O   UNL A   1      53.279  25.080  26.691  1.00  0.00    -0.744 OA
ENDBRANCH  85  86
ENDBRANCH  59  80
ENDBRANCH  33  34
ENDBRANCH  26  28
ENDBRANCH  25  26
ENDBRANCH  24  25
ENDBRANCH   1  24
TORSDOF 19
ENDMDL
