MODEL 1
REMARK VINA RESULT:     -11.4      0.000      0.000
REMARK SMILES C[C@H]1CC[C@@](NC(=O)N[C@H]2CCOC2)(C(=O)OCCOC(=O)c2ccc(-c3c4nc(c(-c5ccc(S(=O)(=O)[O-])cc5)c5ccc([nH]5)c(-c5ccc(S(=O)(=O)[O-])cc5)c5nc(c(-c6ccc(S(=O)(=O)[O-])cc6)c6ccc3[nH]6)C=C5)C=C4)cc2)CC1
REMARK SMILES IDX 19 1 18 2 17 3 15 4 16 5 5 6 1 7 2 8 84 9 3 10 83 11 4 12
REMARK SMILES IDX 6 13 7 14 8 16 9 17 10 19 11 20 14 21 12 22 13 23 20 24
REMARK SMILES IDX 21 25 22 26 23 27 24 28 82 29 25 30 81 31 26 32 27 33 28 34
REMARK SMILES IDX 75 35 29 36 80 37 74 38 76 39 30 40 79 41 73 42 72 43 31 45
REMARK SMILES IDX 61 46 42 47 60 48 43 49 46 50 59 51 77 52 44 53 45 54 58 56
REMARK SMILES IDX 78 57 47 58 32 59 33 60 41 61 34 62 40 63 35 64 36 65 37 66
REMARK SMILES IDX 38 67 39 68 62 69 63 70 71 71 64 72 70 73 65 74 66 75 67 76
REMARK SMILES IDX 68 77 69 78 48 79 49 80 57 81 50 82 56 83 51 84 52 85 53 86
REMARK SMILES IDX 54 87 55 88
REMARK H PARENT 6 15 9 18 76 44 46 55
REMARK Flexibility Score: inf
ROOT
ATOM      1  C   UNL A   1      33.226  28.959  27.384  1.00  0.00     0.275 C 
ENDROOT
BRANCH   1   2
ATOM      2  C   UNL A   1      31.769  28.594  27.041  1.00  0.00     0.274 C 
BRANCH   2   3
ATOM      3  O   UNL A   1      31.292  27.229  27.099  1.00  0.00    -0.460 OA
BRANCH   3   4
ATOM      4  C   UNL A   1      31.854  26.251  26.347  1.00  0.00     0.332 C 
ATOM      5  O   UNL A   1      33.016  25.908  26.436  1.00  0.00    -0.249 OA
BRANCH   4   6
ATOM      6  C   UNL A   1      30.838  25.491  25.480  1.00  0.00     0.139 C 
ATOM      7  C   UNL A   1      32.680  28.194  22.768  1.00  0.00     0.007 C 
ATOM      8  C   UNL A   1      31.755  26.986  23.003  1.00  0.00    -0.014 C 
ATOM      9  C   UNL A   1      30.521  27.441  23.807  1.00  0.00     0.006 C 
ATOM     10  C   UNL A   1      32.565  25.828  23.608  1.00  0.00     0.006 C 
ATOM     11  C   UNL A   1      29.855  26.407  24.725  1.00  0.00     0.041 C 
ATOM     12  C   UNL A   1      31.715  24.817  24.383  1.00  0.00     0.041 C 
BRANCH   6  13
ATOM     13  N   UNL A   1      30.105  24.428  26.214  1.00  0.00    -0.322 N 
ATOM     14  C   UNL A   1      30.390  23.388  26.994  1.00  0.00     0.316 C 
ATOM     15  H   UNL A   1      29.133  24.518  26.088  1.00  0.00     0.166 HD
ATOM     16  O   UNL A   1      29.468  22.982  27.712  1.00  0.00    -0.249 OA
ATOM     17  N   UNL A   1      31.534  22.716  27.086  1.00  0.00    -0.333 N 
ATOM     18  H   UNL A   1      31.523  22.127  27.875  1.00  0.00     0.165 HD
BRANCH  17  19
ATOM     19  C   UNL A   1      32.798  22.589  26.376  1.00  0.00     0.112 C 
ATOM     20  C   UNL A   1      33.983  22.344  27.286  1.00  0.00     0.056 C 
ATOM     21  C   UNL A   1      32.881  21.326  25.506  1.00  0.00     0.185 C 
ATOM     22  C   UNL A   1      35.006  21.794  26.311  1.00  0.00     0.162 C 
ATOM     23  O   UNL A   1      34.275  21.014  25.351  1.00  0.00    -0.379 OA
ENDBRANCH  17  19
ENDBRANCH   6  13
ENDBRANCH   4   6
ENDBRANCH   3   4
ENDBRANCH   2   3
ENDBRANCH   1   2
BRANCH   1  24
ATOM     24  O   UNL A   1      33.553  30.344  27.121  1.00  0.00    -0.458 OA
BRANCH  24  25
ATOM     25  C   UNL A   1      34.378  30.880  28.074  1.00  0.00     0.338 C 
ATOM     26  O   UNL A   1      34.099  31.846  28.772  1.00  0.00    -0.246 OA
BRANCH  25  27
ATOM     27  C   UNL A   1      35.659  30.128  28.260  1.00  0.00     0.060 A 
ATOM     28  C   UNL A   1      36.086  29.674  29.506  1.00  0.00     0.016 A 
ATOM     29  C   UNL A   1      36.552  30.041  27.187  1.00  0.00     0.016 A 
ATOM     30  C   UNL A   1      37.417  29.269  29.705  1.00  0.00     0.010 A 
ATOM     31  C   UNL A   1      37.852  29.533  27.369  1.00  0.00     0.010 A 
ATOM     32  C   UNL A   1      38.334  29.193  28.644  1.00  0.00    -0.014 A 
BRANCH  32  33
ATOM     33  C   UNL A   1      39.783  28.843  28.865  1.00  0.00     0.031 A 
ATOM     34  C   UNL A   1      40.742  29.861  29.460  1.00  0.00     0.074 A 
ATOM     35  C   UNL A   1      40.276  27.619  28.568  1.00  0.00     0.049 A 
ATOM     36  N   UNL A   1      42.053  29.849  29.495  1.00  0.00    -0.248 NA
ATOM     37  C   UNL A   1      40.146  31.054  30.084  1.00  0.00     0.031 C 
ATOM     38  C   UNL A   1      39.503  26.484  28.061  1.00  0.00     0.029 A 
ATOM     39  N   UNL A   1      41.557  27.119  28.661  1.00  0.00    -0.354 N 
ATOM     40  C   UNL A   1      42.438  31.063  30.062  1.00  0.00     0.074 A 
ATOM     41  C   UNL A   1      41.219  31.782  30.366  1.00  0.00     0.031 C 
ATOM     42  C   UNL A   1      40.304  25.414  27.947  1.00  0.00     0.029 A 
ATOM     43  C   UNL A   1      41.675  25.811  28.248  1.00  0.00     0.049 A 
ATOM     44  H   UNL A   1      42.319  27.649  28.992  1.00  0.00     0.167 HD
ATOM     45  C   UNL A   1      43.685  31.543  30.300  1.00  0.00     0.031 A 
ATOM     46  C   UNL A   1      42.754  25.023  28.062  1.00  0.00     0.031 A 
ATOM     47  C   UNL A   1      44.902  30.805  30.066  1.00  0.00     0.049 A 
ATOM     48  C   UNL A   1      44.130  25.583  28.290  1.00  0.00     0.074 A 
ATOM     49  C   UNL A   1      46.211  31.210  30.278  1.00  0.00     0.029 A 
ATOM     50  N   UNL A   1      44.963  29.504  29.594  1.00  0.00    -0.354 N 
ATOM     51  N   UNL A   1      44.475  26.774  28.716  1.00  0.00    -0.248 NA
ATOM     52  C   UNL A   1      45.263  24.697  27.986  1.00  0.00     0.031 C 
ATOM     53  C   UNL A   1      47.064  30.169  29.891  1.00  0.00     0.029 A 
ATOM     54  C   UNL A   1      46.285  29.095  29.494  1.00  0.00     0.049 A 
ATOM     55  H   UNL A   1      44.183  28.950  29.364  1.00  0.00     0.167 HD
ATOM     56  C   UNL A   1      45.865  26.781  28.729  1.00  0.00     0.074 A 
ATOM     57  C   UNL A   1      46.296  25.465  28.305  1.00  0.00     0.031 C 
ATOM     58  C   UNL A   1      46.709  27.791  29.054  1.00  0.00     0.031 A 
BRANCH  45  59
ATOM     59  C   UNL A   1      43.811  32.966  30.790  1.00  0.00    -0.014 A 
ATOM     60  C   UNL A   1      44.014  34.045  29.912  1.00  0.00     0.010 A 
ATOM     61  C   UNL A   1      43.673  33.228  32.168  1.00  0.00     0.010 A 
ATOM     62  C   UNL A   1      44.123  35.350  30.407  1.00  0.00     0.020 A 
ATOM     63  C   UNL A   1      43.752  34.533  32.663  1.00  0.00     0.020 A 
ATOM     64  C   UNL A   1      43.997  35.585  31.780  1.00  0.00     0.054 A 
BRANCH  64  65
ATOM     65  S   UNL A   1      44.128  37.287  32.395  1.00  0.00     0.124 S 
ATOM     66  O   UNL A   1      43.130  37.301  33.461  1.00  0.00    -0.237 OA
ATOM     67  O   UNL A   1      45.518  37.364  32.837  1.00  0.00    -0.237 OA
ATOM     68  O   UNL A   1      43.803  38.104  31.228  1.00  0.00    -0.744 OA
ENDBRANCH  64  65
ENDBRANCH  45  59
BRANCH  46  69
ATOM     69  C   UNL A   1      42.580  23.633  27.547  1.00  0.00    -0.014 A 
ATOM     70  C   UNL A   1      42.743  23.344  26.182  1.00  0.00     0.010 A 
ATOM     71  C   UNL A   1      42.260  22.586  28.432  1.00  0.00     0.010 A 
ATOM     72  C   UNL A   1      42.594  22.035  25.712  1.00  0.00     0.020 A 
ATOM     73  C   UNL A   1      42.145  21.272  27.973  1.00  0.00     0.020 A 
ATOM     74  C   UNL A   1      42.304  21.006  26.613  1.00  0.00     0.054 A 
BRANCH  74  75
ATOM     75  S   UNL A   1      42.196  19.302  26.000  1.00  0.00     0.124 S 
ATOM     76  O   UNL A   1      42.685  18.538  27.142  1.00  0.00    -0.237 OA
ATOM     77  O   UNL A   1      40.773  19.160  25.703  1.00  0.00    -0.237 OA
ATOM     78  O   UNL A   1      43.069  19.307  24.828  1.00  0.00    -0.744 OA
ENDBRANCH  74  75
ENDBRANCH  46  69
BRANCH  58  79
ATOM     79  C   UNL A   1      48.185  27.499  28.983  1.00  0.00    -0.014 A 
ATOM     80  C   UNL A   1      48.866  26.925  30.073  1.00  0.00     0.010 A 
ATOM     81  C   UNL A   1      48.901  27.808  27.814  1.00  0.00     0.010 A 
ATOM     82  C   UNL A   1      50.247  26.716  30.012  1.00  0.00     0.020 A 
ATOM     83  C   UNL A   1      50.278  27.575  27.739  1.00  0.00     0.020 A 
ATOM     84  C   UNL A   1      50.945  27.051  28.848  1.00  0.00     0.054 A 
BRANCH  84  85
ATOM     85  S   UNL A   1      52.738  26.777  28.793  1.00  0.00     0.124 S 
ATOM     86  O   UNL A   1      52.878  25.925  27.615  1.00  0.00    -0.237 OA
ATOM     87  O   UNL A   1      53.268  28.132  28.654  1.00  0.00    -0.237 OA
ATOM     88  O   UNL A   1      53.029  26.130  30.070  1.00  0.00    -0.744 OA
ENDBRANCH  84  85
ENDBRANCH  58  79
ENDBRANCH  32  33
ENDBRANCH  25  27
ENDBRANCH  24  25
ENDBRANCH   1  24
TORSDOF 16
ENDMDL
MODEL 2
REMARK VINA RESULT:     -11.0      3.781      8.857
REMARK SMILES C[C@H]1CC[C@@](NC(=O)N[C@H]2CCOC2)(C(=O)OCCOC(=O)c2ccc(-c3c4nc(c(-c5ccc(S(=O)(=O)[O-])cc5)c5ccc([nH]5)c(-c5ccc(S(=O)(=O)[O-])cc5)c5nc(c(-c6ccc(S(=O)(=O)[O-])cc6)c6ccc3[nH]6)C=C5)C=C4)cc2)CC1
REMARK SMILES IDX 19 1 18 2 17 3 15 4 16 5 5 6 1 7 2 8 84 9 3 10 83 11 4 12
REMARK SMILES IDX 6 13 7 14 8 16 9 17 10 19 11 20 14 21 12 22 13 23 20 24
REMARK SMILES IDX 21 25 22 26 23 27 24 28 82 29 25 30 81 31 26 32 27 33 28 34
REMARK SMILES IDX 75 35 29 36 80 37 74 38 76 39 30 40 79 41 73 42 72 43 31 45
REMARK SMILES IDX 61 46 42 47 60 48 43 49 46 50 59 51 77 52 44 53 45 54 58 56
REMARK SMILES IDX 78 57 47 58 32 59 33 60 41 61 34 62 40 63 35 64 36 65 37 66
REMARK SMILES IDX 38 67 39 68 62 69 63 70 71 71 64 72 70 73 65 74 66 75 67 76
REMARK SMILES IDX 68 77 69 78 48 79 49 80 57 81 50 82 56 83 51 84 52 85 53 86
REMARK SMILES IDX 54 87 55 88
REMARK H PARENT 6 15 9 18 76 44 46 55
REMARK Flexibility Score: inf
ROOT
ATOM      1  C   UNL A   1      32.091  29.637  27.135  1.00  0.00     0.275 C 
ENDROOT
BRANCH   1   2
ATOM      2  C   UNL A   1      32.046  28.148  27.529  1.00  0.00     0.274 C 
BRANCH   2   3
ATOM      3  O   UNL A   1      31.197  27.202  26.837  1.00  0.00    -0.460 OA
BRANCH   3   4
ATOM      4  C   UNL A   1      31.715  26.147  26.164  1.00  0.00     0.332 C 
ATOM      5  O   UNL A   1      32.854  25.747  26.300  1.00  0.00    -0.249 OA
BRANCH   4   6
ATOM      6  C   UNL A   1      30.673  25.386  25.328  1.00  0.00     0.139 C 
ATOM      7  C   UNL A   1      32.377  28.140  22.579  1.00  0.00     0.007 C 
ATOM      8  C   UNL A   1      31.474  26.920  22.836  1.00  0.00    -0.014 C 
ATOM      9  C   UNL A   1      30.269  27.353  23.694  1.00  0.00     0.006 C 
ATOM     10  C   UNL A   1      32.320  25.764  23.393  1.00  0.00     0.006 C 
ATOM     11  C   UNL A   1      29.651  26.300  24.625  1.00  0.00     0.041 C 
ATOM     12  C   UNL A   1      31.512  24.734  24.190  1.00  0.00     0.041 C 
BRANCH   6  13
ATOM     13  N   UNL A   1      29.981  24.306  26.078  1.00  0.00    -0.322 N 
ATOM     14  C   UNL A   1      30.306  23.294  26.879  1.00  0.00     0.316 C 
ATOM     15  H   UNL A   1      29.007  24.353  25.946  1.00  0.00     0.166 HD
ATOM     16  O   UNL A   1      29.397  22.862  27.599  1.00  0.00    -0.249 OA
ATOM     17  N   UNL A   1      31.476  22.672  26.989  1.00  0.00    -0.333 N 
ATOM     18  H   UNL A   1      31.484  22.097  27.788  1.00  0.00     0.165 HD
BRANCH  17  19
ATOM     19  C   UNL A   1      32.748  22.586  26.288  1.00  0.00     0.112 C 
ATOM     20  C   UNL A   1      33.936  22.396  27.208  1.00  0.00     0.056 C 
ATOM     21  C   UNL A   1      32.886  21.317  25.433  1.00  0.00     0.185 C 
ATOM     22  C   UNL A   1      34.986  21.875  26.245  1.00  0.00     0.162 C 
ATOM     23  O   UNL A   1      34.292  21.057  25.290  1.00  0.00    -0.379 OA
ENDBRANCH  17  19
ENDBRANCH   6  13
ENDBRANCH   4   6
ENDBRANCH   3   4
ENDBRANCH   2   3
ENDBRANCH   1   2
BRANCH   1  24
ATOM     24  O   UNL A   1      33.346  30.038  26.535  1.00  0.00    -0.458 OA
BRANCH  24  25
ATOM     25  C   UNL A   1      33.987  31.010  27.257  1.00  0.00     0.338 C 
ATOM     26  O   UNL A   1      33.477  32.066  27.608  1.00  0.00    -0.246 OA
BRANCH  25  27
ATOM     27  C   UNL A   1      35.379  30.643  27.665  1.00  0.00     0.060 A 
ATOM     28  C   UNL A   1      35.767  29.327  27.905  1.00  0.00     0.016 A 
ATOM     29  C   UNL A   1      36.273  31.664  28.003  1.00  0.00     0.016 A 
ATOM     30  C   UNL A   1      36.961  29.044  28.590  1.00  0.00     0.010 A 
ATOM     31  C   UNL A   1      37.517  31.369  28.594  1.00  0.00     0.010 A 
ATOM     32  C   UNL A   1      37.862  30.056  28.955  1.00  0.00    -0.014 A 
BRANCH  32  33
ATOM     33  C   UNL A   1      39.101  29.769  29.765  1.00  0.00     0.031 A 
ATOM     34  C   UNL A   1      40.096  28.714  29.308  1.00  0.00     0.074 A 
ATOM     35  C   UNL A   1      39.383  30.442  30.903  1.00  0.00     0.049 A 
ATOM     36  N   UNL A   1      41.072  28.146  29.974  1.00  0.00    -0.248 NA
ATOM     37  C   UNL A   1      39.964  28.228  27.925  1.00  0.00     0.031 C 
ATOM     38  C   UNL A   1      38.595  31.539  31.467  1.00  0.00     0.029 A 
ATOM     39  N   UNL A   1      40.428  30.307  31.793  1.00  0.00    -0.354 N 
ATOM     40  C   UNL A   1      41.611  27.180  29.125  1.00  0.00     0.074 A 
ATOM     41  C   UNL A   1      40.859  27.249  27.890  1.00  0.00     0.031 C 
ATOM     42  C   UNL A   1      39.210  32.014  32.561  1.00  0.00     0.029 A 
ATOM     43  C   UNL A   1      40.368  31.178  32.857  1.00  0.00     0.049 A 
ATOM     44  H   UNL A   1      41.151  29.648  31.677  1.00  0.00     0.167 HD
ATOM     45  C   UNL A   1      42.628  26.309  29.350  1.00  0.00     0.031 A 
ATOM     46  C   UNL A   1      41.106  31.271  33.982  1.00  0.00     0.031 A 
ATOM     47  C   UNL A   1      43.428  26.282  30.550  1.00  0.00     0.049 A 
ATOM     48  C   UNL A   1      42.202  30.273  34.235  1.00  0.00     0.074 A 
ATOM     49  C   UNL A   1      44.480  25.435  30.866  1.00  0.00     0.029 A 
ATOM     50  N   UNL A   1      43.287  27.152  31.619  1.00  0.00    -0.354 N 
ATOM     51  N   UNL A   1      42.618  29.294  33.469  1.00  0.00    -0.248 NA
ATOM     52  C   UNL A   1      42.909  30.380  35.519  1.00  0.00     0.031 C 
ATOM     53  C   UNL A   1      44.944  25.766  32.145  1.00  0.00     0.029 A 
ATOM     54  C   UNL A   1      44.220  26.855  32.601  1.00  0.00     0.049 A 
ATOM     55  H   UNL A   1      42.621  27.875  31.673  1.00  0.00     0.167 HD
ATOM     56  C   UNL A   1      43.635  28.667  34.180  1.00  0.00     0.074 A 
ATOM     57  C   UNL A   1      43.796  29.399  35.419  1.00  0.00     0.031 C 
ATOM     58  C   UNL A   1      44.364  27.575  33.840  1.00  0.00     0.031 A 
BRANCH  45  59
ATOM     59  C   UNL A   1      42.905  25.263  28.298  1.00  0.00    -0.014 A 
ATOM     60  C   UNL A   1      43.948  25.396  27.365  1.00  0.00     0.010 A 
ATOM     61  C   UNL A   1      42.122  24.090  28.278  1.00  0.00     0.010 A 
ATOM     62  C   UNL A   1      44.173  24.401  26.406  1.00  0.00     0.020 A 
ATOM     63  C   UNL A   1      42.362  23.081  27.341  1.00  0.00     0.020 A 
ATOM     64  C   UNL A   1      43.375  23.252  26.397  1.00  0.00     0.054 A 
BRANCH  64  65
ATOM     65  S   UNL A   1      43.696  21.971  25.153  1.00  0.00     0.124 S 
ATOM     66  O   UNL A   1      42.731  20.939  25.526  1.00  0.00    -0.237 OA
ATOM     67  O   UNL A   1      43.419  22.664  23.897  1.00  0.00    -0.237 OA
ATOM     68  O   UNL A   1      45.097  21.619  25.370  1.00  0.00    -0.744 OA
ENDBRANCH  64  65
ENDBRANCH  45  59
BRANCH  46  69
ATOM     69  C   UNL A   1      40.774  32.304  35.006  1.00  0.00    -0.014 A 
ATOM     70  C   UNL A   1      39.849  32.034  36.029  1.00  0.00     0.010 A 
ATOM     71  C   UNL A   1      41.398  33.565  34.968  1.00  0.00     0.010 A 
ATOM     72  C   UNL A   1      39.557  33.004  36.994  1.00  0.00     0.020 A 
ATOM     73  C   UNL A   1      41.136  34.523  35.949  1.00  0.00     0.020 A 
ATOM     74  C   UNL A   1      40.209  34.240  36.952  1.00  0.00     0.054 A 
BRANCH  74  75
ATOM     75  S   UNL A   1      39.880  35.455  38.259  1.00  0.00     0.124 S 
ATOM     76  O   UNL A   1      39.674  36.677  37.490  1.00  0.00    -0.237 OA
ATOM     77  O   UNL A   1      38.694  34.908  38.911  1.00  0.00    -0.237 OA
ATOM     78  O   UNL A   1      41.096  35.419  39.068  1.00  0.00    -0.744 OA
ENDBRANCH  74  75
ENDBRANCH  46  69
BRANCH  58  79
ATOM     79  C   UNL A   1      45.417  27.123  34.818  1.00  0.00    -0.014 A 
ATOM     80  C   UNL A   1      46.766  27.490  34.655  1.00  0.00     0.010 A 
ATOM     81  C   UNL A   1      45.053  26.318  35.911  1.00  0.00     0.010 A 
ATOM     82  C   UNL A   1      47.739  27.014  35.538  1.00  0.00     0.020 A 
ATOM     83  C   UNL A   1      46.020  25.862  36.812  1.00  0.00     0.020 A 
ATOM     84  C   UNL A   1      47.361  26.194  36.605  1.00  0.00     0.054 A 
BRANCH  84  85
ATOM     85  S   UNL A   1      48.641  25.582  37.736  1.00  0.00     0.124 S 
ATOM     86  O   UNL A   1      47.866  25.278  38.935  1.00  0.00    -0.237 OA
ATOM     87  O   UNL A   1      49.174  24.423  37.022  1.00  0.00    -0.237 OA
ATOM     88  O   UNL A   1      49.564  26.709  37.857  1.00  0.00    -0.744 OA
ENDBRANCH  84  85
ENDBRANCH  58  79
ENDBRANCH  32  33
ENDBRANCH  25  27
ENDBRANCH  24  25
ENDBRANCH   1  24
TORSDOF 16
ENDMDL
MODEL 3
REMARK VINA RESULT:     -11.0      1.526      2.344
REMARK SMILES C[C@H]1CC[C@@](NC(=O)N[C@H]2CCOC2)(C(=O)OCCOC(=O)c2ccc(-c3c4nc(c(-c5ccc(S(=O)(=O)[O-])cc5)c5ccc([nH]5)c(-c5ccc(S(=O)(=O)[O-])cc5)c5nc(c(-c6ccc(S(=O)(=O)[O-])cc6)c6ccc3[nH]6)C=C5)C=C4)cc2)CC1
REMARK SMILES IDX 19 1 18 2 17 3 15 4 16 5 5 6 1 7 2 8 84 9 3 10 83 11 4 12
REMARK SMILES IDX 6 13 7 14 8 16 9 17 10 19 11 20 14 21 12 22 13 23 20 24
REMARK SMILES IDX 21 25 22 26 23 27 24 28 82 29 25 30 81 31 26 32 27 33 28 34
REMARK SMILES IDX 75 35 29 36 80 37 74 38 76 39 30 40 79 41 73 42 72 43 31 45
REMARK SMILES IDX 61 46 42 47 60 48 43 49 46 50 59 51 77 52 44 53 45 54 58 56
REMARK SMILES IDX 78 57 47 58 32 59 33 60 41 61 34 62 40 63 35 64 36 65 37 66
REMARK SMILES IDX 38 67 39 68 62 69 63 70 71 71 64 72 70 73 65 74 66 75 67 76
REMARK SMILES IDX 68 77 69 78 48 79 49 80 57 81 50 82 56 83 51 84 52 85 53 86
REMARK SMILES IDX 54 87 55 88
REMARK H PARENT 6 15 9 18 76 44 46 55
REMARK Flexibility Score: inf
ROOT
ATOM      1  C   UNL A   1      32.769  30.368  26.947  1.00  0.00     0.275 C 
ENDROOT
BRANCH   1   2
ATOM      2  C   UNL A   1      32.190  30.131  25.539  1.00  0.00     0.274 C 
BRANCH   2   3
ATOM      3  O   UNL A   1      32.795  29.196  24.615  1.00  0.00    -0.460 OA
BRANCH   3   4
ATOM      4  C   UNL A   1      32.057  28.540  23.687  1.00  0.00     0.332 C 
ATOM      5  O   UNL A   1      31.260  29.080  22.946  1.00  0.00    -0.249 OA
BRANCH   4   6
ATOM      6  C   UNL A   1      32.442  27.059  23.538  1.00  0.00     0.139 C 
ATOM      7  C   UNL A   1      31.138  27.377  27.569  1.00  0.00     0.007 C 
ATOM      8  C   UNL A   1      31.558  26.489  26.384  1.00  0.00    -0.014 C 
ATOM      9  C   UNL A   1      33.035  26.766  26.041  1.00  0.00     0.006 C 
ATOM     10  C   UNL A   1      30.554  26.659  25.233  1.00  0.00     0.006 C 
ATOM     11  C   UNL A   1      33.469  26.575  24.581  1.00  0.00     0.041 C 
ATOM     12  C   UNL A   1      31.122  26.297  23.857  1.00  0.00     0.041 C 
BRANCH   6  13
ATOM     13  N   UNL A   1      32.876  26.692  22.166  1.00  0.00    -0.322 N 
ATOM     14  C   UNL A   1      32.896  25.610  21.391  1.00  0.00     0.316 C 
ATOM     15  H   UNL A   1      33.257  27.469  21.696  1.00  0.00     0.166 HD
ATOM     16  O   UNL A   1      32.995  25.817  20.176  1.00  0.00    -0.249 OA
ATOM     17  N   UNL A   1      32.843  24.333  21.758  1.00  0.00    -0.333 N 
ATOM     18  H   UNL A   1      32.680  23.758  20.975  1.00  0.00     0.165 HD
BRANCH  17  19
ATOM     19  C   UNL A   1      32.952  23.527  22.964  1.00  0.00     0.112 C 
ATOM     20  C   UNL A   1      32.252  22.189  22.865  1.00  0.00     0.056 C 
ATOM     21  C   UNL A   1      34.384  23.044  23.245  1.00  0.00     0.185 C 
ATOM     22  C   UNL A   1      32.909  21.418  23.995  1.00  0.00     0.162 C 
ATOM     23  O   UNL A   1      34.276  21.855  24.045  1.00  0.00    -0.379 OA
ENDBRANCH  17  19
ENDBRANCH   6  13
ENDBRANCH   4   6
ENDBRANCH   3   4
ENDBRANCH   2   3
ENDBRANCH   1   2
BRANCH   1  24
ATOM     24  O   UNL A   1      34.073  30.996  26.938  1.00  0.00    -0.458 OA
BRANCH  24  25
ATOM     25  C   UNL A   1      34.622  31.086  28.189  1.00  0.00     0.338 C 
ATOM     26  O   UNL A   1      34.114  31.680  29.132  1.00  0.00    -0.246 OA
BRANCH  25  27
ATOM     27  C   UNL A   1      35.895  30.315  28.350  1.00  0.00     0.060 A 
ATOM     28  C   UNL A   1      36.352  29.875  29.590  1.00  0.00     0.016 A 
ATOM     29  C   UNL A   1      36.753  30.194  27.252  1.00  0.00     0.016 A 
ATOM     30  C   UNL A   1      37.681  29.450  29.755  1.00  0.00     0.010 A 
ATOM     31  C   UNL A   1      38.050  29.668  27.403  1.00  0.00     0.010 A 
ATOM     32  C   UNL A   1      38.564  29.340  28.669  1.00  0.00    -0.014 A 
BRANCH  32  33
ATOM     33  C   UNL A   1      40.013  28.968  28.852  1.00  0.00     0.031 A 
ATOM     34  C   UNL A   1      41.006  29.977  29.405  1.00  0.00     0.074 A 
ATOM     35  C   UNL A   1      40.477  27.733  28.556  1.00  0.00     0.049 A 
ATOM     36  N   UNL A   1      42.317  29.943  29.402  1.00  0.00    -0.248 NA
ATOM     37  C   UNL A   1      40.449  31.187  30.031  1.00  0.00     0.031 C 
ATOM     38  C   UNL A   1      39.671  26.605  28.085  1.00  0.00     0.029 A 
ATOM     39  N   UNL A   1      41.752  27.212  28.617  1.00  0.00    -0.354 N 
ATOM     40  C   UNL A   1      42.738  31.158  29.942  1.00  0.00     0.074 A 
ATOM     41  C   UNL A   1      41.541  31.901  30.272  1.00  0.00     0.031 C 
ATOM     42  C   UNL A   1      40.450  25.520  27.962  1.00  0.00     0.029 A 
ATOM     43  C   UNL A   1      41.836  25.898  28.217  1.00  0.00     0.049 A 
ATOM     44  H   UNL A   1      42.531  27.733  28.920  1.00  0.00     0.167 HD
ATOM     45  C   UNL A   1      44.000  31.620  30.137  1.00  0.00     0.031 A 
ATOM     46  C   UNL A   1      42.896  25.090  28.010  1.00  0.00     0.031 A 
ATOM     47  C   UNL A   1      45.197  30.858  29.877  1.00  0.00     0.049 A 
ATOM     48  C   UNL A   1      44.287  25.629  28.191  1.00  0.00     0.074 A 
ATOM     49  C   UNL A   1      46.518  31.244  30.045  1.00  0.00     0.029 A 
ATOM     50  N   UNL A   1      45.223  29.551  29.419  1.00  0.00    -0.354 N 
ATOM     51  N   UNL A   1      44.664  26.819  28.591  1.00  0.00    -0.248 NA
ATOM     52  C   UNL A   1      45.396  24.721  27.865  1.00  0.00     0.031 C 
ATOM     53  C   UNL A   1      47.343  30.184  29.647  1.00  0.00     0.029 A 
ATOM     54  C   UNL A   1      46.534  29.119  29.287  1.00  0.00     0.049 A 
ATOM     55  H   UNL A   1      44.427  29.007  29.220  1.00  0.00     0.167 HD
ATOM     56  C   UNL A   1      46.054  26.802  28.563  1.00  0.00     0.074 A 
ATOM     57  C   UNL A   1      46.450  25.474  28.143  1.00  0.00     0.031 C 
ATOM     58  C   UNL A   1      46.924  27.802  28.851  1.00  0.00     0.031 A 
BRANCH  45  59
ATOM     59  C   UNL A   1      44.163  33.046  30.605  1.00  0.00    -0.014 A 
ATOM     60  C   UNL A   1      44.480  33.365  31.937  1.00  0.00     0.010 A 
ATOM     61  C   UNL A   1      44.040  34.091  29.667  1.00  0.00     0.010 A 
ATOM     62  C   UNL A   1      44.625  34.701  32.331  1.00  0.00     0.020 A 
ATOM     63  C   UNL A   1      44.213  35.424  30.050  1.00  0.00     0.020 A 
ATOM     64  C   UNL A   1      44.485  35.722  31.385  1.00  0.00     0.054 A 
BRANCH  64  65
ATOM     65  S   UNL A   1      44.692  37.445  31.917  1.00  0.00     0.124 S 
ATOM     66  O   UNL A   1      45.991  37.400  32.585  1.00  0.00    -0.237 OA
ATOM     67  O   UNL A   1      44.662  38.178  30.654  1.00  0.00    -0.237 OA
ATOM     68  O   UNL A   1      43.549  37.676  32.796  1.00  0.00    -0.744 OA
ENDBRANCH  64  65
ENDBRANCH  45  59
BRANCH  46  69
ATOM     69  C   UNL A   1      42.684  23.697  27.518  1.00  0.00    -0.014 A 
ATOM     70  C   UNL A   1      42.745  23.399  26.146  1.00  0.00     0.010 A 
ATOM     71  C   UNL A   1      42.432  22.654  28.431  1.00  0.00     0.010 A 
ATOM     72  C   UNL A   1      42.560  22.087  25.697  1.00  0.00     0.020 A 
ATOM     73  C   UNL A   1      42.283  21.338  27.990  1.00  0.00     0.020 A 
ATOM     74  C   UNL A   1      42.339  21.064  26.623  1.00  0.00     0.054 A 
BRANCH  74  75
ATOM     75  S   UNL A   1      42.186  19.356  26.030  1.00  0.00     0.124 S 
ATOM     76  O   UNL A   1      43.065  19.359  24.867  1.00  0.00    -0.237 OA
ATOM     77  O   UNL A   1      42.652  18.579  27.176  1.00  0.00    -0.237 OA
ATOM     78  O   UNL A   1      40.760  19.224  25.739  1.00  0.00    -0.744 OA
ENDBRANCH  74  75
ENDBRANCH  46  69
BRANCH  58  79
ATOM     79  C   UNL A   1      48.392  27.485  28.741  1.00  0.00    -0.014 A 
ATOM     80  C   UNL A   1      49.115  26.994  29.844  1.00  0.00     0.010 A 
ATOM     81  C   UNL A   1      49.059  27.685  27.519  1.00  0.00     0.010 A 
ATOM     82  C   UNL A   1      50.489  26.761  29.741  1.00  0.00     0.020 A 
ATOM     83  C   UNL A   1      50.428  27.427  27.404  1.00  0.00     0.020 A 
ATOM     84  C   UNL A   1      51.138  26.988  28.524  1.00  0.00     0.054 A 
BRANCH  84  85
ATOM     85  S   UNL A   1      52.924  26.685  28.413  1.00  0.00     0.124 S 
ATOM     86  O   UNL A   1      53.434  28.005  28.054  1.00  0.00    -0.237 OA
ATOM     87  O   UNL A   1      53.258  26.228  29.761  1.00  0.00    -0.237 OA
ATOM     88  O   UNL A   1      53.039  25.667  27.371  1.00  0.00    -0.744 OA
ENDBRANCH  84  85
ENDBRANCH  58  79
ENDBRANCH  32  33
ENDBRANCH  25  27
ENDBRANCH  24  25
ENDBRANCH   1  24
TORSDOF 16
ENDMDL
