MODEL 1
REMARK VINA RESULT:     -10.6      0.000      0.000
REMARK SMILES O=C(N[C@@H]1C=C[C@@H](C(=O)OCCOC(=O)c2ccc(-c3c4nc(c(-c5ccc(S(=O)(=O)[O-])cc5)c5ccc([nH]5)c(-c5ccc(S(=O)(=O)[O-])cc5)c5nc(c(-c6ccc(S(=O)(=O)[O-])cc6)c6ccc3[nH]6)C=C5)C=C4)cc2)C1)Oc1ccccc1
REMARK SMILES IDX 11 1 10 2 8 3 9 4 7 5 4 6 5 7 76 8 6 9 3 10 1 11 2 12 77 14
REMARK SMILES IDX 78 15 79 16 83 17 80 18 82 19 81 20 12 21 13 22 14 23 15 24
REMARK SMILES IDX 16 25 17 26 75 27 18 28 74 29 19 30 20 31 21 32 68 33 22 34
REMARK SMILES IDX 73 35 67 36 69 37 23 38 72 39 66 40 65 41 24 43 54 44 35 45
REMARK SMILES IDX 53 46 36 47 39 48 52 49 70 50 37 51 38 52 51 54 71 55 40 56
REMARK SMILES IDX 25 57 26 58 34 59 27 60 33 61 28 62 29 63 30 64 31 65 32 66
REMARK SMILES IDX 55 67 56 68 64 69 57 70 63 71 58 72 59 73 60 74 61 75 62 76
REMARK SMILES IDX 41 77 42 78 50 79 43 80 49 81 44 82 45 83 46 84 47 85 48 86
REMARK H PARENT 3 13 69 42 39 53
REMARK Flexibility Score: inf
ROOT
ATOM      1  C   UNL A   1      39.123  21.465  25.930  1.00  0.00     0.274 C 
ENDROOT
BRANCH   1   2
ATOM      2  O   UNL A   1      37.902  21.670  25.199  1.00  0.00    -0.462 OA
BRANCH   2   3
ATOM      3  C   UNL A   1      37.267  22.848  25.442  1.00  0.00     0.312 C 
ATOM      4  O   UNL A   1      37.809  23.851  25.896  1.00  0.00    -0.252 OA
BRANCH   3   5
ATOM      5  C   UNL A   1      35.777  22.779  25.192  1.00  0.00     0.124 C 
ATOM      6  C   UNL A   1      33.553  22.390  26.062  1.00  0.00     0.109 C 
ATOM      7  C   UNL A   1      33.924  23.830  26.127  1.00  0.00    -0.006 C 
ATOM      8  C   UNL A   1      34.964  21.768  26.016  1.00  0.00     0.049 C 
ATOM      9  C   UNL A   1      35.131  24.067  25.602  1.00  0.00    -0.014 C 
BRANCH   6  10
ATOM     10  N   UNL A   1      32.825  22.035  24.844  1.00  0.00    -0.315 N 
ATOM     11  O   UNL A   1      32.104  20.772  23.135  1.00  0.00    -0.224 OA
ATOM     12  C   UNL A   1      32.339  20.860  24.338  1.00  0.00     0.413 C 
ATOM     13  H   UNL A   1      32.645  22.808  24.263  1.00  0.00     0.167 HD
BRANCH  12  14
ATOM     14  O   UNL A   1      32.199  19.766  25.183  1.00  0.00    -0.410 OA
BRANCH  14  15
ATOM     15  C   UNL A   1      32.979  18.600  25.000  1.00  0.00     0.132 A 
ATOM     16  C   UNL A   1      32.270  17.401  25.120  1.00  0.00     0.047 A 
ATOM     17  C   UNL A   1      34.321  18.601  24.621  1.00  0.00     0.047 A 
ATOM     18  C   UNL A   1      32.873  16.202  24.748  1.00  0.00     0.004 A 
ATOM     19  C   UNL A   1      34.923  17.394  24.256  1.00  0.00     0.004 A 
ATOM     20  C   UNL A   1      34.193  16.201  24.296  1.00  0.00     0.000 A 
ENDBRANCH  14  15
ENDBRANCH  12  14
ENDBRANCH   6  10
ENDBRANCH   3   5
ENDBRANCH   2   3
ENDBRANCH   1   2
BRANCH   1  21
ATOM     21  C   UNL A   1      39.588  20.008  25.882  1.00  0.00     0.275 C 
BRANCH  21  22
ATOM     22  O   UNL A   1      40.697  19.754  26.762  1.00  0.00    -0.458 OA
BRANCH  22  23
ATOM     23  C   UNL A   1      41.906  19.694  26.154  1.00  0.00     0.338 C 
ATOM     24  O   UNL A   1      42.322  18.813  25.422  1.00  0.00    -0.246 OA
BRANCH  23  25
ATOM     25  C   UNL A   1      42.646  20.941  26.397  1.00  0.00     0.060 A 
ATOM     26  C   UNL A   1      42.681  21.445  27.700  1.00  0.00     0.016 A 
ATOM     27  C   UNL A   1      43.206  21.657  25.338  1.00  0.00     0.016 A 
ATOM     28  C   UNL A   1      43.263  22.683  27.952  1.00  0.00     0.010 A 
ATOM     29  C   UNL A   1      43.792  22.900  25.593  1.00  0.00     0.010 A 
ATOM     30  C   UNL A   1      43.808  23.426  26.898  1.00  0.00    -0.014 A 
BRANCH  30  31
ATOM     31  C   UNL A   1      44.325  24.792  27.147  1.00  0.00     0.031 A 
ATOM     32  C   UNL A   1      43.371  25.874  27.570  1.00  0.00     0.074 A 
ATOM     33  C   UNL A   1      45.639  25.052  27.021  1.00  0.00     0.049 A 
ATOM     34  N   UNL A   1      43.586  27.156  27.710  1.00  0.00    -0.248 NA
ATOM     35  C   UNL A   1      41.993  25.457  27.879  1.00  0.00     0.031 C 
ATOM     36  C   UNL A   1      46.670  24.066  26.688  1.00  0.00     0.029 A 
ATOM     37  N   UNL A   1      46.332  26.227  27.159  1.00  0.00    -0.354 N 
ATOM     38  C   UNL A   1      42.370  27.702  28.102  1.00  0.00     0.074 A 
ATOM     39  C   UNL A   1      41.417  26.615  28.169  1.00  0.00     0.031 C 
ATOM     40  C   UNL A   1      47.864  24.680  26.649  1.00  0.00     0.029 A 
ATOM     41  C   UNL A   1      47.677  26.106  26.898  1.00  0.00     0.049 A 
ATOM     42  H   UNL A   1      45.908  27.076  27.420  1.00  0.00     0.167 HD
ATOM     43  C   UNL A   1      42.076  28.994  28.381  1.00  0.00     0.031 A 
ATOM     44  C   UNL A   1      48.639  27.046  26.832  1.00  0.00     0.031 A 
ATOM     45  C   UNL A   1      43.030  30.068  28.311  1.00  0.00     0.049 A 
ATOM     46  C   UNL A   1      48.270  28.486  27.071  1.00  0.00     0.074 A 
ATOM     47  C   UNL A   1      42.826  31.419  28.532  1.00  0.00     0.029 A 
ATOM     48  N   UNL A   1      44.375  29.909  28.012  1.00  0.00    -0.354 N 
ATOM     49  N   UNL A   1      47.101  28.997  27.380  1.00  0.00    -0.248 NA
ATOM     50  C   UNL A   1      49.347  29.477  26.943  1.00  0.00     0.031 C 
ATOM     51  C   UNL A   1      44.043  32.082  28.335  1.00  0.00     0.029 A 
ATOM     52  C   UNL A   1      45.012  31.137  28.038  1.00  0.00     0.049 A 
ATOM     53  H   UNL A   1      44.812  29.051  27.810  1.00  0.00     0.167 HD
ATOM     54  C   UNL A   1      47.309  30.366  27.503  1.00  0.00     0.074 A 
ATOM     55  C   UNL A   1      48.716  30.601  27.251  1.00  0.00     0.031 C 
ATOM     56  C   UNL A   1      46.416  31.343  27.794  1.00  0.00     0.031 A 
BRANCH  43  57
ATOM     57  C   UNL A   1      40.658  29.322  28.757  1.00  0.00    -0.014 A 
ATOM     58  C   UNL A   1      40.315  29.648  30.080  1.00  0.00     0.010 A 
ATOM     59  C   UNL A   1      39.663  29.352  27.763  1.00  0.00     0.010 A 
ATOM     60  C   UNL A   1      38.997  29.976  30.408  1.00  0.00     0.020 A 
ATOM     61  C   UNL A   1      38.347  29.699  28.083  1.00  0.00     0.020 A 
ATOM     62  C   UNL A   1      38.021  29.998  29.408  1.00  0.00     0.054 A 
BRANCH  62  63
ATOM     63  S   UNL A   1      36.323  30.460  29.853  1.00  0.00     0.124 S 
ATOM     64  O   UNL A   1      36.115  29.693  31.078  1.00  0.00    -0.237 OA
ATOM     65  O   UNL A   1      36.419  31.907  30.027  1.00  0.00    -0.237 OA
ATOM     66  O   UNL A   1      35.533  30.024  28.705  1.00  0.00    -0.744 OA
ENDBRANCH  62  63
ENDBRANCH  43  57
BRANCH  44  67
ATOM     67  C   UNL A   1      50.033  26.671  26.473  1.00  0.00    -0.014 A 
ATOM     68  C   UNL A   1      50.448  26.646  25.130  1.00  0.00     0.010 A 
ATOM     69  C   UNL A   1      50.948  26.306  27.478  1.00  0.00     0.010 A 
ATOM     70  C   UNL A   1      51.742  26.234  24.796  1.00  0.00     0.020 A 
ATOM     71  C   UNL A   1      52.250  25.920  27.150  1.00  0.00     0.020 A 
ATOM     72  C   UNL A   1      52.633  25.867  25.809  1.00  0.00     0.054 A 
BRANCH  72  73
ATOM     73  S   UNL A   1      54.315  25.354  25.363  1.00  0.00     0.124 S 
ATOM     74  O   UNL A   1      55.045  25.607  26.601  1.00  0.00    -0.237 OA
ATOM     75  O   UNL A   1      54.139  23.949  25.007  1.00  0.00    -0.237 OA
ATOM     76  O   UNL A   1      54.652  26.233  24.245  1.00  0.00    -0.744 OA
ENDBRANCH  72  73
ENDBRANCH  44  67
BRANCH  56  77
ATOM     77  C   UNL A   1      46.944  32.747  27.898  1.00  0.00    -0.014 A 
ATOM     78  C   UNL A   1      46.987  33.591  26.775  1.00  0.00     0.010 A 
ATOM     79  C   UNL A   1      47.354  33.241  29.150  1.00  0.00     0.010 A 
ATOM     80  C   UNL A   1      47.461  34.899  26.898  1.00  0.00     0.020 A 
ATOM     81  C   UNL A   1      47.808  34.555  29.280  1.00  0.00     0.020 A 
ATOM     82  C   UNL A   1      47.871  35.373  28.148  1.00  0.00     0.054 A 
BRANCH  82  83
ATOM     83  S   UNL A   1      48.442  37.089  28.293  1.00  0.00     0.124 S 
ATOM     84  O   UNL A   1      48.489  37.511  26.896  1.00  0.00    -0.237 OA
ATOM     85  O   UNL A   1      47.397  37.710  29.103  1.00  0.00    -0.237 OA
ATOM     86  O   UNL A   1      49.741  36.966  28.951  1.00  0.00    -0.744 OA
ENDBRANCH  82  83
ENDBRANCH  56  77
ENDBRANCH  30  31
ENDBRANCH  23  25
ENDBRANCH  22  23
ENDBRANCH  21  22
ENDBRANCH   1  21
TORSDOF 17
ENDMDL
MODEL 2
REMARK VINA RESULT:     -10.5      2.409      8.716
REMARK SMILES O=C(N[C@@H]1C=C[C@@H](C(=O)OCCOC(=O)c2ccc(-c3c4nc(c(-c5ccc(S(=O)(=O)[O-])cc5)c5ccc([nH]5)c(-c5ccc(S(=O)(=O)[O-])cc5)c5nc(c(-c6ccc(S(=O)(=O)[O-])cc6)c6ccc3[nH]6)C=C5)C=C4)cc2)C1)Oc1ccccc1
REMARK SMILES IDX 11 1 10 2 8 3 9 4 7 5 4 6 5 7 76 8 6 9 3 10 1 11 2 12 77 14
REMARK SMILES IDX 78 15 79 16 83 17 80 18 82 19 81 20 12 21 13 22 14 23 15 24
REMARK SMILES IDX 16 25 17 26 75 27 18 28 74 29 19 30 20 31 21 32 68 33 22 34
REMARK SMILES IDX 73 35 67 36 69 37 23 38 72 39 66 40 65 41 24 43 54 44 35 45
REMARK SMILES IDX 53 46 36 47 39 48 52 49 70 50 37 51 38 52 51 54 71 55 40 56
REMARK SMILES IDX 25 57 26 58 34 59 27 60 33 61 28 62 29 63 30 64 31 65 32 66
REMARK SMILES IDX 55 67 56 68 64 69 57 70 63 71 58 72 59 73 60 74 61 75 62 76
REMARK SMILES IDX 41 77 42 78 50 79 43 80 49 81 44 82 45 83 46 84 47 85 48 86
REMARK H PARENT 3 13 69 42 39 53
REMARK Flexibility Score: inf
ROOT
ATOM      1  C   UNL A   1      34.121  30.526  27.307  1.00  0.00     0.274 C 
ENDROOT
BRANCH   1   2
ATOM      2  O   UNL A   1      32.922  29.779  27.570  1.00  0.00    -0.462 OA
BRANCH   2   3
ATOM      3  C   UNL A   1      32.286  29.290  26.473  1.00  0.00     0.312 C 
ATOM      4  O   UNL A   1      31.880  29.976  25.539  1.00  0.00    -0.252 OA
BRANCH   3   5
ATOM      5  C   UNL A   1      32.026  27.802  26.552  1.00  0.00     0.124 C 
ATOM      6  C   UNL A   1      31.404  25.752  25.429  1.00  0.00     0.109 C 
ATOM      7  C   UNL A   1      32.881  25.943  25.446  1.00  0.00    -0.006 C 
ATOM      8  C   UNL A   1      30.958  27.217  25.615  1.00  0.00     0.049 C 
ATOM      9  C   UNL A   1      33.240  27.048  26.109  1.00  0.00    -0.014 C 
BRANCH   6  10
ATOM     10  N   UNL A   1      30.913  24.948  26.547  1.00  0.00    -0.315 N 
ATOM     11  O   UNL A   1      29.901  23.254  27.615  1.00  0.00    -0.224 OA
ATOM     12  C   UNL A   1      30.657  23.614  26.716  1.00  0.00     0.413 C 
ATOM     13  H   UNL A   1      30.725  25.481  27.353  1.00  0.00     0.167 HD
BRANCH  12  14
ATOM     14  O   UNL A   1      31.195  22.703  25.816  1.00  0.00    -0.410 OA
BRANCH  14  15
ATOM     15  C   UNL A   1      32.579  22.412  25.814  1.00  0.00     0.132 A 
ATOM     16  C   UNL A   1      33.140  22.243  27.083  1.00  0.00     0.047 A 
ATOM     17  C   UNL A   1      33.338  22.194  24.663  1.00  0.00     0.047 A 
ATOM     18  C   UNL A   1      34.433  21.742  27.205  1.00  0.00     0.004 A 
ATOM     19  C   UNL A   1      34.638  21.698  24.793  1.00  0.00     0.004 A 
ATOM     20  C   UNL A   1      35.175  21.450  26.060  1.00  0.00     0.000 A 
ENDBRANCH  14  15
ENDBRANCH  12  14
ENDBRANCH   6  10
ENDBRANCH   3   5
ENDBRANCH   2   3
ENDBRANCH   1   2
BRANCH   1  21
ATOM     21  C   UNL A   1      34.371  31.610  28.358  1.00  0.00     0.275 C 
BRANCH  21  22
ATOM     22  O   UNL A   1      35.771  31.839  28.593  1.00  0.00    -0.458 OA
BRANCH  22  23
ATOM     23  C   UNL A   1      36.262  31.263  29.717  1.00  0.00     0.338 C 
ATOM     24  O   UNL A   1      35.727  31.199  30.809  1.00  0.00    -0.246 OA
BRANCH  23  25
ATOM     25  C   UNL A   1      37.530  30.584  29.413  1.00  0.00     0.060 A 
ATOM     26  C   UNL A   1      38.430  30.364  30.460  1.00  0.00     0.016 A 
ATOM     27  C   UNL A   1      37.872  30.264  28.099  1.00  0.00     0.016 A 
ATOM     28  C   UNL A   1      39.690  29.838  30.196  1.00  0.00     0.010 A 
ATOM     29  C   UNL A   1      39.138  29.733  27.835  1.00  0.00     0.010 A 
ATOM     30  C   UNL A   1      40.059  29.534  28.880  1.00  0.00    -0.014 A 
BRANCH  30  31
ATOM     31  C   UNL A   1      41.438  29.081  28.585  1.00  0.00     0.031 A 
ATOM     32  C   UNL A   1      42.564  30.076  28.629  1.00  0.00     0.074 A 
ATOM     33  C   UNL A   1      41.681  27.787  28.308  1.00  0.00     0.049 A 
ATOM     34  N   UNL A   1      43.814  29.925  28.278  1.00  0.00    -0.248 NA
ATOM     35  C   UNL A   1      42.240  31.420  29.137  1.00  0.00     0.031 C 
ATOM     36  C   UNL A   1      40.680  26.718  28.309  1.00  0.00     0.029 A 
ATOM     37  N   UNL A   1      42.849  27.153  27.971  1.00  0.00    -0.354 N 
ATOM     38  C   UNL A   1      44.421  31.154  28.502  1.00  0.00     0.074 A 
ATOM     39  C   UNL A   1      43.401  32.046  29.010  1.00  0.00     0.031 C 
ATOM     40  C   UNL A   1      41.280  25.559  27.988  1.00  0.00     0.029 A 
ATOM     41  C   UNL A   1      42.690  25.813  27.707  1.00  0.00     0.049 A 
ATOM     42  H   UNL A   1      43.718  27.612  27.923  1.00  0.00     0.167 HD
ATOM     43  C   UNL A   1      45.714  31.505  28.302  1.00  0.00     0.031 A 
ATOM     44  C   UNL A   1      43.574  24.904  27.253  1.00  0.00     0.031 A 
ATOM     45  C   UNL A   1      46.720  30.611  27.796  1.00  0.00     0.049 A 
ATOM     46  C   UNL A   1      44.986  25.339  26.965  1.00  0.00     0.074 A 
ATOM     47  C   UNL A   1      48.049  30.878  27.516  1.00  0.00     0.029 A 
ATOM     48  N   UNL A   1      46.512  29.271  27.510  1.00  0.00    -0.354 N 
ATOM     49  N   UNL A   1      45.531  26.522  27.122  1.00  0.00    -0.248 NA
ATOM     50  C   UNL A   1      45.899  24.320  26.429  1.00  0.00     0.031 C 
ATOM     51  C   UNL A   1      48.638  29.705  27.030  1.00  0.00     0.029 A 
ATOM     52  C   UNL A   1      47.686  28.698  27.053  1.00  0.00     0.049 A 
ATOM     53  H   UNL A   1      45.656  28.797  27.616  1.00  0.00     0.167 HD
ATOM     54  C   UNL A   1      46.856  26.383  26.725  1.00  0.00     0.074 A 
ATOM     55  C   UNL A   1      47.033  24.999  26.335  1.00  0.00     0.031 C 
ATOM     56  C   UNL A   1      47.839  27.316  26.681  1.00  0.00     0.031 A 
BRANCH  43  57
ATOM     57  C   UNL A   1      46.105  32.926  28.601  1.00  0.00    -0.014 A 
ATOM     58  C   UNL A   1      46.620  33.287  29.858  1.00  0.00     0.010 A 
ATOM     59  C   UNL A   1      46.001  33.904  27.595  1.00  0.00     0.010 A 
ATOM     60  C   UNL A   1      47.004  34.607  30.111  1.00  0.00     0.020 A 
ATOM     61  C   UNL A   1      46.403  35.220  27.838  1.00  0.00     0.020 A 
ATOM     62  C   UNL A   1      46.891  35.566  29.100  1.00  0.00     0.054 A 
BRANCH  62  63
ATOM     63  S   UNL A   1      47.427  37.265  29.444  1.00  0.00     0.124 S 
ATOM     64  O   UNL A   1      48.054  37.643  28.179  1.00  0.00    -0.237 OA
ATOM     65  O   UNL A   1      46.171  37.943  29.749  1.00  0.00    -0.237 OA
ATOM     66  O   UNL A   1      48.343  37.117  30.572  1.00  0.00    -0.744 OA
ENDBRANCH  62  63
ENDBRANCH  43  57
BRANCH  44  67
ATOM     67  C   UNL A   1      43.144  23.504  26.988  1.00  0.00    -0.014 A 
ATOM     68  C   UNL A   1      43.024  22.577  28.038  1.00  0.00     0.010 A 
ATOM     69  C   UNL A   1      42.881  23.083  25.671  1.00  0.00     0.010 A 
ATOM     70  C   UNL A   1      42.678  21.248  27.772  1.00  0.00     0.020 A 
ATOM     71  C   UNL A   1      42.510  21.763  25.405  1.00  0.00     0.020 A 
ATOM     72  C   UNL A   1      42.429  20.848  26.456  1.00  0.00     0.054 A 
BRANCH  72  73
ATOM     73  S   UNL A   1      41.962  19.126  26.129  1.00  0.00     0.124 S 
ATOM     74  O   UNL A   1      40.540  19.252  25.826  1.00  0.00    -0.237 OA
ATOM     75  O   UNL A   1      42.821  18.768  25.003  1.00  0.00    -0.237 OA
ATOM     76  O   UNL A   1      42.279  18.446  27.383  1.00  0.00    -0.744 OA
ENDBRANCH  72  73
ENDBRANCH  44  67
BRANCH  56  77
ATOM     77  C   UNL A   1      49.200  26.859  26.237  1.00  0.00    -0.014 A 
ATOM     78  C   UNL A   1      49.671  27.132  24.941  1.00  0.00     0.010 A 
ATOM     79  C   UNL A   1      50.037  26.190  27.149  1.00  0.00     0.010 A 
ATOM     80  C   UNL A   1      50.947  26.718  24.555  1.00  0.00     0.020 A 
ATOM     81  C   UNL A   1      51.323  25.794  26.773  1.00  0.00     0.020 A 
ATOM     82  C   UNL A   1      51.764  26.049  25.472  1.00  0.00     0.054 A 
BRANCH  82  83
ATOM     83  S   UNL A   1      53.435  25.558  24.964  1.00  0.00     0.124 S 
ATOM     84  O   UNL A   1      54.248  26.640  25.512  1.00  0.00    -0.237 OA
ATOM     85  O   UNL A   1      53.601  24.258  25.609  1.00  0.00    -0.237 OA
ATOM     86  O   UNL A   1      53.354  25.516  23.505  1.00  0.00    -0.744 OA
ENDBRANCH  82  83
ENDBRANCH  56  77
ENDBRANCH  30  31
ENDBRANCH  23  25
ENDBRANCH  22  23
ENDBRANCH  21  22
ENDBRANCH   1  21
TORSDOF 17
ENDMDL
MODEL 3
REMARK VINA RESULT:     -10.5      7.256     12.785
REMARK SMILES O=C(N[C@@H]1C=C[C@@H](C(=O)OCCOC(=O)c2ccc(-c3c4nc(c(-c5ccc(S(=O)(=O)[O-])cc5)c5ccc([nH]5)c(-c5ccc(S(=O)(=O)[O-])cc5)c5nc(c(-c6ccc(S(=O)(=O)[O-])cc6)c6ccc3[nH]6)C=C5)C=C4)cc2)C1)Oc1ccccc1
REMARK SMILES IDX 11 1 10 2 8 3 9 4 7 5 4 6 5 7 76 8 6 9 3 10 1 11 2 12 77 14
REMARK SMILES IDX 78 15 79 16 83 17 80 18 82 19 81 20 12 21 13 22 14 23 15 24
REMARK SMILES IDX 16 25 17 26 75 27 18 28 74 29 19 30 20 31 21 32 68 33 22 34
REMARK SMILES IDX 73 35 67 36 69 37 23 38 72 39 66 40 65 41 24 43 54 44 35 45
REMARK SMILES IDX 53 46 36 47 39 48 52 49 70 50 37 51 38 52 51 54 71 55 40 56
REMARK SMILES IDX 25 57 26 58 34 59 27 60 33 61 28 62 29 63 30 64 31 65 32 66
REMARK SMILES IDX 55 67 56 68 64 69 57 70 63 71 58 72 59 73 60 74 61 75 62 76
REMARK SMILES IDX 41 77 42 78 50 79 43 80 49 81 44 82 45 83 46 84 47 85 48 86
REMARK H PARENT 3 13 69 42 39 53
REMARK Flexibility Score: inf
ROOT
ATOM      1  C   UNL A   1      33.304  31.839  27.542  1.00  0.00     0.274 C 
ENDROOT
BRANCH   1   2
ATOM      2  O   UNL A   1      32.643  30.821  26.773  1.00  0.00    -0.462 OA
BRANCH   2   3
ATOM      3  C   UNL A   1      33.274  29.617  26.733  1.00  0.00     0.312 C 
ATOM      4  O   UNL A   1      34.315  29.356  27.327  1.00  0.00    -0.252 OA
BRANCH   3   5
ATOM      5  C   UNL A   1      32.617  28.635  25.789  1.00  0.00     0.124 C 
ATOM      6  C   UNL A   1      32.476  27.682  23.569  1.00  0.00     0.109 C 
ATOM      7  C   UNL A   1      33.397  26.905  24.444  1.00  0.00    -0.006 C 
ATOM      8  C   UNL A   1      32.509  29.036  24.309  1.00  0.00     0.049 C 
ATOM      9  C   UNL A   1      33.444  27.391  25.689  1.00  0.00    -0.014 C 
BRANCH   6  10
ATOM     10  N   UNL A   1      31.109  27.164  23.564  1.00  0.00    -0.315 N 
ATOM     11  O   UNL A   1      28.867  27.189  23.500  1.00  0.00    -0.224 OA
ATOM     12  C   UNL A   1      29.926  27.615  23.046  1.00  0.00     0.413 C 
ATOM     13  H   UNL A   1      31.021  26.304  24.034  1.00  0.00     0.167 HD
BRANCH  12  14
ATOM     14  O   UNL A   1      29.947  28.607  22.074  1.00  0.00    -0.410 OA
BRANCH  14  15
ATOM     15  C   UNL A   1      29.235  29.817  22.252  1.00  0.00     0.132 A 
ATOM     16  C   UNL A   1      29.405  30.412  23.505  1.00  0.00     0.047 A 
ATOM     17  C   UNL A   1      28.502  30.455  21.251  1.00  0.00     0.047 A 
ATOM     18  C   UNL A   1      28.937  31.706  23.724  1.00  0.00     0.004 A 
ATOM     19  C   UNL A   1      28.028  31.749  21.480  1.00  0.00     0.004 A 
ATOM     20  C   UNL A   1      28.266  32.382  22.704  1.00  0.00     0.000 A 
ENDBRANCH  14  15
ENDBRANCH  12  14
ENDBRANCH   6  10
ENDBRANCH   3   5
ENDBRANCH   2   3
ENDBRANCH   1   2
BRANCH   1  21
ATOM     21  C   UNL A   1      32.585  33.187  27.457  1.00  0.00     0.275 C 
BRANCH  21  22
ATOM     22  O   UNL A   1      32.527  33.862  28.726  1.00  0.00    -0.458 OA
BRANCH  22  23
ATOM     23  C   UNL A   1      33.525  34.752  28.945  1.00  0.00     0.338 C 
ATOM     24  O   UNL A   1      33.484  35.961  28.799  1.00  0.00    -0.246 OA
BRANCH  23  25
ATOM     25  C   UNL A   1      34.685  34.062  29.529  1.00  0.00     0.060 A 
ATOM     26  C   UNL A   1      34.472  33.231  30.633  1.00  0.00     0.016 A 
ATOM     27  C   UNL A   1      35.975  34.313  29.061  1.00  0.00     0.016 A 
ATOM     28  C   UNL A   1      35.555  32.658  31.291  1.00  0.00     0.010 A 
ATOM     29  C   UNL A   1      37.062  33.734  29.723  1.00  0.00     0.010 A 
ATOM     30  C   UNL A   1      36.859  32.919  30.850  1.00  0.00    -0.014 A 
BRANCH  30  31
ATOM     31  C   UNL A   1      38.016  32.402  31.618  1.00  0.00     0.031 A 
ATOM     32  C   UNL A   1      38.814  31.255  31.064  1.00  0.00     0.074 A 
ATOM     33  C   UNL A   1      38.362  32.972  32.786  1.00  0.00     0.049 A 
ATOM     34  N   UNL A   1      39.772  30.567  31.627  1.00  0.00    -0.248 NA
ATOM     35  C   UNL A   1      38.491  30.827  29.692  1.00  0.00     0.031 C 
ATOM     36  C   UNL A   1      37.708  34.137  33.388  1.00  0.00     0.029 A 
ATOM     37  N   UNL A   1      39.352  32.648  33.677  1.00  0.00    -0.354 N 
ATOM     38  C   UNL A   1      40.153  29.614  30.691  1.00  0.00     0.074 A 
ATOM     39  C   UNL A   1      39.317  29.804  29.525  1.00  0.00     0.031 C 
ATOM     40  C   UNL A   1      38.317  34.428  34.549  1.00  0.00     0.029 A 
ATOM     41  C   UNL A   1      39.364  33.442  34.800  1.00  0.00     0.049 A 
ATOM     42  H   UNL A   1      39.993  31.916  33.528  1.00  0.00     0.167 HD
ATOM     43  C   UNL A   1      41.116  28.666  30.796  1.00  0.00     0.031 A 
ATOM     44  C   UNL A   1      40.110  33.359  35.918  1.00  0.00     0.031 A 
ATOM     45  C   UNL A   1      41.941  28.485  31.959  1.00  0.00     0.049 A 
ATOM     46  C   UNL A   1      41.119  32.248  36.041  1.00  0.00     0.074 A 
ATOM     47  C   UNL A   1      42.916  27.529  32.185  1.00  0.00     0.029 A 
ATOM     48  N   UNL A   1      41.901  29.290  33.088  1.00  0.00    -0.354 N 
ATOM     49  N   UNL A   1      41.426  31.314  35.172  1.00  0.00    -0.248 NA
ATOM     50  C   UNL A   1      41.875  32.175  37.299  1.00  0.00     0.031 C 
ATOM     51  C   UNL A   1      43.443  27.736  33.465  1.00  0.00     0.029 A 
ATOM     52  C   UNL A   1      42.829  28.850  34.014  1.00  0.00     0.049 A 
ATOM     53  H   UNL A   1      41.300  30.060  33.212  1.00  0.00     0.167 HD
ATOM     54  C   UNL A   1      42.426  30.556  35.771  1.00  0.00     0.074 A 
ATOM     55  C   UNL A   1      42.682  31.148  37.067  1.00  0.00     0.031 C 
ATOM     56  C   UNL A   1      43.072  29.464  35.294  1.00  0.00     0.031 A 
BRANCH  43  57
ATOM     57  C   UNL A   1      41.304  27.733  29.633  1.00  0.00    -0.014 A 
ATOM     58  C   UNL A   1      42.411  27.858  28.775  1.00  0.00     0.010 A 
ATOM     59  C   UNL A   1      40.389  26.685  29.424  1.00  0.00     0.010 A 
ATOM     60  C   UNL A   1      42.586  26.966  27.714  1.00  0.00     0.020 A 
ATOM     61  C   UNL A   1      40.573  25.778  28.377  1.00  0.00     0.020 A 
ATOM     62  C   UNL A   1      41.665  25.932  27.520  1.00  0.00     0.054 A 
BRANCH  62  63
ATOM     63  S   UNL A   1      41.934  24.766  26.156  1.00  0.00     0.124 S 
ATOM     64  O   UNL A   1      40.801  23.857  26.311  1.00  0.00    -0.237 OA
ATOM     65  O   UNL A   1      41.888  25.630  24.980  1.00  0.00    -0.237 OA
ATOM     66  O   UNL A   1      43.241  24.186  26.449  1.00  0.00    -0.744 OA
ENDBRANCH  62  63
ENDBRANCH  43  57
BRANCH  44  67
ATOM     67  C   UNL A   1      39.898  34.316  37.036  1.00  0.00    -0.014 A 
ATOM     68  C   UNL A   1      39.097  33.970  38.138  1.00  0.00     0.010 A 
ATOM     69  C   UNL A   1      40.476  35.598  36.988  1.00  0.00     0.010 A 
ATOM     70  C   UNL A   1      38.853  34.898  39.156  1.00  0.00     0.020 A 
ATOM     71  C   UNL A   1      40.257  36.519  38.016  1.00  0.00     0.020 A 
ATOM     72  C   UNL A   1      39.431  36.169  39.085  1.00  0.00     0.054 A 
BRANCH  72  73
ATOM     73  S   UNL A   1      39.122  37.356  40.422  1.00  0.00     0.124 S 
ATOM     74  O   UNL A   1      38.528  36.505  41.449  1.00  0.00    -0.237 OA
ATOM     75  O   UNL A   1      40.460  37.863  40.716  1.00  0.00    -0.237 OA
ATOM     76  O   UNL A   1      38.218  38.327  39.811  1.00  0.00    -0.744 OA
ENDBRANCH  72  73
ENDBRANCH  44  67
BRANCH  56  77
ATOM     77  C   UNL A   1      44.147  28.869  36.161  1.00  0.00    -0.014 A 
ATOM     78  C   UNL A   1      43.878  27.775  37.002  1.00  0.00     0.010 A 
ATOM     79  C   UNL A   1      45.454  29.383  36.092  1.00  0.00     0.010 A 
ATOM     80  C   UNL A   1      44.895  27.223  37.783  1.00  0.00     0.020 A 
ATOM     81  C   UNL A   1      46.478  28.818  36.856  1.00  0.00     0.020 A 
ATOM     82  C   UNL A   1      46.188  27.750  37.708  1.00  0.00     0.054 A 
BRANCH  82  83
ATOM     83  S   UNL A   1      47.505  26.990  38.699  1.00  0.00     0.124 S 
ATOM     84  O   UNL A   1      46.754  26.055  39.533  1.00  0.00    -0.237 OA
ATOM     85  O   UNL A   1      48.361  26.380  37.685  1.00  0.00    -0.237 OA
ATOM     86  O   UNL A   1      48.099  28.120  39.409  1.00  0.00    -0.744 OA
ENDBRANCH  82  83
ENDBRANCH  56  77
ENDBRANCH  30  31
ENDBRANCH  23  25
ENDBRANCH  22  23
ENDBRANCH  21  22
ENDBRANCH   1  21
TORSDOF 17
ENDMDL
