MODEL 1
REMARK VINA RESULT:      -9.9      0.000      0.000
REMARK SMILES CCc1ccc2c(c1)C=C(C(=O)OCCOC(=O)c1ccc(-c3c4nc(c(-c5ccc(S(=O)(=O)[O-])cc5)c5ccc([nH]5)c(-c5ccc(S(=O)(=O)[O-])cc5)c5nc(c(-c6ccc(S(=O)(=O)[O-])cc6)c6ccc3[nH]6)C=C5)C=C4)cc1)[C@H](C(F)(F)F)O2
REMARK SMILES IDX 15 1 14 2 13 3 11 4 12 5 10 6 3 7 4 8 8 9 5 10 7 11 6 12
REMARK SMILES IDX 9 13 84 14 79 15 2 16 1 17 80 18 81 19 82 20 83 21 16 22
REMARK SMILES IDX 17 23 18 24 19 25 20 26 78 27 21 28 77 29 22 30 23 31 24 32
REMARK SMILES IDX 71 33 25 34 76 35 70 36 72 37 26 38 75 39 69 40 68 41 27 43
REMARK SMILES IDX 57 44 38 45 56 46 39 47 42 48 55 49 73 50 40 51 41 52 54 54
REMARK SMILES IDX 74 55 43 56 28 57 29 58 37 59 30 60 36 61 31 62 32 63 33 64
REMARK SMILES IDX 34 65 35 66 58 67 59 68 67 69 60 70 66 71 61 72 62 73 63 74
REMARK SMILES IDX 64 75 65 76 44 77 45 78 53 79 46 80 52 81 47 82 48 83 49 84
REMARK SMILES IDX 50 85 51 86
REMARK H PARENT 72 42 42 53
REMARK Flexibility Score: inf
ROOT
ATOM      1  C   UNL A   1      32.695  32.141  27.613  1.00  0.00     0.275 C 
ENDROOT
BRANCH   1   2
ATOM      2  C   UNL A   1      32.611  33.669  27.590  1.00  0.00     0.275 C 
BRANCH   2   3
ATOM      3  O   UNL A   1      32.625  34.232  28.920  1.00  0.00    -0.459 OA
BRANCH   3   4
ATOM      4  C   UNL A   1      33.734  34.950  29.244  1.00  0.00     0.338 C 
ATOM      5  O   UNL A   1      34.197  35.854  28.580  1.00  0.00    -0.246 OA
BRANCH   4   6
ATOM      6  C   UNL A   1      34.317  34.518  30.538  1.00  0.00     0.087 C 
ATOM      7  C   UNL A   1      37.553  32.074  33.216  1.00  0.00    -0.047 A 
ATOM      8  C   UNL A   1      37.000  32.659  34.362  1.00  0.00     0.007 A 
ATOM      9  C   UNL A   1      36.993  32.394  31.960  1.00  0.00     0.015 A 
ATOM     10  C   UNL A   1      35.976  33.599  34.254  1.00  0.00     0.047 A 
ATOM     11  C   UNL A   1      35.951  33.323  31.847  1.00  0.00     0.018 A 
ATOM     12  C   UNL A   1      35.474  33.939  33.003  1.00  0.00     0.128 A 
ATOM     13  C   UNL A   1      35.395  33.712  30.553  1.00  0.00     0.027 C 
ATOM     14  O   UNL A   1      34.569  34.958  32.975  1.00  0.00    -0.475 OA
ATOM     15  C   UNL A   1      33.676  35.005  31.830  1.00  0.00     0.316 C 
BRANCH   7  16
ATOM     16  C   UNL A   1      38.744  31.144  33.264  1.00  0.00     0.032 C 
ATOM     17  C   UNL A   1      40.052  31.738  33.781  1.00  0.00     0.009 C 
ENDBRANCH   7  16
BRANCH  15  18
ATOM     18  C   UNL A   1      33.004  36.393  31.843  1.00  0.00     0.430 C 
ATOM     19  F   UNL A   1      31.776  36.366  31.277  1.00  0.00    -0.167 F 
ATOM     20  F   UNL A   1      32.807  36.808  33.122  1.00  0.00    -0.167 F 
ATOM     21  F   UNL A   1      33.753  37.335  31.231  1.00  0.00    -0.167 F 
ENDBRANCH  15  18
ENDBRANCH   4   6
ENDBRANCH   3   4
ENDBRANCH   2   3
ENDBRANCH   1   2
BRANCH   1  22
ATOM     22  O   UNL A   1      33.986  31.689  28.062  1.00  0.00    -0.458 OA
BRANCH  22  23
ATOM     23  C   UNL A   1      34.228  30.372  27.857  1.00  0.00     0.338 C 
ATOM     24  O   UNL A   1      33.493  29.574  27.297  1.00  0.00    -0.246 OA
BRANCH  23  25
ATOM     25  C   UNL A   1      35.620  30.052  28.229  1.00  0.00     0.060 A 
ATOM     26  C   UNL A   1      36.569  30.093  27.204  1.00  0.00     0.016 A 
ATOM     27  C   UNL A   1      36.006  29.712  29.528  1.00  0.00     0.016 A 
ATOM     28  C   UNL A   1      37.917  29.874  27.479  1.00  0.00     0.010 A 
ATOM     29  C   UNL A   1      37.355  29.435  29.794  1.00  0.00     0.010 A 
ATOM     30  C   UNL A   1      38.318  29.528  28.774  1.00  0.00    -0.014 A 
BRANCH  30  31
ATOM     31  C   UNL A   1      39.732  29.156  29.017  1.00  0.00     0.031 A 
ATOM     32  C   UNL A   1      40.662  30.176  29.610  1.00  0.00     0.074 A 
ATOM     33  C   UNL A   1      40.173  27.911  28.759  1.00  0.00     0.049 A 
ATOM     34  N   UNL A   1      41.931  30.065  29.908  1.00  0.00    -0.248 NA
ATOM     35  C   UNL A   1      40.079  31.491  29.924  1.00  0.00     0.031 C 
ATOM     36  C   UNL A   1      39.351  26.808  28.263  1.00  0.00     0.029 A 
ATOM     37  N   UNL A   1      41.428  27.367  28.886  1.00  0.00    -0.354 N 
ATOM     38  C   UNL A   1      42.299  31.289  30.450  1.00  0.00     0.074 A 
ATOM     39  C   UNL A   1      41.124  32.134  30.426  1.00  0.00     0.031 C 
ATOM     40  C   UNL A   1      40.130  25.721  28.112  1.00  0.00     0.029 A 
ATOM     41  C   UNL A   1      41.506  26.059  28.468  1.00  0.00     0.049 A 
ATOM     42  H   UNL A   1      42.198  27.866  29.241  1.00  0.00     0.167 HD
ATOM     43  C   UNL A   1      43.507  31.678  30.922  1.00  0.00     0.031 A 
ATOM     44  C   UNL A   1      42.572  25.238  28.365  1.00  0.00     0.031 A 
ATOM     45  C   UNL A   1      44.688  30.856  30.899  1.00  0.00     0.049 A 
ATOM     46  C   UNL A   1      43.934  25.738  28.779  1.00  0.00     0.074 A 
ATOM     47  C   UNL A   1      45.964  31.173  31.332  1.00  0.00     0.029 A 
ATOM     48  N   UNL A   1      44.744  29.563  30.401  1.00  0.00    -0.354 N 
ATOM     49  N   UNL A   1      44.267  26.895  29.301  1.00  0.00    -0.248 NA
ATOM     50  C   UNL A   1      45.066  24.818  28.593  1.00  0.00     0.031 C 
ATOM     51  C   UNL A   1      46.805  30.095  31.038  1.00  0.00     0.029 A 
ATOM     52  C   UNL A   1      46.040  29.080  30.486  1.00  0.00     0.049 A 
ATOM     53  H   UNL A   1      43.977  29.062  30.041  1.00  0.00     0.167 HD
ATOM     54  C   UNL A   1      45.638  26.828  29.534  1.00  0.00     0.074 A 
ATOM     55  C   UNL A   1      46.071  25.514  29.106  1.00  0.00     0.031 C 
ATOM     56  C   UNL A   1      46.462  27.769  30.059  1.00  0.00     0.031 A 
BRANCH  43  57
ATOM     57  C   UNL A   1      43.620  33.082  31.450  1.00  0.00    -0.014 A 
ATOM     58  C   UNL A   1      43.424  33.367  32.813  1.00  0.00     0.010 A 
ATOM     59  C   UNL A   1      43.946  34.129  30.570  1.00  0.00     0.010 A 
ATOM     60  C   UNL A   1      43.515  34.681  33.279  1.00  0.00     0.020 A 
ATOM     61  C   UNL A   1      44.063  35.440  31.036  1.00  0.00     0.020 A 
ATOM     62  C   UNL A   1      43.829  35.711  32.386  1.00  0.00     0.054 A 
BRANCH  62  63
ATOM     63  S   UNL A   1      43.946  37.406  33.018  1.00  0.00     0.124 S 
ATOM     64  O   UNL A   1      45.279  37.413  33.618  1.00  0.00    -0.237 OA
ATOM     65  O   UNL A   1      43.799  38.211  31.809  1.00  0.00    -0.237 OA
ATOM     66  O   UNL A   1      42.838  37.501  33.966  1.00  0.00    -0.744 OA
ENDBRANCH  62  63
ENDBRANCH  43  57
BRANCH  44  67
ATOM     67  C   UNL A   1      42.409  23.865  27.807  1.00  0.00    -0.014 A 
ATOM     68  C   UNL A   1      42.106  22.776  28.643  1.00  0.00     0.010 A 
ATOM     69  C   UNL A   1      42.588  23.637  26.429  1.00  0.00     0.010 A 
ATOM     70  C   UNL A   1      42.007  21.484  28.116  1.00  0.00     0.020 A 
ATOM     71  C   UNL A   1      42.462  22.352  25.895  1.00  0.00     0.020 A 
ATOM     72  C   UNL A   1      42.186  21.280  26.744  1.00  0.00     0.054 A 
BRANCH  72  73
ATOM     73  S   UNL A   1      42.023  19.600  26.078  1.00  0.00     0.124 S 
ATOM     74  O   UNL A   1      42.918  19.642  24.926  1.00  0.00    -0.237 OA
ATOM     75  O   UNL A   1      42.467  18.772  27.196  1.00  0.00    -0.237 OA
ATOM     76  O   UNL A   1      40.600  19.494  25.760  1.00  0.00    -0.744 OA
ENDBRANCH  72  73
ENDBRANCH  44  67
BRANCH  56  77
ATOM     77  C   UNL A   1      47.914  27.406  30.244  1.00  0.00    -0.014 A 
ATOM     78  C   UNL A   1      48.879  27.715  29.269  1.00  0.00     0.010 A 
ATOM     79  C   UNL A   1      48.329  26.806  31.449  1.00  0.00     0.010 A 
ATOM     80  C   UNL A   1      50.226  27.405  29.483  1.00  0.00     0.020 A 
ATOM     81  C   UNL A   1      49.677  26.522  31.679  1.00  0.00     0.020 A 
ATOM     82  C   UNL A   1      50.617  26.811  30.688  1.00  0.00     0.054 A 
BRANCH  82  83
ATOM     83  S   UNL A   1      52.376  26.466  30.962  1.00  0.00     0.124 S 
ATOM     84  O   UNL A   1      52.329  25.205  31.699  1.00  0.00    -0.237 OA
ATOM     85  O   UNL A   1      52.903  26.379  29.602  1.00  0.00    -0.237 OA
ATOM     86  O   UNL A   1      52.841  27.619  31.730  1.00  0.00    -0.744 OA
ENDBRANCH  82  83
ENDBRANCH  56  77
ENDBRANCH  30  31
ENDBRANCH  23  25
ENDBRANCH  22  23
ENDBRANCH   1  22
TORSDOF 16
ENDMDL
MODEL 2
REMARK VINA RESULT:      -9.9      4.318     10.523
REMARK SMILES CCc1ccc2c(c1)C=C(C(=O)OCCOC(=O)c1ccc(-c3c4nc(c(-c5ccc(S(=O)(=O)[O-])cc5)c5ccc([nH]5)c(-c5ccc(S(=O)(=O)[O-])cc5)c5nc(c(-c6ccc(S(=O)(=O)[O-])cc6)c6ccc3[nH]6)C=C5)C=C4)cc1)[C@H](C(F)(F)F)O2
REMARK SMILES IDX 15 1 14 2 13 3 11 4 12 5 10 6 3 7 4 8 8 9 5 10 7 11 6 12
REMARK SMILES IDX 9 13 84 14 79 15 2 16 1 17 80 18 81 19 82 20 83 21 16 22
REMARK SMILES IDX 17 23 18 24 19 25 20 26 78 27 21 28 77 29 22 30 23 31 24 32
REMARK SMILES IDX 71 33 25 34 76 35 70 36 72 37 26 38 75 39 69 40 68 41 27 43
REMARK SMILES IDX 57 44 38 45 56 46 39 47 42 48 55 49 73 50 40 51 41 52 54 54
REMARK SMILES IDX 74 55 43 56 28 57 29 58 37 59 30 60 36 61 31 62 32 63 33 64
REMARK SMILES IDX 34 65 35 66 58 67 59 68 67 69 60 70 66 71 61 72 62 73 63 74
REMARK SMILES IDX 64 75 65 76 44 77 45 78 53 79 46 80 52 81 47 82 48 83 49 84
REMARK SMILES IDX 50 85 51 86
REMARK H PARENT 72 42 42 53
REMARK Flexibility Score: inf
ROOT
ATOM      1  C   UNL A   1      37.018  22.383  24.439  1.00  0.00     0.275 C 
ENDROOT
BRANCH   1   2
ATOM      2  C   UNL A   1      35.793  21.569  24.861  1.00  0.00     0.275 C 
BRANCH   2   3
ATOM      3  O   UNL A   1      34.825  22.374  25.567  1.00  0.00    -0.459 OA
BRANCH   3   4
ATOM      4  C   UNL A   1      33.919  23.025  24.789  1.00  0.00     0.338 C 
ATOM      5  O   UNL A   1      33.591  22.688  23.671  1.00  0.00    -0.246 OA
BRANCH   4   6
ATOM      6  C   UNL A   1      33.343  24.207  25.477  1.00  0.00     0.087 C 
ATOM      7  C   UNL A   1      33.328  28.908  26.706  1.00  0.00    -0.047 A 
ATOM      8  C   UNL A   1      32.089  28.710  27.329  1.00  0.00     0.007 A 
ATOM      9  C   UNL A   1      33.959  27.803  26.095  1.00  0.00     0.015 A 
ATOM     10  C   UNL A   1      31.458  27.468  27.270  1.00  0.00     0.047 A 
ATOM     11  C   UNL A   1      33.338  26.548  26.050  1.00  0.00     0.018 A 
ATOM     12  C   UNL A   1      32.073  26.406  26.617  1.00  0.00     0.128 A 
ATOM     13  C   UNL A   1      33.946  25.406  25.371  1.00  0.00     0.027 C 
ATOM     14  O   UNL A   1      31.333  25.268  26.492  1.00  0.00    -0.475 OA
ATOM     15  C   UNL A   1      32.069  24.031  26.292  1.00  0.00     0.316 C 
BRANCH   7  16
ATOM     16  C   UNL A   1      34.001  30.261  26.632  1.00  0.00     0.032 C 
ATOM     17  C   UNL A   1      34.256  30.969  27.960  1.00  0.00     0.009 C 
ENDBRANCH   7  16
BRANCH  15  18
ATOM     18  C   UNL A   1      31.046  22.970  25.841  1.00  0.00     0.430 C 
ATOM     19  F   UNL A   1      30.663  23.148  24.556  1.00  0.00    -0.167 F 
ATOM     20  F   UNL A   1      31.603  21.730  25.886  1.00  0.00    -0.167 F 
ATOM     21  F   UNL A   1      29.951  22.940  26.629  1.00  0.00    -0.167 F 
ENDBRANCH  15  18
ENDBRANCH   4   6
ENDBRANCH   3   4
ENDBRANCH   2   3
ENDBRANCH   1   2
BRANCH   1  22
ATOM     22  O   UNL A   1      37.397  23.332  25.452  1.00  0.00    -0.458 OA
BRANCH  22  23
ATOM     23  C   UNL A   1      38.539  23.028  26.115  1.00  0.00     0.338 C 
ATOM     24  O   UNL A   1      39.140  21.966  26.082  1.00  0.00    -0.246 OA
BRANCH  23  25
ATOM     25  C   UNL A   1      39.093  24.242  26.747  1.00  0.00     0.060 A 
ATOM     26  C   UNL A   1      38.729  24.479  28.075  1.00  0.00     0.016 A 
ATOM     27  C   UNL A   1      39.933  25.136  26.080  1.00  0.00     0.016 A 
ATOM     28  C   UNL A   1      39.262  25.562  28.771  1.00  0.00     0.010 A 
ATOM     29  C   UNL A   1      40.423  26.258  26.763  1.00  0.00     0.010 A 
ATOM     30  C   UNL A   1      40.102  26.469  28.115  1.00  0.00    -0.014 A 
BRANCH  30  31
ATOM     31  C   UNL A   1      40.540  27.692  28.827  1.00  0.00     0.031 A 
ATOM     32  C   UNL A   1      41.922  27.736  29.416  1.00  0.00     0.074 A 
ATOM     33  C   UNL A   1      39.738  28.769  28.909  1.00  0.00     0.049 A 
ATOM     34  N   UNL A   1      42.510  28.702  30.075  1.00  0.00    -0.248 NA
ATOM     35  C   UNL A   1      42.756  26.539  29.223  1.00  0.00     0.031 C 
ATOM     36  C   UNL A   1      38.410  28.884  28.306  1.00  0.00     0.029 A 
ATOM     37  N   UNL A   1      39.932  29.979  29.530  1.00  0.00    -0.354 N 
ATOM     38  C   UNL A   1      43.784  28.234  30.368  1.00  0.00     0.074 A 
ATOM     39  C   UNL A   1      43.879  26.894  29.831  1.00  0.00     0.031 C 
ATOM     40  C   UNL A   1      37.901  30.093  28.604  1.00  0.00     0.029 A 
ATOM     41  C   UNL A   1      38.851  30.824  29.441  1.00  0.00     0.049 A 
ATOM     42  H   UNL A   1      40.765  30.218  29.996  1.00  0.00     0.167 HD
ATOM     43  C   UNL A   1      44.785  28.862  31.030  1.00  0.00     0.031 A 
ATOM     44  C   UNL A   1      38.643  32.038  29.992  1.00  0.00     0.031 A 
ATOM     45  C   UNL A   1      44.675  30.175  31.609  1.00  0.00     0.049 A 
ATOM     46  C   UNL A   1      39.729  32.664  30.833  1.00  0.00     0.074 A 
ATOM     47  C   UNL A   1      45.627  30.883  32.320  1.00  0.00     0.029 A 
ATOM     48  N   UNL A   1      43.540  30.969  31.561  1.00  0.00    -0.354 N 
ATOM     49  N   UNL A   1      40.935  32.216  31.095  1.00  0.00    -0.248 NA
ATOM     50  C   UNL A   1      39.426  33.963  31.451  1.00  0.00     0.031 C 
ATOM     51  C   UNL A   1      45.048  32.078  32.757  1.00  0.00     0.029 A 
ATOM     52  C   UNL A   1      43.756  32.147  32.258  1.00  0.00     0.049 A 
ATOM     53  H   UNL A   1      42.703  30.732  31.099  1.00  0.00     0.167 HD
ATOM     54  C   UNL A   1      41.542  33.192  31.880  1.00  0.00     0.074 A 
ATOM     55  C   UNL A   1      40.576  34.259  32.042  1.00  0.00     0.031 C 
ATOM     56  C   UNL A   1      42.789  33.204  32.413  1.00  0.00     0.031 A 
BRANCH  43  57
ATOM     57  C   UNL A   1      46.071  28.103  31.212  1.00  0.00    -0.014 A 
ATOM     58  C   UNL A   1      47.104  28.178  30.260  1.00  0.00     0.010 A 
ATOM     59  C   UNL A   1      46.256  27.317  32.364  1.00  0.00     0.010 A 
ATOM     60  C   UNL A   1      48.283  27.450  30.440  1.00  0.00     0.020 A 
ATOM     61  C   UNL A   1      47.443  26.608  32.559  1.00  0.00     0.020 A 
ATOM     62  C   UNL A   1      48.443  26.666  31.587  1.00  0.00     0.054 A 
BRANCH  62  63
ATOM     63  S   UNL A   1      49.985  25.735  31.797  1.00  0.00     0.124 S 
ATOM     64  O   UNL A   1      49.574  24.673  32.711  1.00  0.00    -0.237 OA
ATOM     65  O   UNL A   1      50.290  25.308  30.435  1.00  0.00    -0.237 OA
ATOM     66  O   UNL A   1      50.909  26.717  32.360  1.00  0.00    -0.744 OA
ENDBRANCH  62  63
ENDBRANCH  43  57
BRANCH  44  67
ATOM     67  C   UNL A   1      37.339  32.734  29.804  1.00  0.00    -0.014 A 
ATOM     68  C   UNL A   1      37.118  33.570  28.696  1.00  0.00     0.010 A 
ATOM     69  C   UNL A   1      36.315  32.583  30.758  1.00  0.00     0.010 A 
ATOM     70  C   UNL A   1      35.908  34.259  28.558  1.00  0.00     0.020 A 
ATOM     71  C   UNL A   1      35.094  33.247  30.608  1.00  0.00     0.020 A 
ATOM     72  C   UNL A   1      34.904  34.094  29.516  1.00  0.00     0.054 A 
BRANCH  72  73
ATOM     73  S   UNL A   1      33.331  34.973  29.299  1.00  0.00     0.124 S 
ATOM     74  O   UNL A   1      33.777  36.288  28.852  1.00  0.00    -0.237 OA
ATOM     75  O   UNL A   1      32.649  34.159  28.296  1.00  0.00    -0.237 OA
ATOM     76  O   UNL A   1      32.732  34.937  30.632  1.00  0.00    -0.744 OA
ENDBRANCH  72  73
ENDBRANCH  44  67
BRANCH  56  77
ATOM     77  C   UNL A   1      43.207  34.426  33.193  1.00  0.00    -0.014 A 
ATOM     78  C   UNL A   1      43.113  34.472  34.595  1.00  0.00     0.010 A 
ATOM     79  C   UNL A   1      43.769  35.523  32.510  1.00  0.00     0.010 A 
ATOM     80  C   UNL A   1      43.546  35.601  35.297  1.00  0.00     0.020 A 
ATOM     81  C   UNL A   1      44.230  36.640  33.210  1.00  0.00     0.020 A 
ATOM     82  C   UNL A   1      44.103  36.678  34.600  1.00  0.00     0.054 A 
BRANCH  82  83
ATOM     83  S   UNL A   1      44.704  38.110  35.538  1.00  0.00     0.124 S 
ATOM     84  O   UNL A   1      43.747  38.177  36.639  1.00  0.00    -0.237 OA
ATOM     85  O   UNL A   1      46.059  37.706  35.907  1.00  0.00    -0.237 OA
ATOM     86  O   UNL A   1      44.630  39.210  34.579  1.00  0.00    -0.744 OA
ENDBRANCH  82  83
ENDBRANCH  56  77
ENDBRANCH  30  31
ENDBRANCH  23  25
ENDBRANCH  22  23
ENDBRANCH   1  22
TORSDOF 16
ENDMDL
MODEL 3
REMARK VINA RESULT:      -9.7      3.781      6.164
REMARK SMILES CCc1ccc2c(c1)C=C(C(=O)OCCOC(=O)c1ccc(-c3c4nc(c(-c5ccc(S(=O)(=O)[O-])cc5)c5ccc([nH]5)c(-c5ccc(S(=O)(=O)[O-])cc5)c5nc(c(-c6ccc(S(=O)(=O)[O-])cc6)c6ccc3[nH]6)C=C5)C=C4)cc1)[C@H](C(F)(F)F)O2
REMARK SMILES IDX 15 1 14 2 13 3 11 4 12 5 10 6 3 7 4 8 8 9 5 10 7 11 6 12
REMARK SMILES IDX 9 13 84 14 79 15 2 16 1 17 80 18 81 19 82 20 83 21 16 22
REMARK SMILES IDX 17 23 18 24 19 25 20 26 78 27 21 28 77 29 22 30 23 31 24 32
REMARK SMILES IDX 71 33 25 34 76 35 70 36 72 37 26 38 75 39 69 40 68 41 27 43
REMARK SMILES IDX 57 44 38 45 56 46 39 47 42 48 55 49 73 50 40 51 41 52 54 54
REMARK SMILES IDX 74 55 43 56 28 57 29 58 37 59 30 60 36 61 31 62 32 63 33 64
REMARK SMILES IDX 34 65 35 66 58 67 59 68 67 69 60 70 66 71 61 72 62 73 63 74
REMARK SMILES IDX 64 75 65 76 44 77 45 78 53 79 46 80 52 81 47 82 48 83 49 84
REMARK SMILES IDX 50 85 51 86
REMARK H PARENT 72 42 42 53
REMARK Flexibility Score: inf
ROOT
ATOM      1  C   UNL A   1      32.431  29.241  27.294  1.00  0.00     0.275 C 
ENDROOT
BRANCH   1   2
ATOM      2  C   UNL A   1      31.784  28.530  26.103  1.00  0.00     0.275 C 
BRANCH   2   3
ATOM      3  O   UNL A   1      32.344  27.216  25.888  1.00  0.00    -0.459 OA
BRANCH   3   4
ATOM      4  C   UNL A   1      32.720  26.938  24.611  1.00  0.00     0.338 C 
ATOM      5  O   UNL A   1      32.618  27.701  23.672  1.00  0.00    -0.246 OA
BRANCH   4   6
ATOM      6  C   UNL A   1      33.304  25.580  24.487  1.00  0.00     0.087 C 
ATOM      7  C   UNL A   1      36.756  22.269  25.339  1.00  0.00    -0.047 A 
ATOM      8  C   UNL A   1      35.953  21.312  24.705  1.00  0.00     0.007 A 
ATOM      9  C   UNL A   1      36.284  23.595  25.425  1.00  0.00     0.015 A 
ATOM     10  C   UNL A   1      34.681  21.649  24.246  1.00  0.00     0.047 A 
ATOM     11  C   UNL A   1      35.013  23.944  24.948  1.00  0.00     0.018 A 
ATOM     12  C   UNL A   1      34.212  22.951  24.387  1.00  0.00     0.128 A 
ATOM     13  C   UNL A   1      34.480  25.298  25.078  1.00  0.00     0.027 C 
ATOM     14  O   UNL A   1      32.913  23.164  24.033  1.00  0.00    -0.475 OA
ATOM     15  C   UNL A   1      32.548  24.527  23.689  1.00  0.00     0.316 C 
BRANCH   7  16
ATOM     16  C   UNL A   1      38.092  21.932  25.965  1.00  0.00     0.032 C 
ATOM     17  C   UNL A   1      39.009  23.108  26.288  1.00  0.00     0.009 C 
ENDBRANCH   7  16
BRANCH  15  18
ATOM     18  C   UNL A   1      31.007  24.585  23.665  1.00  0.00     0.430 C 
ATOM     19  F   UNL A   1      30.493  24.879  24.881  1.00  0.00    -0.167 F 
ATOM     20  F   UNL A   1      30.586  25.581  22.841  1.00  0.00    -0.167 F 
ATOM     21  F   UNL A   1      30.454  23.439  23.216  1.00  0.00    -0.167 F 
ENDBRANCH  15  18
ENDBRANCH   4   6
ENDBRANCH   3   4
ENDBRANCH   2   3
ENDBRANCH   1   2
BRANCH   1  22
ATOM     22  O   UNL A   1      33.857  29.345  27.137  1.00  0.00    -0.458 OA
BRANCH  22  23
ATOM     23  C   UNL A   1      34.427  30.381  27.799  1.00  0.00     0.338 C 
ATOM     24  O   UNL A   1      33.874  31.409  28.159  1.00  0.00    -0.246 OA
BRANCH  23  25
ATOM     25  C   UNL A   1      35.794  30.019  28.220  1.00  0.00     0.060 A 
ATOM     26  C   UNL A   1      36.787  30.068  27.237  1.00  0.00     0.016 A 
ATOM     27  C   UNL A   1      36.117  29.633  29.523  1.00  0.00     0.016 A 
ATOM     28  C   UNL A   1      38.117  29.810  27.563  1.00  0.00     0.010 A 
ATOM     29  C   UNL A   1      37.446  29.318  29.838  1.00  0.00     0.010 A 
ATOM     30  C   UNL A   1      38.455  29.419  28.863  1.00  0.00    -0.014 A 
BRANCH  30  31
ATOM     31  C   UNL A   1      39.848  29.008  29.155  1.00  0.00     0.031 A 
ATOM     32  C   UNL A   1      40.772  29.988  29.820  1.00  0.00     0.074 A 
ATOM     33  C   UNL A   1      40.275  27.763  28.875  1.00  0.00     0.049 A 
ATOM     34  N   UNL A   1      42.025  29.840  30.168  1.00  0.00    -0.248 NA
ATOM     35  C   UNL A   1      40.204  31.305  30.152  1.00  0.00     0.031 C 
ATOM     36  C   UNL A   1      39.453  26.694  28.308  1.00  0.00     0.029 A 
ATOM     37  N   UNL A   1      41.511  27.187  29.038  1.00  0.00    -0.354 N 
ATOM     38  C   UNL A   1      42.393  31.038  30.766  1.00  0.00     0.074 A 
ATOM     39  C   UNL A   1      41.238  31.908  30.719  1.00  0.00     0.031 C 
ATOM     40  C   UNL A   1      40.214  25.596  28.155  1.00  0.00     0.029 A 
ATOM     41  C   UNL A   1      41.581  25.892  28.582  1.00  0.00     0.049 A 
ATOM     42  H   UNL A   1      42.275  27.658  29.443  1.00  0.00     0.167 HD
ATOM     43  C   UNL A   1      43.587  31.384  31.302  1.00  0.00     0.031 A 
ATOM     44  C   UNL A   1      42.633  25.051  28.497  1.00  0.00     0.031 A 
ATOM     45  C   UNL A   1      44.751  30.538  31.304  1.00  0.00     0.049 A 
ATOM     46  C   UNL A   1      43.986  25.508  28.986  1.00  0.00     0.074 A 
ATOM     47  C   UNL A   1      46.013  30.812  31.801  1.00  0.00     0.029 A 
ATOM     48  N   UNL A   1      44.802  29.261  30.767  1.00  0.00    -0.354 N 
ATOM     49  N   UNL A   1      44.319  26.640  29.560  1.00  0.00    -0.248 NA
ATOM     50  C   UNL A   1      45.105  24.569  28.819  1.00  0.00     0.031 C 
ATOM     51  C   UNL A   1      46.844  29.727  31.508  1.00  0.00     0.029 A 
ATOM     52  C   UNL A   1      46.083  28.746  30.891  1.00  0.00     0.049 A 
ATOM     53  H   UNL A   1      44.041  28.788  30.357  1.00  0.00     0.167 HD
ATOM     54  C   UNL A   1      45.677  26.536  29.849  1.00  0.00     0.074 A 
ATOM     55  C   UNL A   1      46.101  25.227  29.398  1.00  0.00     0.031 C 
ATOM     56  C   UNL A   1      46.496  27.441  30.440  1.00  0.00     0.031 A 
BRANCH  43  57
ATOM     57  C   UNL A   1      43.706  32.768  31.880  1.00  0.00    -0.014 A 
ATOM     58  C   UNL A   1      43.482  33.010  33.248  1.00  0.00     0.010 A 
ATOM     59  C   UNL A   1      44.065  33.840  31.044  1.00  0.00     0.010 A 
ATOM     60  C   UNL A   1      43.579  34.306  33.760  1.00  0.00     0.020 A 
ATOM     61  C   UNL A   1      44.188  35.133  31.557  1.00  0.00     0.020 A 
ATOM     62  C   UNL A   1      43.927  35.361  32.910  1.00  0.00     0.054 A 
BRANCH  62  63
ATOM     63  S   UNL A   1      44.051  37.032  33.602  1.00  0.00     0.124 S 
ATOM     64  O   UNL A   1      44.498  37.805  32.446  1.00  0.00    -0.237 OA
ATOM     65  O   UNL A   1      42.685  37.298  34.045  1.00  0.00    -0.237 OA
ATOM     66  O   UNL A   1      45.034  36.892  34.674  1.00  0.00    -0.744 OA
ENDBRANCH  62  63
ENDBRANCH  43  57
BRANCH  44  67
ATOM     67  C   UNL A   1      42.467  23.701  27.889  1.00  0.00    -0.014 A 
ATOM     68  C   UNL A   1      42.055  22.603  28.664  1.00  0.00     0.010 A 
ATOM     69  C   UNL A   1      42.751  23.502  26.524  1.00  0.00     0.010 A 
ATOM     70  C   UNL A   1      41.952  21.330  28.094  1.00  0.00     0.020 A 
ATOM     71  C   UNL A   1      42.622  22.236  25.944  1.00  0.00     0.020 A 
ATOM     72  C   UNL A   1      42.237  21.155  26.737  1.00  0.00     0.054 A 
BRANCH  72  73
ATOM     73  S   UNL A   1      42.068  19.501  26.011  1.00  0.00     0.124 S 
ATOM     74  O   UNL A   1      42.910  19.602  24.823  1.00  0.00    -0.237 OA
ATOM     75  O   UNL A   1      42.573  18.635  27.074  1.00  0.00    -0.237 OA
ATOM     76  O   UNL A   1      40.634  19.385  25.751  1.00  0.00    -0.744 OA
ENDBRANCH  72  73
ENDBRANCH  44  67
BRANCH  56  77
ATOM     77  C   UNL A   1      47.931  27.041  30.675  1.00  0.00    -0.014 A 
ATOM     78  C   UNL A   1      48.969  27.503  29.847  1.00  0.00     0.010 A 
ATOM     79  C   UNL A   1      48.252  26.241  31.790  1.00  0.00     0.010 A 
ATOM     80  C   UNL A   1      50.296  27.150  30.112  1.00  0.00     0.020 A 
ATOM     81  C   UNL A   1      49.579  25.911  32.075  1.00  0.00     0.020 A 
ATOM     82  C   UNL A   1      50.593  26.358  31.225  1.00  0.00     0.054 A 
BRANCH  82  83
ATOM     83  S   UNL A   1      52.327  25.957  31.576  1.00  0.00     0.124 S 
ATOM     84  O   UNL A   1      52.934  26.040  30.250  1.00  0.00    -0.237 OA
ATOM     85  O   UNL A   1      52.717  27.008  32.513  1.00  0.00    -0.237 OA
ATOM     86  O   UNL A   1      52.264  24.614  32.149  1.00  0.00    -0.744 OA
ENDBRANCH  82  83
ENDBRANCH  56  77
ENDBRANCH  30  31
ENDBRANCH  23  25
ENDBRANCH  22  23
ENDBRANCH   1  22
TORSDOF 16
ENDMDL
