MODEL 1
REMARK VINA RESULT:     -11.1      0.000      0.000
REMARK SMILES [NH3+][C@H]1C=C[C@@H](C(=O)N2CCC(CC(=O)OCCOC(=O)c3ccc(-c4c5nc(c(-c6ccc(S(=O)(=O)[O-])cc6)c6ccc([nH]6)c(-c6ccc(S(=O)(=O)[O-])cc6)c6nc(c(-c7ccc(S(=O)(=O)[O-])cc7)c7ccc4[nH]7)C=C6)C=C5)cc3)CC2)C1
REMARK SMILES IDX 16 1 15 2 13 3 14 4 12 5 11 6 6 7 7 8 8 9 9 10 82 11 10 12
REMARK SMILES IDX 81 13 5 14 2 15 3 16 83 17 4 18 1 19 17 23 18 24 19 25 20 26
REMARK SMILES IDX 21 27 22 28 80 29 23 30 79 31 24 32 25 33 26 34 73 35 27 36
REMARK SMILES IDX 78 37 72 38 74 39 28 40 77 41 71 42 70 43 29 45 59 46 40 47
REMARK SMILES IDX 58 48 41 49 44 50 57 51 75 52 42 53 43 54 56 56 76 57 45 58
REMARK SMILES IDX 30 59 31 60 39 61 32 62 38 63 33 64 34 65 35 66 36 67 37 68
REMARK SMILES IDX 60 69 61 70 69 71 62 72 68 73 63 74 64 75 65 76 66 77 67 78
REMARK SMILES IDX 46 79 47 80 55 81 48 82 54 83 49 84 50 85 51 86 52 87 53 88
REMARK H PARENT 1 20 1 21 1 22 74 44 44 55
REMARK Flexibility Score: inf
ROOT
ATOM      1  C   UNL A   1      33.455  30.803  27.284  1.00  0.00     0.274 C 
ENDROOT
BRANCH   1   2
ATOM      2  O   UNL A   1      33.517  29.694  26.367  1.00  0.00    -0.462 OA
BRANCH   2   3
ATOM      3  C   UNL A   1      32.747  28.618  26.658  1.00  0.00     0.306 C 
ATOM      4  O   UNL A   1      32.100  28.482  27.688  1.00  0.00    -0.252 OA
BRANCH   3   5
ATOM      5  C   UNL A   1      32.823  27.541  25.595  1.00  0.00     0.126 C 
BRANCH   5   6
ATOM      6  C   UNL A   1      33.020  26.102  26.103  1.00  0.00     0.003 C 
ATOM      7  C   UNL A   1      32.872  22.592  24.319  1.00  0.00     0.229 C 
ATOM      8  O   UNL A   1      32.028  23.026  23.528  1.00  0.00    -0.274 OA
ATOM      9  N   UNL A   1      33.140  23.246  25.514  1.00  0.00    -0.342 N 
ATOM     10  C   UNL A   1      32.009  23.785  26.250  1.00  0.00     0.120 C 
ATOM     11  C   UNL A   1      34.386  23.966  25.737  1.00  0.00     0.120 C 
ATOM     12  C   UNL A   1      31.757  25.246  25.895  1.00  0.00     0.026 C 
ATOM     13  C   UNL A   1      34.222  25.450  25.386  1.00  0.00     0.026 C 
BRANCH   7  14
ATOM     14  C   UNL A   1      33.440  21.175  24.120  1.00  0.00     0.107 C 
ATOM     15  C   UNL A   1      33.392  18.966  25.202  1.00  0.00     0.205 C 
ATOM     16  C   UNL A   1      32.358  19.084  24.138  1.00  0.00     0.033 C 
ATOM     17  C   UNL A   1      33.953  20.393  25.329  1.00  0.00     0.087 C 
ATOM     18  C   UNL A   1      32.395  20.273  23.529  1.00  0.00    -0.012 C 
BRANCH  15  19
ATOM     19  N   UNL A   1      32.816  18.505  26.449  1.00  0.00    -0.352 N 
ATOM     20  H   UNL A   1      32.348  17.611  26.296  1.00  0.00     0.345 HD
ATOM     21  H   UNL A   1      32.139  19.189  26.786  1.00  0.00     0.345 HD
ATOM     22  H   UNL A   1      33.555  18.386  27.142  1.00  0.00     0.345 HD
ENDBRANCH  15  19
ENDBRANCH   7  14
ENDBRANCH   5   6
ENDBRANCH   3   5
ENDBRANCH   2   3
ENDBRANCH   1   2
BRANCH   1  23
ATOM     23  C   UNL A   1      34.850  31.225  27.746  1.00  0.00     0.275 C 
BRANCH  23  24
ATOM     24  O   UNL A   1      35.616  30.094  28.197  1.00  0.00    -0.458 OA
BRANCH  24  25
ATOM     25  C   UNL A   1      36.334  30.293  29.327  1.00  0.00     0.338 C 
ATOM     26  O   UNL A   1      35.909  30.590  30.429  1.00  0.00    -0.246 OA
BRANCH  25  27
ATOM     27  C   UNL A   1      37.747  29.983  29.062  1.00  0.00     0.060 A 
ATOM     28  C   UNL A   1      38.134  29.700  27.749  1.00  0.00     0.016 A 
ATOM     29  C   UNL A   1      38.667  29.910  30.109  1.00  0.00     0.016 A 
ATOM     30  C   UNL A   1      39.453  29.339  27.478  1.00  0.00     0.010 A 
ATOM     31  C   UNL A   1      39.989  29.549  29.833  1.00  0.00     0.010 A 
ATOM     32  C   UNL A   1      40.388  29.251  28.519  1.00  0.00    -0.014 A 
BRANCH  32  33
ATOM     33  C   UNL A   1      41.777  28.815  28.239  1.00  0.00     0.031 A 
ATOM     34  C   UNL A   1      42.893  29.821  28.234  1.00  0.00     0.074 A 
ATOM     35  C   UNL A   1      42.035  27.518  27.983  1.00  0.00     0.049 A 
ATOM     36  N   UNL A   1      44.157  29.650  27.944  1.00  0.00    -0.248 NA
ATOM     37  C   UNL A   1      42.539  31.201  28.600  1.00  0.00     0.031 C 
ATOM     38  C   UNL A   1      41.043  26.442  27.990  1.00  0.00     0.029 A 
ATOM     39  N   UNL A   1      43.212  26.888  27.662  1.00  0.00    -0.354 N 
ATOM     40  C   UNL A   1      44.747  30.903  28.071  1.00  0.00     0.074 A 
ATOM     41  C   UNL A   1      43.699  31.826  28.452  1.00  0.00     0.031 C 
ATOM     42  C   UNL A   1      41.654  25.283  27.689  1.00  0.00     0.029 A 
ATOM     43  C   UNL A   1      43.068  25.542  27.427  1.00  0.00     0.049 A 
ATOM     44  H   UNL A   1      44.075  27.356  27.606  1.00  0.00     0.167 HD
ATOM     45  C   UNL A   1      46.043  31.249  27.886  1.00  0.00     0.031 A 
ATOM     46  C   UNL A   1      43.967  24.623  27.023  1.00  0.00     0.031 A 
ATOM     47  C   UNL A   1      47.083  30.328  27.507  1.00  0.00     0.049 A 
ATOM     48  C   UNL A   1      45.390  25.043  26.778  1.00  0.00     0.074 A 
ATOM     49  C   UNL A   1      48.430  30.583  27.317  1.00  0.00     0.029 A 
ATOM     50  N   UNL A   1      46.892  28.979  27.254  1.00  0.00    -0.354 N 
ATOM     51  N   UNL A   1      45.934  26.229  26.914  1.00  0.00    -0.248 NA
ATOM     52  C   UNL A   1      46.321  23.999  26.325  1.00  0.00     0.031 C 
ATOM     53  C   UNL A   1      49.046  29.396  26.905  1.00  0.00     0.029 A 
ATOM     54  C   UNL A   1      48.091  28.391  26.889  1.00  0.00     0.049 A 
ATOM     55  H   UNL A   1      46.030  28.507  27.325  1.00  0.00     0.167 HD
ATOM     56  C   UNL A   1      47.274  26.070  26.582  1.00  0.00     0.074 A 
ATOM     57  C   UNL A   1      47.462  24.672  26.252  1.00  0.00     0.031 C 
ATOM     58  C   UNL A   1      48.261  26.999  26.556  1.00  0.00     0.031 A 
BRANCH  45  59
ATOM     59  C   UNL A   1      46.404  32.700  28.055  1.00  0.00    -0.014 A 
ATOM     60  C   UNL A   1      46.832  33.206  29.294  1.00  0.00     0.010 A 
ATOM     61  C   UNL A   1      46.352  33.562  26.944  1.00  0.00     0.010 A 
ATOM     62  C   UNL A   1      47.167  34.557  29.429  1.00  0.00     0.020 A 
ATOM     63  C   UNL A   1      46.708  34.908  27.069  1.00  0.00     0.020 A 
ATOM     64  C   UNL A   1      47.097  35.400  28.316  1.00  0.00     0.054 A 
BRANCH  64  65
ATOM     65  S   UNL A   1      47.555  37.145  28.510  1.00  0.00     0.124 S 
ATOM     66  O   UNL A   1      47.004  37.737  27.294  1.00  0.00    -0.237 OA
ATOM     67  O   UNL A   1      46.879  37.519  29.750  1.00  0.00    -0.237 OA
ATOM     68  O   UNL A   1      49.013  37.116  28.584  1.00  0.00    -0.744 OA
ENDBRANCH  64  65
ENDBRANCH  45  59
BRANCH  46  69
ATOM     69  C   UNL A   1      43.536  23.215  26.809  1.00  0.00    -0.014 A 
ATOM     70  C   UNL A   1      43.579  22.641  25.527  1.00  0.00     0.010 A 
ATOM     71  C   UNL A   1      43.103  22.435  27.897  1.00  0.00     0.010 A 
ATOM     72  C   UNL A   1      43.189  21.313  25.335  1.00  0.00     0.020 A 
ATOM     73  C   UNL A   1      42.736  21.099  27.712  1.00  0.00     0.020 A 
ATOM     74  C   UNL A   1      42.773  20.548  26.429  1.00  0.00     0.054 A 
BRANCH  74  75
ATOM     75  S   UNL A   1      42.337  18.807  26.169  1.00  0.00     0.124 S 
ATOM     76  O   UNL A   1      42.440  18.263  27.519  1.00  0.00    -0.237 OA
ATOM     77  O   UNL A   1      40.985  18.896  25.623  1.00  0.00    -0.237 OA
ATOM     78  O   UNL A   1      43.350  18.339  25.225  1.00  0.00    -0.744 OA
ENDBRANCH  74  75
ENDBRANCH  46  69
BRANCH  58  79
ATOM     79  C   UNL A   1      49.642  26.531  26.183  1.00  0.00    -0.014 A 
ATOM     80  C   UNL A   1      50.167  26.767  24.900  1.00  0.00     0.010 A 
ATOM     81  C   UNL A   1      50.445  25.895  27.147  1.00  0.00     0.010 A 
ATOM     82  C   UNL A   1      51.462  26.350  24.579  1.00  0.00     0.020 A 
ATOM     83  C   UNL A   1      51.748  25.498  26.837  1.00  0.00     0.020 A 
ATOM     84  C   UNL A   1      52.244  25.716  25.551  1.00  0.00     0.054 A 
BRANCH  84  85
ATOM     85  S   UNL A   1      53.938  25.223  25.127  1.00  0.00     0.124 S 
ATOM     86  O   UNL A   1      54.158  25.941  23.875  1.00  0.00    -0.237 OA
ATOM     87  O   UNL A   1      54.710  25.703  26.270  1.00  0.00    -0.237 OA
ATOM     88  O   UNL A   1      53.854  23.769  25.006  1.00  0.00    -0.744 OA
ENDBRANCH  84  85
ENDBRANCH  58  79
ENDBRANCH  32  33
ENDBRANCH  25  27
ENDBRANCH  24  25
ENDBRANCH  23  24
ENDBRANCH   1  23
TORSDOF 17
ENDMDL
MODEL 2
REMARK VINA RESULT:     -10.7      3.096      3.926
REMARK SMILES [NH3+][C@H]1C=C[C@@H](C(=O)N2CCC(CC(=O)OCCOC(=O)c3ccc(-c4c5nc(c(-c6ccc(S(=O)(=O)[O-])cc6)c6ccc([nH]6)c(-c6ccc(S(=O)(=O)[O-])cc6)c6nc(c(-c7ccc(S(=O)(=O)[O-])cc7)c7ccc4[nH]7)C=C6)C=C5)cc3)CC2)C1
REMARK SMILES IDX 16 1 15 2 13 3 14 4 12 5 11 6 6 7 7 8 8 9 9 10 82 11 10 12
REMARK SMILES IDX 81 13 5 14 2 15 3 16 83 17 4 18 1 19 17 23 18 24 19 25 20 26
REMARK SMILES IDX 21 27 22 28 80 29 23 30 79 31 24 32 25 33 26 34 73 35 27 36
REMARK SMILES IDX 78 37 72 38 74 39 28 40 77 41 71 42 70 43 29 45 59 46 40 47
REMARK SMILES IDX 58 48 41 49 44 50 57 51 75 52 42 53 43 54 56 56 76 57 45 58
REMARK SMILES IDX 30 59 31 60 39 61 32 62 38 63 33 64 34 65 35 66 36 67 37 68
REMARK SMILES IDX 60 69 61 70 69 71 62 72 68 73 63 74 64 75 65 76 66 77 67 78
REMARK SMILES IDX 46 79 47 80 55 81 48 82 54 83 49 84 50 85 51 86 52 87 53 88
REMARK H PARENT 1 20 1 21 1 22 74 44 44 55
REMARK Flexibility Score: inf
ROOT
ATOM      1  C   UNL A   1      32.239  29.107  25.363  1.00  0.00     0.274 C 
ENDROOT
BRANCH   1   2
ATOM      2  O   UNL A   1      31.103  29.547  24.595  1.00  0.00    -0.462 OA
BRANCH   2   3
ATOM      3  C   UNL A   1      30.619  28.682  23.671  1.00  0.00     0.306 C 
ATOM      4  O   UNL A   1      30.310  28.986  22.526  1.00  0.00    -0.252 OA
BRANCH   3   5
ATOM      5  C   UNL A   1      30.421  27.286  24.225  1.00  0.00     0.126 C 
BRANCH   5   6
ATOM      6  C   UNL A   1      30.999  26.136  23.380  1.00  0.00     0.003 C 
ATOM      7  C   UNL A   1      34.322  24.033  23.643  1.00  0.00     0.229 C 
ATOM      8  O   UNL A   1      34.905  25.010  24.126  1.00  0.00    -0.274 OA
ATOM      9  N   UNL A   1      33.124  24.180  22.956  1.00  0.00    -0.342 N 
ATOM     10  C   UNL A   1      33.001  25.319  22.061  1.00  0.00     0.120 C 
ATOM     11  C   UNL A   1      31.856  23.726  23.510  1.00  0.00     0.120 C 
ATOM     12  C   UNL A   1      32.358  26.511  22.761  1.00  0.00     0.026 C 
ATOM     13  C   UNL A   1      31.149  24.868  24.249  1.00  0.00     0.026 C 
BRANCH   7  14
ATOM     14  C   UNL A   1      35.051  22.680  23.557  1.00  0.00     0.107 C 
ATOM     15  C   UNL A   1      37.086  21.590  24.405  1.00  0.00     0.205 C 
ATOM     16  C   UNL A   1      35.905  21.300  25.263  1.00  0.00     0.033 C 
ATOM     17  C   UNL A   1      36.573  22.653  23.419  1.00  0.00     0.087 C 
ATOM     18  C   UNL A   1      34.790  21.869  24.794  1.00  0.00    -0.012 C 
BRANCH  15  19
ATOM     19  N   UNL A   1      38.200  22.083  25.190  1.00  0.00    -0.352 N 
ATOM     20  H   UNL A   1      38.791  21.299  25.471  1.00  0.00     0.345 HD
ATOM     21  H   UNL A   1      37.848  22.558  26.021  1.00  0.00     0.345 HD
ATOM     22  H   UNL A   1      38.748  22.736  24.631  1.00  0.00     0.345 HD
ENDBRANCH  15  19
ENDBRANCH   7  14
ENDBRANCH   5   6
ENDBRANCH   3   5
ENDBRANCH   2   3
ENDBRANCH   1   2
BRANCH   1  23
ATOM     23  C   UNL A   1      32.498  30.028  26.557  1.00  0.00     0.275 C 
BRANCH  23  24
ATOM     24  O   UNL A   1      33.643  29.594  27.312  1.00  0.00    -0.458 OA
BRANCH  24  25
ATOM     25  C   UNL A   1      34.336  30.578  27.931  1.00  0.00     0.338 C 
ATOM     26  O   UNL A   1      33.909  31.651  28.317  1.00  0.00    -0.246 OA
BRANCH  25  27
ATOM     27  C   UNL A   1      35.709  30.116  28.184  1.00  0.00     0.060 A 
ATOM     28  C   UNL A   1      36.071  29.781  29.492  1.00  0.00     0.016 A 
ATOM     29  C   UNL A   1      36.647  30.075  27.152  1.00  0.00     0.016 A 
ATOM     30  C   UNL A   1      37.383  29.403  29.774  1.00  0.00     0.010 A 
ATOM     31  C   UNL A   1      37.961  29.695  27.438  1.00  0.00     0.010 A 
ATOM     32  C   UNL A   1      38.340  29.367  28.751  1.00  0.00    -0.014 A 
BRANCH  32  33
ATOM     33  C   UNL A   1      39.748  29.018  29.059  1.00  0.00     0.031 A 
ATOM     34  C   UNL A   1      40.656  30.041  29.681  1.00  0.00     0.074 A 
ATOM     35  C   UNL A   1      40.212  27.786  28.775  1.00  0.00     0.049 A 
ATOM     36  N   UNL A   1      41.931  29.952  29.959  1.00  0.00    -0.248 NA
ATOM     37  C   UNL A   1      40.050  31.335  30.031  1.00  0.00     0.031 C 
ATOM     38  C   UNL A   1      39.420  26.696  28.200  1.00  0.00     0.029 A 
ATOM     39  N   UNL A   1      41.465  27.247  28.926  1.00  0.00    -0.354 N 
ATOM     40  C   UNL A   1      42.287  31.183  30.498  1.00  0.00     0.074 A 
ATOM     41  C   UNL A   1      41.096  32.005  30.495  1.00  0.00     0.031 C 
ATOM     42  C   UNL A   1      40.207  25.618  28.049  1.00  0.00     0.029 A 
ATOM     43  C   UNL A   1      41.564  25.952  28.476  1.00  0.00     0.049 A 
ATOM     44  H   UNL A   1      42.220  27.740  29.320  1.00  0.00     0.167 HD
ATOM     45  C   UNL A   1      43.497  31.589  30.952  1.00  0.00     0.031 A 
ATOM     46  C   UNL A   1      42.632  25.134  28.394  1.00  0.00     0.031 A 
ATOM     47  C   UNL A   1      44.680  30.768  30.953  1.00  0.00     0.049 A 
ATOM     48  C   UNL A   1      43.974  25.624  28.861  1.00  0.00     0.074 A 
ATOM     49  C   UNL A   1      45.945  31.086  31.414  1.00  0.00     0.029 A 
ATOM     50  N   UNL A   1      44.745  29.472  30.467  1.00  0.00    -0.354 N 
ATOM     51  N   UNL A   1      44.292  26.788  29.378  1.00  0.00    -0.248 NA
ATOM     52  C   UNL A   1      45.103  24.692  28.732  1.00  0.00     0.031 C 
ATOM     53  C   UNL A   1      46.788  29.996  31.164  1.00  0.00     0.029 A 
ATOM     54  C   UNL A   1      46.034  28.982  30.594  1.00  0.00     0.049 A 
ATOM     55  H   UNL A   1      43.986  28.972  30.087  1.00  0.00     0.167 HD
ATOM     56  C   UNL A   1      45.652  26.719  29.655  1.00  0.00     0.074 A 
ATOM     57  C   UNL A   1      46.095  25.397  29.259  1.00  0.00     0.031 C 
ATOM     58  C   UNL A   1      46.461  27.666  30.190  1.00  0.00     0.031 A 
BRANCH  45  59
ATOM     59  C   UNL A   1      43.611  33.003  31.453  1.00  0.00    -0.014 A 
ATOM     60  C   UNL A   1      43.892  34.067  30.579  1.00  0.00     0.010 A 
ATOM     61  C   UNL A   1      43.395  33.275  32.817  1.00  0.00     0.010 A 
ATOM     62  C   UNL A   1      43.990  35.375  31.065  1.00  0.00     0.020 A 
ATOM     63  C   UNL A   1      43.469  34.583  33.303  1.00  0.00     0.020 A 
ATOM     64  C   UNL A   1      43.784  35.623  32.425  1.00  0.00     0.054 A 
BRANCH  64  65
ATOM     65  S   UNL A   1      43.898  37.330  33.030  1.00  0.00     0.124 S 
ATOM     66  O   UNL A   1      45.217  37.339  33.656  1.00  0.00    -0.237 OA
ATOM     67  O   UNL A   1      43.781  38.114  31.803  1.00  0.00    -0.237 OA
ATOM     68  O   UNL A   1      42.771  37.449  33.950  1.00  0.00    -0.744 OA
ENDBRANCH  64  65
ENDBRANCH  45  59
BRANCH  46  69
ATOM     69  C   UNL A   1      42.471  23.768  27.827  1.00  0.00    -0.014 A 
ATOM     70  C   UNL A   1      42.326  23.579  26.443  1.00  0.00     0.010 A 
ATOM     71  C   UNL A   1      42.486  22.644  28.675  1.00  0.00     0.010 A 
ATOM     72  C   UNL A   1      42.192  22.292  25.915  1.00  0.00     0.020 A 
ATOM     73  C   UNL A   1      42.377  21.354  28.148  1.00  0.00     0.020 A 
ATOM     74  C   UNL A   1      42.222  21.187  26.770  1.00  0.00     0.054 A 
BRANCH  74  75
ATOM     75  S   UNL A   1      42.115  19.522  26.059  1.00  0.00     0.124 S 
ATOM     76  O   UNL A   1      42.478  18.682  27.195  1.00  0.00    -0.237 OA
ATOM     77  O   UNL A   1      40.719  19.446  25.635  1.00  0.00    -0.237 OA
ATOM     78  O   UNL A   1      43.086  19.554  24.967  1.00  0.00    -0.744 OA
ENDBRANCH  74  75
ENDBRANCH  46  69
BRANCH  58  79
ATOM     79  C   UNL A   1      47.905  27.301  30.407  1.00  0.00    -0.014 A 
ATOM     80  C   UNL A   1      48.895  27.673  29.481  1.00  0.00     0.010 A 
ATOM     81  C   UNL A   1      48.281  26.624  31.582  1.00  0.00     0.010 A 
ATOM     82  C   UNL A   1      50.235  27.349  29.713  1.00  0.00     0.020 A 
ATOM     83  C   UNL A   1      49.623  26.320  31.827  1.00  0.00     0.020 A 
ATOM     84  C   UNL A   1      50.590  26.672  30.885  1.00  0.00     0.054 A 
BRANCH  84  85
ATOM     85  S   UNL A   1      52.340  26.301  31.187  1.00  0.00     0.124 S 
ATOM     86  O   UNL A   1      52.801  27.523  31.838  1.00  0.00    -0.237 OA
ATOM     87  O   UNL A   1      52.277  25.119  32.042  1.00  0.00    -0.237 OA
ATOM     88  O   UNL A   1      52.879  26.066  29.849  1.00  0.00    -0.744 OA
ENDBRANCH  84  85
ENDBRANCH  58  79
ENDBRANCH  32  33
ENDBRANCH  25  27
ENDBRANCH  24  25
ENDBRANCH  23  24
ENDBRANCH   1  23
TORSDOF 17
ENDMDL
MODEL 3
REMARK VINA RESULT:     -10.7      6.776     12.372
REMARK SMILES [NH3+][C@H]1C=C[C@@H](C(=O)N2CCC(CC(=O)OCCOC(=O)c3ccc(-c4c5nc(c(-c6ccc(S(=O)(=O)[O-])cc6)c6ccc([nH]6)c(-c6ccc(S(=O)(=O)[O-])cc6)c6nc(c(-c7ccc(S(=O)(=O)[O-])cc7)c7ccc4[nH]7)C=C6)C=C5)cc3)CC2)C1
REMARK SMILES IDX 16 1 15 2 13 3 14 4 12 5 11 6 6 7 7 8 8 9 9 10 82 11 10 12
REMARK SMILES IDX 81 13 5 14 2 15 3 16 83 17 4 18 1 19 17 23 18 24 19 25 20 26
REMARK SMILES IDX 21 27 22 28 80 29 23 30 79 31 24 32 25 33 26 34 73 35 27 36
REMARK SMILES IDX 78 37 72 38 74 39 28 40 77 41 71 42 70 43 29 45 59 46 40 47
REMARK SMILES IDX 58 48 41 49 44 50 57 51 75 52 42 53 43 54 56 56 76 57 45 58
REMARK SMILES IDX 30 59 31 60 39 61 32 62 38 63 33 64 34 65 35 66 36 67 37 68
REMARK SMILES IDX 60 69 61 70 69 71 62 72 68 73 63 74 64 75 65 76 66 77 67 78
REMARK SMILES IDX 46 79 47 80 55 81 48 82 54 83 49 84 50 85 51 86 52 87 53 88
REMARK H PARENT 1 20 1 21 1 22 74 44 44 55
REMARK Flexibility Score: inf
ROOT
ATOM      1  C   UNL A   1      39.724  21.567  26.440  1.00  0.00     0.274 C 
ENDROOT
BRANCH   1   2
ATOM      2  O   UNL A   1      38.452  22.150  26.100  1.00  0.00    -0.462 OA
BRANCH   2   3
ATOM      3  C   UNL A   1      37.733  21.528  25.134  1.00  0.00     0.306 C 
ATOM      4  O   UNL A   1      37.767  20.325  24.907  1.00  0.00    -0.252 OA
BRANCH   3   5
ATOM      5  C   UNL A   1      36.922  22.494  24.296  1.00  0.00     0.126 C 
BRANCH   5   6
ATOM      6  C   UNL A   1      35.446  22.660  24.695  1.00  0.00     0.003 C 
ATOM      7  C   UNL A   1      32.919  25.671  24.404  1.00  0.00     0.229 C 
ATOM      8  O   UNL A   1      33.852  26.470  24.534  1.00  0.00    -0.274 OA
ATOM      9  N   UNL A   1      33.058  24.339  24.771  1.00  0.00    -0.342 N 
ATOM     10  C   UNL A   1      33.782  24.055  26.000  1.00  0.00     0.120 C 
ATOM     11  C   UNL A   1      33.130  23.270  23.784  1.00  0.00     0.120 C 
ATOM     12  C   UNL A   1      35.258  23.787  25.728  1.00  0.00     0.026 C 
ATOM     13  C   UNL A   1      34.590  22.948  23.442  1.00  0.00     0.026 C 
BRANCH   7  14
ATOM     14  C   UNL A   1      31.507  26.197  24.093  1.00  0.00     0.107 C 
ATOM     15  C   UNL A   1      30.356  28.325  23.645  1.00  0.00     0.205 C 
ATOM     16  C   UNL A   1      30.761  27.639  22.387  1.00  0.00     0.033 C 
ATOM     17  C   UNL A   1      31.023  27.490  24.751  1.00  0.00     0.087 C 
ATOM     18  C   UNL A   1      31.365  26.471  22.622  1.00  0.00    -0.012 C 
BRANCH  15  19
ATOM     19  N   UNL A   1      30.809  29.701  23.665  1.00  0.00    -0.352 N 
ATOM     20  H   UNL A   1      30.496  30.149  24.527  1.00  0.00     0.345 HD
ATOM     21  H   UNL A   1      30.422  30.199  22.864  1.00  0.00     0.345 HD
ATOM     22  H   UNL A   1      31.828  29.725  23.622  1.00  0.00     0.345 HD
ENDBRANCH  15  19
ENDBRANCH   7  14
ENDBRANCH   5   6
ENDBRANCH   3   5
ENDBRANCH   2   3
ENDBRANCH   1   2
BRANCH   1  23
ATOM     23  C   UNL A   1      40.870  22.556  26.217  1.00  0.00     0.275 C 
BRANCH  23  24
ATOM     24  O   UNL A   1      40.452  23.907  26.482  1.00  0.00    -0.458 OA
BRANCH  24  25
ATOM     25  C   UNL A   1      41.418  24.847  26.357  1.00  0.00     0.338 C 
ATOM     26  O   UNL A   1      42.186  24.996  25.423  1.00  0.00    -0.246 OA
BRANCH  25  27
ATOM     27  C   UNL A   1      41.343  25.772  27.498  1.00  0.00     0.060 A 
ATOM     28  C   UNL A   1      40.259  25.665  28.374  1.00  0.00     0.016 A 
ATOM     29  C   UNL A   1      42.298  26.775  27.665  1.00  0.00     0.016 A 
ATOM     30  C   UNL A   1      40.126  26.570  29.426  1.00  0.00     0.010 A 
ATOM     31  C   UNL A   1      42.163  27.679  28.721  1.00  0.00     0.010 A 
ATOM     32  C   UNL A   1      41.071  27.589  29.602  1.00  0.00    -0.014 A 
BRANCH  32  33
ATOM     33  C   UNL A   1      40.902  28.585  30.688  1.00  0.00     0.031 A 
ATOM     34  C   UNL A   1      41.769  28.513  31.913  1.00  0.00     0.074 A 
ATOM     35  C   UNL A   1      39.967  29.547  30.577  1.00  0.00     0.049 A 
ATOM     36  N   UNL A   1      41.728  29.244  32.997  1.00  0.00    -0.248 NA
ATOM     37  C   UNL A   1      42.817  27.480  31.921  1.00  0.00     0.031 C 
ATOM     38  C   UNL A   1      39.086  29.741  29.423  1.00  0.00     0.029 A 
ATOM     39  N   UNL A   1      39.600  30.540  31.450  1.00  0.00    -0.354 N 
ATOM     40  C   UNL A   1      42.728  28.748  33.826  1.00  0.00     0.074 A 
ATOM     41  C   UNL A   1      43.350  27.646  33.123  1.00  0.00     0.031 C 
ATOM     42  C   UNL A   1      38.281  30.790  29.660  1.00  0.00     0.029 A 
ATOM     43  C   UNL A   1      38.560  31.315  30.995  1.00  0.00     0.049 A 
ATOM     44  H   UNL A   1      40.039  30.684  32.319  1.00  0.00     0.167 HD
ATOM     45  C   UNL A   1      43.092  29.174  35.059  1.00  0.00     0.031 A 
ATOM     46  C   UNL A   1      37.890  32.319  31.594  1.00  0.00     0.031 A 
ATOM     47  C   UNL A   1      42.471  30.271  35.755  1.00  0.00     0.049 A 
ATOM     48  C   UNL A   1      38.282  32.742  32.983  1.00  0.00     0.074 A 
ATOM     49  C   UNL A   1      42.786  30.789  36.998  1.00  0.00     0.029 A 
ATOM     50  N   UNL A   1      41.405  31.014  35.271  1.00  0.00    -0.354 N 
ATOM     51  N   UNL A   1      39.238  32.271  33.748  1.00  0.00    -0.248 NA
ATOM     52  C   UNL A   1      37.505  33.832  33.589  1.00  0.00     0.031 C 
ATOM     53  C   UNL A   1      41.881  31.817  37.286  1.00  0.00     0.029 A 
ATOM     54  C   UNL A   1      41.035  31.972  36.200  1.00  0.00     0.049 A 
ATOM     55  H   UNL A   1      40.975  30.881  34.395  1.00  0.00     0.167 HD
ATOM     56  C   UNL A   1      39.189  33.020  34.917  1.00  0.00     0.074 A 
ATOM     57  C   UNL A   1      38.119  33.983  34.755  1.00  0.00     0.031 C 
ATOM     58  C   UNL A   1      39.964  32.920  36.026  1.00  0.00     0.031 A 
BRANCH  45  59
ATOM     59  C   UNL A   1      44.195  28.423  35.755  1.00  0.00    -0.014 A 
ATOM     60  C   UNL A   1      45.546  28.753  35.547  1.00  0.00     0.010 A 
ATOM     61  C   UNL A   1      43.872  27.397  36.661  1.00  0.00     0.010 A 
ATOM     62  C   UNL A   1      46.556  28.045  36.206  1.00  0.00     0.020 A 
ATOM     63  C   UNL A   1      44.877  26.703  37.340  1.00  0.00     0.020 A 
ATOM     64  C   UNL A   1      46.214  27.021  37.095  1.00  0.00     0.054 A 
BRANCH  64  65
ATOM     65  S   UNL A   1      47.541  26.130  37.953  1.00  0.00     0.124 S 
ATOM     66  O   UNL A   1      46.982  25.978  39.294  1.00  0.00    -0.237 OA
ATOM     67  O   UNL A   1      47.654  24.896  37.178  1.00  0.00    -0.237 OA
ATOM     68  O   UNL A   1      48.686  27.030  37.854  1.00  0.00    -0.744 OA
ENDBRANCH  64  65
ENDBRANCH  45  59
BRANCH  46  69
ATOM     69  C   UNL A   1      36.763  32.981  30.882  1.00  0.00    -0.014 A 
ATOM     70  C   UNL A   1      35.433  32.733  31.261  1.00  0.00     0.010 A 
ATOM     71  C   UNL A   1      37.022  33.884  29.834  1.00  0.00     0.010 A 
ATOM     72  C   UNL A   1      34.380  33.370  30.600  1.00  0.00     0.020 A 
ATOM     73  C   UNL A   1      35.972  34.541  29.187  1.00  0.00     0.020 A 
ATOM     74  C   UNL A   1      34.656  34.273  29.569  1.00  0.00     0.054 A 
BRANCH  74  75
ATOM     75  S   UNL A   1      33.278  35.142  28.769  1.00  0.00     0.124 S 
ATOM     76  O   UNL A   1      32.531  35.647  29.916  1.00  0.00    -0.237 OA
ATOM     77  O   UNL A   1      33.962  36.151  27.964  1.00  0.00    -0.237 OA
ATOM     78  O   UNL A   1      32.613  34.092  28.001  1.00  0.00    -0.744 OA
ENDBRANCH  74  75
ENDBRANCH  46  69
BRANCH  58  79
ATOM     79  C   UNL A   1      39.702  33.894  37.143  1.00  0.00    -0.014 A 
ATOM     80  C   UNL A   1      38.937  33.527  38.264  1.00  0.00     0.010 A 
ATOM     81  C   UNL A   1      40.277  35.177  37.094  1.00  0.00     0.010 A 
ATOM     82  C   UNL A   1      38.728  34.436  39.305  1.00  0.00     0.020 A 
ATOM     83  C   UNL A   1      40.089  36.081  38.143  1.00  0.00     0.020 A 
ATOM     84  C   UNL A   1      39.305  35.709  39.236  1.00  0.00     0.054 A 
BRANCH  84  85
ATOM     85  S   UNL A   1      39.058  36.858  40.619  1.00  0.00     0.124 S 
ATOM     86  O   UNL A   1      40.418  37.027  41.120  1.00  0.00    -0.237 OA
ATOM     87  O   UNL A   1      38.479  38.029  39.966  1.00  0.00    -0.237 OA
ATOM     88  O   UNL A   1      38.150  36.137  41.509  1.00  0.00    -0.744 OA
ENDBRANCH  84  85
ENDBRANCH  58  79
ENDBRANCH  32  33
ENDBRANCH  25  27
ENDBRANCH  24  25
ENDBRANCH  23  24
ENDBRANCH   1  23
TORSDOF 17
ENDMDL
