MODEL 1
REMARK VINA RESULT:     -10.3      0.000      0.000
REMARK SMILES CC[C@@H](C)NC(=O)Cn1cccc1C(=O)OCCOC(=O)c1ccc(-c2c3nc(c(-c4ccc(S(=O)(=O)[O-])cc4)c4ccc([nH]4)c(-c4ccc(S(=O)(=O)[O-])cc4)c4nc(c(-c5ccc(S(=O)(=O)[O-])cc5)c5ccc2[nH]5)C=C4)C=C3)cc1
REMARK SMILES IDX 17 1 16 2 14 3 15 4 13 5 9 6 10 7 11 8 12 9 8 10 6 11 5 12
REMARK SMILES IDX 7 14 3 15 4 16 2 17 1 18 18 19 19 20 20 21 21 22 22 23 23 24
REMARK SMILES IDX 81 25 24 26 80 27 25 28 26 29 27 30 74 31 28 32 79 33 73 34
REMARK SMILES IDX 75 35 29 36 78 37 72 38 71 39 30 41 60 42 41 43 59 44 42 45
REMARK SMILES IDX 45 46 58 47 76 48 43 49 44 50 57 52 77 53 46 54 31 55 32 56
REMARK SMILES IDX 40 57 33 58 39 59 34 60 35 61 36 62 37 63 38 64 61 65 62 66
REMARK SMILES IDX 70 67 63 68 69 69 64 70 65 71 66 72 67 73 68 74 47 75 48 76
REMARK SMILES IDX 56 77 49 78 55 79 50 80 51 81 52 82 53 83 54 84
REMARK H PARENT 5 13 75 40 45 51
REMARK Flexibility Score: inf
ROOT
ATOM      1  C   UNL A   1      33.329  30.038  27.129  1.00  0.00     0.275 C 
ENDROOT
BRANCH   1   2
ATOM      2  O   UNL A   1      32.497  29.448  26.111  1.00  0.00    -0.457 OA
BRANCH   2   3
ATOM      3  C   UNL A   1      31.784  28.346  26.484  1.00  0.00     0.355 C 
ATOM      4  O   UNL A   1      31.397  28.136  27.630  1.00  0.00    -0.244 OA
BRANCH   3   5
ATOM      5  C   UNL A   1      31.429  27.526  25.337  1.00  0.00     0.128 A 
ATOM      6  N   UNL A   1      31.844  26.238  25.021  1.00  0.00    -0.333 N 
ATOM      7  C   UNL A   1      31.532  25.972  23.708  1.00  0.00     0.087 A 
ATOM      8  C   UNL A   1      30.726  26.982  23.242  1.00  0.00     0.020 A 
ATOM      9  C   UNL A   1      30.649  27.949  24.265  1.00  0.00     0.035 A 
BRANCH   6  10
ATOM     10  C   UNL A   1      32.498  25.308  25.939  1.00  0.00     0.222 C 
BRANCH  10  11
ATOM     11  C   UNL A   1      33.674  24.528  25.379  1.00  0.00     0.240 C 
ATOM     12  N   UNL A   1      33.511  23.290  24.822  1.00  0.00    -0.352 N 
ATOM     13  H   UNL A   1      34.341  22.856  24.519  1.00  0.00     0.163 HD
ATOM     14  O   UNL A   1      34.829  24.950  25.481  1.00  0.00    -0.273 OA
BRANCH  12  15
ATOM     15  C   UNL A   1      32.293  22.509  24.608  1.00  0.00     0.078 C 
ATOM     16  C   UNL A   1      32.454  21.146  25.278  1.00  0.00     0.031 C 
BRANCH  15  17
ATOM     17  C   UNL A   1      32.023  22.367  23.099  1.00  0.00     0.021 C 
ATOM     18  C   UNL A   1      32.071  20.923  22.622  1.00  0.00     0.006 C 
ENDBRANCH  15  17
ENDBRANCH  12  15
ENDBRANCH  10  11
ENDBRANCH   6  10
ENDBRANCH   3   5
ENDBRANCH   2   3
ENDBRANCH   1   2
BRANCH   1  19
ATOM     19  C   UNL A   1      34.717  29.397  27.183  1.00  0.00     0.275 C 
BRANCH  19  20
ATOM     20  O   UNL A   1      35.770  30.347  27.374  1.00  0.00    -0.458 OA
BRANCH  20  21
ATOM     21  C   UNL A   1      36.303  30.280  28.614  1.00  0.00     0.338 C 
ATOM     22  O   UNL A   1      36.059  31.019  29.555  1.00  0.00    -0.246 OA
BRANCH  21  23
ATOM     23  C   UNL A   1      37.427  29.352  28.670  1.00  0.00     0.060 A 
ATOM     24  C   UNL A   1      37.543  28.575  29.828  1.00  0.00     0.016 A 
ATOM     25  C   UNL A   1      38.503  29.558  27.798  1.00  0.00     0.016 A 
ATOM     26  C   UNL A   1      38.790  28.108  30.188  1.00  0.00     0.010 A 
ATOM     27  C   UNL A   1      39.756  29.116  28.175  1.00  0.00     0.010 A 
ATOM     28  C   UNL A   1      39.894  28.426  29.385  1.00  0.00    -0.014 A 
BRANCH  28  29
ATOM     29  C   UNL A   1      41.188  27.832  29.745  1.00  0.00     0.031 A 
ATOM     30  C   UNL A   1      41.416  26.558  28.893  1.00  0.00     0.074 A 
ATOM     31  C   UNL A   1      41.863  28.452  30.770  1.00  0.00     0.049 A 
ATOM     32  N   UNL A   1      42.191  25.546  29.110  1.00  0.00    -0.248 NA
ATOM     33  C   UNL A   1      40.624  26.339  27.639  1.00  0.00     0.031 C 
ATOM     34  C   UNL A   1      41.458  29.724  31.429  1.00  0.00     0.029 A 
ATOM     35  N   UNL A   1      43.009  28.161  31.482  1.00  0.00    -0.354 N 
ATOM     36  C   UNL A   1      42.127  24.688  27.986  1.00  0.00     0.074 A 
ATOM     37  C   UNL A   1      41.090  25.189  27.144  1.00  0.00     0.031 C 
ATOM     38  C   UNL A   1      42.263  30.020  32.479  1.00  0.00     0.029 A 
ATOM     39  C   UNL A   1      43.285  28.999  32.605  1.00  0.00     0.049 A 
ATOM     40  H   UNL A   1      43.603  27.417  31.229  1.00  0.00     0.167 HD
ATOM     41  C   UNL A   1      43.007  23.663  27.787  1.00  0.00     0.031 A 
ATOM     42  C   UNL A   1      44.239  28.835  33.582  1.00  0.00     0.031 A 
ATOM     43  C   UNL A   1      43.841  23.528  28.931  1.00  0.00     0.049 A 
ATOM     44  C   UNL A   1      45.035  27.693  33.112  1.00  0.00     0.074 A 
ATOM     45  C   UNL A   1      43.573  23.043  30.185  1.00  0.00     0.029 A 
ATOM     46  N   UNL A   1      44.963  24.319  28.970  1.00  0.00    -0.354 N 
ATOM     47  N   UNL A   1      45.864  27.725  32.114  1.00  0.00    -0.248 NA
ATOM     48  C   UNL A   1      44.822  26.383  33.740  1.00  0.00     0.031 C 
ATOM     49  C   UNL A   1      44.202  23.990  31.015  1.00  0.00     0.029 A 
ATOM     50  C   UNL A   1      45.049  24.802  30.252  1.00  0.00     0.049 A 
ATOM     51  H   UNL A   1      45.581  24.504  28.226  1.00  0.00     0.167 HD
ATOM     52  C   UNL A   1      45.941  26.405  31.762  1.00  0.00     0.074 A 
ATOM     53  C   UNL A   1      45.584  25.641  32.941  1.00  0.00     0.031 C 
ATOM     54  C   UNL A   1      45.759  26.037  30.468  1.00  0.00     0.031 A 
BRANCH  41  55
ATOM     55  C   UNL A   1      43.353  22.830  26.586  1.00  0.00    -0.014 A 
ATOM     56  C   UNL A   1      42.711  21.568  26.485  1.00  0.00     0.010 A 
ATOM     57  C   UNL A   1      44.486  23.050  25.792  1.00  0.00     0.010 A 
ATOM     58  C   UNL A   1      43.257  20.521  25.745  1.00  0.00     0.020 A 
ATOM     59  C   UNL A   1      45.022  22.007  25.011  1.00  0.00     0.020 A 
ATOM     60  C   UNL A   1      44.433  20.739  25.037  1.00  0.00     0.054 A 
BRANCH  60  61
ATOM     61  S   UNL A   1      45.205  19.311  24.226  1.00  0.00     0.124 S 
ATOM     62  O   UNL A   1      46.623  19.653  24.279  1.00  0.00    -0.237 OA
ATOM     63  O   UNL A   1      44.797  18.203  25.087  1.00  0.00    -0.237 OA
ATOM     64  O   UNL A   1      44.607  19.308  22.893  1.00  0.00    -0.744 OA
ENDBRANCH  60  61
ENDBRANCH  41  55
BRANCH  42  65
ATOM     65  C   UNL A   1      44.628  29.348  34.963  1.00  0.00    -0.014 A 
ATOM     66  C   UNL A   1      43.773  29.739  36.000  1.00  0.00     0.010 A 
ATOM     67  C   UNL A   1      46.014  29.299  35.315  1.00  0.00     0.010 A 
ATOM     68  C   UNL A   1      44.257  29.890  37.331  1.00  0.00     0.020 A 
ATOM     69  C   UNL A   1      46.495  29.384  36.625  1.00  0.00     0.020 A 
ATOM     70  C   UNL A   1      45.602  29.645  37.644  1.00  0.00     0.054 A 
BRANCH  70  71
ATOM     71  S   UNL A   1      46.167  29.502  39.370  1.00  0.00     0.124 S 
ATOM     72  O   UNL A   1      44.913  29.484  40.115  1.00  0.00    -0.237 OA
ATOM     73  O   UNL A   1      46.915  28.248  39.360  1.00  0.00    -0.237 OA
ATOM     74  O   UNL A   1      46.988  30.698  39.563  1.00  0.00    -0.744 OA
ENDBRANCH  70  71
ENDBRANCH  42  65
BRANCH  54  75
ATOM     75  C   UNL A   1      46.008  27.119  29.421  1.00  0.00    -0.014 A 
ATOM     76  C   UNL A   1      44.903  27.752  28.821  1.00  0.00     0.010 A 
ATOM     77  C   UNL A   1      47.287  27.490  28.956  1.00  0.00     0.010 A 
ATOM     78  C   UNL A   1      45.063  28.719  27.817  1.00  0.00     0.020 A 
ATOM     79  C   UNL A   1      47.460  28.459  27.945  1.00  0.00     0.020 A 
ATOM     80  C   UNL A   1      46.341  29.075  27.387  1.00  0.00     0.054 A 
BRANCH  80  81
ATOM     81  S   UNL A   1      46.500  30.361  26.110  1.00  0.00     0.124 S 
ATOM     82  O   UNL A   1      45.297  31.166  26.307  1.00  0.00    -0.237 OA
ATOM     83  O   UNL A   1      47.754  31.015  26.477  1.00  0.00    -0.237 OA
ATOM     84  O   UNL A   1      46.537  29.611  24.855  1.00  0.00    -0.744 OA
ENDBRANCH  80  81
ENDBRANCH  54  75
ENDBRANCH  28  29
ENDBRANCH  21  23
ENDBRANCH  20  21
ENDBRANCH  19  20
ENDBRANCH   1  19
TORSDOF 18
ENDMDL
MODEL 2
REMARK VINA RESULT:     -10.0      1.826      3.384
REMARK SMILES CC[C@@H](C)NC(=O)Cn1cccc1C(=O)OCCOC(=O)c1ccc(-c2c3nc(c(-c4ccc(S(=O)(=O)[O-])cc4)c4ccc([nH]4)c(-c4ccc(S(=O)(=O)[O-])cc4)c4nc(c(-c5ccc(S(=O)(=O)[O-])cc5)c5ccc2[nH]5)C=C4)C=C3)cc1
REMARK SMILES IDX 17 1 16 2 14 3 15 4 13 5 9 6 10 7 11 8 12 9 8 10 6 11 5 12
REMARK SMILES IDX 7 14 3 15 4 16 2 17 1 18 18 19 19 20 20 21 21 22 22 23 23 24
REMARK SMILES IDX 81 25 24 26 80 27 25 28 26 29 27 30 74 31 28 32 79 33 73 34
REMARK SMILES IDX 75 35 29 36 78 37 72 38 71 39 30 41 60 42 41 43 59 44 42 45
REMARK SMILES IDX 45 46 58 47 76 48 43 49 44 50 57 52 77 53 46 54 31 55 32 56
REMARK SMILES IDX 40 57 33 58 39 59 34 60 35 61 36 62 37 63 38 64 61 65 62 66
REMARK SMILES IDX 70 67 63 68 69 69 64 70 65 71 66 72 67 73 68 74 47 75 48 76
REMARK SMILES IDX 56 77 49 78 55 79 50 80 51 81 52 82 53 83 54 84
REMARK H PARENT 5 13 75 40 45 51
REMARK Flexibility Score: inf
ROOT
ATOM      1  C   UNL A   1      33.909  28.262  25.811  1.00  0.00     0.275 C 
ENDROOT
BRANCH   1   2
ATOM      2  O   UNL A   1      32.521  28.298  25.426  1.00  0.00    -0.457 OA
BRANCH   2   3
ATOM      3  C   UNL A   1      32.272  28.299  24.084  1.00  0.00     0.355 C 
ATOM      4  O   UNL A   1      32.931  28.934  23.266  1.00  0.00    -0.244 OA
BRANCH   3   5
ATOM      5  C   UNL A   1      31.224  27.354  23.735  1.00  0.00     0.128 A 
ATOM      6  N   UNL A   1      29.846  27.540  23.726  1.00  0.00    -0.333 N 
ATOM      7  C   UNL A   1      29.226  26.315  23.651  1.00  0.00     0.087 A 
ATOM      8  C   UNL A   1      30.179  25.362  23.387  1.00  0.00     0.020 A 
ATOM      9  C   UNL A   1      31.429  26.013  23.426  1.00  0.00     0.035 A 
BRANCH   6  10
ATOM     10  C   UNL A   1      29.165  28.832  23.776  1.00  0.00     0.222 C 
BRANCH  10  11
ATOM     11  C   UNL A   1      27.854  28.929  23.017  1.00  0.00     0.240 C 
ATOM     12  N   UNL A   1      27.593  29.969  22.169  1.00  0.00    -0.352 N 
ATOM     13  H   UNL A   1      26.701  29.953  21.751  1.00  0.00     0.163 HD
ATOM     14  O   UNL A   1      26.946  28.113  23.202  1.00  0.00    -0.273 OA
BRANCH  12  15
ATOM     15  C   UNL A   1      28.433  31.102  21.786  1.00  0.00     0.078 C 
ATOM     16  C   UNL A   1      28.281  32.207  22.830  1.00  0.00     0.031 C 
BRANCH  15  17
ATOM     17  C   UNL A   1      28.036  31.596  20.383  1.00  0.00     0.021 C 
ATOM     18  C   UNL A   1      27.605  33.054  20.367  1.00  0.00     0.006 C 
ENDBRANCH  15  17
ENDBRANCH  12  15
ENDBRANCH  10  11
ENDBRANCH   6  10
ENDBRANCH   3   5
ENDBRANCH   2   3
ENDBRANCH   1   2
BRANCH   1  19
ATOM     19  C   UNL A   1      34.171  29.041  27.102  1.00  0.00     0.275 C 
BRANCH  19  20
ATOM     20  O   UNL A   1      35.480  28.822  27.638  1.00  0.00    -0.458 OA
BRANCH  20  21
ATOM     21  C   UNL A   1      36.090  29.976  27.988  1.00  0.00     0.338 C 
ATOM     22  O   UNL A   1      35.775  31.104  27.641  1.00  0.00    -0.246 OA
BRANCH  21  23
ATOM     23  C   UNL A   1      37.363  29.733  28.657  1.00  0.00     0.060 A 
ATOM     24  C   UNL A   1      38.521  30.051  27.938  1.00  0.00     0.016 A 
ATOM     25  C   UNL A   1      37.381  28.867  29.757  1.00  0.00     0.016 A 
ATOM     26  C   UNL A   1      39.691  29.388  28.244  1.00  0.00     0.010 A 
ATOM     27  C   UNL A   1      38.546  28.181  30.042  1.00  0.00     0.010 A 
ATOM     28  C   UNL A   1      39.681  28.422  29.259  1.00  0.00    -0.014 A 
BRANCH  28  29
ATOM     29  C   UNL A   1      40.964  27.806  29.623  1.00  0.00     0.031 A 
ATOM     30  C   UNL A   1      41.170  26.525  28.775  1.00  0.00     0.074 A 
ATOM     31  C   UNL A   1      41.647  28.416  30.648  1.00  0.00     0.049 A 
ATOM     32  N   UNL A   1      41.926  25.499  28.996  1.00  0.00    -0.248 NA
ATOM     33  C   UNL A   1      40.377  26.317  27.520  1.00  0.00     0.031 C 
ATOM     34  C   UNL A   1      41.264  29.697  31.303  1.00  0.00     0.029 A 
ATOM     35  N   UNL A   1      42.786  28.106  31.363  1.00  0.00    -0.354 N 
ATOM     36  C   UNL A   1      41.848  24.640  27.874  1.00  0.00     0.074 A 
ATOM     37  C   UNL A   1      40.823  25.157  27.029  1.00  0.00     0.031 C 
ATOM     38  C   UNL A   1      42.072  29.981  32.353  1.00  0.00     0.029 A 
ATOM     39  C   UNL A   1      43.075  28.943  32.485  1.00  0.00     0.049 A 
ATOM     40  H   UNL A   1      43.367  27.351  31.113  1.00  0.00     0.167 HD
ATOM     41  C   UNL A   1      42.711  23.599  27.680  1.00  0.00     0.031 A 
ATOM     42  C   UNL A   1      44.024  28.764  33.463  1.00  0.00     0.031 A 
ATOM     43  C   UNL A   1      43.540  23.452  28.826  1.00  0.00     0.049 A 
ATOM     44  C   UNL A   1      44.800  27.606  32.998  1.00  0.00     0.074 A 
ATOM     45  C   UNL A   1      43.261  22.976  30.081  1.00  0.00     0.029 A 
ATOM     46  N   UNL A   1      44.676  24.223  28.865  1.00  0.00    -0.354 N 
ATOM     47  N   UNL A   1      45.632  27.621  32.002  1.00  0.00    -0.248 NA
ATOM     48  C   UNL A   1      44.562  26.302  33.630  1.00  0.00     0.031 C 
ATOM     49  C   UNL A   1      43.905  23.913  30.910  1.00  0.00     0.029 A 
ATOM     50  C   UNL A   1      44.768  24.708  30.146  1.00  0.00     0.049 A 
ATOM     51  H   UNL A   1      45.298  24.394  28.122  1.00  0.00     0.167 HD
ATOM     52  C   UNL A   1      45.685  26.298  31.654  1.00  0.00     0.074 A 
ATOM     53  C   UNL A   1      45.312  25.544  32.835  1.00  0.00     0.031 C 
ATOM     54  C   UNL A   1      45.500  25.930  30.361  1.00  0.00     0.031 A 
BRANCH  41  55
ATOM     55  C   UNL A   1      43.044  22.757  26.482  1.00  0.00    -0.014 A 
ATOM     56  C   UNL A   1      42.503  21.444  26.460  1.00  0.00     0.010 A 
ATOM     57  C   UNL A   1      44.100  23.040  25.607  1.00  0.00     0.010 A 
ATOM     58  C   UNL A   1      43.083  20.420  25.715  1.00  0.00     0.020 A 
ATOM     59  C   UNL A   1      44.668  22.018  24.821  1.00  0.00     0.020 A 
ATOM     60  C   UNL A   1      44.188  20.708  24.923  1.00  0.00     0.054 A 
BRANCH  60  61
ATOM     61  S   UNL A   1      45.020  19.320  24.100  1.00  0.00     0.124 S 
ATOM     62  O   UNL A   1      44.573  19.465  22.718  1.00  0.00    -0.237 OA
ATOM     63  O   UNL A   1      46.432  19.619  24.334  1.00  0.00    -0.237 OA
ATOM     64  O   UNL A   1      44.513  18.147  24.807  1.00  0.00    -0.744 OA
ENDBRANCH  60  61
ENDBRANCH  41  55
BRANCH  42  65
ATOM     65  C   UNL A   1      44.420  29.274  34.844  1.00  0.00    -0.014 A 
ATOM     66  C   UNL A   1      43.642  29.274  36.008  1.00  0.00     0.010 A 
ATOM     67  C   UNL A   1      45.782  29.669  35.032  1.00  0.00     0.010 A 
ATOM     68  C   UNL A   1      44.237  29.480  37.286  1.00  0.00     0.020 A 
ATOM     69  C   UNL A   1      46.392  29.813  36.282  1.00  0.00     0.020 A 
ATOM     70  C   UNL A   1      45.619  29.680  37.417  1.00  0.00     0.054 A 
BRANCH  70  71
ATOM     71  S   UNL A   1      46.441  29.608  39.041  1.00  0.00     0.124 S 
ATOM     72  O   UNL A   1      47.806  29.231  38.691  1.00  0.00    -0.237 OA
ATOM     73  O   UNL A   1      46.270  30.967  39.548  1.00  0.00    -0.237 OA
ATOM     74  O   UNL A   1      45.681  28.590  39.766  1.00  0.00    -0.744 OA
ENDBRANCH  70  71
ENDBRANCH  42  65
BRANCH  54  75
ATOM     75  C   UNL A   1      45.770  27.004  29.311  1.00  0.00    -0.014 A 
ATOM     76  C   UNL A   1      44.682  27.571  28.622  1.00  0.00     0.010 A 
ATOM     77  C   UNL A   1      47.060  27.431  28.930  1.00  0.00     0.010 A 
ATOM     78  C   UNL A   1      44.866  28.527  27.611  1.00  0.00     0.020 A 
ATOM     79  C   UNL A   1      47.257  28.389  27.913  1.00  0.00     0.020 A 
ATOM     80  C   UNL A   1      46.152  28.939  27.265  1.00  0.00     0.054 A 
BRANCH  80  81
ATOM     81  S   UNL A   1      46.340  30.208  25.975  1.00  0.00     0.124 S 
ATOM     82  O   UNL A   1      47.522  30.945  26.414  1.00  0.00    -0.237 OA
ATOM     83  O   UNL A   1      46.519  29.405  24.768  1.00  0.00    -0.237 OA
ATOM     84  O   UNL A   1      45.088  30.963  26.036  1.00  0.00    -0.744 OA
ENDBRANCH  80  81
ENDBRANCH  54  75
ENDBRANCH  28  29
ENDBRANCH  21  23
ENDBRANCH  20  21
ENDBRANCH  19  20
ENDBRANCH   1  19
TORSDOF 18
ENDMDL
MODEL 3
REMARK VINA RESULT:     -10.0      4.046      9.571
REMARK SMILES CC[C@@H](C)NC(=O)Cn1cccc1C(=O)OCCOC(=O)c1ccc(-c2c3nc(c(-c4ccc(S(=O)(=O)[O-])cc4)c4ccc([nH]4)c(-c4ccc(S(=O)(=O)[O-])cc4)c4nc(c(-c5ccc(S(=O)(=O)[O-])cc5)c5ccc2[nH]5)C=C4)C=C3)cc1
REMARK SMILES IDX 17 1 16 2 14 3 15 4 13 5 9 6 10 7 11 8 12 9 8 10 6 11 5 12
REMARK SMILES IDX 7 14 3 15 4 16 2 17 1 18 18 19 19 20 20 21 21 22 22 23 23 24
REMARK SMILES IDX 81 25 24 26 80 27 25 28 26 29 27 30 74 31 28 32 79 33 73 34
REMARK SMILES IDX 75 35 29 36 78 37 72 38 71 39 30 41 60 42 41 43 59 44 42 45
REMARK SMILES IDX 45 46 58 47 76 48 43 49 44 50 57 52 77 53 46 54 31 55 32 56
REMARK SMILES IDX 40 57 33 58 39 59 34 60 35 61 36 62 37 63 38 64 61 65 62 66
REMARK SMILES IDX 70 67 63 68 69 69 64 70 65 71 66 72 67 73 68 74 47 75 48 76
REMARK SMILES IDX 56 77 49 78 55 79 50 80 51 81 52 82 53 83 54 84
REMARK H PARENT 5 13 75 40 45 51
REMARK Flexibility Score: inf
ROOT
ATOM      1  C   UNL A   1      42.443  19.026  26.477  1.00  0.00     0.275 C 
ENDROOT
BRANCH   1   2
ATOM      2  O   UNL A   1      41.739  20.264  26.256  1.00  0.00    -0.457 OA
BRANCH   2   3
ATOM      3  C   UNL A   1      40.407  20.156  25.984  1.00  0.00     0.355 C 
ATOM      4  O   UNL A   1      39.868  19.121  25.601  1.00  0.00    -0.244 OA
BRANCH   3   5
ATOM      5  C   UNL A   1      39.690  21.372  26.330  1.00  0.00     0.128 A 
ATOM      6  N   UNL A   1      38.546  21.908  25.750  1.00  0.00    -0.333 N 
ATOM      7  C   UNL A   1      38.399  23.212  26.163  1.00  0.00     0.087 A 
ATOM      8  C   UNL A   1      39.301  23.451  27.171  1.00  0.00     0.020 A 
ATOM      9  C   UNL A   1      40.101  22.296  27.286  1.00  0.00     0.035 A 
BRANCH   6  10
ATOM     10  C   UNL A   1      37.638  21.197  24.853  1.00  0.00     0.222 C 
BRANCH  10  11
ATOM     11  C   UNL A   1      36.514  22.020  24.247  1.00  0.00     0.240 C 
ATOM     12  N   UNL A   1      35.296  22.127  24.859  1.00  0.00    -0.352 N 
ATOM     13  H   UNL A   1      34.627  22.657  24.367  1.00  0.00     0.163 HD
ATOM     14  O   UNL A   1      36.636  22.553  23.141  1.00  0.00    -0.273 OA
BRANCH  12  15
ATOM     15  C   UNL A   1      34.832  21.576  26.131  1.00  0.00     0.078 C 
ATOM     16  C   UNL A   1      33.668  20.624  25.864  1.00  0.00     0.031 C 
BRANCH  15  17
ATOM     17  C   UNL A   1      34.419  22.720  27.076  1.00  0.00     0.021 C 
ATOM     18  C   UNL A   1      33.148  22.416  27.854  1.00  0.00     0.006 C 
ENDBRANCH  15  17
ENDBRANCH  12  15
ENDBRANCH  10  11
ENDBRANCH   6  10
ENDBRANCH   3   5
ENDBRANCH   2   3
ENDBRANCH   1   2
BRANCH   1  19
ATOM     19  C   UNL A   1      43.451  18.728  25.365  1.00  0.00     0.275 C 
BRANCH  19  20
ATOM     20  O   UNL A   1      43.624  19.818  24.454  1.00  0.00    -0.458 OA
BRANCH  20  21
ATOM     21  C   UNL A   1      44.919  20.000  24.113  1.00  0.00     0.338 C 
ATOM     22  O   UNL A   1      45.672  19.168  23.631  1.00  0.00    -0.246 OA
BRANCH  21  23
ATOM     23  C   UNL A   1      45.436  21.269  24.613  1.00  0.00     0.060 A 
ATOM     24  C   UNL A   1      45.701  21.342  25.985  1.00  0.00     0.016 A 
ATOM     25  C   UNL A   1      45.270  22.412  23.822  1.00  0.00     0.016 A 
ATOM     26  C   UNL A   1      45.667  22.577  26.598  1.00  0.00     0.010 A 
ATOM     27  C   UNL A   1      45.204  23.644  24.443  1.00  0.00     0.010 A 
ATOM     28  C   UNL A   1      45.368  23.711  25.831  1.00  0.00    -0.014 A 
BRANCH  28  29
ATOM     29  C   UNL A   1      45.435  25.019  26.497  1.00  0.00     0.031 A 
ATOM     30  C   UNL A   1      44.005  25.607  26.604  1.00  0.00     0.074 A 
ATOM     31  C   UNL A   1      46.698  25.468  26.800  1.00  0.00     0.049 A 
ATOM     32  N   UNL A   1      43.624  26.833  26.761  1.00  0.00    -0.248 NA
ATOM     33  C   UNL A   1      42.810  24.714  26.457  1.00  0.00     0.031 C 
ATOM     34  C   UNL A   1      47.957  24.689  26.637  1.00  0.00     0.029 A 
ATOM     35  N   UNL A   1      47.204  26.652  27.296  1.00  0.00    -0.354 N 
ATOM     36  C   UNL A   1      42.217  26.846  26.909  1.00  0.00     0.074 A 
ATOM     37  C   UNL A   1      41.762  25.521  26.639  1.00  0.00     0.031 C 
ATOM     38  C   UNL A   1      49.048  25.443  26.917  1.00  0.00     0.029 A 
ATOM     39  C   UNL A   1      48.628  26.773  27.313  1.00  0.00     0.049 A 
ATOM     40  H   UNL A   1      46.617  27.373  27.620  1.00  0.00     0.167 HD
ATOM     41  C   UNL A   1      41.529  27.945  27.338  1.00  0.00     0.031 A 
ATOM     42  C   UNL A   1      49.389  27.886  27.577  1.00  0.00     0.031 A 
ATOM     43  C   UNL A   1      42.420  29.049  27.440  1.00  0.00     0.049 A 
ATOM     44  C   UNL A   1      48.410  28.889  28.018  1.00  0.00     0.074 A 
ATOM     45  C   UNL A   1      43.019  29.812  26.471  1.00  0.00     0.029 A 
ATOM     46  N   UNL A   1      43.110  29.175  28.621  1.00  0.00    -0.354 N 
ATOM     47  N   UNL A   1      47.791  28.872  29.159  1.00  0.00    -0.248 NA
ATOM     48  C   UNL A   1      48.015  29.945  27.078  1.00  0.00     0.031 C 
ATOM     49  C   UNL A   1      44.338  29.923  26.947  1.00  0.00     0.029 A 
ATOM     50  C   UNL A   1      44.399  29.501  28.281  1.00  0.00     0.049 A 
ATOM     51  H   UNL A   1      42.751  29.054  29.530  1.00  0.00     0.167 HD
ATOM     52  C   UNL A   1      46.688  29.640  28.898  1.00  0.00     0.074 A 
ATOM     53  C   UNL A   1      47.040  30.504  27.789  1.00  0.00     0.031 C 
ATOM     54  C   UNL A   1      45.451  29.176  29.209  1.00  0.00     0.031 A 
BRANCH  41  55
ATOM     55  C   UNL A   1      40.136  28.139  27.863  1.00  0.00    -0.014 A 
ATOM     56  C   UNL A   1      39.402  29.228  27.324  1.00  0.00     0.010 A 
ATOM     57  C   UNL A   1      39.671  27.567  29.054  1.00  0.00     0.010 A 
ATOM     58  C   UNL A   1      38.345  29.819  28.014  1.00  0.00     0.020 A 
ATOM     59  C   UNL A   1      38.579  28.136  29.739  1.00  0.00     0.020 A 
ATOM     60  C   UNL A   1      37.961  29.288  29.239  1.00  0.00     0.054 A 
BRANCH  60  61
ATOM     61  S   UNL A   1      36.699  30.182  30.188  1.00  0.00     0.124 S 
ATOM     62  O   UNL A   1      37.397  31.409  30.555  1.00  0.00    -0.237 OA
ATOM     63  O   UNL A   1      35.627  30.343  29.207  1.00  0.00    -0.237 OA
ATOM     64  O   UNL A   1      36.392  29.277  31.292  1.00  0.00    -0.744 OA
ENDBRANCH  60  61
ENDBRANCH  41  55
BRANCH  42  65
ATOM     65  C   UNL A   1      50.815  28.412  27.448  1.00  0.00    -0.014 A 
ATOM     66  C   UNL A   1      51.501  29.240  28.343  1.00  0.00     0.010 A 
ATOM     67  C   UNL A   1      51.609  27.899  26.374  1.00  0.00     0.010 A 
ATOM     68  C   UNL A   1      52.916  29.392  28.263  1.00  0.00     0.020 A 
ATOM     69  C   UNL A   1      53.003  27.987  26.318  1.00  0.00     0.020 A 
ATOM     70  C   UNL A   1      53.663  28.709  27.291  1.00  0.00     0.054 A 
BRANCH  70  71
ATOM     71  S   UNL A   1      55.479  28.618  27.378  1.00  0.00     0.124 S 
ATOM     72  O   UNL A   1      55.889  29.193  26.101  1.00  0.00    -0.237 OA
ATOM     73  O   UNL A   1      55.785  29.420  28.560  1.00  0.00    -0.237 OA
ATOM     74  O   UNL A   1      55.745  27.188  27.530  1.00  0.00    -0.744 OA
ENDBRANCH  70  71
ENDBRANCH  42  65
BRANCH  54  75
ATOM     75  C   UNL A   1      45.389  28.097  30.286  1.00  0.00    -0.014 A 
ATOM     76  C   UNL A   1      45.566  28.468  31.632  1.00  0.00     0.010 A 
ATOM     77  C   UNL A   1      45.228  26.721  30.019  1.00  0.00     0.010 A 
ATOM     78  C   UNL A   1      45.569  27.518  32.665  1.00  0.00     0.020 A 
ATOM     79  C   UNL A   1      45.233  25.756  31.049  1.00  0.00     0.020 A 
ATOM     80  C   UNL A   1      45.395  26.166  32.372  1.00  0.00     0.054 A 
BRANCH  80  81
ATOM     81  S   UNL A   1      45.368  24.976  33.747  1.00  0.00     0.124 S 
ATOM     82  O   UNL A   1      46.776  24.880  34.122  1.00  0.00    -0.237 OA
ATOM     83  O   UNL A   1      44.508  25.643  34.722  1.00  0.00    -0.237 OA
ATOM     84  O   UNL A   1      44.806  23.762  33.154  1.00  0.00    -0.744 OA
ENDBRANCH  80  81
ENDBRANCH  54  75
ENDBRANCH  28  29
ENDBRANCH  21  23
ENDBRANCH  20  21
ENDBRANCH  19  20
ENDBRANCH   1  19
TORSDOF 18
ENDMDL
